# generated using pymatgen
data_Ho2Sc5Zn(Co3Sn11)2
_symmetry_space_group_name_H-M   'P 1'
_cell_length_a   9.54435559
_cell_length_b   9.54291265
_cell_length_c   9.80671000
_cell_angle_alpha   90.00000000
_cell_angle_beta   90.10682534
_cell_angle_gamma   119.99500421
_symmetry_Int_Tables_number   1
_chemical_formula_structural   Ho2Sc5Zn(Co3Sn11)2
_chemical_formula_sum   'Ho2 Sc5 Zn1 Co6 Sn22'
_cell_volume   773.57491523
_cell_formula_units_Z   1
loop_
 _symmetry_equiv_pos_site_id
 _symmetry_equiv_pos_as_xyz
  1  'x, y, z'
loop_
 _atom_site_type_symbol
 _atom_site_label
 _atom_site_symmetry_multiplicity
 _atom_site_fract_x
 _atom_site_fract_y
 _atom_site_fract_z
 _atom_site_occupancy
  Ho  Ho0  1  0.962223  0.481111  0.692312  1
  Ho  Ho1  1  0.000953  0.000476  0.000671  1
  Sc  Sc2  1  0.482044  0.517306  0.306848  1
  Sc  Sc3  1  0.518928  0.482709  0.692394  1
  Sc  Sc4  1  0.482044  0.964738  0.306848  1
  Sc  Sc5  1  0.518928  0.036218  0.692394  1
  Sc  Sc6  1  0.035181  0.517591  0.308542  1
  Zn  Zn7  1  0.000576  0.000288  0.499480  1
  Co  Co8  1  0.831143  0.168421  0.198964  1
  Co  Co9  1  0.169146  0.831929  0.800713  1
  Co  Co10  1  0.831143  0.662724  0.198964  1
  Co  Co11  1  0.169146  0.337215  0.800713  1
  Co  Co12  1  0.338345  0.169174  0.199370  1
  Co  Co13  1  0.660198  0.830097  0.801546  1
  Sn  Sn14  1  0.116907  0.883974  0.279077  1
  Sn  Sn15  1  0.882821  0.112788  0.720955  1
  Sn  Sn16  1  0.116907  0.232932  0.279077  1
  Sn  Sn17  1  0.882821  0.770033  0.720955  1
  Sn  Sn18  1  0.765206  0.882603  0.278663  1
  Sn  Sn19  1  0.235017  0.117508  0.721445  1
  Sn  Sn20  1  0.779415  0.216532  0.453435  1
  Sn  Sn21  1  0.223416  0.785654  0.542232  1
  Sn  Sn22  1  0.779415  0.562883  0.453435  1
  Sn  Sn23  1  0.223416  0.437762  0.542232  1
  Sn  Sn24  1  0.438609  0.219305  0.455578  1
  Sn  Sn25  1  0.562058  0.781029  0.544240  1
  Sn  Sn26  1  0.347231  0.000042  0.000124  1
  Sn  Sn27  1  0.653027  0.000021  0.000201  1
  Sn  Sn28  1  0.000413  0.346955  0.001186  1
  Sn  Sn29  1  0.000413  0.653458  0.001186  1
  Sn  Sn30  1  0.653027  0.653006  0.000201  1
  Sn  Sn31  1  0.347231  0.347188  0.000124  1
  Sn  Sn32  1  0.332358  0.666179  0.136887  1
  Sn  Sn33  1  0.658408  0.329204  0.867831  1
  Sn  Sn34  1  0.334863  0.667433  0.821610  1
  Sn  Sn35  1  0.667025  0.333512  0.179565  1
