# generated using pymatgen
data_Ho15Th(ScIr3)4
_symmetry_space_group_name_H-M   'P 1'
_cell_length_a   10.82110708
_cell_length_b   10.74016730
_cell_length_c   6.24832034
_cell_angle_alpha   90.13649294
_cell_angle_beta   89.81827780
_cell_angle_gamma   90.18248341
_symmetry_Int_Tables_number   1
_chemical_formula_structural   Ho15Th(ScIr3)4
_chemical_formula_sum   'Ho15 Th1 Sc4 Ir12'
_cell_volume   726.17353790
_cell_formula_units_Z   1
loop_
 _symmetry_equiv_pos_site_id
 _symmetry_equiv_pos_as_xyz
  1  'x, y, z'
loop_
 _atom_site_type_symbol
 _atom_site_label
 _atom_site_symmetry_multiplicity
 _atom_site_fract_x
 _atom_site_fract_y
 _atom_site_fract_z
 _atom_site_occupancy
  Ho  Ho0  1  0.289022  0.911440  0.876913  1
  Ho  Ho1  1  0.711632  0.085748  0.878100  1
  Ho  Ho2  1  0.711747  0.913561  0.377122  1
  Ho  Ho3  1  0.585671  0.788432  0.877377  1
  Ho  Ho4  1  0.590521  0.212674  0.378482  1
  Ho  Ho5  1  0.416199  0.784830  0.378186  1
  Ho  Ho6  1  0.416605  0.213059  0.876520  1
  Ho  Ho7  1  0.210993  0.414720  0.621842  1
  Ho  Ho8  1  0.210659  0.585272  0.122451  1
  Ho  Ho9  1  0.788415  0.414538  0.123225  1
  Ho  Ho10  1  0.788751  0.586370  0.622214  1
  Ho  Ho11  1  0.914175  0.711342  0.122846  1
  Ho  Ho12  1  0.913782  0.288839  0.620752  1
  Ho  Ho13  1  0.085691  0.710910  0.622768  1
  Ho  Ho14  1  0.082399  0.290542  0.118880  1
  Th  Th15  1  0.286832  0.087634  0.377764  1
  Sc  Sc16  1  0.996114  0.998532  0.501249  1
  Sc  Sc17  1  0.999454  0.999581  0.000234  1
  Sc  Sc18  1  0.500391  0.500303  0.001788  1
  Sc  Sc19  1  0.501199  0.499774  0.502260  1
  Ir  Ir20  1  0.852121  0.147868  0.249208  1
  Ir  Ir21  1  0.851960  0.852105  0.750370  1
  Ir  Ir22  1  0.148422  0.147985  0.745158  1
  Ir  Ir23  1  0.149520  0.853963  0.251824  1
  Ir  Ir24  1  0.648238  0.352871  0.750813  1
  Ir  Ir25  1  0.647498  0.648004  0.249819  1
  Ir  Ir26  1  0.352215  0.350591  0.252034  1
  Ir  Ir27  1  0.352374  0.647143  0.750922  1
  Ir  Ir28  1  0.498181  0.000490  0.122762  1
  Ir  Ir29  1  0.499888  0.999937  0.620825  1
  Ir  Ir30  1  0.999536  0.500197  0.877521  1
  Ir  Ir31  1  0.999798  0.500741  0.377773  1
