# generated using pymatgen
data_Ho20Ga8Sn3Bi
_symmetry_space_group_name_H-M   'P 1'
_cell_length_a   8.12635900
_cell_length_b   8.12635900
_cell_length_c   12.75194200
_cell_angle_alpha   90.00000000
_cell_angle_beta   90.00000000
_cell_angle_gamma   90.00000000
_symmetry_Int_Tables_number   1
_chemical_formula_structural   Ho20Ga8Sn3Bi
_chemical_formula_sum   'Ho20 Ga8 Sn3 Bi1'
_cell_volume   842.10905534
_cell_formula_units_Z   1
loop_
 _symmetry_equiv_pos_site_id
 _symmetry_equiv_pos_as_xyz
  1  'x, y, z'
loop_
 _atom_site_type_symbol
 _atom_site_label
 _atom_site_symmetry_multiplicity
 _atom_site_fract_x
 _atom_site_fract_y
 _atom_site_fract_z
 _atom_site_occupancy
  Ho  Ho0  1  0.000000  0.500000  0.750185  1
  Ho  Ho1  1  0.000000  0.500000  0.251459  1
  Ho  Ho2  1  0.500000  0.000000  0.254945  1
  Ho  Ho3  1  0.500000  0.000000  0.743479  1
  Ho  Ho4  1  0.656579  0.655661  0.606713  1
  Ho  Ho5  1  0.658800  0.348853  0.106932  1
  Ho  Ho6  1  0.843739  0.843968  0.393424  1
  Ho  Ho7  1  0.151625  0.841737  0.893006  1
  Ho  Ho8  1  0.343421  0.344339  0.606713  1
  Ho  Ho9  1  0.341200  0.651147  0.106932  1
  Ho  Ho10  1  0.156261  0.156032  0.393424  1
  Ho  Ho11  1  0.848375  0.158263  0.893006  1
  Ho  Ho12  1  0.656032  0.343739  0.393424  1
  Ho  Ho13  1  0.341737  0.348375  0.893006  1
  Ho  Ho14  1  0.155661  0.843421  0.606713  1
  Ho  Ho15  1  0.848853  0.841200  0.106932  1
  Ho  Ho16  1  0.343968  0.656261  0.393424  1
  Ho  Ho17  1  0.658263  0.651625  0.893006  1
  Ho  Ho18  1  0.844339  0.156579  0.606713  1
  Ho  Ho19  1  0.151147  0.158800  0.106932  1
  Ga  Ga20  1  0.854401  0.855535  0.751012  1
  Ga  Ga21  1  0.854406  0.144423  0.249010  1
  Ga  Ga22  1  0.644423  0.645594  0.249010  1
  Ga  Ga23  1  0.355535  0.645599  0.751012  1
  Ga  Ga24  1  0.145599  0.144465  0.751012  1
  Ga  Ga25  1  0.145594  0.855577  0.249010  1
  Ga  Ga26  1  0.355577  0.354406  0.249010  1
  Ga  Ga27  1  0.644465  0.354401  0.751012  1
  Sn  Sn28  1  0.000000  0.500000  0.500061  1
  Sn  Sn29  1  0.000000  0.500000  0.000224  1
  Sn  Sn30  1  0.500000  0.000000  0.499737  1
  Bi  Bi31  1  0.500000  0.000000  0.999523  1
