# generated using pymatgen
data_Pr2Er6Cd2IrPt
_symmetry_space_group_name_H-M   'P 1'
_cell_length_a   9.69429222
_cell_length_b   9.67193032
_cell_length_c   9.65813913
_cell_angle_alpha   60.20031757
_cell_angle_beta   59.97034967
_cell_angle_gamma   60.28570634
_symmetry_Int_Tables_number   1
_chemical_formula_structural   Pr2Er6Cd2IrPt
_chemical_formula_sum   'Pr4 Er12 Cd4 Ir2 Pt2'
_cell_volume   642.53177984
_cell_formula_units_Z   2
loop_
 _symmetry_equiv_pos_site_id
 _symmetry_equiv_pos_as_xyz
  1  'x, y, z'
loop_
 _atom_site_type_symbol
 _atom_site_label
 _atom_site_symmetry_multiplicity
 _atom_site_fract_x
 _atom_site_fract_y
 _atom_site_fract_z
 _atom_site_occupancy
  Pr  Pr0  1  0.564313  0.937284  0.563400  1
  Pr  Pr1  1  0.937284  0.564313  0.935003  1
  Pr  Pr2  1  0.563813  0.563813  0.936187  1
  Pr  Pr3  1  0.936406  0.936406  0.563594  1
  Er  Er4  1  0.352849  0.347450  0.344258  1
  Er  Er5  1  0.347450  0.352849  0.955443  1
  Er  Er6  1  0.353897  0.946137  0.352795  1
  Er  Er7  1  0.946137  0.353897  0.347170  1
  Er  Er8  1  0.809129  0.187927  0.186691  1
  Er  Er9  1  0.187927  0.809129  0.816253  1
  Er  Er10  1  0.188865  0.808603  0.189719  1
  Er  Er11  1  0.808603  0.188865  0.812813  1
  Er  Er12  1  0.189932  0.189932  0.810068  1
  Er  Er13  1  0.812314  0.812314  0.187686  1
  Er  Er14  1  0.947694  0.554771  0.551659  1
  Er  Er15  1  0.554771  0.947694  0.945876  1
  Cd  Cd16  1  0.583350  0.578020  0.578287  1
  Cd  Cd17  1  0.578020  0.583350  0.260343  1
  Cd  Cd18  1  0.578350  0.260538  0.582359  1
  Cd  Cd19  1  0.260538  0.578350  0.578752  1
  Ir  Ir20  1  0.138226  0.573915  0.148644  1
  Ir  Ir21  1  0.573915  0.138226  0.139214  1
  Pt  Pt22  1  0.146107  0.140108  0.142435  1
  Pt  Pt23  1  0.140108  0.146107  0.571349  1
