# generated using pymatgen
data_La2Al4PtAu3
_symmetry_space_group_name_H-M   'P 1'
_cell_length_a   4.50852800
_cell_length_b   4.50852800
_cell_length_c   10.26828900
_cell_angle_alpha   90.00000000
_cell_angle_beta   90.00000000
_cell_angle_gamma   90.00000000
_symmetry_Int_Tables_number   1
_chemical_formula_structural   La2Al4PtAu3
_chemical_formula_sum   'La2 Al4 Pt1 Au3'
_cell_volume   208.72171075
_cell_formula_units_Z   1
loop_
 _symmetry_equiv_pos_site_id
 _symmetry_equiv_pos_as_xyz
  1  'x, y, z'
loop_
 _atom_site_type_symbol
 _atom_site_label
 _atom_site_symmetry_multiplicity
 _atom_site_fract_x
 _atom_site_fract_y
 _atom_site_fract_z
 _atom_site_occupancy
  La  La0  1  0.250000  0.250000  0.748950  1
  La  La1  1  0.750002  0.750002  0.251655  1
  Al  Al2  1  0.250000  0.250000  0.134559  1
  Al  Al3  1  0.750002  0.750002  0.873520  1
  Al  Al4  1  0.750002  0.250000  0.493553  1
  Al  Al5  1  0.250000  0.750002  0.493553  1
  Pt  Pt6  1  0.250000  0.250000  0.375927  1
  Au  Au7  1  0.750002  0.250000  0.000164  1
  Au  Au8  1  0.250000  0.750002  0.000164  1
  Au  Au9  1  0.750002  0.750002  0.627954  1
