# generated using pymatgen
data_Nd2Lu2Al17SiIr6
_symmetry_space_group_name_H-M   'P 1'
_cell_length_a   7.56691282
_cell_length_b   7.56693203
_cell_length_c   9.45310000
_cell_angle_alpha   90.00000000
_cell_angle_beta   90.00000000
_cell_angle_gamma   119.56233508
_symmetry_Int_Tables_number   1
_chemical_formula_structural   Nd2Lu2Al17SiIr6
_chemical_formula_sum   'Nd2 Lu2 Al17 Si1 Ir6'
_cell_volume   470.80593481
_cell_formula_units_Z   1
loop_
 _symmetry_equiv_pos_site_id
 _symmetry_equiv_pos_as_xyz
  1  'x, y, z'
loop_
 _atom_site_type_symbol
 _atom_site_label
 _atom_site_symmetry_multiplicity
 _atom_site_fract_x
 _atom_site_fract_y
 _atom_site_fract_z
 _atom_site_occupancy
  Nd  Nd0  1  0.003625  0.330088  0.750000  1
  Nd  Nd1  1  0.330088  0.003624  0.750000  1
  Lu  Lu2  1  0.994307  0.676730  0.250000  1
  Lu  Lu3  1  0.676732  0.994309  0.250000  1
  Al  Al4  1  0.870634  0.870634  0.750000  1
  Al  Al5  1  0.000108  0.337311  0.080952  1
  Al  Al6  1  0.996744  0.665539  0.930975  1
  Al  Al7  1  0.996744  0.665539  0.569025  1
  Al  Al8  1  0.337311  0.000108  0.419049  1
  Al  Al9  1  0.000108  0.337311  0.419048  1
  Al  Al10  1  0.665539  0.996744  0.569025  1
  Al  Al11  1  0.665539  0.996744  0.930975  1
  Al  Al12  1  0.337311  0.000108  0.080951  1
  Al  Al13  1  0.334121  0.334121  0.550245  1
  Al  Al14  1  0.664267  0.664267  0.443835  1
  Al  Al15  1  0.664267  0.664267  0.056165  1
  Al  Al16  1  0.334121  0.334121  0.949755  1
  Al  Al17  1  0.337492  0.550761  0.250000  1
  Al  Al18  1  0.661805  0.455093  0.750000  1
  Al  Al19  1  0.550761  0.337492  0.250000  1
  Al  Al20  1  0.455093  0.661805  0.750000  1
  Si  Si21  1  0.129752  0.129753  0.250000  1
  Ir  Ir22  1  0.670666  0.327414  0.002998  1
  Ir  Ir23  1  0.327414  0.670666  0.002997  1
  Ir  Ir24  1  0.327414  0.670666  0.497003  1
  Ir  Ir25  1  0.670666  0.327414  0.497002  1
  Ir  Ir26  1  0.998687  0.998686  0.010802  1
  Ir  Ir27  1  0.998687  0.998686  0.489198  1
