# generated using pymatgen
data_Ho2TmAg3HgGe2
_symmetry_space_group_name_H-M   'P 1'
_cell_length_a   7.28402900
_cell_length_b   7.28728471
_cell_length_c   4.20434000
_cell_angle_alpha   90.00000000
_cell_angle_beta   90.00000000
_cell_angle_gamma   120.01478973
_symmetry_Int_Tables_number   1
_chemical_formula_structural   Ho2TmAg3HgGe2
_chemical_formula_sum   'Ho2 Tm1 Ag3 Hg1 Ge2'
_cell_volume   193.24182137
_cell_formula_units_Z   1
loop_
 _symmetry_equiv_pos_site_id
 _symmetry_equiv_pos_as_xyz
  1  'x, y, z'
loop_
 _atom_site_type_symbol
 _atom_site_label
 _atom_site_symmetry_multiplicity
 _atom_site_fract_x
 _atom_site_fract_y
 _atom_site_fract_z
 _atom_site_occupancy
  Ho  Ho0  1  0.421654  0.421867  0.500000  1
  Ho  Ho1  1  0.578346  0.000214  0.500000  1
  Tm  Tm2  1  0.000000  0.577804  0.500000  1
  Ag  Ag3  1  0.736780  0.736451  0.000000  1
  Ag  Ag4  1  0.263220  0.999671  0.000000  1
  Ag  Ag5  1  0.000000  0.264184  0.000000  1
  Hg  Hg6  1  0.000000  0.999148  0.500000  1
  Ge  Ge7  1  0.667593  0.334127  0.000000  1
  Ge  Ge8  1  0.332407  0.666535  0.000000  1
