# generated using pymatgen
data_Ca9NdSi6F
_symmetry_space_group_name_H-M   'P 1'
_cell_length_a   9.12240458
_cell_length_b   9.09009766
_cell_length_c   9.11153924
_cell_angle_alpha   130.20588361
_cell_angle_beta   130.29996967
_cell_angle_gamma   72.95780472
_symmetry_Int_Tables_number   1
_chemical_formula_structural   Ca9NdSi6F
_chemical_formula_sum   'Ca9 Nd1 Si6 F1'
_cell_volume   429.93136591
_cell_formula_units_Z   1
loop_
 _symmetry_equiv_pos_site_id
 _symmetry_equiv_pos_as_xyz
  1  'x, y, z'
loop_
 _atom_site_type_symbol
 _atom_site_label
 _atom_site_symmetry_multiplicity
 _atom_site_fract_x
 _atom_site_fract_y
 _atom_site_fract_z
 _atom_site_occupancy
  Ca  Ca0  1  0.432312  0.773073  0.000000  1
  Ca  Ca1  1  0.932953  0.931550  0.645150  1
  Ca  Ca2  1  0.287804  0.286400  0.354850  1
  Ca  Ca3  1  0.711192  0.066290  0.000000  1
  Ca  Ca4  1  0.067971  0.712301  0.000000  1
  Ca  Ca5  1  0.565716  0.565752  0.336940  1
  Ca  Ca6  1  0.228775  0.228811  0.663060  1
  Ca  Ca7  1  0.253578  0.753581  0.505070  1
  Ca  Ca8  1  0.748509  0.248511  0.494930  1
  Nd  Nd9  1  0.781055  0.431667  0.000000  1
  Si  Si10  1  0.996690  0.500027  0.493699  1
  Si  Si11  1  0.502991  0.006328  0.506301  1
  Si  Si12  1  0.130862  0.360153  0.000000  1
  Si  Si13  1  0.360272  0.135634  0.000000  1
  Si  Si14  1  0.865317  0.861840  0.225802  1
  Si  Si15  1  0.639515  0.636038  0.774198  1
  F  F16  1  0.494485  0.502044  0.000000  1
