# generated using pymatgen
data_Li8Dy8Sn5Bi2Pb
_symmetry_space_group_name_H-M   'P 1'
_cell_length_a   9.45237349
_cell_length_b   9.45209357
_cell_length_c   7.28427300
_cell_angle_alpha   89.99997318
_cell_angle_beta   90.10273068
_cell_angle_gamma   119.99910482
_symmetry_Int_Tables_number   1
_chemical_formula_structural   Li8Dy8Sn5Bi2Pb
_chemical_formula_sum   'Li8 Dy8 Sn5 Bi2 Pb1'
_cell_volume   563.62301476
_cell_formula_units_Z   1
loop_
 _symmetry_equiv_pos_site_id
 _symmetry_equiv_pos_as_xyz
  1  'x, y, z'
loop_
 _atom_site_type_symbol
 _atom_site_label
 _atom_site_symmetry_multiplicity
 _atom_site_fract_x
 _atom_site_fract_y
 _atom_site_fract_z
 _atom_site_occupancy
  Li  Li0  1  0.167900  0.334175  0.283649  1
  Li  Li1  1  0.167899  0.833724  0.283649  1
  Li  Li2  1  0.664843  0.832421  0.286417  1
  Li  Li3  1  0.829407  0.664047  0.787896  1
  Li  Li4  1  0.829407  0.165361  0.787897  1
  Li  Li5  1  0.337844  0.168923  0.791528  1
  Li  Li6  1  0.337222  0.668610  0.668011  1
  Li  Li7  1  0.665533  0.332766  0.172304  1
  Dy  Dy8  1  0.516721  0.027460  0.490262  1
  Dy  Dy9  1  0.516722  0.489262  0.490262  1
  Dy  Dy10  1  0.971546  0.485773  0.488700  1
  Dy  Dy11  1  0.492393  0.978462  0.997902  1
  Dy  Dy12  1  0.492393  0.513932  0.997901  1
  Dy  Dy13  1  0.017943  0.508972  0.999866  1
  Dy  Dy14  1  0.995746  0.997873  0.493976  1
  Dy  Dy15  1  0.996281  0.998140  0.005885  1
  Sn  Sn16  1  0.833900  0.666780  0.232227  1
  Sn  Sn17  1  0.833900  0.167120  0.232228  1
  Sn  Sn18  1  0.333238  0.166619  0.231606  1
  Sn  Sn19  1  0.332343  0.666172  0.259934  1
  Sn  Sn20  1  0.667543  0.333772  0.760854  1
  Bi  Bi21  1  0.166208  0.333492  0.733418  1
  Bi  Bi22  1  0.166208  0.832716  0.733418  1
  Pb  Pb23  1  0.666858  0.833429  0.732203  1
