# generated using pymatgen
data_Tm3Zr2In3S
_symmetry_space_group_name_H-M   'P 1'
_cell_length_a   8.79692800
_cell_length_b   8.79692789
_cell_length_c   6.14819200
_cell_angle_alpha   90.00000000
_cell_angle_beta   90.00000000
_cell_angle_gamma   120.00000040
_symmetry_Int_Tables_number   1
_chemical_formula_structural   Tm3Zr2In3S
_chemical_formula_sum   'Tm6 Zr4 In6 S2'
_cell_volume   412.04070446
_cell_formula_units_Z   2
loop_
 _symmetry_equiv_pos_site_id
 _symmetry_equiv_pos_as_xyz
  1  'x, y, z'
loop_
 _atom_site_type_symbol
 _atom_site_label
 _atom_site_symmetry_multiplicity
 _atom_site_fract_x
 _atom_site_fract_y
 _atom_site_fract_z
 _atom_site_occupancy
  Tm  Tm0  1  0.751034  0.751034  0.750000  1
  Tm  Tm1  1  0.248966  0.000000  0.750000  1
  Tm  Tm2  1  0.000000  0.248966  0.750000  1
  Tm  Tm3  1  0.248966  0.248966  0.250000  1
  Tm  Tm4  1  0.751034  0.000000  0.250000  1
  Tm  Tm5  1  0.000000  0.751034  0.250000  1
  Zr  Zr6  1  0.666667  0.333333  0.000000  1
  Zr  Zr7  1  0.333333  0.666667  0.000000  1
  Zr  Zr8  1  0.333333  0.666667  0.500000  1
  Zr  Zr9  1  0.666667  0.333333  0.500000  1
  In  In10  1  0.399782  0.399782  0.750000  1
  In  In11  1  0.600218  0.000000  0.750000  1
  In  In12  1  0.000000  0.600218  0.750000  1
  In  In13  1  0.600218  0.600218  0.250000  1
  In  In14  1  0.399782  0.000000  0.250000  1
  In  In15  1  0.000000  0.399782  0.250000  1
  S  S16  1  0.000000  0.000000  0.000000  1
  S  S17  1  0.000000  0.000000  0.500000  1
