# generated using pymatgen
data_PrTm3(Si5Pt3)2
_symmetry_space_group_name_H-M   'P 1'
_cell_length_a   8.15889596
_cell_length_b   8.16856774
_cell_length_c   8.16856661
_cell_angle_alpha   136.36571343
_cell_angle_beta   104.61032682
_cell_angle_gamma   91.39383428
_symmetry_Int_Tables_number   1
_chemical_formula_structural   PrTm3(Si5Pt3)2
_chemical_formula_sum   'Pr1 Tm3 Si10 Pt6'
_cell_volume   345.63270384
_cell_formula_units_Z   1
loop_
 _symmetry_equiv_pos_site_id
 _symmetry_equiv_pos_as_xyz
  1  'x, y, z'
loop_
 _atom_site_type_symbol
 _atom_site_label
 _atom_site_symmetry_multiplicity
 _atom_site_fract_x
 _atom_site_fract_y
 _atom_site_fract_z
 _atom_site_occupancy
  Pr  Pr0  1  0.602661  0.871115  0.731546  1
  Tm  Tm1  1  0.857247  0.629280  0.227967  1
  Tm  Tm2  1  0.141794  0.370531  0.771264  1
  Tm  Tm3  1  0.400096  0.129354  0.270742  1
  Si  Si4  1  0.499770  0.751941  0.251154  1
  Si  Si5  1  0.499770  0.248616  0.747829  1
  Si  Si6  1  0.227271  0.977885  0.748689  1
  Si  Si7  1  0.770989  0.521305  0.750483  1
  Si  Si8  1  0.770989  0.020505  0.249683  1
  Si  Si9  1  0.227271  0.478582  0.249386  1
  Si  Si10  1  0.038075  0.888060  0.150015  1
  Si  Si11  1  0.965818  0.115543  0.850275  1
  Si  Si12  1  0.736776  0.387848  0.348928  1
  Si  Si13  1  0.261498  0.609942  0.651556  1
  Pt  Pt14  1  0.001571  0.749312  0.749986  1
  Pt  Pt15  1  0.001571  0.251585  0.252260  1
  Pt  Pt16  1  0.247500  0.862225  0.385276  1
  Pt  Pt17  1  0.753278  0.139902  0.613374  1
  Pt  Pt18  1  0.473998  0.362484  0.111514  1
  Pt  Pt19  1  0.522058  0.633985  0.888073  1
