# generated using pymatgen
data_DyY2Lu13(In3Co)2
_symmetry_space_group_name_H-M   'P 1'
_cell_length_a   10.14850219
_cell_length_b   10.14850333
_cell_length_c   6.95262601
_cell_angle_alpha   90.00657069
_cell_angle_beta   89.99343305
_cell_angle_gamma   120.02136952
_symmetry_Int_Tables_number   1
_chemical_formula_structural   DyY2Lu13(In3Co)2
_chemical_formula_sum   'Dy1 Y2 Lu13 In6 Co2'
_cell_volume   619.99742681
_cell_formula_units_Z   1
loop_
 _symmetry_equiv_pos_site_id
 _symmetry_equiv_pos_as_xyz
  1  'x, y, z'
loop_
 _atom_site_type_symbol
 _atom_site_label
 _atom_site_symmetry_multiplicity
 _atom_site_fract_x
 _atom_site_fract_y
 _atom_site_fract_z
 _atom_site_occupancy
  Dy  Dy0  1  0.465378  0.534622  0.482408  1
  Y  Y1  1  0.999963  0.000037  0.495612  1
  Y  Y2  1  0.999935  0.000065  0.995374  1
  Lu  Lu3  1  0.070095  0.535206  0.481815  1
  Lu  Lu4  1  0.464794  0.929905  0.481815  1
  Lu  Lu5  1  0.535442  0.464558  0.982059  1
  Lu  Lu6  1  0.929604  0.464823  0.981936  1
  Lu  Lu7  1  0.535177  0.070396  0.981936  1
  Lu  Lu8  1  0.819929  0.180071  0.276720  1
  Lu  Lu9  1  0.359787  0.179213  0.276205  1
  Lu  Lu10  1  0.820787  0.640213  0.276205  1
  Lu  Lu11  1  0.180103  0.819897  0.776803  1
  Lu  Lu12  1  0.640534  0.820875  0.777610  1
  Lu  Lu13  1  0.179125  0.359466  0.777610  1
  Lu  Lu14  1  0.332952  0.667048  0.090237  1
  Lu  Lu15  1  0.667013  0.332987  0.590913  1
  In  In16  1  0.163498  0.836502  0.234514  1
  In  In17  1  0.673766  0.837399  0.233743  1
  In  In18  1  0.162601  0.326234  0.233743  1
  In  In19  1  0.836609  0.163391  0.734251  1
  In  In20  1  0.326936  0.163401  0.734726  1
  In  In21  1  0.836599  0.673064  0.734726  1
  Co  Co22  1  0.332734  0.667266  0.707035  1
  Co  Co23  1  0.666640  0.333360  0.206554  1
