# generated using pymatgen
data_Ti6BiBPb
_symmetry_space_group_name_H-M   'P 1'
_cell_length_a   7.21438400
_cell_length_b   7.21438329
_cell_length_c   3.53379800
_cell_angle_alpha   90.00000000
_cell_angle_beta   90.00000000
_cell_angle_gamma   120.00000324
_symmetry_Int_Tables_number   1
_chemical_formula_structural   Ti6BiBPb
_chemical_formula_sum   'Ti6 Bi1 B1 Pb1'
_cell_volume   159.28350553
_cell_formula_units_Z   1
loop_
 _symmetry_equiv_pos_site_id
 _symmetry_equiv_pos_as_xyz
  1  'x, y, z'
loop_
 _atom_site_type_symbol
 _atom_site_label
 _atom_site_symmetry_multiplicity
 _atom_site_fract_x
 _atom_site_fract_y
 _atom_site_fract_z
 _atom_site_occupancy
  Ti  Ti0  1  0.998717  0.782392  0.000000  1
  Ti  Ti1  1  0.217608  0.216324  0.000000  1
  Ti  Ti2  1  0.783676  0.001283  0.000000  1
  Ti  Ti3  1  0.000237  0.355388  0.500000  1
  Ti  Ti4  1  0.644612  0.644850  0.500000  1
  Ti  Ti5  1  0.355150  0.999763  0.500000  1
  Bi  Bi6  1  0.333333  0.666667  0.000000  1
  B  B7  1  0.000000  0.000000  0.500000  1
  Pb  Pb8  1  0.666667  0.333333  0.000000  1
