# generated using pymatgen
data_Y12ZnGaCo4
_symmetry_space_group_name_H-M   'P 1'
_cell_length_a   8.29749201
_cell_length_b   8.29749228
_cell_length_c   8.29749167
_cell_angle_alpha   106.99643174
_cell_angle_beta   110.20949650
_cell_angle_gamma   111.23747124
_symmetry_Int_Tables_number   1
_chemical_formula_structural   Y12ZnGaCo4
_chemical_formula_sum   'Y12 Zn1 Ga1 Co4'
_cell_volume   439.11388275
_cell_formula_units_Z   1
loop_
 _symmetry_equiv_pos_site_id
 _symmetry_equiv_pos_as_xyz
  1  'x, y, z'
loop_
 _atom_site_type_symbol
 _atom_site_label
 _atom_site_symmetry_multiplicity
 _atom_site_fract_x
 _atom_site_fract_y
 _atom_site_fract_z
 _atom_site_occupancy
  Y  Y0  1  0.699205  0.267237  0.966442  1
  Y  Y1  1  0.300795  0.732763  0.033558  1
  Y  Y2  1  0.699205  0.732763  0.431968  1
  Y  Y3  1  0.300795  0.267237  0.568032  1
  Y  Y4  1  0.804159  0.122834  0.318675  1
  Y  Y5  1  0.804159  0.485483  0.681325  1
  Y  Y6  1  0.195841  0.877166  0.681325  1
  Y  Y7  1  0.195841  0.514517  0.318675  1
  Y  Y8  1  0.599461  0.782296  0.817165  1
  Y  Y9  1  0.965131  0.782296  0.182835  1
  Y  Y10  1  0.034869  0.217704  0.817165  1
  Y  Y11  1  0.400539  0.217704  0.182835  1
  Zn  Zn12  1  0.500000  0.500000  0.000000  1
  Ga  Ga13  1  0.500000  0.000000  0.500000  1
  Co  Co14  1  0.871155  0.500000  0.371155  1
  Co  Co15  1  0.128845  0.500000  0.628845  1
  Co  Co16  1  0.000000  0.112074  0.112074  1
  Co  Co17  1  0.000000  0.887926  0.887926  1
