# generated using pymatgen
data_Ba2AcAl12
_symmetry_space_group_name_H-M   'P 1'
_cell_length_a   9.06994905
_cell_length_b   9.07015756
_cell_length_c   9.07015662
_cell_angle_alpha   150.24164105
_cell_angle_beta   104.34894911
_cell_angle_gamma   83.34155859
_symmetry_Int_Tables_number   1
_chemical_formula_structural   Ba2AcAl12
_chemical_formula_sum   'Ba2 Ac1 Al12'
_cell_volume   351.08295222
_cell_formula_units_Z   1
loop_
 _symmetry_equiv_pos_site_id
 _symmetry_equiv_pos_as_xyz
  1  'x, y, z'
loop_
 _atom_site_type_symbol
 _atom_site_label
 _atom_site_symmetry_multiplicity
 _atom_site_fract_x
 _atom_site_fract_y
 _atom_site_fract_z
 _atom_site_occupancy
  Ba  Ba0  1  0.000179  0.999821  0.000357  1
  Ba  Ba1  1  0.334530  0.333587  0.000944  1
  Ac  Ac2  1  0.667555  0.666608  0.000947  1
  Al  Al3  1  0.622216  0.000682  0.621534  1
  Al  Al4  1  0.381319  0.000685  0.380634  1
  Al  Al5  1  0.254370  0.501182  0.753188  1
  Al  Al6  1  0.749947  0.501174  0.248773  1
  Al  Al7  1  0.585048  0.831955  0.753093  1
  Al  Al8  1  0.917369  0.166864  0.750505  1
  Al  Al9  1  0.288574  0.666569  0.622006  1
  Al  Al10  1  0.953715  0.332750  0.620965  1
  Al  Al11  1  0.046123  0.667049  0.379074  1
  Al  Al12  1  0.712386  0.332259  0.380129  1
  Al  Al13  1  0.080720  0.832574  0.248147  1
  Al  Al14  1  0.416947  0.166239  0.250709  1
