# generated using pymatgen
data_Pr6Co2P12Rh15W
_symmetry_space_group_name_H-M   'P 1'
_cell_length_a   3.93897500
_cell_length_b   11.26147000
_cell_length_c   12.98582200
_cell_angle_alpha   90.00000000
_cell_angle_beta   90.00000000
_cell_angle_gamma   90.00000000
_symmetry_Int_Tables_number   1
_chemical_formula_structural   Pr6Co2P12Rh15W
_chemical_formula_sum   'Pr6 Co2 P12 Rh15 W1'
_cell_volume   576.03351739
_cell_formula_units_Z   1
loop_
 _symmetry_equiv_pos_site_id
 _symmetry_equiv_pos_as_xyz
  1  'x, y, z'
loop_
 _atom_site_type_symbol
 _atom_site_label
 _atom_site_symmetry_multiplicity
 _atom_site_fract_x
 _atom_site_fract_y
 _atom_site_fract_z
 _atom_site_occupancy
  Pr  Pr0  1  0.000000  0.500000  0.519346  1
  Pr  Pr1  1  0.500000  0.000000  0.478712  1
  Pr  Pr2  1  0.500000  0.816687  0.202843  1
  Pr  Pr3  1  0.500000  0.183313  0.202843  1
  Pr  Pr4  1  0.000000  0.682629  0.800006  1
  Pr  Pr5  1  0.000000  0.317371  0.800006  1
  Co  Co6  1  0.000000  0.500000  0.992697  1
  Co  Co7  1  0.500000  0.000000  0.016594  1
  P  P8  1  0.500000  0.500000  0.884749  1
  P  P9  1  0.000000  0.000000  0.114333  1
  P  P10  1  0.500000  0.500000  0.341771  1
  P  P11  1  0.000000  0.000000  0.654233  1
  P  P12  1  0.500000  0.312753  0.617740  1
  P  P13  1  0.500000  0.687247  0.617740  1
  P  P14  1  0.000000  0.188698  0.382693  1
  P  P15  1  0.000000  0.811302  0.382693  1
  P  P16  1  0.500000  0.856115  0.895166  1
  P  P17  1  0.500000  0.143885  0.895166  1
  P  P18  1  0.000000  0.647992  0.105229  1
  P  P19  1  0.000000  0.352008  0.105229  1
  Rh  Rh20  1  0.000000  0.000000  0.833996  1
  Rh  Rh21  1  0.500000  0.500000  0.703572  1
  Rh  Rh22  1  0.000000  0.000000  0.295201  1
  Rh  Rh23  1  0.500000  0.335258  0.993073  1
  Rh  Rh24  1  0.500000  0.664742  0.993073  1
  Rh  Rh25  1  0.000000  0.163900  0.006360  1
  Rh  Rh26  1  0.000000  0.836100  0.006360  1
  Rh  Rh27  1  0.500000  0.292144  0.431026  1
  Rh  Rh28  1  0.500000  0.707856  0.431026  1
  Rh  Rh29  1  0.000000  0.206437  0.570765  1
  Rh  Rh30  1  0.000000  0.793563  0.570765  1
  Rh  Rh31  1  0.500000  0.875840  0.711576  1
  Rh  Rh32  1  0.500000  0.124160  0.711576  1
  Rh  Rh33  1  0.000000  0.623075  0.287886  1
  Rh  Rh34  1  0.000000  0.376925  0.287886  1
  W  W35  1  0.500000  0.500000  0.156072  1
