# generated using pymatgen
data_CrBi(BrO3)6
_symmetry_space_group_name_H-M   'P 1'
_cell_length_a   9.52175400
_cell_length_b   9.52175304
_cell_length_c   5.92902600
_cell_angle_alpha   90.00000000
_cell_angle_beta   90.00000000
_cell_angle_gamma   119.99999423
_symmetry_Int_Tables_number   1
_chemical_formula_structural   CrBi(BrO3)6
_chemical_formula_sum   'Cr1 Bi1 Br6 O18'
_cell_volume   465.53022371
_cell_formula_units_Z   1
loop_
 _symmetry_equiv_pos_site_id
 _symmetry_equiv_pos_as_xyz
  1  'x, y, z'
loop_
 _atom_site_type_symbol
 _atom_site_label
 _atom_site_symmetry_multiplicity
 _atom_site_fract_x
 _atom_site_fract_y
 _atom_site_fract_z
 _atom_site_occupancy
  Cr  Cr0  1  0.333333  0.666667  0.194903  1
  Bi  Bi1  1  0.666667  0.333333  0.685430  1
  Br  Br2  1  0.661375  0.001146  0.352461  1
  Br  Br3  1  0.310445  0.958896  0.880254  1
  Br  Br4  1  0.041104  0.351548  0.880254  1
  Br  Br5  1  0.339771  0.338625  0.352461  1
  Br  Br6  1  0.998854  0.660229  0.352461  1
  Br  Br7  1  0.648452  0.689555  0.880254  1
  O  O8  1  0.766024  0.843378  0.042341  1
  O  O9  1  0.963809  0.769355  0.532269  1
  O  O10  1  0.805546  0.036191  0.532269  1
  O  O11  1  0.156622  0.922646  0.042341  1
  O  O12  1  0.077354  0.233976  0.042341  1
  O  O13  1  0.230645  0.194454  0.532269  1
  O  O14  1  0.706081  0.548131  0.933440  1
  O  O15  1  0.199943  0.719281  0.407186  1
  O  O16  1  0.535285  0.436246  0.460306  1
  O  O17  1  0.134327  0.545518  0.997431  1
  O  O18  1  0.411191  0.865673  0.997431  1
  O  O19  1  0.563754  0.099040  0.460306  1
  O  O20  1  0.900960  0.464715  0.460306  1
  O  O21  1  0.454482  0.588809  0.997431  1
  O  O22  1  0.280719  0.480661  0.407186  1
  O  O23  1  0.842049  0.293919  0.933440  1
  O  O24  1  0.451869  0.157951  0.933440  1
  O  O25  1  0.519339  0.800057  0.407186  1
