# generated using pymatgen
data_HoEr7(LuSb)12
_symmetry_space_group_name_H-M   'P 1'
_cell_length_a   8.03963268
_cell_length_b   9.11271800
_cell_length_c   11.67378100
_cell_angle_alpha   90.00000000
_cell_angle_beta   90.02353225
_cell_angle_gamma   90.00000000
_symmetry_Int_Tables_number   1
_chemical_formula_structural   HoEr7(LuSb)12
_chemical_formula_sum   'Ho1 Er7 Lu12 Sb12'
_cell_volume   855.25504115
_cell_formula_units_Z   1
loop_
 _symmetry_equiv_pos_site_id
 _symmetry_equiv_pos_as_xyz
  1  'x, y, z'
loop_
 _atom_site_type_symbol
 _atom_site_label
 _atom_site_symmetry_multiplicity
 _atom_site_fract_x
 _atom_site_fract_y
 _atom_site_fract_z
 _atom_site_occupancy
  Ho  Ho0  1  0.175724  0.750000  0.228893  1
  Er  Er1  1  0.675697  0.250000  0.271150  1
  Er  Er2  1  0.824311  0.250000  0.771098  1
  Er  Er3  1  0.324317  0.750000  0.728930  1
  Er  Er4  1  0.658366  0.750000  0.291023  1
  Er  Er5  1  0.158168  0.250000  0.209040  1
  Er  Er6  1  0.341899  0.250000  0.709046  1
  Er  Er7  1  0.841728  0.750000  0.790893  1
  Lu  Lu8  1  0.808995  0.939047  0.066122  1
  Lu  Lu9  1  0.308907  0.060986  0.433943  1
  Lu  Lu10  1  0.191121  0.439128  0.933902  1
  Lu  Lu11  1  0.691101  0.560880  0.566156  1
  Lu  Lu12  1  0.191121  0.060872  0.933902  1
  Lu  Lu13  1  0.691101  0.939120  0.566156  1
  Lu  Lu14  1  0.808995  0.560953  0.066122  1
  Lu  Lu15  1  0.308907  0.439014  0.433943  1
  Lu  Lu16  1  0.524958  0.250000  0.995088  1
  Lu  Lu17  1  0.024796  0.750000  0.505001  1
  Lu  Lu18  1  0.475138  0.750000  0.004807  1
  Lu  Lu19  1  0.974996  0.250000  0.495140  1
  Sb  Sb20  1  0.936008  0.991250  0.326374  1
  Sb  Sb21  1  0.436872  0.009321  0.173782  1
  Sb  Sb22  1  0.063498  0.490854  0.673817  1
  Sb  Sb23  1  0.563504  0.509102  0.826127  1
  Sb  Sb24  1  0.063498  0.009146  0.673817  1
  Sb  Sb25  1  0.563504  0.990898  0.826127  1
  Sb  Sb26  1  0.936008  0.508750  0.326374  1
  Sb  Sb27  1  0.436872  0.490679  0.173782  1
  Sb  Sb28  1  0.902657  0.250000  0.024463  1
  Sb  Sb29  1  0.402732  0.750000  0.475561  1
  Sb  Sb30  1  0.097200  0.750000  0.974911  1
  Sb  Sb31  1  0.597300  0.250000  0.524510  1
