# generated using pymatgen
data_YTm3Tc3PtF28
_symmetry_space_group_name_H-M   'P 1'
_cell_length_a   5.55670874
_cell_length_b   8.84168672
_cell_length_c   11.93110653
_cell_angle_alpha   62.63789401
_cell_angle_beta   90.08094625
_cell_angle_gamma   90.01342432
_symmetry_Int_Tables_number   1
_chemical_formula_structural   YTm3Tc3PtF28
_chemical_formula_sum   'Y1 Tm3 Tc3 Pt1 F28'
_cell_volume   520.60032100
_cell_formula_units_Z   1
loop_
 _symmetry_equiv_pos_site_id
 _symmetry_equiv_pos_as_xyz
  1  'x, y, z'
loop_
 _atom_site_type_symbol
 _atom_site_label
 _atom_site_symmetry_multiplicity
 _atom_site_fract_x
 _atom_site_fract_y
 _atom_site_fract_z
 _atom_site_occupancy
  Y  Y0  1  0.239967  0.815960  0.763012  1
  Tm  Tm1  1  0.259368  0.815632  0.265209  1
  Tm  Tm2  1  0.740518  0.187830  0.734586  1
  Tm  Tm3  1  0.759308  0.185150  0.235444  1
  Tc  Tc4  1  0.757933  0.726642  0.044915  1
  Tc  Tc5  1  0.242271  0.271979  0.957146  1
  Tc  Tc6  1  0.258605  0.275201  0.455354  1
  Pt  Pt7  1  0.740871  0.727353  0.541557  1
  F  F8  1  0.936572  0.702241  0.413580  1
  F  F9  1  0.051168  0.293107  0.581130  1
  F  F10  1  0.450605  0.292389  0.082027  1
  F  F11  1  0.550955  0.706213  0.919900  1
  F  F12  1  0.477281  0.730854  0.143476  1
  F  F13  1  0.524022  0.269305  0.858886  1
  F  F14  1  0.977166  0.270238  0.357080  1
  F  F15  1  0.034325  0.725040  0.634429  1
  F  F16  1  0.962270  0.747032  0.172866  1
  F  F17  1  0.039890  0.251848  0.828294  1
  F  F18  1  0.461830  0.255125  0.326883  1
  F  F19  1  0.553977  0.744053  0.675675  1
  F  F20  1  0.770963  0.477150  0.142926  1
  F  F21  1  0.226776  0.520460  0.857893  1
  F  F22  1  0.270929  0.524554  0.357941  1
  F  F23  1  0.727987  0.477352  0.642150  1
  F  F24  1  0.949021  0.277537  0.048856  1
  F  F25  1  0.050336  0.719983  0.954082  1
  F  F26  1  0.439344  0.721042  0.455619  1
  F  F27  1  0.552101  0.280023  0.547127  1
  F  F28  1  0.743914  0.977201  0.448291  1
  F  F29  1  0.258663  0.026998  0.550886  1
  F  F30  1  0.243739  0.023820  0.055033  1
  F  F31  1  0.757957  0.974770  0.946533  1
  F  F32  1  0.577059  0.972235  0.234687  1
  F  F33  1  0.421174  0.032661  0.767312  1
  F  F34  1  0.076633  0.026355  0.268378  1
  F  F35  1  0.914503  0.974670  0.730836  1
