# generated using pymatgen
data_La10GaSb3C4
_symmetry_space_group_name_H-M   'P 1'
_cell_length_a   8.51803800
_cell_length_b   13.33057800
_cell_length_c   4.36562100
_cell_angle_alpha   90.00000000
_cell_angle_beta   90.00000000
_cell_angle_gamma   90.00130232
_symmetry_Int_Tables_number   1
_chemical_formula_structural   La10GaSb3C4
_chemical_formula_sum   'La10 Ga1 Sb3 C4'
_cell_volume   495.71787968
_cell_formula_units_Z   1
loop_
 _symmetry_equiv_pos_site_id
 _symmetry_equiv_pos_as_xyz
  1  'x, y, z'
loop_
 _atom_site_type_symbol
 _atom_site_label
 _atom_site_symmetry_multiplicity
 _atom_site_fract_x
 _atom_site_fract_y
 _atom_site_fract_z
 _atom_site_occupancy
  La  La0  1  0.501580  0.989987  0.000000  1
  La  La1  1  0.162191  0.206154  0.000000  1
  La  La2  1  0.660432  0.292517  0.000000  1
  La  La3  1  0.008295  0.503232  0.000000  1
  La  La4  1  0.344890  0.712733  0.000000  1
  La  La5  1  0.826266  0.792405  0.000000  1
  La  La6  1  0.833917  0.058986  0.499998  1
  La  La7  1  0.334775  0.440772  0.499998  1
  La  La8  1  0.670027  0.559797  0.499998  1
  La  La9  1  0.163032  0.942734  0.499998  1
  Ga  Ga10  1  0.557208  0.825494  0.499998  1
  Sb  Sb11  1  0.443440  0.170192  0.499998  1
  Sb  Sb12  1  0.942957  0.328667  0.499998  1
  Sb  Sb13  1  0.058240  0.678845  0.499998  1
  C  C14  1  0.039610  0.043447  0.000000  1
  C  C15  1  0.534073  0.454627  0.000000  1
  C  C16  1  0.459015  0.545128  0.000000  1
  C  C17  1  0.960059  0.954282  0.000000  1
