# generated using pymatgen
data_Y8Sb(Pd7Pt5)2
_symmetry_space_group_name_H-M   'P 1'
_cell_length_a   8.42319680
_cell_length_b   8.42295100
_cell_length_c   8.42009781
_cell_angle_alpha   90.00000000
_cell_angle_beta   89.94981135
_cell_angle_gamma   90.00000000
_symmetry_Int_Tables_number   1
_chemical_formula_structural   Y8Sb(Pd7Pt5)2
_chemical_formula_sum   'Y8 Sb1 Pd14 Pt10'
_cell_volume   597.39033496
_cell_formula_units_Z   1
loop_
 _symmetry_equiv_pos_site_id
 _symmetry_equiv_pos_as_xyz
  1  'x, y, z'
loop_
 _atom_site_type_symbol
 _atom_site_label
 _atom_site_symmetry_multiplicity
 _atom_site_fract_x
 _atom_site_fract_y
 _atom_site_fract_z
 _atom_site_occupancy
  Y  Y0  1  0.746065  0.745635  0.253979  1
  Y  Y1  1  0.745125  0.254476  0.746229  1
  Y  Y2  1  0.255140  0.745326  0.745685  1
  Y  Y3  1  0.745125  0.745524  0.746229  1
  Y  Y4  1  0.746065  0.254365  0.253979  1
  Y  Y5  1  0.255140  0.254674  0.745685  1
  Y  Y6  1  0.253960  0.745413  0.254544  1
  Y  Y7  1  0.253960  0.254587  0.254544  1
  Sb  Sb8  1  0.999553  0.000000  0.001444  1
  Pd  Pd9  1  0.000004  0.734990  0.500134  1
  Pd  Pd10  1  0.499770  0.000000  0.263737  1
  Pd  Pd11  1  0.000004  0.265010  0.500134  1
  Pd  Pd12  1  0.499655  0.735721  0.999965  1
  Pd  Pd13  1  0.305666  0.000000  0.999401  1
  Pd  Pd14  1  0.000288  0.000000  0.695410  1
  Pd  Pd15  1  0.999966  0.500000  0.264212  1
  Pd  Pd16  1  0.000274  0.306015  0.999092  1
  Pd  Pd17  1  0.000274  0.693985  0.999092  1
  Pd  Pd18  1  0.693907  0.000000  0.999401  1
  Pd  Pd19  1  0.264281  0.500000  0.000214  1
  Pd  Pd20  1  0.263946  0.000000  0.499647  1
  Pd  Pd21  1  0.999889  0.500000  0.734771  1
  Pd  Pd22  1  0.499655  0.264279  0.999965  1
  Pt  Pt23  1  0.999906  0.000000  0.306838  1
  Pt  Pt24  1  0.735841  0.000000  0.499729  1
  Pt  Pt25  1  0.735487  0.500000  0.000167  1
  Pt  Pt26  1  0.499918  0.000000  0.735201  1
  Pt  Pt27  1  0.254253  0.500000  0.499954  1
  Pt  Pt28  1  0.500101  0.500000  0.746827  1
  Pt  Pt29  1  0.500136  0.500000  0.253871  1
  Pt  Pt30  1  0.500040  0.253719  0.500022  1
  Pt  Pt31  1  0.500040  0.746281  0.500022  1
  Pt  Pt32  1  0.746568  0.500000  0.499879  1
