# generated using pymatgen
data_Dy15Y5Cd6OsRu
_symmetry_space_group_name_H-M   'P 1'
_cell_length_a   9.61411501
_cell_length_b   9.61411474
_cell_length_c   9.87317400
_cell_angle_alpha   90.00000000
_cell_angle_beta   90.00000000
_cell_angle_gamma   119.99622277
_symmetry_Int_Tables_number   1
_chemical_formula_structural   Dy15Y5Cd6OsRu
_chemical_formula_sum   'Dy15 Y5 Cd6 Os1 Ru1'
_cell_volume   790.35565525
_cell_formula_units_Z   1
loop_
 _symmetry_equiv_pos_site_id
 _symmetry_equiv_pos_as_xyz
  1  'x, y, z'
loop_
 _atom_site_type_symbol
 _atom_site_label
 _atom_site_symmetry_multiplicity
 _atom_site_fract_x
 _atom_site_fract_y
 _atom_site_fract_z
 _atom_site_occupancy
  Dy  Dy0  1  0.999978  0.000022  0.499696  1
  Dy  Dy1  1  0.999978  0.000022  0.000304  1
  Dy  Dy2  1  0.209822  0.790178  0.440475  1
  Dy  Dy3  1  0.209943  0.419732  0.440585  1
  Dy  Dy4  1  0.580268  0.790057  0.440585  1
  Dy  Dy5  1  0.790081  0.209919  0.560007  1
  Dy  Dy6  1  0.789981  0.580166  0.560075  1
  Dy  Dy7  1  0.419834  0.210019  0.560075  1
  Dy  Dy8  1  0.790081  0.209919  0.939993  1
  Dy  Dy9  1  0.789981  0.580166  0.939925  1
  Dy  Dy10  1  0.419834  0.210019  0.939925  1
  Dy  Dy11  1  0.209822  0.790178  0.059525  1
  Dy  Dy12  1  0.209943  0.419732  0.059415  1
  Dy  Dy13  1  0.580268  0.790057  0.059415  1
  Dy  Dy14  1  0.458876  0.541124  0.750000  1
  Y  Y15  1  0.539955  0.460045  0.250000  1
  Y  Y16  1  0.539971  0.079927  0.250000  1
  Y  Y17  1  0.920073  0.460029  0.250000  1
  Y  Y18  1  0.458750  0.917461  0.750000  1
  Y  Y19  1  0.082539  0.541250  0.750000  1
  Cd  Cd20  1  0.885355  0.114645  0.250000  1
  Cd  Cd21  1  0.885366  0.770702  0.250000  1
  Cd  Cd22  1  0.229298  0.114634  0.250000  1
  Cd  Cd23  1  0.114638  0.885362  0.750000  1
  Cd  Cd24  1  0.114751  0.229351  0.750000  1
  Cd  Cd25  1  0.770649  0.885249  0.750000  1
  Os  Os26  1  0.333349  0.666651  0.250000  1
  Ru  Ru27  1  0.666617  0.333383  0.750000  1
