# generated using pymatgen
data_Nd4Dy6Ga7Si
_symmetry_space_group_name_H-M   'P 1'
_cell_length_a   7.58981800
_cell_length_b   7.99415100
_cell_length_c   15.33406800
_cell_angle_alpha   90.00000000
_cell_angle_beta   90.00000000
_cell_angle_gamma   90.00000000
_symmetry_Int_Tables_number   1
_chemical_formula_structural   Nd4Dy6Ga7Si
_chemical_formula_sum   'Nd8 Dy12 Ga14 Si2'
_cell_volume   930.38155965
_cell_formula_units_Z   2
loop_
 _symmetry_equiv_pos_site_id
 _symmetry_equiv_pos_as_xyz
  1  'x, y, z'
loop_
 _atom_site_type_symbol
 _atom_site_label
 _atom_site_symmetry_multiplicity
 _atom_site_fract_x
 _atom_site_fract_y
 _atom_site_fract_z
 _atom_site_occupancy
  Nd  Nd0  1  0.977014  0.819846  0.094607  1
  Nd  Nd1  1  0.477014  0.680154  0.405393  1
  Nd  Nd2  1  0.521328  0.322469  0.904806  1
  Nd  Nd3  1  0.021328  0.177531  0.595194  1
  Nd  Nd4  1  0.021328  0.177531  0.904806  1
  Nd  Nd5  1  0.521328  0.322469  0.595194  1
  Nd  Nd6  1  0.477014  0.680154  0.094607  1
  Nd  Nd7  1  0.977014  0.819846  0.405393  1
  Dy  Dy8  1  0.654810  0.987251  0.250000  1
  Dy  Dy9  1  0.154810  0.512749  0.250000  1
  Dy  Dy10  1  0.844536  0.489721  0.750000  1
  Dy  Dy11  1  0.344536  0.010279  0.750000  1
  Dy  Dy12  1  0.680399  0.822598  0.876716  1
  Dy  Dy13  1  0.180399  0.677402  0.623284  1
  Dy  Dy14  1  0.818620  0.324211  0.120453  1
  Dy  Dy15  1  0.318620  0.175789  0.379547  1
  Dy  Dy16  1  0.318620  0.175789  0.120453  1
  Dy  Dy17  1  0.818620  0.324211  0.379547  1
  Dy  Dy18  1  0.180399  0.677402  0.876716  1
  Dy  Dy19  1  0.680399  0.822598  0.623284  1
  Ga  Ga20  1  0.765697  0.621620  0.250000  1
  Ga  Ga21  1  0.265697  0.878380  0.250000  1
  Ga  Ga22  1  0.738405  0.120082  0.750000  1
  Ga  Ga23  1  0.238405  0.379918  0.750000  1
  Ga  Ga24  1  0.024792  0.111375  0.250000  1
  Ga  Ga25  1  0.524792  0.388625  0.250000  1
  Ga  Ga26  1  0.850162  0.532398  0.957786  1
  Ga  Ga27  1  0.350162  0.967602  0.542214  1
  Ga  Ga28  1  0.651067  0.030636  0.039794  1
  Ga  Ga29  1  0.151067  0.469364  0.460206  1
  Ga  Ga30  1  0.151067  0.469364  0.039794  1
  Ga  Ga31  1  0.651067  0.030636  0.460206  1
  Ga  Ga32  1  0.350162  0.967602  0.957786  1
  Ga  Ga33  1  0.850162  0.532398  0.542214  1
  Si  Si34  1  0.474579  0.613659  0.750000  1
  Si  Si35  1  0.974579  0.886341  0.750000  1
