# generated using pymatgen
data_Tm20Si12N
_symmetry_space_group_name_H-M   'P 1'
_cell_length_a   14.43983200
_cell_length_b   6.22211806
_cell_length_c   8.29870726
_cell_angle_alpha   89.94902932
_cell_angle_beta   90.00000000
_cell_angle_gamma   90.00000000
_symmetry_Int_Tables_number   1
_chemical_formula_structural   Tm20Si12N
_chemical_formula_sum   'Tm20 Si12 N1'
_cell_volume   745.60817474
_cell_formula_units_Z   1
loop_
 _symmetry_equiv_pos_site_id
 _symmetry_equiv_pos_as_xyz
  1  'x, y, z'
loop_
 _atom_site_type_symbol
 _atom_site_label
 _atom_site_symmetry_multiplicity
 _atom_site_fract_x
 _atom_site_fract_y
 _atom_site_fract_z
 _atom_site_occupancy
  Tm  Tm0  1  0.663768  0.500000  0.500000  1
  Tm  Tm1  1  0.170668  0.500000  0.000000  1
  Tm  Tm2  1  0.829332  0.500000  0.000000  1
  Tm  Tm3  1  0.336232  0.500000  0.500000  1
  Tm  Tm4  1  0.837609  0.000000  0.000000  1
  Tm  Tm5  1  0.329636  0.000000  0.500000  1
  Tm  Tm6  1  0.670364  0.000000  0.500000  1
  Tm  Tm7  1  0.162391  0.000000  0.000000  1
  Tm  Tm8  1  0.500000  0.247943  0.756747  1
  Tm  Tm9  1  0.000000  0.274470  0.267412  1
  Tm  Tm10  1  0.620457  0.248183  0.121524  1
  Tm  Tm11  1  0.116785  0.269987  0.617733  1
  Tm  Tm12  1  0.883215  0.269987  0.617733  1
  Tm  Tm13  1  0.379543  0.248183  0.121524  1
  Tm  Tm14  1  0.000000  0.725530  0.732588  1
  Tm  Tm15  1  0.500000  0.752057  0.243253  1
  Tm  Tm16  1  0.883215  0.730013  0.382267  1
  Tm  Tm17  1  0.379543  0.751817  0.878476  1
  Tm  Tm18  1  0.620457  0.751817  0.878476  1
  Tm  Tm19  1  0.116785  0.730013  0.382267  1
  Si  Si20  1  0.000000  0.263594  0.898915  1
  Si  Si21  1  0.500000  0.243185  0.395392  1
  Si  Si22  1  0.801200  0.255387  0.301724  1
  Si  Si23  1  0.302360  0.246704  0.802791  1
  Si  Si24  1  0.697640  0.246704  0.802791  1
  Si  Si25  1  0.198800  0.255387  0.301724  1
  Si  Si26  1  0.500000  0.756815  0.604608  1
  Si  Si27  1  0.000000  0.736406  0.101085  1
  Si  Si28  1  0.697640  0.753296  0.197209  1
  Si  Si29  1  0.198800  0.744613  0.698276  1
  Si  Si30  1  0.801200  0.744613  0.698276  1
  Si  Si31  1  0.302360  0.753296  0.197209  1
  N  N32  1  0.000000  0.500000  0.500000  1
