# generated using pymatgen
data_Er4B12IrW
_symmetry_space_group_name_H-M   'P 1'
_cell_length_a   3.62673500
_cell_length_b   9.16762253
_cell_length_c   11.56998820
_cell_angle_alpha   90.34441253
_cell_angle_beta   90.00000000
_cell_angle_gamma   90.00000000
_symmetry_Int_Tables_number   1
_chemical_formula_structural   Er4B12IrW
_chemical_formula_sum   'Er8 B24 Ir2 W2'
_cell_volume   384.67823642
_cell_formula_units_Z   2
loop_
 _symmetry_equiv_pos_site_id
 _symmetry_equiv_pos_as_xyz
  1  'x, y, z'
loop_
 _atom_site_type_symbol
 _atom_site_label
 _atom_site_symmetry_multiplicity
 _atom_site_fract_x
 _atom_site_fract_y
 _atom_site_fract_z
 _atom_site_occupancy
  Er  Er0  1  0.000000  0.317252  0.411375  1
  Er  Er1  1  0.000000  0.682748  0.588625  1
  Er  Er2  1  0.000000  0.824809  0.083263  1
  Er  Er3  1  0.000000  0.175191  0.916737  1
  Er  Er4  1  0.000000  0.944885  0.372857  1
  Er  Er5  1  0.000000  0.055115  0.627143  1
  Er  Er6  1  0.000000  0.443327  0.126228  1
  Er  Er7  1  0.000000  0.556673  0.873772  1
  B  B8  1  0.500000  0.553786  0.434581  1
  B  B9  1  0.500000  0.446214  0.565419  1
  B  B10  1  0.500000  0.051189  0.065656  1
  B  B11  1  0.500000  0.948811  0.934344  1
  B  B12  1  0.500000  0.749258  0.421131  1
  B  B13  1  0.500000  0.250742  0.578869  1
  B  B14  1  0.500000  0.250538  0.079034  1
  B  B15  1  0.500000  0.749462  0.920966  1
  B  B16  1  0.500000  0.790604  0.266281  1
  B  B17  1  0.500000  0.209396  0.733719  1
  B  B18  1  0.500000  0.295903  0.236840  1
  B  B19  1  0.500000  0.704097  0.763160  1
  B  B20  1  0.500000  0.631444  0.184730  1
  B  B21  1  0.500000  0.368556  0.815270  1
  B  B22  1  0.500000  0.132323  0.317749  1
  B  B23  1  0.500000  0.867677  0.682251  1
  B  B24  1  0.500000  0.978671  0.213965  1
  B  B25  1  0.500000  0.021329  0.786035  1
  B  B26  1  0.500000  0.482497  0.288374  1
  B  B27  1  0.500000  0.517503  0.711626  1
  B  B28  1  0.500000  0.604874  0.029964  1
  B  B29  1  0.500000  0.395126  0.970036  1
  B  B30  1  0.500000  0.107464  0.471566  1
  B  B31  1  0.500000  0.892536  0.528434  1
  Ir  Ir32  1  0.000000  0.637117  0.322313  1
  Ir  Ir33  1  0.000000  0.362883  0.677687  1
  W  W34  1  0.000000  0.138628  0.180470  1
  W  W35  1  0.000000  0.861372  0.819530  1
