# generated using pymatgen
data_AcSb12IrOs2Ru
_symmetry_space_group_name_H-M   'P 1'
_cell_length_a   8.16442902
_cell_length_b   8.16389369
_cell_length_c   8.17923803
_cell_angle_alpha   109.48933111
_cell_angle_beta   109.49234344
_cell_angle_gamma   109.41530869
_symmetry_Int_Tables_number   1
_chemical_formula_structural   AcSb12IrOs2Ru
_chemical_formula_sum   'Ac1 Sb12 Ir1 Os2 Ru1'
_cell_volume   419.76216154
_cell_formula_units_Z   1
loop_
 _symmetry_equiv_pos_site_id
 _symmetry_equiv_pos_as_xyz
  1  'x, y, z'
loop_
 _atom_site_type_symbol
 _atom_site_label
 _atom_site_symmetry_multiplicity
 _atom_site_fract_x
 _atom_site_fract_y
 _atom_site_fract_z
 _atom_site_occupancy
  Ac  Ac0  1  0.000000  0.000000  0.000000  1
  Sb  Sb1  1  0.343235  0.158750  0.498067  1
  Sb  Sb2  1  0.340571  0.842286  0.182481  1
  Sb  Sb3  1  0.659429  0.157714  0.817519  1
  Sb  Sb4  1  0.814719  0.657104  0.155324  1
  Sb  Sb5  1  0.158630  0.498199  0.340289  1
  Sb  Sb6  1  0.501770  0.659071  0.840907  1
  Sb  Sb7  1  0.842164  0.185305  0.340384  1
  Sb  Sb8  1  0.656765  0.841250  0.501933  1
  Sb  Sb9  1  0.185281  0.342896  0.844676  1
  Sb  Sb10  1  0.157836  0.814695  0.659616  1
  Sb  Sb11  1  0.498230  0.340929  0.159093  1
  Sb  Sb12  1  0.841370  0.501801  0.659711  1
  Ir  Ir13  1  0.000000  0.000000  0.500000  1
  Os  Os14  1  0.000000  0.500000  0.000000  1
  Os  Os15  1  0.500000  0.000000  0.000000  1
  Ru  Ru16  1  0.500000  0.500000  0.500000  1
