# generated using pymatgen
data_Nd16MgAg3Ir4
_symmetry_space_group_name_H-M   'P 1'
_cell_length_a   9.89965055
_cell_length_b   9.92637674
_cell_length_c   9.92637600
_cell_angle_alpha   60.00000246
_cell_angle_beta   59.91065651
_cell_angle_gamma   59.91065940
_symmetry_Int_Tables_number   1
_chemical_formula_structural   Nd16MgAg3Ir4
_chemical_formula_sum   'Nd16 Mg1 Ag3 Ir4'
_cell_volume   688.80859169
_cell_formula_units_Z   1
loop_
 _symmetry_equiv_pos_site_id
 _symmetry_equiv_pos_as_xyz
  1  'x, y, z'
loop_
 _atom_site_type_symbol
 _atom_site_label
 _atom_site_symmetry_multiplicity
 _atom_site_fract_x
 _atom_site_fract_y
 _atom_site_fract_z
 _atom_site_occupancy
  Nd  Nd0  1  0.190922  0.810113  0.810113  1
  Nd  Nd1  1  0.813855  0.187307  0.187307  1
  Nd  Nd2  1  0.063096  0.437037  0.062829  1
  Nd  Nd3  1  0.057580  0.647474  0.647474  1
  Nd  Nd4  1  0.650850  0.651503  0.651503  1
  Nd  Nd5  1  0.063096  0.062829  0.437037  1
  Nd  Nd6  1  0.190922  0.810113  0.188851  1
  Nd  Nd7  1  0.813855  0.811531  0.187307  1
  Nd  Nd8  1  0.813855  0.187307  0.811531  1
  Nd  Nd9  1  0.437943  0.062826  0.436405  1
  Nd  Nd10  1  0.437943  0.436405  0.062826  1
  Nd  Nd11  1  0.437943  0.062826  0.062826  1
  Nd  Nd12  1  0.063096  0.437037  0.437037  1
  Nd  Nd13  1  0.190922  0.188851  0.810113  1
  Nd  Nd14  1  0.650850  0.651503  0.046147  1
  Nd  Nd15  1  0.650850  0.046147  0.651503  1
  Mg  Mg16  1  0.709704  0.430099  0.430099  1
  Ag  Ag17  1  0.418573  0.415278  0.750873  1
  Ag  Ag18  1  0.418573  0.750873  0.415278  1
  Ag  Ag19  1  0.418573  0.415278  0.415278  1
  Ir  Ir20  1  0.860081  0.856825  0.426272  1
  Ir  Ir21  1  0.860081  0.426272  0.856825  1
  Ir  Ir22  1  0.860081  0.856825  0.856825  1
  Ir  Ir23  1  0.426762  0.857747  0.857747  1
