# generated using pymatgen
data_Y19ErPb16
_symmetry_space_group_name_H-M   'P 1'
_cell_length_a   8.23074902
_cell_length_b   8.29607102
_cell_length_c   15.68178000
_cell_angle_alpha   90.00000000
_cell_angle_beta   90.00000000
_cell_angle_gamma   90.00710699
_symmetry_Int_Tables_number   1
_chemical_formula_structural   Y19ErPb16
_chemical_formula_sum   'Y19 Er1 Pb16'
_cell_volume   1070.79706781
_cell_formula_units_Z   1
loop_
 _symmetry_equiv_pos_site_id
 _symmetry_equiv_pos_as_xyz
  1  'x, y, z'
loop_
 _atom_site_type_symbol
 _atom_site_label
 _atom_site_symmetry_multiplicity
 _atom_site_fract_x
 _atom_site_fract_y
 _atom_site_fract_z
 _atom_site_occupancy
  Y  Y0  1  0.377034  0.841809  0.879194  1
  Y  Y1  1  0.877070  0.658320  0.621023  1
  Y  Y2  1  0.622498  0.157907  0.378714  1
  Y  Y3  1  0.123226  0.341534  0.121225  1
  Y  Y4  1  0.622498  0.157907  0.121286  1
  Y  Y5  1  0.123226  0.341534  0.378775  1
  Y  Y6  1  0.377034  0.841809  0.620806  1
  Y  Y7  1  0.877070  0.658320  0.878977  1
  Y  Y8  1  0.535877  0.324661  0.899909  1
  Y  Y9  1  0.035926  0.175353  0.599963  1
  Y  Y10  1  0.463859  0.675789  0.399823  1
  Y  Y11  1  0.964437  0.824941  0.100163  1
  Y  Y12  1  0.463859  0.675789  0.100177  1
  Y  Y13  1  0.964437  0.824941  0.399837  1
  Y  Y14  1  0.535877  0.324661  0.600091  1
  Y  Y15  1  0.035926  0.175353  0.900037  1
  Y  Y16  1  0.209553  0.503720  0.750000  1
  Y  Y17  1  0.709529  0.996306  0.750000  1
  Y  Y18  1  0.790415  0.496308  0.250000  1
  Er  Er19  1  0.290201  0.004122  0.250000  1
  Pb  Pb20  1  0.281308  0.033202  0.043631  1
  Pb  Pb21  1  0.781161  0.466193  0.457076  1
  Pb  Pb22  1  0.718944  0.966378  0.542734  1
  Pb  Pb23  1  0.218784  0.533537  0.957244  1
  Pb  Pb24  1  0.718944  0.966378  0.957266  1
  Pb  Pb25  1  0.218784  0.533537  0.542756  1
  Pb  Pb26  1  0.281308  0.033202  0.456369  1
  Pb  Pb27  1  0.781161  0.466193  0.042924  1
  Pb  Pb28  1  0.572766  0.625427  0.750000  1
  Pb  Pb29  1  0.072874  0.874748  0.750000  1
  Pb  Pb30  1  0.426588  0.374021  0.250000  1
  Pb  Pb31  1  0.928153  0.124330  0.250000  1
  Pb  Pb32  1  0.348100  0.152995  0.750000  1
  Pb  Pb33  1  0.848204  0.346884  0.750000  1
  Pb  Pb34  1  0.650815  0.847203  0.250000  1
  Pb  Pb35  1  0.152553  0.654688  0.250000  1
