# generated using pymatgen
data_Tb16Tl3In(IrRh)2
_symmetry_space_group_name_H-M   'P 1'
_cell_length_a   9.72886349
_cell_length_b   9.74062554
_cell_length_c   9.72878604
_cell_angle_alpha   59.95973950
_cell_angle_beta   59.91644742
_cell_angle_gamma   59.96000140
_symmetry_Int_Tables_number   1
_chemical_formula_structural   Tb16Tl3In(IrRh)2
_chemical_formula_sum   'Tb16 Tl3 In1 Ir2 Rh2'
_cell_volume   651.10985519
_cell_formula_units_Z   1
loop_
 _symmetry_equiv_pos_site_id
 _symmetry_equiv_pos_as_xyz
  1  'x, y, z'
loop_
 _atom_site_type_symbol
 _atom_site_label
 _atom_site_symmetry_multiplicity
 _atom_site_fract_x
 _atom_site_fract_y
 _atom_site_fract_z
 _atom_site_occupancy
  Tb  Tb0  1  0.812188  0.809888  0.188727  1
  Tb  Tb1  1  0.811433  0.188982  0.810602  1
  Tb  Tb2  1  0.188422  0.188861  0.812025  1
  Tb  Tb3  1  0.651216  0.046985  0.650674  1
  Tb  Tb4  1  0.060550  0.061855  0.439524  1
  Tb  Tb5  1  0.439791  0.438375  0.060677  1
  Tb  Tb6  1  0.651216  0.651126  0.650674  1
  Tb  Tb7  1  0.812188  0.189197  0.188727  1
  Tb  Tb8  1  0.188422  0.810693  0.812025  1
  Tb  Tb9  1  0.048206  0.650791  0.650214  1
  Tb  Tb10  1  0.439791  0.061157  0.060677  1
  Tb  Tb11  1  0.437485  0.062542  0.437431  1
  Tb  Tb12  1  0.059229  0.440336  0.060100  1
  Tb  Tb13  1  0.650470  0.650530  0.048470  1
  Tb  Tb14  1  0.188793  0.811270  0.188667  1
  Tb  Tb15  1  0.060550  0.438070  0.439524  1
  Tl  Tl16  1  0.416306  0.414553  0.415387  1
  Tl  Tl17  1  0.416498  0.414888  0.753726  1
  Tl  Tl18  1  0.416306  0.753752  0.415387  1
  In  In19  1  0.751046  0.416128  0.416697  1
  Ir  Ir20  1  0.857889  0.426388  0.857962  1
  Ir  Ir21  1  0.857889  0.857762  0.857962  1
  Rh  Rh22  1  0.858294  0.857988  0.425732  1
  Rh  Rh23  1  0.425818  0.857888  0.858409  1
