# generated using pymatgen
data_Tb5MoAsO12
_symmetry_space_group_name_H-M   'P 1'
_cell_length_a   6.88097100
_cell_length_b   6.88097060
_cell_length_c   7.26890504
_cell_angle_alpha   74.62829045
_cell_angle_beta   74.62829313
_cell_angle_gamma   51.39042754
_symmetry_Int_Tables_number   1
_chemical_formula_structural   Tb5MoAsO12
_chemical_formula_sum   'Tb5 Mo1 As1 O12'
_cell_volume   257.03759143
_cell_formula_units_Z   1
loop_
 _symmetry_equiv_pos_site_id
 _symmetry_equiv_pos_as_xyz
  1  'x, y, z'
loop_
 _atom_site_type_symbol
 _atom_site_label
 _atom_site_symmetry_multiplicity
 _atom_site_fract_x
 _atom_site_fract_y
 _atom_site_fract_z
 _atom_site_occupancy
  Tb  Tb0  1  0.304729  0.297245  0.360830  1
  Tb  Tb1  1  0.702755  0.695271  0.639170  1
  Tb  Tb2  1  0.309695  0.300327  0.832522  1
  Tb  Tb3  1  0.699673  0.690305  0.167478  1
  Tb  Tb4  1  0.990285  0.009715  0.500000  1
  Mo  Mo5  1  0.237750  0.762250  0.000000  1
  As  As6  1  0.748883  0.251117  0.000000  1
  O  O7  1  0.895407  0.416307  0.919951  1
  O  O8  1  0.439400  0.897409  0.917979  1
  O  O9  1  0.102591  0.560600  0.082021  1
  O  O10  1  0.583693  0.104593  0.080049  1
  O  O11  1  0.098719  0.596948  0.577352  1
  O  O12  1  0.598644  0.094640  0.572658  1
  O  O13  1  0.905360  0.401356  0.427342  1
  O  O14  1  0.403052  0.901281  0.422648  1
  O  O15  1  0.972706  0.027206  0.821635  1
  O  O16  1  0.972794  0.027294  0.178365  1
  O  O17  1  0.516238  0.482373  0.820018  1
  O  O18  1  0.517627  0.483762  0.179982  1
