# generated using pymatgen
data_YHo3(IrPd)2
_symmetry_space_group_name_H-M   'P 1'
_cell_length_a   4.86448500
_cell_length_b   6.99161000
_cell_length_c   14.60115600
_cell_angle_alpha   90.00044886
_cell_angle_beta   89.99980767
_cell_angle_gamma   89.99985558
_symmetry_Int_Tables_number   1
_chemical_formula_structural   YHo3(IrPd)2
_chemical_formula_sum   'Y3 Ho9 Ir6 Pd6'
_cell_volume   496.59381300
_cell_formula_units_Z   3
loop_
 _symmetry_equiv_pos_site_id
 _symmetry_equiv_pos_as_xyz
  1  'x, y, z'
loop_
 _atom_site_type_symbol
 _atom_site_label
 _atom_site_symmetry_multiplicity
 _atom_site_fract_x
 _atom_site_fract_y
 _atom_site_fract_z
 _atom_site_occupancy
  Y  Y0  1  0.500050  0.750234  0.666389  1
  Y  Y1  1  0.000037  0.250166  0.833364  1
  Y  Y2  1  0.000047  0.749865  0.833603  1
  Ho  Ho3  1  0.500000  0.249686  0.000293  1
  Ho  Ho4  1  0.500000  0.750287  0.000277  1
  Ho  Ho5  1  0.999959  0.250247  0.166711  1
  Ho  Ho6  1  0.999959  0.749748  0.166716  1
  Ho  Ho7  1  0.499952  0.249762  0.333300  1
  Ho  Ho8  1  0.499950  0.750215  0.333314  1
  Ho  Ho9  1  0.999998  0.250306  0.499931  1
  Ho  Ho10  1  0.000000  0.749729  0.499705  1
  Ho  Ho11  1  0.500048  0.249765  0.666407  1
  Ir  Ir12  1  0.000002  0.000008  0.001115  1
  Ir  Ir13  1  0.499928  0.500041  0.166713  1
  Ir  Ir14  1  0.999911  0.000004  0.333303  1
  Ir  Ir15  1  0.499995  0.499249  0.499397  1
  Ir  Ir16  1  0.000095  0.001409  0.665582  1
  Ir  Ir17  1  0.500071  0.499264  0.833886  1
  Pd  Pd18  1  0.999998  0.499978  0.001059  1
  Pd  Pd19  1  0.499958  0.999981  0.166773  1
  Pd  Pd20  1  0.999967  0.499977  0.333265  1
  Pd  Pd21  1  0.499998  0.000867  0.499389  1
  Pd  Pd22  1  0.000036  0.498362  0.665674  1
  Pd  Pd23  1  0.500043  0.000854  0.833835  1
