# generated using pymatgen
data_NaLiYPt3
_symmetry_space_group_name_H-M   'P 1'
_cell_length_a   5.49667423
_cell_length_b   5.49667557
_cell_length_c   5.16662995
_cell_angle_alpha   57.86338728
_cell_angle_beta   57.86337884
_cell_angle_gamma   60.00001418
_symmetry_Int_Tables_number   1
_chemical_formula_structural   NaLiYPt3
_chemical_formula_sum   'Na1 Li1 Y1 Pt3'
_cell_volume   106.68037608
_cell_formula_units_Z   1
loop_
 _symmetry_equiv_pos_site_id
 _symmetry_equiv_pos_as_xyz
  1  'x, y, z'
loop_
 _atom_site_type_symbol
 _atom_site_label
 _atom_site_symmetry_multiplicity
 _atom_site_fract_x
 _atom_site_fract_y
 _atom_site_fract_z
 _atom_site_occupancy
  Na  Na0  1  0.251886  0.251886  0.244343  1
  Li  Li1  1  0.622149  0.622149  0.133554  1
  Y  Y2  1  0.005182  0.005182  0.984455  1
  Pt  Pt3  1  0.623255  0.124274  0.629216  1
  Pt  Pt4  1  0.124274  0.623255  0.629216  1
  Pt  Pt5  1  0.623255  0.623255  0.629216  1
