# generated using pymatgen
data_Tm6Fe5Os7
_symmetry_space_group_name_H-M   'P 1'
_cell_length_a   5.25116830
_cell_length_b   5.23559088
_cell_length_c   12.97413200
_cell_angle_alpha   90.12812681
_cell_angle_beta   89.61703007
_cell_angle_gamma   119.51455299
_symmetry_Int_Tables_number   1
_chemical_formula_structural   Tm6Fe5Os7
_chemical_formula_sum   'Tm6 Fe5 Os7'
_cell_volume   310.40183355
_cell_formula_units_Z   1
loop_
 _symmetry_equiv_pos_site_id
 _symmetry_equiv_pos_as_xyz
  1  'x, y, z'
loop_
 _atom_site_type_symbol
 _atom_site_label
 _atom_site_symmetry_multiplicity
 _atom_site_fract_x
 _atom_site_fract_y
 _atom_site_fract_z
 _atom_site_occupancy
  Tm  Tm0  1  0.336769  0.670955  0.917795  1
  Tm  Tm1  1  0.996257  0.998175  0.250020  1
  Tm  Tm2  1  0.665449  0.333470  0.583409  1
  Tm  Tm3  1  0.330433  0.661621  0.666458  1
  Tm  Tm4  1  0.003406  0.002810  0.999441  1
  Tm  Tm5  1  0.666742  0.332078  0.332579  1
  Fe  Fe6  1  0.333127  0.165393  0.792523  1
  Fe  Fe7  1  0.497202  0.500609  0.125274  1
  Fe  Fe8  1  0.169735  0.836042  0.458157  1
  Fe  Fe9  1  0.833924  0.164304  0.791674  1
  Fe  Fe10  1  0.498270  0.999450  0.124425  1
  Os  Os11  1  0.169506  0.338004  0.457178  1
  Os  Os12  1  0.832050  0.662382  0.793264  1
  Os  Os13  1  0.330733  0.668022  0.288322  1
  Os  Os14  1  0.001529  0.996956  0.628355  1
  Os  Os15  1  0.667616  0.334620  0.958507  1
  Os  Os16  1  0.995176  0.498394  0.123619  1
  Os  Os17  1  0.672076  0.836717  0.459001  1
