# generated using pymatgen
data_DyTh3Al14(Ga2Ir3)2
_symmetry_space_group_name_H-M   'P 1'
_cell_length_a   7.62194801
_cell_length_b   7.62670463
_cell_length_c   9.56275300
_cell_angle_alpha   90.00000000
_cell_angle_beta   90.00000000
_cell_angle_gamma   119.47514464
_symmetry_Int_Tables_number   1
_chemical_formula_structural   DyTh3Al14(Ga2Ir3)2
_chemical_formula_sum   'Dy1 Th3 Al14 Ga4 Ir6'
_cell_volume   483.93737197
_cell_formula_units_Z   1
loop_
 _symmetry_equiv_pos_site_id
 _symmetry_equiv_pos_as_xyz
  1  'x, y, z'
loop_
 _atom_site_type_symbol
 _atom_site_label
 _atom_site_symmetry_multiplicity
 _atom_site_fract_x
 _atom_site_fract_y
 _atom_site_fract_z
 _atom_site_occupancy
  Dy  Dy0  1  0.326408  0.004983  0.750000  1
  Th  Th1  1  0.994675  0.670864  0.250000  1
  Th  Th2  1  0.002956  0.326548  0.750000  1
  Th  Th3  1  0.670255  0.994240  0.250000  1
  Al  Al4  1  0.006191  0.336039  0.073229  1
  Al  Al5  1  0.000205  0.668626  0.923328  1
  Al  Al6  1  0.000205  0.668626  0.576672  1
  Al  Al7  1  0.335310  0.004580  0.432862  1
  Al  Al8  1  0.006191  0.336039  0.426771  1
  Al  Al9  1  0.658832  0.995724  0.576302  1
  Al  Al10  1  0.658832  0.995724  0.923698  1
  Al  Al11  1  0.335310  0.004580  0.067138  1
  Al  Al12  1  0.336776  0.333160  0.558617  1
  Al  Al13  1  0.663388  0.663383  0.455715  1
  Al  Al14  1  0.663388  0.663383  0.044285  1
  Al  Al15  1  0.336776  0.333160  0.941383  1
  Al  Al16  1  0.658834  0.449821  0.750000  1
  Al  Al17  1  0.452534  0.664944  0.750000  1
  Ga  Ga18  1  0.137818  0.134614  0.250000  1
  Ga  Ga19  1  0.866009  0.863863  0.750000  1
  Ga  Ga20  1  0.343588  0.544464  0.250000  1
  Ga  Ga21  1  0.544366  0.339950  0.250000  1
  Ir  Ir22  1  0.673554  0.329112  0.997753  1
  Ir  Ir23  1  0.327614  0.670951  0.997906  1
  Ir  Ir24  1  0.327614  0.670951  0.502094  1
  Ir  Ir25  1  0.673554  0.329112  0.502247  1
  Ir  Ir26  1  0.999410  0.001279  0.000268  1
  Ir  Ir27  1  0.999410  0.001279  0.499732  1
