# generated using pymatgen
data_YHoTh2(ReB6)2
_symmetry_space_group_name_H-M   'P 1'
_cell_length_a   3.76681700
_cell_length_b   9.26499809
_cell_length_c   11.68573311
_cell_angle_alpha   90.01605199
_cell_angle_beta   90.00000000
_cell_angle_gamma   90.00000000
_symmetry_Int_Tables_number   1
_chemical_formula_structural   YHoTh2(ReB6)2
_chemical_formula_sum   'Y2 Ho2 Th4 Re4 B24'
_cell_volume   407.82683815
_cell_formula_units_Z   2
loop_
 _symmetry_equiv_pos_site_id
 _symmetry_equiv_pos_as_xyz
  1  'x, y, z'
loop_
 _atom_site_type_symbol
 _atom_site_label
 _atom_site_symmetry_multiplicity
 _atom_site_fract_x
 _atom_site_fract_y
 _atom_site_fract_z
 _atom_site_occupancy
  Y  Y0  1  0.000000  0.944722  0.372606  1
  Y  Y1  1  0.000000  0.055278  0.627394  1
  Ho  Ho2  1  0.000000  0.444658  0.127288  1
  Ho  Ho3  1  0.000000  0.555342  0.872712  1
  Th  Th4  1  0.000000  0.322482  0.413860  1
  Th  Th5  1  0.000000  0.677518  0.586140  1
  Th  Th6  1  0.000000  0.822068  0.085950  1
  Th  Th7  1  0.000000  0.177932  0.914050  1
  Re  Re8  1  0.000000  0.638612  0.319963  1
  Re  Re9  1  0.000000  0.361388  0.680037  1
  Re  Re10  1  0.000000  0.139363  0.179690  1
  Re  Re11  1  0.000000  0.860637  0.820310  1
  B  B12  1  0.500000  0.556028  0.430009  1
  B  B13  1  0.500000  0.443972  0.569991  1
  B  B14  1  0.500000  0.056130  0.069914  1
  B  B15  1  0.500000  0.943870  0.930086  1
  B  B16  1  0.500000  0.749052  0.417222  1
  B  B17  1  0.500000  0.250948  0.582778  1
  B  B18  1  0.500000  0.249602  0.082782  1
  B  B19  1  0.500000  0.750398  0.917218  1
  B  B20  1  0.500000  0.790441  0.266648  1
  B  B21  1  0.500000  0.209559  0.733352  1
  B  B22  1  0.500000  0.290938  0.233120  1
  B  B23  1  0.500000  0.709062  0.766880  1
  B  B24  1  0.500000  0.630323  0.186292  1
  B  B25  1  0.500000  0.369677  0.813708  1
  B  B26  1  0.500000  0.130857  0.313376  1
  B  B27  1  0.500000  0.869143  0.686624  1
  B  B28  1  0.500000  0.985350  0.213639  1
  B  B29  1  0.500000  0.014650  0.786361  1
  B  B30  1  0.500000  0.485033  0.285981  1
  B  B31  1  0.500000  0.514967  0.714019  1
  B  B32  1  0.500000  0.603199  0.028435  1
  B  B33  1  0.500000  0.396801  0.971565  1
  B  B34  1  0.500000  0.104064  0.471368  1
  B  B35  1  0.500000  0.895936  0.528632  1
