# generated using pymatgen
data_Ca4LuSc3(BO4)4
_symmetry_space_group_name_H-M   'P 1'
_cell_length_a   3.42622600
_cell_length_b   9.51337691
_cell_length_c   10.36729032
_cell_angle_alpha   90.32350817
_cell_angle_beta   90.00000000
_cell_angle_gamma   90.00000000
_symmetry_Int_Tables_number   1
_chemical_formula_structural   Ca4LuSc3(BO4)4
_chemical_formula_sum   'Ca4 Lu1 Sc3 B4 O16'
_cell_volume   337.91622687
_cell_formula_units_Z   1
loop_
 _symmetry_equiv_pos_site_id
 _symmetry_equiv_pos_as_xyz
  1  'x, y, z'
loop_
 _atom_site_type_symbol
 _atom_site_label
 _atom_site_symmetry_multiplicity
 _atom_site_fract_x
 _atom_site_fract_y
 _atom_site_fract_z
 _atom_site_occupancy
  Ca  Ca0  1  0.250000  0.661375  0.089487  1
  Ca  Ca1  1  0.750000  0.339954  0.915700  1
  Ca  Ca2  1  0.750000  0.156848  0.410125  1
  Ca  Ca3  1  0.250000  0.837241  0.586935  1
  Lu  Lu4  1  0.250000  0.417424  0.608471  1
  Sc  Sc5  1  0.250000  0.073934  0.107024  1
  Sc  Sc6  1  0.750000  0.925047  0.891027  1
  Sc  Sc7  1  0.750000  0.571270  0.388151  1
  B  B8  1  0.250000  0.362623  0.195975  1
  B  B9  1  0.750000  0.634933  0.805161  1
  B  B10  1  0.750000  0.867940  0.304544  1
  B  B11  1  0.250000  0.136634  0.701127  1
  O  O12  1  0.250000  0.489845  0.262799  1
  O  O13  1  0.750000  0.508797  0.736035  1
  O  O14  1  0.750000  0.990399  0.231236  1
  O  O15  1  0.250000  0.007058  0.761939  1
  O  O16  1  0.250000  0.233388  0.258554  1
  O  O17  1  0.750000  0.763705  0.741741  1
  O  O18  1  0.750000  0.736614  0.244598  1
  O  O19  1  0.250000  0.261873  0.771123  1
  O  O20  1  0.250000  0.366967  0.062845  1
  O  O21  1  0.750000  0.629749  0.938571  1
  O  O22  1  0.750000  0.882609  0.437801  1
  O  O23  1  0.250000  0.144950  0.567465  1
  O  O24  1  0.250000  0.616745  0.496808  1
  O  O25  1  0.750000  0.384427  0.487387  1
  O  O26  1  0.750000  0.112205  0.997322  1
  O  O27  1  0.250000  0.885449  0.000053  1
