# generated using pymatgen
data_Th4Sn2Ru3Au
_symmetry_space_group_name_H-M   'P 1'
_cell_length_a   7.82582556
_cell_length_b   7.82582556
_cell_length_c   3.84226700
_cell_angle_alpha   90.00000000
_cell_angle_beta   90.00000000
_cell_angle_gamma   90.89848797
_symmetry_Int_Tables_number   1
_chemical_formula_structural   Th4Sn2Ru3Au
_chemical_formula_sum   'Th4 Sn2 Ru3 Au1'
_cell_volume   235.28512173
_cell_formula_units_Z   1
loop_
 _symmetry_equiv_pos_site_id
 _symmetry_equiv_pos_as_xyz
  1  'x, y, z'
loop_
 _atom_site_type_symbol
 _atom_site_label
 _atom_site_symmetry_multiplicity
 _atom_site_fract_x
 _atom_site_fract_y
 _atom_site_fract_z
 _atom_site_occupancy
  Th  Th0  1  0.336132  0.807095  0.500000  1
  Th  Th1  1  0.823464  0.676536  0.500000  1
  Th  Th2  1  0.150749  0.349251  0.500000  1
  Th  Th3  1  0.692905  0.163868  0.500000  1
  Sn  Sn4  1  0.001880  0.995260  0.000000  1
  Sn  Sn5  1  0.504740  0.498120  0.000000  1
  Ru  Ru6  1  0.859813  0.365618  0.000000  1
  Ru  Ru7  1  0.134382  0.640187  0.000000  1
  Ru  Ru8  1  0.627906  0.872094  0.000000  1
  Au  Au9  1  0.368029  0.131971  0.000000  1
