# generated using pymatgen
data_TmTh2(InNi)3
_symmetry_space_group_name_H-M   'P 1'
_cell_length_a   7.37393600
_cell_length_b   7.45930481
_cell_length_c   3.98487000
_cell_angle_alpha   90.00000000
_cell_angle_beta   90.00000000
_cell_angle_gamma   119.62213210
_symmetry_Int_Tables_number   1
_chemical_formula_structural   TmTh2(InNi)3
_chemical_formula_sum   'Tm1 Th2 In3 Ni3'
_cell_volume   190.53887065
_cell_formula_units_Z   1
loop_
 _symmetry_equiv_pos_site_id
 _symmetry_equiv_pos_as_xyz
  1  'x, y, z'
loop_
 _atom_site_type_symbol
 _atom_site_label
 _atom_site_symmetry_multiplicity
 _atom_site_fract_x
 _atom_site_fract_y
 _atom_site_fract_z
 _atom_site_occupancy
  Tm  Tm0  1  0.412734  0.000000  0.500000  1
  Th  Th1  1  0.999135  0.416153  0.500000  1
  Th  Th2  1  0.582982  0.583847  0.500000  1
  In  In3  1  0.742417  0.000000  0.000000  1
  In  In4  1  0.011439  0.762399  0.000000  1
  In  In5  1  0.249040  0.237601  0.000000  1
  Ni  Ni6  1  0.333105  0.658396  0.000000  1
  Ni  Ni7  1  0.674710  0.341604  0.000000  1
  Ni  Ni8  1  0.994437  0.000000  0.500000  1
