# generated using pymatgen
data_Ce3Nd5(Si3Ir)4
_symmetry_space_group_name_H-M   'P 1'
_cell_length_a   8.25283000
_cell_length_b   8.25282999
_cell_length_c   8.43625800
_cell_angle_alpha   90.00000000
_cell_angle_beta   90.00000000
_cell_angle_gamma   119.99999202
_symmetry_Int_Tables_number   1
_chemical_formula_structural   Ce3Nd5(Si3Ir)4
_chemical_formula_sum   'Ce3 Nd5 Si12 Ir4'
_cell_volume   497.60681253
_cell_formula_units_Z   1
loop_
 _symmetry_equiv_pos_site_id
 _symmetry_equiv_pos_as_xyz
  1  'x, y, z'
loop_
 _atom_site_type_symbol
 _atom_site_label
 _atom_site_symmetry_multiplicity
 _atom_site_fract_x
 _atom_site_fract_y
 _atom_site_fract_z
 _atom_site_occupancy
  Ce  Ce0  1  0.499743  0.500257  0.750000  1
  Ce  Ce1  1  0.499743  0.999488  0.750000  1
  Ce  Ce2  1  0.000512  0.500257  0.750000  1
  Nd  Nd3  1  0.000000  0.000000  0.250000  1
  Nd  Nd4  1  0.000000  0.000000  0.750000  1
  Nd  Nd5  1  0.500300  0.499700  0.250000  1
  Nd  Nd6  1  0.500300  0.000600  0.250000  1
  Nd  Nd7  1  0.999400  0.499700  0.250000  1
  Si  Si8  1  0.166623  0.833377  0.502014  1
  Si  Si9  1  0.166623  0.333247  0.502014  1
  Si  Si10  1  0.666753  0.833377  0.502014  1
  Si  Si11  1  0.833343  0.166657  0.502086  1
  Si  Si12  1  0.833343  0.666685  0.502086  1
  Si  Si13  1  0.333315  0.166657  0.502086  1
  Si  Si14  1  0.833343  0.166657  0.997914  1
  Si  Si15  1  0.833343  0.666685  0.997914  1
  Si  Si16  1  0.333315  0.166657  0.997914  1
  Si  Si17  1  0.166623  0.833377  0.997986  1
  Si  Si18  1  0.166623  0.333247  0.997986  1
  Si  Si19  1  0.666753  0.833377  0.997986  1
  Ir  Ir20  1  0.333333  0.666667  0.510716  1
  Ir  Ir21  1  0.666667  0.333333  0.512667  1
  Ir  Ir22  1  0.666667  0.333333  0.987333  1
  Ir  Ir23  1  0.333333  0.666667  0.989284  1
