# generated using pymatgen
data_LiHo3Cd2InAgRh
_symmetry_space_group_name_H-M   'P 1'
_cell_length_a   7.92249600
_cell_length_b   7.92249568
_cell_length_c   3.68658900
_cell_angle_alpha   90.00000000
_cell_angle_beta   90.00000000
_cell_angle_gamma   119.99999300
_symmetry_Int_Tables_number   1
_chemical_formula_structural   LiHo3Cd2InAgRh
_chemical_formula_sum   'Li1 Ho3 Cd2 In1 Ag1 Rh1'
_cell_volume   200.39155928
_cell_formula_units_Z   1
loop_
 _symmetry_equiv_pos_site_id
 _symmetry_equiv_pos_as_xyz
  1  'x, y, z'
loop_
 _atom_site_type_symbol
 _atom_site_label
 _atom_site_symmetry_multiplicity
 _atom_site_fract_x
 _atom_site_fract_y
 _atom_site_fract_z
 _atom_site_occupancy
  Li  Li0  1  0.000975  0.000021  0.500000  1
  Ho  Ho1  1  0.968500  0.394866  0.500000  1
  Ho  Ho2  1  0.604073  0.574443  0.500000  1
  Ho  Ho3  1  0.426459  0.031273  0.500000  1
  Cd  Cd4  1  0.254818  0.260824  0.000000  1
  Cd  Cd5  1  0.005362  0.745025  0.000000  1
  In  In6  1  0.740362  0.994366  0.000000  1
  Ag  Ag7  1  0.333079  0.666546  0.000000  1
  Rh  Rh8  1  0.666371  0.332637  0.000000  1
