# generated using pymatgen
data_Ba3NbZnSbO9
_symmetry_space_group_name_H-M   'P 1'
_cell_length_a   5.86543200
_cell_length_b   5.86542550
_cell_length_c   7.21438000
_cell_angle_alpha   89.99982571
_cell_angle_beta   90.00008204
_cell_angle_gamma   120.00008762
_symmetry_Int_Tables_number   1
_chemical_formula_structural   Ba3NbZnSbO9
_chemical_formula_sum   'Ba3 Nb1 Zn1 Sb1 O9'
_cell_volume   214.94571376
_cell_formula_units_Z   1
loop_
 _symmetry_equiv_pos_site_id
 _symmetry_equiv_pos_as_xyz
  1  'x, y, z'
loop_
 _atom_site_type_symbol
 _atom_site_label
 _atom_site_symmetry_multiplicity
 _atom_site_fract_x
 _atom_site_fract_y
 _atom_site_fract_z
 _atom_site_occupancy
  Ba  Ba0  1  0.999998  0.000000  0.007107  1
  Ba  Ba1  1  0.666671  0.333336  0.333331  1
  Ba  Ba2  1  0.333336  0.666666  0.655300  1
  Nb  Nb3  1  0.666664  0.333333  0.820230  1
  Zn  Zn4  1  0.000000  0.999999  0.495348  1
  Sb  Sb5  1  0.333335  0.666666  0.169588  1
  O  O6  1  0.004522  0.502261  0.002270  1
  O  O7  1  0.497737  0.502262  0.002271  1
  O  O8  1  0.497739  0.995479  0.002270  1
  O  O9  1  0.657712  0.828855  0.326191  1
  O  O10  1  0.171147  0.828857  0.326194  1
  O  O11  1  0.171146  0.342289  0.326194  1
  O  O12  1  0.344834  0.172419  0.677904  1
  O  O13  1  0.827580  0.172414  0.677901  1
  O  O14  1  0.827580  0.655162  0.677902  1
