# generated using pymatgen
data_Tm3Lu2RuRh
_symmetry_space_group_name_H-M   'P 1'
_cell_length_a   6.27609855
_cell_length_b   7.20125745
_cell_length_c   8.34101431
_cell_angle_alpha   96.78368299
_cell_angle_beta   112.38161217
_cell_angle_gamma   89.99996703
_symmetry_Int_Tables_number   1
_chemical_formula_structural   Tm3Lu2RuRh
_chemical_formula_sum   'Tm6 Lu4 Ru2 Rh2'
_cell_volume   345.72449954
_cell_formula_units_Z   2
loop_
 _symmetry_equiv_pos_site_id
 _symmetry_equiv_pos_as_xyz
  1  'x, y, z'
loop_
 _atom_site_type_symbol
 _atom_site_label
 _atom_site_symmetry_multiplicity
 _atom_site_fract_x
 _atom_site_fract_y
 _atom_site_fract_z
 _atom_site_occupancy
  Tm  Tm0  1  0.524058  0.081712  0.815797  1
  Tm  Tm1  1  0.475942  0.918288  0.184203  1
  Tm  Tm2  1  0.710671  0.415790  0.187716  1
  Tm  Tm3  1  0.289329  0.584210  0.812284  1
  Tm  Tm4  1  0.290435  0.312314  0.435502  1
  Tm  Tm5  1  0.709565  0.687686  0.564498  1
  Lu  Lu6  1  0.858699  0.182443  0.562674  1
  Lu  Lu7  1  0.141301  0.817557  0.437326  1
  Lu  Lu8  1  0.079157  0.247707  0.999092  1
  Lu  Lu9  1  0.920843  0.752293  0.000908  1
  Ru  Ru10  1  0.105402  0.923436  0.782360  1
  Ru  Ru11  1  0.894598  0.076564  0.217640  1
  Rh  Rh12  1  0.323538  0.575507  0.222411  1
  Rh  Rh13  1  0.676462  0.424493  0.777589  1
