# generated using pymatgen
data_LiScB14
_symmetry_space_group_name_H-M   'P 1'
_cell_length_a   7.31193862
_cell_length_b   7.31193851
_cell_length_c   7.31193914
_cell_angle_alpha   131.33661151
_cell_angle_beta   112.82904296
_cell_angle_gamma   87.22210960
_symmetry_Int_Tables_number   1
_chemical_formula_structural   LiScB14
_chemical_formula_sum   'Li2 Sc2 B28'
_cell_volume   258.04945039
_cell_formula_units_Z   2
loop_
 _symmetry_equiv_pos_site_id
 _symmetry_equiv_pos_as_xyz
  1  'x, y, z'
loop_
 _atom_site_type_symbol
 _atom_site_label
 _atom_site_symmetry_multiplicity
 _atom_site_fract_x
 _atom_site_fract_y
 _atom_site_fract_z
 _atom_site_occupancy
  Li  Li0  1  0.100593  0.750000  0.350593  1
  Li  Li1  1  0.899407  0.250000  0.649407  1
  Sc  Sc2  1  0.500000  0.500000  0.500000  1
  Sc  Sc3  1  0.500000  0.000000  0.000000  1
  B  B4  1  0.897043  0.218194  0.989262  1
  B  B5  1  0.465765  0.179160  0.798860  1
  B  B6  1  0.880300  0.166906  0.201140  1
  B  B7  1  0.728933  0.407781  0.010738  1
  B  B8  1  0.593193  0.419409  0.173784  1
  B  B9  1  0.753383  0.362060  0.391323  1
  B  B10  1  0.307326  0.334095  0.973231  1
  B  B11  1  0.728933  0.718194  0.321151  1
  B  B12  1  0.880300  0.679160  0.713394  1
  B  B13  1  0.465765  0.666906  0.286606  1
  B  B14  1  0.102957  0.092219  0.321151  1
  B  B15  1  0.897043  0.907781  0.678849  1
  B  B16  1  0.534235  0.333094  0.713394  1
  B  B17  1  0.119700  0.320840  0.286606  1
  B  B18  1  0.271067  0.281806  0.678849  1
  B  B19  1  0.745624  0.919409  0.826216  1
  B  B20  1  0.470737  0.862060  0.608677  1
  B  B21  1  0.860864  0.834095  0.026769  1
  B  B22  1  0.692674  0.665905  0.026769  1
  B  B23  1  0.246617  0.637940  0.608677  1
  B  B24  1  0.406807  0.580591  0.826216  1
  B  B25  1  0.271067  0.592219  0.989262  1
  B  B26  1  0.119700  0.833094  0.798860  1
  B  B27  1  0.534235  0.820840  0.201140  1
  B  B28  1  0.102957  0.781806  0.010738  1
  B  B29  1  0.139136  0.165905  0.973231  1
  B  B30  1  0.529263  0.137940  0.391323  1
  B  B31  1  0.254376  0.080591  0.173784  1
