# generated using pymatgen
data_DyHoHPt6
_symmetry_space_group_name_H-M   'P 1'
_cell_length_a   5.86403728
_cell_length_b   5.86393144
_cell_length_c   5.86403700
_cell_angle_alpha   60.00060626
_cell_angle_beta   59.99881283
_cell_angle_gamma   60.00059254
_symmetry_Int_Tables_number   1
_chemical_formula_structural   DyHoHPt6
_chemical_formula_sum   'Dy1 Ho1 H1 Pt6'
_cell_volume   142.58286875
_cell_formula_units_Z   1
loop_
 _symmetry_equiv_pos_site_id
 _symmetry_equiv_pos_as_xyz
  1  'x, y, z'
loop_
 _atom_site_type_symbol
 _atom_site_label
 _atom_site_symmetry_multiplicity
 _atom_site_fract_x
 _atom_site_fract_y
 _atom_site_fract_z
 _atom_site_occupancy
  Dy  Dy0  1  0.250000  0.250000  0.250000  1
  Ho  Ho1  1  0.750000  0.750000  0.750000  1
  H  H2  1  0.000000  0.000000  0.000000  1
  Pt  Pt3  1  0.747551  0.252450  0.252450  1
  Pt  Pt4  1  0.252452  0.747549  0.252452  1
  Pt  Pt5  1  0.747550  0.747550  0.252451  1
  Pt  Pt6  1  0.747548  0.252453  0.747548  1
  Pt  Pt7  1  0.252450  0.252450  0.747551  1
  Pt  Pt8  1  0.252451  0.747550  0.747550  1
