# generated using pymatgen
data_Y3Tl2InPd2Rh
_symmetry_space_group_name_H-M   'P 1'
_cell_length_a   7.83208806
_cell_length_b   7.82911669
_cell_length_c   3.80527900
_cell_angle_alpha   90.00000000
_cell_angle_beta   90.00000000
_cell_angle_gamma   120.22183294
_symmetry_Int_Tables_number   1
_chemical_formula_structural   Y3Tl2InPd2Rh
_chemical_formula_sum   'Y3 Tl2 In1 Pd2 Rh1'
_cell_volume   201.61940253
_cell_formula_units_Z   1
loop_
 _symmetry_equiv_pos_site_id
 _symmetry_equiv_pos_as_xyz
  1  'x, y, z'
loop_
 _atom_site_type_symbol
 _atom_site_label
 _atom_site_symmetry_multiplicity
 _atom_site_fract_x
 _atom_site_fract_y
 _atom_site_fract_z
 _atom_site_occupancy
  Y  Y0  1  0.983675  0.587705  0.500000  1
  Y  Y1  1  0.411744  0.397313  0.500000  1
  Y  Y2  1  0.601790  0.013688  0.500000  1
  Tl  Tl3  1  0.002665  0.268646  0.000000  1
  Tl  Tl4  1  0.265119  0.995852  0.000000  1
  In  In5  1  0.733355  0.735949  0.000000  1
  Pd  Pd6  1  0.341562  0.668386  0.000000  1
  Pd  Pd7  1  0.991739  0.991807  0.500000  1
  Rh  Rh8  1  0.668351  0.340654  0.000000  1
