# generated using pymatgen
data_Nd3Dy(Sn5Rh3)2
_symmetry_space_group_name_H-M   'P 1'
_cell_length_a   13.59263201
_cell_length_b   13.59263203
_cell_length_c   7.25350234
_cell_angle_alpha   89.87692466
_cell_angle_beta   90.12307501
_cell_angle_gamma   160.85040957
_symmetry_Int_Tables_number   1
_chemical_formula_structural   Nd3Dy(Sn5Rh3)2
_chemical_formula_sum   'Nd3 Dy1 Sn10 Rh6'
_cell_volume   439.61740905
_cell_formula_units_Z   1
loop_
 _symmetry_equiv_pos_site_id
 _symmetry_equiv_pos_as_xyz
  1  'x, y, z'
loop_
 _atom_site_type_symbol
 _atom_site_label
 _atom_site_symmetry_multiplicity
 _atom_site_fract_x
 _atom_site_fract_y
 _atom_site_fract_z
 _atom_site_occupancy
  Nd  Nd0  1  0.172161  0.827839  0.754440  1
  Nd  Nd1  1  0.827812  0.172188  0.254788  1
  Nd  Nd2  1  0.476380  0.523620  0.738650  1
  Dy  Dy3  1  0.524527  0.475473  0.238515  1
  Sn  Sn4  1  0.878702  0.121298  0.732024  1
  Sn  Sn5  1  0.120707  0.879293  0.232561  1
  Sn  Sn6  1  0.704101  0.295899  0.048417  1
  Sn  Sn7  1  0.295381  0.704619  0.548587  1
  Sn  Sn8  1  0.596240  0.403760  0.610066  1
  Sn  Sn9  1  0.404320  0.595680  0.111690  1
  Sn  Sn10  1  0.952931  0.047069  0.398623  1
  Sn  Sn11  1  0.048006  0.951994  0.901893  1
  Sn  Sn12  1  0.290316  0.709684  0.976405  1
  Sn  Sn13  1  0.709460  0.290540  0.475920  1
  Rh  Rh14  1  0.051073  0.948927  0.513841  1
  Rh  Rh15  1  0.949241  0.050759  0.019437  1
  Rh  Rh16  1  0.777055  0.222945  0.764935  1
  Rh  Rh17  1  0.222613  0.777387  0.264720  1
  Rh  Rh18  1  0.394823  0.605177  0.483846  1
  Rh  Rh19  1  0.604150  0.395850  0.986641  1
