# generated using pymatgen
data_TbNd5EuRuI12
_symmetry_space_group_name_H-M   'P 1'
_cell_length_a   10.09428643
_cell_length_b   10.00742182
_cell_length_c   10.01587103
_cell_angle_alpha   106.68327484
_cell_angle_beta   106.39969628
_cell_angle_gamma   106.81606927
_symmetry_Int_Tables_number   1
_chemical_formula_structural   TbNd5EuRuI12
_chemical_formula_sum   'Tb1 Nd5 Eu1 Ru1 I12'
_cell_volume   850.90640944
_cell_formula_units_Z   1
loop_
 _symmetry_equiv_pos_site_id
 _symmetry_equiv_pos_as_xyz
  1  'x, y, z'
loop_
 _atom_site_type_symbol
 _atom_site_label
 _atom_site_symmetry_multiplicity
 _atom_site_fract_x
 _atom_site_fract_y
 _atom_site_fract_z
 _atom_site_occupancy
  Tb  Tb0  1  0.301431  0.024324  0.098361  1
  Nd  Nd1  1  0.905142  0.703128  0.976831  1
  Nd  Nd2  1  0.977330  0.904017  0.704424  1
  Nd  Nd3  1  0.689821  0.975919  0.899799  1
  Nd  Nd4  1  0.098245  0.297655  0.024102  1
  Nd  Nd5  1  0.023309  0.095957  0.295947  1
  Eu  Eu6  1  0.500368  0.499932  0.500150  1
  Ru  Ru7  1  0.000536  0.000622  0.000411  1
  I  I8  1  0.624604  0.852121  0.542629  1
  I  I9  1  0.544089  0.622168  0.852275  1
  I  I10  1  0.850610  0.541983  0.622244  1
  I  I11  1  0.375720  0.143723  0.448543  1
  I  I12  1  0.455920  0.369910  0.147095  1
  I  I13  1  0.149859  0.458138  0.377714  1
  I  I14  1  0.676414  0.073891  0.225130  1
  I  I15  1  0.229363  0.687996  0.075689  1
  I  I16  1  0.075282  0.226977  0.680926  1
  I  I17  1  0.320338  0.927845  0.782397  1
  I  I18  1  0.776627  0.320661  0.926273  1
  I  I19  1  0.924991  0.773033  0.319059  1
