# generated using pymatgen
data_PrGd3V4F28
_symmetry_space_group_name_H-M   'P 1'
_cell_length_a   5.60571628
_cell_length_b   9.03559052
_cell_length_c   12.04618000
_cell_angle_alpha   62.87452644
_cell_angle_beta   89.98191913
_cell_angle_gamma   89.97264405
_symmetry_Int_Tables_number   1
_chemical_formula_structural   PrGd3V4F28
_chemical_formula_sum   'Pr1 Gd3 V4 F28'
_cell_volume   543.04013131
_cell_formula_units_Z   1
loop_
 _symmetry_equiv_pos_site_id
 _symmetry_equiv_pos_as_xyz
  1  'x, y, z'
loop_
 _atom_site_type_symbol
 _atom_site_label
 _atom_site_symmetry_multiplicity
 _atom_site_fract_x
 _atom_site_fract_y
 _atom_site_fract_z
 _atom_site_occupancy
  Pr  Pr0  1  0.757867  0.808917  0.768472  1
  Gd  Gd1  1  0.259284  0.196366  0.730117  1
  Gd  Gd2  1  0.241317  0.192324  0.231164  1
  Gd  Gd3  1  0.741468  0.809371  0.268401  1
  V  V4  1  0.753928  0.271224  0.956943  1
  V  V5  1  0.253068  0.725757  0.541255  1
  V  V6  1  0.245506  0.725488  0.047320  1
  V  V7  1  0.745250  0.275902  0.454392  1
  F  F8  1  0.442676  0.706560  0.926499  1
  F  F9  1  0.946228  0.292511  0.574859  1
  F  F10  1  0.552657  0.290449  0.076351  1
  F  F11  1  0.053622  0.707746  0.421027  1
  F  F12  1  0.467008  0.285500  0.543750  1
  F  F13  1  0.967232  0.713118  0.960245  1
  F  F14  1  0.534377  0.715547  0.453747  1
  F  F15  1  0.032667  0.282428  0.045914  1
  F  F16  1  0.765881  0.499286  0.865185  1
  F  F17  1  0.264833  0.496766  0.633490  1
  F  F18  1  0.236599  0.496286  0.138206  1
  F  F19  1  0.735126  0.503915  0.363254  1
  F  F20  1  0.758849  0.044764  0.047310  1
  F  F21  1  0.258286  0.952391  0.452362  1
  F  F22  1  0.241113  0.951302  0.955967  1
  F  F23  1  0.741014  0.048638  0.544847  1
  F  F24  1  0.980580  0.730454  0.632758  1
  F  F25  1  0.481903  0.267827  0.863622  1
  F  F26  1  0.016213  0.267588  0.361753  1
  F  F27  1  0.518828  0.732677  0.138931  1
  F  F28  1  0.045888  0.746047  0.169049  1
  F  F29  1  0.543799  0.254340  0.333283  1
  F  F30  1  0.955304  0.251927  0.834843  1
  F  F31  1  0.447486  0.743319  0.664974  1
  F  F32  1  0.418263  0.973620  0.230470  1
  F  F33  1  0.918398  0.027450  0.269576  1
  F  F34  1  0.582869  0.036328  0.770747  1
  F  F35  1  0.094613  0.975867  0.728920  1
