# generated using pymatgen
data_TmMg2U(CoB4)4
_symmetry_space_group_name_H-M   'P 1'
_cell_length_a   3.28557200
_cell_length_b   5.82582606
_cell_length_c   11.26656240
_cell_angle_alpha   90.44922331
_cell_angle_beta   90.00000000
_cell_angle_gamma   90.00000000
_symmetry_Int_Tables_number   1
_chemical_formula_structural   TmMg2U(CoB4)4
_chemical_formula_sum   'Tm1 Mg2 U1 Co4 B16'
_cell_volume   215.64856872
_cell_formula_units_Z   1
loop_
 _symmetry_equiv_pos_site_id
 _symmetry_equiv_pos_as_xyz
  1  'x, y, z'
loop_
 _atom_site_type_symbol
 _atom_site_label
 _atom_site_symmetry_multiplicity
 _atom_site_fract_x
 _atom_site_fract_y
 _atom_site_fract_z
 _atom_site_occupancy
  Tm  Tm0  1  0.500000  0.869267  0.347219  1
  Mg  Mg1  1  0.500000  0.373622  0.149234  1
  Mg  Mg2  1  0.500000  0.626736  0.852887  1
  U  U3  1  0.500000  0.128815  0.652445  1
  Co  Co4  1  0.500000  0.362181  0.408665  1
  Co  Co5  1  0.500000  0.637025  0.591332  1
  Co  Co6  1  0.500000  0.137640  0.909885  1
  Co  Co7  1  0.500000  0.863021  0.089239  1
  B  B8  1  0.000000  0.115118  0.047505  1
  B  B9  1  0.000000  0.884537  0.953657  1
  B  B10  1  0.000000  0.390104  0.547919  1
  B  B11  1  0.000000  0.609546  0.451477  1
  B  B12  1  0.000000  0.138864  0.465940  1
  B  B13  1  0.000000  0.863265  0.532695  1
  B  B14  1  0.000000  0.364178  0.970285  1
  B  B15  1  0.000000  0.635590  0.030020  1
  B  B16  1  0.000000  0.021462  0.189951  1
  B  B17  1  0.000000  0.979285  0.810702  1
  B  B18  1  0.000000  0.483611  0.694813  1
  B  B19  1  0.000000  0.519545  0.305322  1
  B  B20  1  0.000000  0.213062  0.311794  1
  B  B21  1  0.000000  0.784736  0.687211  1
  B  B22  1  0.000000  0.289681  0.817773  1
  B  B23  1  0.000000  0.709109  0.182027  1
