# generated using pymatgen
data_Dy20Si15Pt
_symmetry_space_group_name_H-M   'P 1'
_cell_length_a   7.45227446
_cell_length_b   7.68735733
_cell_length_c   14.60770333
_cell_angle_alpha   89.79391857
_cell_angle_beta   89.65853363
_cell_angle_gamma   90.22411476
_symmetry_Int_Tables_number   1
_chemical_formula_structural   Dy20Si15Pt
_chemical_formula_sum   'Dy20 Si15 Pt1'
_cell_volume   836.82369520
_cell_formula_units_Z   1
loop_
 _symmetry_equiv_pos_site_id
 _symmetry_equiv_pos_as_xyz
  1  'x, y, z'
loop_
 _atom_site_type_symbol
 _atom_site_label
 _atom_site_symmetry_multiplicity
 _atom_site_fract_x
 _atom_site_fract_y
 _atom_site_fract_z
 _atom_site_occupancy
  Dy  Dy0  1  0.648276  0.991458  0.249266  1
  Dy  Dy1  1  0.148833  0.511356  0.248161  1
  Dy  Dy2  1  0.847375  0.488382  0.755797  1
  Dy  Dy3  1  0.351378  0.011368  0.751229  1
  Dy  Dy4  1  0.973420  0.817178  0.098515  1
  Dy  Dy5  1  0.471647  0.683004  0.401492  1
  Dy  Dy6  1  0.528703  0.321815  0.900735  1
  Dy  Dy7  1  0.029084  0.183781  0.599100  1
  Dy  Dy8  1  0.028682  0.183404  0.901068  1
  Dy  Dy9  1  0.529525  0.317221  0.598651  1
  Dy  Dy10  1  0.473914  0.681883  0.099482  1
  Dy  Dy11  1  0.970017  0.816720  0.400586  1
  Dy  Dy12  1  0.680970  0.816486  0.880366  1
  Dy  Dy13  1  0.179940  0.680975  0.621949  1
  Dy  Dy14  1  0.818660  0.329590  0.120282  1
  Dy  Dy15  1  0.317382  0.178526  0.376426  1
  Dy  Dy16  1  0.320675  0.178617  0.123349  1
  Dy  Dy17  1  0.819205  0.319800  0.377307  1
  Dy  Dy18  1  0.178168  0.675620  0.877951  1
  Dy  Dy19  1  0.682064  0.819867  0.622749  1
  Si  Si20  1  0.764971  0.628687  0.252042  1
  Si  Si21  1  0.265963  0.872799  0.250861  1
  Si  Si22  1  0.733395  0.124501  0.748758  1
  Si  Si23  1  0.233725  0.373618  0.746731  1
  Si  Si24  1  0.020740  0.104594  0.249399  1
  Si  Si25  1  0.523391  0.396627  0.251452  1
  Si  Si26  1  0.473025  0.605399  0.746915  1
  Si  Si27  1  0.977290  0.896285  0.748416  1
  Si  Si28  1  0.354252  0.971712  0.539751  1
  Si  Si29  1  0.646747  0.027074  0.042045  1
  Si  Si30  1  0.147330  0.470276  0.460194  1
  Si  Si31  1  0.155970  0.472075  0.041634  1
  Si  Si32  1  0.644972  0.028794  0.459773  1
  Si  Si33  1  0.353089  0.969363  0.961177  1
  Si  Si34  1  0.854697  0.529080  0.539179  1
  Pt  Pt35  1  0.852524  0.522066  0.957216  1
