# generated using pymatgen
data_Tb3DyAl18(OsRh2)2
_symmetry_space_group_name_H-M   'P 1'
_cell_length_a   7.51568106
_cell_length_b   7.51594295
_cell_length_c   9.49038000
_cell_angle_alpha   90.00000000
_cell_angle_beta   90.00000000
_cell_angle_gamma   118.25289213
_symmetry_Int_Tables_number   1
_chemical_formula_structural   Tb3DyAl18(OsRh2)2
_chemical_formula_sum   'Tb3 Dy1 Al18 Os2 Rh4'
_cell_volume   472.22142010
_cell_formula_units_Z   1
loop_
 _symmetry_equiv_pos_site_id
 _symmetry_equiv_pos_as_xyz
  1  'x, y, z'
loop_
 _atom_site_type_symbol
 _atom_site_label
 _atom_site_symmetry_multiplicity
 _atom_site_fract_x
 _atom_site_fract_y
 _atom_site_fract_z
 _atom_site_occupancy
  Tb  Tb0  1  0.992583  0.683121  0.750000  1
  Tb  Tb1  1  0.007597  0.316977  0.250000  1
  Tb  Tb2  1  0.683114  0.992591  0.750000  1
  Dy  Dy3  1  0.316919  0.007586  0.250000  1
  Al  Al4  1  0.136805  0.136807  0.750000  1
  Al  Al5  1  0.863270  0.863239  0.250000  1
  Al  Al6  1  0.002738  0.338947  0.575584  1
  Al  Al7  1  0.997283  0.661091  0.424442  1
  Al  Al8  1  0.997283  0.661091  0.075558  1
  Al  Al9  1  0.338937  0.002723  0.924461  1
  Al  Al10  1  0.002738  0.338947  0.924416  1
  Al  Al11  1  0.660992  0.997229  0.075564  1
  Al  Al12  1  0.660992  0.997229  0.424436  1
  Al  Al13  1  0.338937  0.002723  0.575539  1
  Al  Al14  1  0.331289  0.331245  0.042769  1
  Al  Al15  1  0.668703  0.668704  0.957276  1
  Al  Al16  1  0.668703  0.668704  0.542724  1
  Al  Al17  1  0.331289  0.331245  0.457231  1
  Al  Al18  1  0.341697  0.555961  0.750000  1
  Al  Al19  1  0.658227  0.444006  0.250000  1
  Al  Al20  1  0.555953  0.341697  0.750000  1
  Al  Al21  1  0.444050  0.658311  0.250000  1
  Os  Os22  1  0.000066  0.000000  0.499928  1
  Os  Os23  1  0.000066  0.000000  0.000072  1
  Rh  Rh24  1  0.671512  0.328354  0.499981  1
  Rh  Rh25  1  0.328372  0.671559  0.499980  1
  Rh  Rh26  1  0.328372  0.671559  0.000020  1
  Rh  Rh27  1  0.671512  0.328354  0.000019  1
