# generated using pymatgen
data_CdCo2(AsO4)2
_symmetry_space_group_name_H-M   'P 1'
_cell_length_a   5.32401406
_cell_length_b   8.10293770
_cell_length_c   9.05750331
_cell_angle_alpha   89.99712881
_cell_angle_beta   89.99620775
_cell_angle_gamma   95.20346303
_symmetry_Int_Tables_number   1
_chemical_formula_structural   CdCo2(AsO4)2
_chemical_formula_sum   'Cd2 Co4 As4 O16'
_cell_volume   389.13180902
_cell_formula_units_Z   2
loop_
 _symmetry_equiv_pos_site_id
 _symmetry_equiv_pos_as_xyz
  1  'x, y, z'
loop_
 _atom_site_type_symbol
 _atom_site_label
 _atom_site_symmetry_multiplicity
 _atom_site_fract_x
 _atom_site_fract_y
 _atom_site_fract_z
 _atom_site_occupancy
  Cd  Cd0  1  0.000006  0.500001  0.500001  1
  Cd  Cd1  1  0.499998  0.999998  0.999998  1
  Co  Co2  1  0.908721  0.393678  0.866239  1
  Co  Co3  1  0.091282  0.606323  0.133763  1
  Co  Co4  1  0.408802  0.893673  0.633767  1
  Co  Co5  1  0.591196  0.106328  0.366232  1
  As  As6  1  0.460650  0.297842  0.701556  1
  As  As7  1  0.960700  0.797865  0.798443  1
  As  As8  1  0.539357  0.702159  0.298442  1
  As  As9  1  0.039297  0.202135  0.201560  1
  O  O10  1  0.461083  0.135229  0.576352  1
  O  O11  1  0.961090  0.635216  0.923647  1
  O  O12  1  0.538913  0.864771  0.423646  1
  O  O13  1  0.038911  0.364782  0.076356  1
  O  O14  1  0.584969  0.243583  0.870493  1
  O  O15  1  0.085025  0.743593  0.629490  1
  O  O16  1  0.415037  0.756415  0.129503  1
  O  O17  1  0.914973  0.256411  0.370512  1
  O  O18  1  0.160055  0.358154  0.708055  1
  O  O19  1  0.660121  0.858207  0.791944  1
  O  O20  1  0.839955  0.641845  0.291947  1
  O  O21  1  0.339868  0.141783  0.208056  1
  O  O22  1  0.674308  0.462380  0.658957  1
  O  O23  1  0.174360  0.962358  0.841036  1
  O  O24  1  0.325702  0.537625  0.341039  1
  O  O25  1  0.825622  0.037648  0.158969  1
