# generated using pymatgen
data_MgFeAg2(NO3)8
_symmetry_space_group_name_H-M   'P 1'
_cell_length_a   7.97376597
_cell_length_b   7.61253465
_cell_length_c   8.10885756
_cell_angle_alpha   91.37163982
_cell_angle_beta   88.73599103
_cell_angle_gamma   89.20178216
_symmetry_Int_Tables_number   1
_chemical_formula_structural   MgFeAg2(NO3)8
_chemical_formula_sum   'Mg1 Fe1 Ag2 N8 O24'
_cell_volume   491.90001390
_cell_formula_units_Z   1
loop_
 _symmetry_equiv_pos_site_id
 _symmetry_equiv_pos_as_xyz
  1  'x, y, z'
loop_
 _atom_site_type_symbol
 _atom_site_label
 _atom_site_symmetry_multiplicity
 _atom_site_fract_x
 _atom_site_fract_y
 _atom_site_fract_z
 _atom_site_occupancy
  Mg  Mg0  1  0.000000  0.000000  0.500000  1
  Fe  Fe1  1  0.500000  0.500000  0.500000  1
  Ag  Ag2  1  0.500000  0.000000  0.000000  1
  Ag  Ag3  1  0.000000  0.500000  0.000000  1
  N  N4  1  0.697652  0.178834  0.347911  1
  N  N5  1  0.639647  0.321395  0.807501  1
  N  N6  1  0.850173  0.827586  0.817141  1
  N  N7  1  0.805443  0.673001  0.344240  1
  N  N8  1  0.149827  0.172414  0.182859  1
  N  N9  1  0.194557  0.326999  0.655760  1
  N  N10  1  0.360353  0.678605  0.192499  1
  N  N11  1  0.302348  0.821166  0.652089  1
  O  O12  1  0.525750  0.208253  0.794943  1
  O  O13  1  0.577731  0.295038  0.346253  1
  O  O14  1  0.647268  0.444737  0.700078  1
  O  O15  1  0.710967  0.070719  0.231993  1
  O  O16  1  0.696771  0.673311  0.465706  1
  O  O17  1  0.739809  0.818212  0.929906  1
  O  O18  1  0.743864  0.318199  0.918719  1
  O  O19  1  0.797356  0.180203  0.467287  1
  O  O20  1  0.845185  0.947369  0.711960  1
  O  O21  1  0.792341  0.566410  0.227054  1
  O  O22  1  0.969075  0.714651  0.808924  1
  O  O23  1  0.921358  0.783057  0.349861  1
  O  O24  1  0.078642  0.216943  0.650139  1
  O  O25  1  0.030925  0.285349  0.191076  1
  O  O26  1  0.207659  0.433590  0.772946  1
  O  O27  1  0.154815  0.052631  0.288040  1
  O  O28  1  0.256136  0.681801  0.081281  1
  O  O29  1  0.202644  0.819797  0.532713  1
  O  O30  1  0.260191  0.181788  0.070094  1
  O  O31  1  0.303229  0.326689  0.534294  1
  O  O32  1  0.352732  0.555263  0.299922  1
  O  O33  1  0.289033  0.929281  0.768007  1
  O  O34  1  0.422269  0.704962  0.653747  1
  O  O35  1  0.474250  0.791747  0.205057  1
