# generated using pymatgen
data_Tb3SmTh6(Si3C)2
_symmetry_space_group_name_H-M   'P 1'
_cell_length_a   8.78598800
_cell_length_b   8.78598867
_cell_length_c   6.39980600
_cell_angle_alpha   90.00000000
_cell_angle_beta   90.00000000
_cell_angle_gamma   120.00000501
_symmetry_Int_Tables_number   1
_chemical_formula_structural   Tb3SmTh6(Si3C)2
_chemical_formula_sum   'Tb3 Sm1 Th6 Si6 C2'
_cell_volume   427.83731845
_cell_formula_units_Z   1
loop_
 _symmetry_equiv_pos_site_id
 _symmetry_equiv_pos_as_xyz
  1  'x, y, z'
loop_
 _atom_site_type_symbol
 _atom_site_label
 _atom_site_symmetry_multiplicity
 _atom_site_fract_x
 _atom_site_fract_y
 _atom_site_fract_z
 _atom_site_occupancy
  Tb  Tb0  1  0.333333  0.666667  0.000000  1
  Tb  Tb1  1  0.333333  0.666667  0.500000  1
  Tb  Tb2  1  0.666667  0.333333  0.500000  1
  Sm  Sm3  1  0.666667  0.333333  0.000000  1
  Th  Th4  1  0.767599  0.767586  0.749679  1
  Th  Th5  1  0.232414  0.000013  0.749679  1
  Th  Th6  1  0.999987  0.232401  0.749679  1
  Th  Th7  1  0.232414  0.232401  0.250321  1
  Th  Th8  1  0.767599  0.000013  0.250321  1
  Th  Th9  1  0.999987  0.767586  0.250321  1
  Si  Si10  1  0.400073  0.402243  0.747411  1
  Si  Si11  1  0.597757  0.997830  0.747411  1
  Si  Si12  1  0.002170  0.599927  0.747411  1
  Si  Si13  1  0.597757  0.599927  0.252589  1
  Si  Si14  1  0.400073  0.997830  0.252589  1
  Si  Si15  1  0.002170  0.402243  0.252589  1
  C  C16  1  0.000000  0.000000  0.000000  1
  C  C17  1  0.000000  0.000000  0.500000  1
