# generated using pymatgen
data_Nd2LuPu(Al3Ir)6
_symmetry_space_group_name_H-M   'P 1'
_cell_length_a   7.58778288
_cell_length_b   7.57414650
_cell_length_c   9.53197200
_cell_angle_alpha   90.00000000
_cell_angle_beta   90.00000000
_cell_angle_gamma   119.28531623
_symmetry_Int_Tables_number   1
_chemical_formula_structural   Nd2LuPu(Al3Ir)6
_chemical_formula_sum   'Nd2 Lu1 Pu1 Al18 Ir6'
_cell_volume   477.79849696
_cell_formula_units_Z   1
loop_
 _symmetry_equiv_pos_site_id
 _symmetry_equiv_pos_as_xyz
  1  'x, y, z'
loop_
 _atom_site_type_symbol
 _atom_site_label
 _atom_site_symmetry_multiplicity
 _atom_site_fract_x
 _atom_site_fract_y
 _atom_site_fract_z
 _atom_site_occupancy
  Nd  Nd0  1  0.006731  0.329558  0.750000  1
  Nd  Nd1  1  0.672466  0.995193  0.250000  1
  Lu  Lu2  1  0.326546  0.002923  0.750000  1
  Pu  Pu3  1  0.994286  0.673793  0.250000  1
  Al  Al4  1  0.133981  0.131049  0.250000  1
  Al  Al5  1  0.872489  0.869410  0.750000  1
  Al  Al6  1  0.002914  0.338591  0.074829  1
  Al  Al7  1  0.999033  0.665984  0.927527  1
  Al  Al8  1  0.999033  0.665984  0.572473  1
  Al  Al9  1  0.334641  0.000767  0.428257  1
  Al  Al10  1  0.002914  0.338591  0.425171  1
  Al  Al11  1  0.662181  0.997594  0.576235  1
  Al  Al12  1  0.662181  0.997594  0.923765  1
  Al  Al13  1  0.334641  0.000767  0.071743  1
  Al  Al14  1  0.333940  0.331774  0.550972  1
  Al  Al15  1  0.665674  0.664976  0.452108  1
  Al  Al16  1  0.665674  0.664976  0.047892  1
  Al  Al17  1  0.333940  0.331774  0.949028  1
  Al  Al18  1  0.337123  0.547529  0.250000  1
  Al  Al19  1  0.657913  0.448331  0.750000  1
  Al  Al20  1  0.549201  0.342591  0.250000  1
  Al  Al21  1  0.454094  0.662609  0.750000  1
  Ir  Ir22  1  0.669605  0.326783  0.999072  1
  Ir  Ir23  1  0.328739  0.671873  0.998706  1
  Ir  Ir24  1  0.328739  0.671873  0.501294  1
  Ir  Ir25  1  0.669605  0.326783  0.500928  1
  Ir  Ir26  1  0.000860  0.000165  0.999810  1
  Ir  Ir27  1  0.000860  0.000165  0.500190  1
