# generated using pymatgen
data_SrNbSbF12
_symmetry_space_group_name_H-M   'P 1'
_cell_length_a   11.63849310
_cell_length_b   5.87114334
_cell_length_c   5.87980200
_cell_angle_alpha   57.33046392
_cell_angle_beta   56.76449752
_cell_angle_gamma   56.89894618
_symmetry_Int_Tables_number   1
_chemical_formula_structural   SrNbSbF12
_chemical_formula_sum   'Sr1 Nb1 Sb1 F12'
_cell_volume   264.41641426
_cell_formula_units_Z   1
loop_
 _symmetry_equiv_pos_site_id
 _symmetry_equiv_pos_as_xyz
  1  'x, y, z'
loop_
 _atom_site_type_symbol
 _atom_site_label
 _atom_site_symmetry_multiplicity
 _atom_site_fract_x
 _atom_site_fract_y
 _atom_site_fract_z
 _atom_site_occupancy
  Sr  Sr0  1  0.748618  0.504233  0.498119  1
  Nb  Nb1  1  0.031885  0.973729  0.982163  1
  Sb  Sb2  1  0.473892  0.022694  0.013197  1
  F  F3  1  0.194207  0.091719  0.761200  1
  F  F4  1  0.658882  0.096667  0.805741  1
  F  F5  1  0.055036  0.784354  0.343195  1
  F  F6  1  0.535498  0.798810  0.345564  1
  F  F7  1  0.121257  0.634663  0.896702  1
  F  F8  1  0.596792  0.667443  0.918268  1
  F  F9  1  0.449199  0.211800  0.652520  1
  F  F10  1  0.956673  0.209779  0.658137  1
  F  F11  1  0.307281  0.914097  0.232433  1
  F  F12  1  0.841430  0.893765  0.201608  1
  F  F13  1  0.379695  0.366150  0.097010  1
  F  F14  1  0.899656  0.330094  0.094143  1
