# generated using pymatgen
data_CeZnSbN
_symmetry_space_group_name_H-M   'P 1'
_cell_length_a   4.13196000
_cell_length_b   4.13196000
_cell_length_c   9.60305500
_cell_angle_alpha   90.00000000
_cell_angle_beta   90.00000000
_cell_angle_gamma   90.00000000
_symmetry_Int_Tables_number   1
_chemical_formula_structural   CeZnSbN
_chemical_formula_sum   'Ce2 Zn2 Sb2 N2'
_cell_volume   163.95385534
_cell_formula_units_Z   2
loop_
 _symmetry_equiv_pos_site_id
 _symmetry_equiv_pos_as_xyz
  1  'x, y, z'
loop_
 _atom_site_type_symbol
 _atom_site_label
 _atom_site_symmetry_multiplicity
 _atom_site_fract_x
 _atom_site_fract_y
 _atom_site_fract_z
 _atom_site_occupancy
  Ce  Ce0  1  0.750001  0.750001  0.390291  1
  Ce  Ce1  1  0.250000  0.250000  0.609709  1
  Zn  Zn2  1  0.750001  0.250000  0.000000  1
  Zn  Zn3  1  0.250000  0.750001  0.000000  1
  Sb  Sb4  1  0.250000  0.250000  0.187867  1
  Sb  Sb5  1  0.750001  0.750001  0.812133  1
  N  N6  1  0.750001  0.250000  0.500000  1
  N  N7  1  0.250000  0.750001  0.500000  1
