# generated using pymatgen
data_CeAgSbH
_symmetry_space_group_name_H-M   'P 1'
_cell_length_a   4.37378500
_cell_length_b   4.37378500
_cell_length_c   8.18595800
_cell_angle_alpha   90.00000000
_cell_angle_beta   90.00000000
_cell_angle_gamma   90.00000000
_symmetry_Int_Tables_number   1
_chemical_formula_structural   CeAgSbH
_chemical_formula_sum   'Ce2 Ag2 Sb2 H2'
_cell_volume   156.59733746
_cell_formula_units_Z   2
loop_
 _symmetry_equiv_pos_site_id
 _symmetry_equiv_pos_as_xyz
  1  'x, y, z'
loop_
 _atom_site_type_symbol
 _atom_site_label
 _atom_site_symmetry_multiplicity
 _atom_site_fract_x
 _atom_site_fract_y
 _atom_site_fract_z
 _atom_site_occupancy
  Ce  Ce0  1  0.500000  0.000000  0.137147  1
  Ce  Ce1  1  0.000000  0.500000  0.862853  1
  Ag  Ag2  1  0.000000  0.000000  0.500000  1
  Ag  Ag3  1  0.500000  0.500000  0.500000  1
  Sb  Sb4  1  0.500000  0.000000  0.727135  1
  Sb  Sb5  1  0.000000  0.500000  0.272865  1
  H  H6  1  0.000000  0.000000  0.000000  1
  H  H7  1  0.500000  0.500000  0.000000  1
