# generated using pymatgen
data_YEr3(ScPt)4
_symmetry_space_group_name_H-M   'P 1'
_cell_length_a   4.63007100
_cell_length_b   6.94428437
_cell_length_c   8.39116602
_cell_angle_alpha   90.05163617
_cell_angle_beta   90.00000000
_cell_angle_gamma   90.00000000
_symmetry_Int_Tables_number   1
_chemical_formula_structural   YEr3(ScPt)4
_chemical_formula_sum   'Y1 Er3 Sc4 Pt4'
_cell_volume   269.79710488
_cell_formula_units_Z   1
loop_
 _symmetry_equiv_pos_site_id
 _symmetry_equiv_pos_as_xyz
  1  'x, y, z'
loop_
 _atom_site_type_symbol
 _atom_site_label
 _atom_site_symmetry_multiplicity
 _atom_site_fract_x
 _atom_site_fract_y
 _atom_site_fract_z
 _atom_site_occupancy
  Y  Y0  1  0.750000  0.514574  0.824095  1
  Er  Er1  1  0.250000  0.985028  0.324632  1
  Er  Er2  1  0.250000  0.485019  0.175123  1
  Er  Er3  1  0.750000  0.014945  0.674211  1
  Sc  Sc4  1  0.250000  0.357964  0.573590  1
  Sc  Sc5  1  0.250000  0.858631  0.925533  1
  Sc  Sc6  1  0.750000  0.642072  0.424951  1
  Sc  Sc7  1  0.750000  0.141162  0.075152  1
  Pt  Pt8  1  0.250000  0.246040  0.903931  1
  Pt  Pt9  1  0.250000  0.748967  0.596346  1
  Pt  Pt10  1  0.750000  0.753220  0.099521  1
  Pt  Pt11  1  0.750000  0.252377  0.402915  1
