# generated using pymatgen
data_Er2Mn3Co9P7
_symmetry_space_group_name_H-M   'P 1'
_cell_length_a   9.05270900
_cell_length_b   9.05270891
_cell_length_c   3.61178000
_cell_angle_alpha   90.00000000
_cell_angle_beta   90.00000000
_cell_angle_gamma   120.00001128
_symmetry_Int_Tables_number   1
_chemical_formula_structural   Er2Mn3Co9P7
_chemical_formula_sum   'Er2 Mn3 Co9 P7'
_cell_volume   256.33563652
_cell_formula_units_Z   1
loop_
 _symmetry_equiv_pos_site_id
 _symmetry_equiv_pos_as_xyz
  1  'x, y, z'
loop_
 _atom_site_type_symbol
 _atom_site_label
 _atom_site_symmetry_multiplicity
 _atom_site_fract_x
 _atom_site_fract_y
 _atom_site_fract_z
 _atom_site_occupancy
  Er  Er0  1  0.666667  0.333333  0.000000  1
  Er  Er1  1  0.333333  0.666667  0.500000  1
  Mn  Mn2  1  0.220427  0.102378  0.000000  1
  Mn  Mn3  1  0.897622  0.118051  0.000000  1
  Mn  Mn4  1  0.881949  0.779573  0.000000  1
  Co  Co5  1  0.430591  0.061702  0.500000  1
  Co  Co6  1  0.938298  0.368890  0.500000  1
  Co  Co7  1  0.631110  0.569409  0.500000  1
  Co  Co8  1  0.157992  0.276124  0.500000  1
  Co  Co9  1  0.723876  0.881868  0.500000  1
  Co  Co10  1  0.118132  0.842008  0.500000  1
  Co  Co11  1  0.386297  0.437493  0.000000  1
  Co  Co12  1  0.562507  0.948804  0.000000  1
  Co  Co13  1  0.051196  0.613703  0.000000  1
  P  P14  1  0.116762  0.406417  0.000000  1
  P  P15  1  0.593583  0.710345  0.000000  1
  P  P16  1  0.289655  0.883238  0.000000  1
  P  P17  1  0.000000  0.000000  0.500000  1
  P  P18  1  0.413159  0.301388  0.500000  1
  P  P19  1  0.698612  0.111769  0.500000  1
  P  P20  1  0.888231  0.586841  0.500000  1
