# generated using pymatgen
data_Ho2Ni7P4
_symmetry_space_group_name_H-M   'P 1'
_cell_length_a   3.70068800
_cell_length_b   9.15569300
_cell_length_c   10.26498800
_cell_angle_alpha   90.00000000
_cell_angle_beta   90.00000000
_cell_angle_gamma   90.00000000
_symmetry_Int_Tables_number   1
_chemical_formula_structural   Ho2Ni7P4
_chemical_formula_sum   'Ho4 Ni14 P8'
_cell_volume   347.80205183
_cell_formula_units_Z   2
loop_
 _symmetry_equiv_pos_site_id
 _symmetry_equiv_pos_as_xyz
  1  'x, y, z'
loop_
 _atom_site_type_symbol
 _atom_site_label
 _atom_site_symmetry_multiplicity
 _atom_site_fract_x
 _atom_site_fract_y
 _atom_site_fract_z
 _atom_site_occupancy
  Ho  Ho0  1  0.000000  0.057455  0.395761  1
  Ho  Ho1  1  0.500000  0.942545  0.895761  1
  Ho  Ho2  1  0.000000  0.436229  0.178258  1
  Ho  Ho3  1  0.500000  0.563771  0.678258  1
  Ni  Ni4  1  0.000000  0.055772  0.699362  1
  Ni  Ni5  1  0.500000  0.944228  0.199362  1
  Ni  Ni6  1  0.000000  0.724367  0.509981  1
  Ni  Ni7  1  0.500000  0.275633  0.009981  1
  Ni  Ni8  1  0.000000  0.098302  0.093634  1
  Ni  Ni9  1  0.500000  0.901698  0.593634  1
  Ni  Ni10  1  0.000000  0.745081  0.273606  1
  Ni  Ni11  1  0.500000  0.254919  0.773606  1
  Ni  Ni12  1  0.000000  0.306352  0.603356  1
  Ni  Ni13  1  0.500000  0.693648  0.103356  1
  Ni  Ni14  1  0.000000  0.687435  0.912189  1
  Ni  Ni15  1  0.500000  0.312565  0.412189  1
  Ni  Ni16  1  0.000000  0.418626  0.869138  1
  Ni  Ni17  1  0.500000  0.581374  0.369138  1
  P  P18  1  0.000000  0.180596  0.889044  1
  P  P19  1  0.500000  0.819404  0.389044  1
  P  P20  1  0.000000  0.846839  0.084001  1
  P  P21  1  0.500000  0.153161  0.584001  1
  P  P22  1  0.000000  0.808829  0.714765  1
  P  P23  1  0.500000  0.191171  0.214765  1
  P  P24  1  0.000000  0.479305  0.461003  1
  P  P25  1  0.500000  0.520695  0.961003  1
