# generated using pymatgen
data_La9YbOs4
_symmetry_space_group_name_H-M   'P 1'
_cell_length_a   8.98930842
_cell_length_b   8.94256786
_cell_length_c   7.49066515
_cell_angle_alpha   83.97787929
_cell_angle_beta   84.47072711
_cell_angle_gamma   44.22331762
_symmetry_Int_Tables_number   1
_chemical_formula_structural   La9YbOs4
_chemical_formula_sum   'La9 Yb1 Os4'
_cell_volume   417.46542594
_cell_formula_units_Z   1
loop_
 _symmetry_equiv_pos_site_id
 _symmetry_equiv_pos_as_xyz
  1  'x, y, z'
loop_
 _atom_site_type_symbol
 _atom_site_label
 _atom_site_symmetry_multiplicity
 _atom_site_fract_x
 _atom_site_fract_y
 _atom_site_fract_z
 _atom_site_occupancy
  La  La0  1  0.199473  0.982284  0.593005  1
  La  La1  1  0.983076  0.198983  0.091630  1
  La  La2  1  0.799712  0.014834  0.407729  1
  La  La3  1  0.358441  0.213173  0.819548  1
  La  La4  1  0.792576  0.640244  0.683050  1
  La  La5  1  0.641660  0.790693  0.180549  1
  La  La6  1  0.208631  0.360324  0.319402  1
  La  La7  1  0.568700  0.428220  0.752258  1
  La  La8  1  0.425994  0.573204  0.248404  1
  Yb  Yb9  1  0.015379  0.800892  0.912888  1
  Os  Os10  1  0.180493  0.597152  0.566794  1
  Os  Os11  1  0.398582  0.827413  0.922658  1
  Os  Os12  1  0.824862  0.395653  0.424619  1
  Os  Os13  1  0.602421  0.176932  0.077466  1
