# generated using pymatgen
data_NaLa6AuI12
_symmetry_space_group_name_H-M   'P 1'
_cell_length_a   10.25573708
_cell_length_b   10.25573651
_cell_length_c   10.25573722
_cell_angle_alpha   107.10011548
_cell_angle_beta   107.10013350
_cell_angle_gamma   107.10011887
_symmetry_Int_Tables_number   1
_chemical_formula_structural   NaLa6AuI12
_chemical_formula_sum   'Na1 La6 Au1 I12'
_cell_volume   895.88662735
_cell_formula_units_Z   1
loop_
 _symmetry_equiv_pos_site_id
 _symmetry_equiv_pos_as_xyz
  1  'x, y, z'
loop_
 _atom_site_type_symbol
 _atom_site_label
 _atom_site_symmetry_multiplicity
 _atom_site_fract_x
 _atom_site_fract_y
 _atom_site_fract_z
 _atom_site_occupancy
  Na  Na0  1  0.500000  0.500000  0.500000  1
  La  La1  1  0.318319  0.107875  0.032357  1
  La  La2  1  0.032357  0.318319  0.107875  1
  La  La3  1  0.107875  0.032357  0.318319  1
  La  La4  1  0.892124  0.967643  0.681681  1
  La  La5  1  0.967643  0.681681  0.892124  1
  La  La6  1  0.681681  0.892125  0.967642  1
  Au  Au7  1  0.000000  0.000000  0.000000  1
  I  I8  1  0.682527  0.225332  0.074774  1
  I  I9  1  0.377420  0.456883  0.150875  1
  I  I10  1  0.074774  0.682527  0.225332  1
  I  I11  1  0.774667  0.925226  0.317473  1
  I  I12  1  0.456883  0.150876  0.377419  1
  I  I13  1  0.150876  0.377419  0.456883  1
  I  I14  1  0.849125  0.622581  0.543118  1
  I  I15  1  0.543117  0.849125  0.622581  1
  I  I16  1  0.225332  0.074774  0.682527  1
  I  I17  1  0.925226  0.317473  0.774667  1
  I  I18  1  0.622581  0.543118  0.849125  1
  I  I19  1  0.317473  0.774667  0.925226  1
