# generated using pymatgen
data_Nd4GdGa4Pt3
_symmetry_space_group_name_H-M   'P 1'
_cell_length_a   11.14048700
_cell_length_b   19.03186344
_cell_length_c   21.25954355
_cell_angle_alpha   91.50786804
_cell_angle_beta   90.00000000
_cell_angle_gamma   90.00000000
_symmetry_Int_Tables_number   1
_chemical_formula_structural   Nd4GdGa4Pt3
_chemical_formula_sum   'Nd4 Gd1 Ga4 Pt3'
_cell_volume   4505.97742520
_cell_formula_units_Z   1
loop_
 _symmetry_equiv_pos_site_id
 _symmetry_equiv_pos_as_xyz
  1  'x, y, z'
loop_
 _atom_site_type_symbol
 _atom_site_label
 _atom_site_symmetry_multiplicity
 _atom_site_fract_x
 _atom_site_fract_y
 _atom_site_fract_z
 _atom_site_occupancy
  Nd  Nd0  1  0.250000  0.028610  0.681394  1
  Nd  Nd1  1  0.250000  0.525477  0.814958  1
  Nd  Nd2  1  0.750000  0.977379  0.313563  1
  Nd  Nd3  1  0.750000  0.474611  0.190916  1
  Gd  Gd4  1  0.250000  0.275199  0.386010  1
  Ga  Ga5  1  0.250000  0.151574  0.064861  1
  Ga  Ga6  1  0.250000  0.657142  0.430958  1
  Ga  Ga7  1  0.750000  0.845249  0.932385  1
  Ga  Ga8  1  0.750000  0.345437  0.572079  1
  Pt  Pt9  1  0.250000  0.781606  0.111869  1
  Pt  Pt10  1  0.750000  0.717908  0.611334  1
  Pt  Pt11  1  0.750000  0.219809  0.889673  1
