# generated using pymatgen
data_CaTe19
_symmetry_space_group_name_H-M   'P 1'
_cell_length_a   8.01800484
_cell_length_b   9.02478963
_cell_length_c   10.16484400
_cell_angle_alpha   104.08862850
_cell_angle_beta   97.23290686
_cell_angle_gamma   106.97193268
_symmetry_Int_Tables_number   1
_chemical_formula_structural   CaTe19
_chemical_formula_sum   'Ca1 Te19'
_cell_volume   666.78472118
_cell_formula_units_Z   1
loop_
 _symmetry_equiv_pos_site_id
 _symmetry_equiv_pos_as_xyz
  1  'x, y, z'
loop_
 _atom_site_type_symbol
 _atom_site_label
 _atom_site_symmetry_multiplicity
 _atom_site_fract_x
 _atom_site_fract_y
 _atom_site_fract_z
 _atom_site_occupancy
  Ca  Ca0  1  0.000000  0.500000  0.000000  1
  Te  Te1  1  0.780378  0.581703  0.619654  1
  Te  Te2  1  0.650130  0.210641  0.207378  1
  Te  Te3  1  0.349870  0.789359  0.792622  1
  Te  Te4  1  0.597517  0.687921  0.194392  1
  Te  Te5  1  0.219622  0.418297  0.380346  1
  Te  Te6  1  0.402483  0.312079  0.805608  1
  Te  Te7  1  0.000000  0.000000  0.000000  1
  Te  Te8  1  0.198192  0.910004  0.393021  1
  Te  Te9  1  0.801808  0.089996  0.606979  1
  Te  Te10  1  0.690119  0.634120  0.903372  1
  Te  Te11  1  0.521149  0.260300  0.500964  1
  Te  Te12  1  0.709518  0.143300  0.907309  1
  Te  Te13  1  0.290482  0.856700  0.092691  1
  Te  Te14  1  0.478851  0.739700  0.499036  1
  Te  Te15  1  0.095999  0.465065  0.704949  1
  Te  Te16  1  0.309881  0.365880  0.096628  1
  Te  Te17  1  0.914507  0.038479  0.299360  1
  Te  Te18  1  0.085493  0.961521  0.700640  1
  Te  Te19  1  0.904001  0.534935  0.295051  1
