# generated using pymatgen
data_Ga12Ir5Ru6Pt
_symmetry_space_group_name_H-M   'P 1'
_cell_length_a   4.26566601
_cell_length_b   6.11501400
_cell_length_c   12.99995003
_cell_angle_alpha   90.00000000
_cell_angle_beta   90.00814668
_cell_angle_gamma   90.00000000
_symmetry_Int_Tables_number   1
_chemical_formula_structural   Ga12Ir5Ru6Pt
_chemical_formula_sum   'Ga12 Ir5 Ru6 Pt1'
_cell_volume   339.09858908
_cell_formula_units_Z   1
loop_
 _symmetry_equiv_pos_site_id
 _symmetry_equiv_pos_as_xyz
  1  'x, y, z'
loop_
 _atom_site_type_symbol
 _atom_site_label
 _atom_site_symmetry_multiplicity
 _atom_site_fract_x
 _atom_site_fract_y
 _atom_site_fract_z
 _atom_site_occupancy
  Ga  Ga0  1  0.500000  0.243787  0.000000  1
  Ga  Ga1  1  0.500000  0.756212  0.000000  1
  Ga  Ga2  1  0.000112  0.246987  0.169583  1
  Ga  Ga3  1  0.000112  0.753013  0.169583  1
  Ga  Ga4  1  0.500117  0.249695  0.333618  1
  Ga  Ga5  1  0.500117  0.750305  0.333618  1
  Ga  Ga6  1  0.000000  0.250542  0.500000  1
  Ga  Ga7  1  0.000000  0.749457  0.500000  1
  Ga  Ga8  1  0.499883  0.249695  0.666382  1
  Ga  Ga9  1  0.499883  0.750305  0.666382  1
  Ga  Ga10  1  0.999888  0.246987  0.830417  1
  Ga  Ga11  1  0.999888  0.753013  0.830417  1
  Ir  Ir12  1  0.500095  0.000000  0.166114  1
  Ir  Ir13  1  0.000102  0.500000  0.332109  1
  Ir  Ir14  1  0.500000  0.000000  0.500000  1
  Ir  Ir15  1  0.999898  0.500000  0.667891  1
  Ir  Ir16  1  0.499905  0.000000  0.833887  1
  Ru  Ru17  1  0.000000  0.000000  0.000000  1
  Ru  Ru18  1  0.500113  0.500000  0.162819  1
  Ru  Ru19  1  0.000088  0.000000  0.334034  1
  Ru  Ru20  1  0.500000  0.500000  0.500000  1
  Ru  Ru21  1  0.999912  0.000000  0.665967  1
  Ru  Ru22  1  0.499887  0.500000  0.837180  1
  Pt  Pt23  1  0.000000  0.500000  0.000000  1
