# generated using pymatgen
data_YbEr3TaOs7
_symmetry_space_group_name_H-M   'P 1'
_cell_length_a   5.43247500
_cell_length_b   5.43247444
_cell_length_c   8.59422300
_cell_angle_alpha   90.00000000
_cell_angle_beta   90.00000000
_cell_angle_gamma   119.99999731
_symmetry_Int_Tables_number   1
_chemical_formula_structural   YbEr3TaOs7
_chemical_formula_sum   'Yb1 Er3 Ta1 Os7'
_cell_volume   219.65074979
_cell_formula_units_Z   1
loop_
 _symmetry_equiv_pos_site_id
 _symmetry_equiv_pos_as_xyz
  1  'x, y, z'
loop_
 _atom_site_type_symbol
 _atom_site_label
 _atom_site_symmetry_multiplicity
 _atom_site_fract_x
 _atom_site_fract_y
 _atom_site_fract_z
 _atom_site_occupancy
  Yb  Yb0  1  0.333333  0.666667  0.060397  1
  Er  Er1  1  0.333333  0.666667  0.421958  1
  Er  Er2  1  0.666667  0.333333  0.571553  1
  Er  Er3  1  0.666667  0.333333  0.941904  1
  Ta  Ta4  1  0.000000  0.000000  0.503051  1
  Os  Os5  1  0.000000  0.000000  0.999409  1
  Os  Os6  1  0.827012  0.172988  0.250555  1
  Os  Os7  1  0.827012  0.654024  0.250555  1
  Os  Os8  1  0.345976  0.172988  0.250555  1
  Os  Os9  1  0.174560  0.825440  0.750021  1
  Os  Os10  1  0.174560  0.349120  0.750021  1
  Os  Os11  1  0.650880  0.825440  0.750021  1
