# generated using pymatgen
data_Er7Tm3In8Pt3Rh
_symmetry_space_group_name_H-M   'P 1'
_cell_length_a   3.62028300
_cell_length_b   8.06283554
_cell_length_c   18.08600400
_cell_angle_alpha   90.06619331
_cell_angle_beta   90.00000000
_cell_angle_gamma   90.00000000
_symmetry_Int_Tables_number   1
_chemical_formula_structural   Er7Tm3In8Pt3Rh
_chemical_formula_sum   'Er7 Tm3 In8 Pt3 Rh1'
_cell_volume   527.92551845
_cell_formula_units_Z   1
loop_
 _symmetry_equiv_pos_site_id
 _symmetry_equiv_pos_as_xyz
  1  'x, y, z'
loop_
 _atom_site_type_symbol
 _atom_site_label
 _atom_site_symmetry_multiplicity
 _atom_site_fract_x
 _atom_site_fract_y
 _atom_site_fract_z
 _atom_site_occupancy
  Er  Er0  1  0.000000  0.617122  0.086718  1
  Er  Er1  1  0.000000  0.239836  0.222329  1
  Er  Er2  1  0.000000  0.756725  0.778289  1
  Er  Er3  1  0.000000  0.256371  0.721473  1
  Er  Er4  1  0.000000  0.748663  0.278801  1
  Er  Er5  1  0.000000  0.000786  0.000441  1
  Er  Er6  1  0.000000  0.500774  0.499331  1
  Tm  Tm7  1  0.000000  0.114279  0.411921  1
  Tm  Tm8  1  0.000000  0.883191  0.585557  1
  Tm  Tm9  1  0.000000  0.384474  0.914543  1
  In  In10  1  0.500000  0.422591  0.352103  1
  In  In11  1  0.500000  0.574041  0.647508  1
  In  In12  1  0.500000  0.075320  0.852394  1
  In  In13  1  0.500000  0.928510  0.149204  1
  In  In14  1  0.500000  0.292167  0.066907  1
  In  In15  1  0.500000  0.708829  0.933846  1
  In  In16  1  0.500000  0.207105  0.565524  1
  In  In17  1  0.500000  0.793560  0.431626  1
  Pt  Pt18  1  0.500000  0.975877  0.695849  1
  Pt  Pt19  1  0.500000  0.475934  0.804323  1
  Pt  Pt20  1  0.500000  0.521683  0.196561  1
  Rh  Rh21  1  0.500000  0.022165  0.304752  1
