# generated using pymatgen
data_Lu3Sc2Ga2Sb
_symmetry_space_group_name_H-M   'P 1'
_cell_length_a   8.41858530
_cell_length_b   8.40580048
_cell_length_c   6.13989100
_cell_angle_alpha   90.00000000
_cell_angle_beta   90.00000000
_cell_angle_gamma   119.94977693
_symmetry_Int_Tables_number   1
_chemical_formula_structural   Lu3Sc2Ga2Sb
_chemical_formula_sum   'Lu6 Sc4 Ga4 Sb2'
_cell_volume   376.46885486
_cell_formula_units_Z   2
loop_
 _symmetry_equiv_pos_site_id
 _symmetry_equiv_pos_as_xyz
  1  'x, y, z'
loop_
 _atom_site_type_symbol
 _atom_site_label
 _atom_site_symmetry_multiplicity
 _atom_site_fract_x
 _atom_site_fract_y
 _atom_site_fract_z
 _atom_site_occupancy
  Lu  Lu0  1  0.233398  0.000043  0.250000  1
  Lu  Lu1  1  0.233398  0.233355  0.750000  1
  Lu  Lu2  1  0.012904  0.763177  0.750000  1
  Lu  Lu3  1  0.012904  0.249727  0.250000  1
  Lu  Lu4  1  0.764122  0.750739  0.250000  1
  Lu  Lu5  1  0.764122  0.013383  0.750000  1
  Sc  Sc6  1  0.316137  0.658068  0.000000  1
  Sc  Sc7  1  0.670808  0.335403  0.500000  1
  Sc  Sc8  1  0.670808  0.335403  0.000000  1
  Sc  Sc9  1  0.316137  0.658068  0.500000  1
  Ga  Ga10  1  0.998420  0.401535  0.750000  1
  Ga  Ga11  1  0.998420  0.596885  0.250000  1
  Ga  Ga12  1  0.403020  0.399614  0.250000  1
  Ga  Ga13  1  0.403020  0.003406  0.750000  1
  Sb  Sb14  1  0.601191  0.995660  0.250000  1
  Sb  Sb15  1  0.601191  0.605531  0.750000  1
