# generated using pymatgen
data_CaNd2Eu2Sn3H
_symmetry_space_group_name_H-M   'P 1'
_cell_length_a   9.49238526
_cell_length_b   9.49238434
_cell_length_c   9.49238626
_cell_angle_alpha   128.40436328
_cell_angle_beta   128.40436450
_cell_angle_gamma   75.97088019
_symmetry_Int_Tables_number   1
_chemical_formula_structural   CaNd2Eu2Sn3H
_chemical_formula_sum   'Ca2 Nd4 Eu4 Sn6 H2'
_cell_volume   510.71171749
_cell_formula_units_Z   2
loop_
 _symmetry_equiv_pos_site_id
 _symmetry_equiv_pos_as_xyz
  1  'x, y, z'
loop_
 _atom_site_type_symbol
 _atom_site_label
 _atom_site_symmetry_multiplicity
 _atom_site_fract_x
 _atom_site_fract_y
 _atom_site_fract_z
 _atom_site_occupancy
  Ca  Ca0  1  0.498654  0.498654  0.000000  1
  Ca  Ca1  1  0.998654  0.998654  0.000000  1
  Nd  Nd2  1  0.485597  0.985597  0.168292  1
  Nd  Nd3  1  0.817305  0.317305  0.831708  1
  Nd  Nd4  1  0.985597  0.817305  0.500000  1
  Nd  Nd5  1  0.317305  0.485597  0.500000  1
  Eu  Eu6  1  0.513006  0.013006  0.826987  1
  Eu  Eu7  1  0.186018  0.686018  0.173013  1
  Eu  Eu8  1  0.013006  0.186018  0.500000  1
  Eu  Eu9  1  0.686018  0.513006  0.500000  1
  Sn  Sn10  1  0.245067  0.245067  0.000000  1
  Sn  Sn11  1  0.745067  0.745067  0.000000  1
  Sn  Sn12  1  0.876646  0.376646  0.245037  1
  Sn  Sn13  1  0.131611  0.631611  0.754963  1
  Sn  Sn14  1  0.376646  0.131611  0.500000  1
  Sn  Sn15  1  0.631611  0.876646  0.500000  1
  H  H16  1  0.246097  0.746097  0.500000  1
  H  H17  1  0.746097  0.246097  0.500000  1
