# generated using pymatgen
data_Ti6ReTc5P6
_symmetry_space_group_name_H-M   'P 1'
_cell_length_a   7.37100928
_cell_length_b   7.36158383
_cell_length_c   7.36158296
_cell_angle_alpha   127.41798607
_cell_angle_beta   124.89878705
_cell_angle_gamma   79.61536541
_symmetry_Int_Tables_number   1
_chemical_formula_structural   Ti6ReTc5P6
_chemical_formula_sum   'Ti6 Re1 Tc5 P6'
_cell_volume   251.46614058
_cell_formula_units_Z   1
loop_
 _symmetry_equiv_pos_site_id
 _symmetry_equiv_pos_as_xyz
  1  'x, y, z'
loop_
 _atom_site_type_symbol
 _atom_site_label
 _atom_site_symmetry_multiplicity
 _atom_site_fract_x
 _atom_site_fract_y
 _atom_site_fract_z
 _atom_site_occupancy
  Ti  Ti0  1  0.462590  0.253340  0.292377  1
  Ti  Ti1  1  0.537410  0.829787  0.790750  1
  Ti  Ti2  1  0.745732  0.652481  0.406071  1
  Ti  Ti3  1  0.254268  0.660339  0.906748  1
  Ti  Ti4  1  0.053443  0.841355  0.288766  1
  Ti  Ti5  1  0.946557  0.235323  0.787912  1
  Re  Re6  1  0.500000  0.992637  0.492637  1
  Tc  Tc7  1  0.657487  0.500067  0.902542  1
  Tc  Tc8  1  0.342513  0.245055  0.842582  1
  Tc  Tc9  1  0.902229  0.243847  0.401060  1
  Tc  Tc10  1  0.097771  0.498831  0.341619  1
  Tc  Tc11  1  0.000000  0.991923  0.991923  1
  P  P12  1  0.834964  0.576416  0.746776  1
  P  P13  1  0.165036  0.911809  0.741452  1
  P  P14  1  0.670066  0.911937  0.246316  1
  P  P15  1  0.329934  0.576250  0.241871  1
  P  P16  1  0.273493  0.283171  0.509322  1
  P  P17  1  0.726507  0.235829  0.009679  1
