# generated using pymatgen
data_Tb4Al18FePd5
_symmetry_space_group_name_H-M   'P 1'
_cell_length_a   7.60697291
_cell_length_b   7.60697390
_cell_length_c   9.46357115
_cell_angle_alpha   90.05826733
_cell_angle_beta   90.05827544
_cell_angle_gamma   119.67483713
_symmetry_Int_Tables_number   1
_chemical_formula_structural   Tb4Al18FePd5
_chemical_formula_sum   'Tb4 Al18 Fe1 Pd5'
_cell_volume   475.79763072
_cell_formula_units_Z   1
loop_
 _symmetry_equiv_pos_site_id
 _symmetry_equiv_pos_as_xyz
  1  'x, y, z'
loop_
 _atom_site_type_symbol
 _atom_site_label
 _atom_site_symmetry_multiplicity
 _atom_site_fract_x
 _atom_site_fract_y
 _atom_site_fract_z
 _atom_site_occupancy
  Tb  Tb0  1  0.993935  0.667653  0.248990  1
  Tb  Tb1  1  0.006065  0.332347  0.751010  1
  Tb  Tb2  1  0.667653  0.993935  0.248990  1
  Tb  Tb3  1  0.332347  0.006065  0.751010  1
  Al  Al4  1  0.122574  0.122574  0.241271  1
  Al  Al5  1  0.877426  0.877426  0.758729  1
  Al  Al6  1  0.998565  0.323843  0.072878  1
  Al  Al7  1  0.001435  0.676157  0.927122  1
  Al  Al8  1  0.998827  0.665824  0.578720  1
  Al  Al9  1  0.334176  0.001173  0.421280  1
  Al  Al10  1  0.001173  0.334176  0.421280  1
  Al  Al11  1  0.665824  0.998827  0.578720  1
  Al  Al12  1  0.676157  0.001435  0.927122  1
  Al  Al13  1  0.323843  0.998565  0.072878  1
  Al  Al14  1  0.334194  0.334194  0.559157  1
  Al  Al15  1  0.665806  0.665807  0.440843  1
  Al  Al16  1  0.677825  0.677826  0.052494  1
  Al  Al17  1  0.322175  0.322175  0.947506  1
  Al  Al18  1  0.339908  0.546033  0.248177  1
  Al  Al19  1  0.660092  0.453967  0.751823  1
  Al  Al20  1  0.546033  0.339908  0.248177  1
  Al  Al21  1  0.453967  0.660092  0.751823  1
  Fe  Fe22  1  0.000000  0.000000  0.000000  1
  Pd  Pd23  1  0.672485  0.327515  0.000000  1
  Pd  Pd24  1  0.327515  0.672485  0.000000  1
  Pd  Pd25  1  0.327794  0.672206  0.500000  1
  Pd  Pd26  1  0.672206  0.327794  0.500000  1
  Pd  Pd27  1  0.000000  0.000000  0.500000  1
