# generated using pymatgen
data_Ho24Co3Tc4Ni
_symmetry_space_group_name_H-M   'P 1'
_cell_length_a   6.33238981
_cell_length_b   9.27943000
_cell_length_c   14.08591800
_cell_angle_alpha   90.00000000
_cell_angle_beta   89.93718842
_cell_angle_gamma   90.00000000
_symmetry_Int_Tables_number   1
_chemical_formula_structural   Ho24Co3Tc4Ni
_chemical_formula_sum   'Ho24 Co3 Tc4 Ni1'
_cell_volume   827.70167849
_cell_formula_units_Z   1
loop_
 _symmetry_equiv_pos_site_id
 _symmetry_equiv_pos_as_xyz
  1  'x, y, z'
loop_
 _atom_site_type_symbol
 _atom_site_label
 _atom_site_symmetry_multiplicity
 _atom_site_fract_x
 _atom_site_fract_y
 _atom_site_fract_z
 _atom_site_occupancy
  Ho  Ho0  1  0.540439  0.750000  0.351760  1
  Ho  Ho1  1  0.036701  0.250000  0.149026  1
  Ho  Ho2  1  0.462900  0.250000  0.649437  1
  Ho  Ho3  1  0.959991  0.750000  0.851551  1
  Ho  Ho4  1  0.773827  0.750000  0.109824  1
  Ho  Ho5  1  0.272576  0.250000  0.391463  1
  Ho  Ho6  1  0.228830  0.250000  0.890269  1
  Ho  Ho7  1  0.729914  0.750000  0.609244  1
  Ho  Ho8  1  0.410782  0.931112  0.783930  1
  Ho  Ho9  1  0.912158  0.067792  0.715950  1
  Ho  Ho10  1  0.590880  0.430310  0.215683  1
  Ho  Ho11  1  0.087184  0.566795  0.284674  1
  Ho  Ho12  1  0.590880  0.069690  0.215683  1
  Ho  Ho13  1  0.087184  0.933205  0.284674  1
  Ho  Ho14  1  0.410782  0.568888  0.783930  1
  Ho  Ho15  1  0.912158  0.432208  0.715950  1
  Ho  Ho16  1  0.241306  0.935496  0.537071  1
  Ho  Ho17  1  0.738001  0.064267  0.962669  1
  Ho  Ho18  1  0.761671  0.435405  0.463368  1
  Ho  Ho19  1  0.257500  0.561801  0.035270  1
  Ho  Ho20  1  0.761671  0.064595  0.463368  1
  Ho  Ho21  1  0.257500  0.938199  0.035270  1
  Ho  Ho22  1  0.241306  0.564504  0.537071  1
  Ho  Ho23  1  0.738001  0.435733  0.962669  1
  Co  Co24  1  0.872725  0.250000  0.317401  1
  Co  Co25  1  0.630153  0.250000  0.817131  1
  Co  Co26  1  0.128686  0.750000  0.682879  1
  Tc  Tc27  1  0.936339  0.750000  0.435005  1
  Tc  Tc28  1  0.433598  0.250000  0.065353  1
  Tc  Tc29  1  0.066147  0.250000  0.565456  1
  Tc  Tc30  1  0.563298  0.750000  0.937395  1
  Ni  Ni31  1  0.364913  0.750000  0.179575  1
