# generated using pymatgen
data_Hf5Nb(B2Ru5)2
_symmetry_space_group_name_H-M   'P 1'
_cell_length_a   9.47488900
_cell_length_b   9.47488900
_cell_length_c   3.11905500
_cell_angle_alpha   90.00000000
_cell_angle_beta   90.00000000
_cell_angle_gamma   90.00000000
_symmetry_Int_Tables_number   1
_chemical_formula_structural   Hf5Nb(B2Ru5)2
_chemical_formula_sum   'Hf5 Nb1 B4 Ru10'
_cell_volume   280.00855130
_cell_formula_units_Z   1
loop_
 _symmetry_equiv_pos_site_id
 _symmetry_equiv_pos_as_xyz
  1  'x, y, z'
loop_
 _atom_site_type_symbol
 _atom_site_label
 _atom_site_symmetry_multiplicity
 _atom_site_fract_x
 _atom_site_fract_y
 _atom_site_fract_z
 _atom_site_occupancy
  Hf  Hf0  1  0.823871  0.675155  0.000000  1
  Hf  Hf1  1  0.176129  0.324845  0.000000  1
  Hf  Hf2  1  0.324845  0.823871  0.000000  1
  Hf  Hf3  1  0.675155  0.176129  0.000000  1
  Hf  Hf4  1  0.500000  0.500000  0.000000  1
  Nb  Nb5  1  0.000000  0.000000  0.000000  1
  B  B6  1  0.621029  0.877609  0.000000  1
  B  B7  1  0.378971  0.122391  0.000000  1
  B  B8  1  0.122391  0.621029  0.000000  1
  B  B9  1  0.877609  0.378971  0.000000  1
  Ru  Ru10  1  0.573930  0.720779  0.500000  1
  Ru  Ru11  1  0.426070  0.279221  0.500000  1
  Ru  Ru12  1  0.069188  0.782603  0.500000  1
  Ru  Ru13  1  0.930812  0.217397  0.500000  1
  Ru  Ru14  1  0.279221  0.573930  0.500000  1
  Ru  Ru15  1  0.720779  0.426070  0.500000  1
  Ru  Ru16  1  0.217397  0.069188  0.500000  1
  Ru  Ru17  1  0.782603  0.930812  0.500000  1
  Ru  Ru18  1  0.500000  0.000000  0.500000  1
  Ru  Ru19  1  0.000000  0.500000  0.500000  1
