# generated using pymatgen
data_Dy5(BiO6)2
_symmetry_space_group_name_H-M   'P 1'
_cell_length_a   6.62771014
_cell_length_b   6.61283220
_cell_length_c   6.54909688
_cell_angle_alpha   99.23755033
_cell_angle_beta   98.65355641
_cell_angle_gamma   99.44385396
_symmetry_Int_Tables_number   1
_chemical_formula_structural   Dy5(BiO6)2
_chemical_formula_sum   'Dy5 Bi2 O12'
_cell_volume   274.82514154
_cell_formula_units_Z   1
loop_
 _symmetry_equiv_pos_site_id
 _symmetry_equiv_pos_as_xyz
  1  'x, y, z'
loop_
 _atom_site_type_symbol
 _atom_site_label
 _atom_site_symmetry_multiplicity
 _atom_site_fract_x
 _atom_site_fract_y
 _atom_site_fract_z
 _atom_site_occupancy
  Dy  Dy0  1  0.858982  0.695020  0.392692  1
  Dy  Dy1  1  0.387507  0.856951  0.685196  1
  Dy  Dy2  1  0.310876  0.610800  0.148086  1
  Dy  Dy3  1  0.141479  0.311063  0.608262  1
  Dy  Dy4  1  0.607877  0.133661  0.307809  1
  Bi  Bi5  1  0.677685  0.395237  0.855206  1
  Bi  Bi6  1  0.003882  0.003834  0.999372  1
  O  O7  1  0.428667  0.177617  0.585145  1
  O  O8  1  0.587374  0.429995  0.179014  1
  O  O9  1  0.172642  0.586436  0.433547  1
  O  O10  1  0.567249  0.819675  0.412833  1
  O  O11  1  0.419642  0.572457  0.821260  1
  O  O12  1  0.818999  0.413079  0.569791  1
  O  O13  1  0.091057  0.314240  0.952555  1
  O  O14  1  0.686458  0.049200  0.928915  1
  O  O15  1  0.050324  0.929251  0.682971  1
  O  O16  1  0.926838  0.684956  0.048853  1
  O  O17  1  0.314327  0.945406  0.072539  1
  O  O18  1  0.948134  0.071120  0.315954  1
