# generated using pymatgen
data_Ir2RuO6
_symmetry_space_group_name_H-M   'P 1'
_cell_length_a   4.54086400
_cell_length_b   4.54086400
_cell_length_c   9.52560300
_cell_angle_alpha   90.00000000
_cell_angle_beta   90.00000000
_cell_angle_gamma   90.00000000
_symmetry_Int_Tables_number   1
_chemical_formula_structural   Ir2RuO6
_chemical_formula_sum   'Ir4 Ru2 O12'
_cell_volume   196.41265540
_cell_formula_units_Z   2
loop_
 _symmetry_equiv_pos_site_id
 _symmetry_equiv_pos_as_xyz
  1  'x, y, z'
loop_
 _atom_site_type_symbol
 _atom_site_label
 _atom_site_symmetry_multiplicity
 _atom_site_fract_x
 _atom_site_fract_y
 _atom_site_fract_z
 _atom_site_occupancy
  Ir  Ir0  1  0.500000  0.500000  0.167095  1
  Ir  Ir1  1  0.000000  0.000000  0.332905  1
  Ir  Ir2  1  0.000000  0.000000  0.667095  1
  Ir  Ir3  1  0.500000  0.500000  0.832905  1
  Ru  Ru4  1  0.000000  0.000000  0.000000  1
  Ru  Ru5  1  0.500000  0.500000  0.500000  1
  O  O6  1  0.306672  0.306672  0.000000  1
  O  O7  1  0.693328  0.693328  0.000000  1
  O  O8  1  0.808159  0.191841  0.165818  1
  O  O9  1  0.191841  0.808159  0.165818  1
  O  O10  1  0.308159  0.308159  0.334182  1
  O  O11  1  0.691841  0.691841  0.334182  1
  O  O12  1  0.806672  0.193328  0.500000  1
  O  O13  1  0.193328  0.806672  0.500000  1
  O  O14  1  0.308159  0.308159  0.665818  1
  O  O15  1  0.691841  0.691841  0.665818  1
  O  O16  1  0.808159  0.191841  0.834182  1
  O  O17  1  0.191841  0.808159  0.834182  1
