# generated using pymatgen
data_Ca5Yb(SbN)2
_symmetry_space_group_name_H-M   'P 1'
_cell_length_a   6.88434200
_cell_length_b   6.88232500
_cell_length_c   9.73947500
_cell_angle_alpha   90.00000000
_cell_angle_beta   90.00000000
_cell_angle_gamma   90.00000000
_symmetry_Int_Tables_number   1
_chemical_formula_structural   Ca5Yb(SbN)2
_chemical_formula_sum   'Ca10 Yb2 Sb4 N4'
_cell_volume   461.45904335
_cell_formula_units_Z   2
loop_
 _symmetry_equiv_pos_site_id
 _symmetry_equiv_pos_as_xyz
  1  'x, y, z'
loop_
 _atom_site_type_symbol
 _atom_site_label
 _atom_site_symmetry_multiplicity
 _atom_site_fract_x
 _atom_site_fract_y
 _atom_site_fract_z
 _atom_site_occupancy
  Ca  Ca0  1  0.750490  0.750485  0.002973  1
  Ca  Ca1  1  0.749510  0.250485  0.497027  1
  Ca  Ca2  1  0.249525  0.249526  0.503686  1
  Ca  Ca3  1  0.250475  0.749526  0.996314  1
  Ca  Ca4  1  0.249525  0.249526  0.996314  1
  Ca  Ca5  1  0.250475  0.749526  0.503686  1
  Ca  Ca6  1  0.750490  0.750485  0.497027  1
  Ca  Ca7  1  0.749510  0.250485  0.002973  1
  Ca  Ca8  1  0.493174  0.999990  0.250000  1
  Ca  Ca9  1  0.006826  0.499990  0.250000  1
  Yb  Yb10  1  0.506935  0.000013  0.750000  1
  Yb  Yb11  1  0.993065  0.500013  0.750000  1
  Sb  Sb12  1  0.500018  0.500098  0.250000  1
  Sb  Sb13  1  0.999982  0.000098  0.250000  1
  Sb  Sb14  1  0.500083  0.499875  0.750000  1
  Sb  Sb15  1  0.999917  0.999875  0.750000  1
  N  N16  1  0.000053  0.500001  0.998611  1
  N  N17  1  0.499947  0.000001  0.501389  1
  N  N18  1  0.000053  0.500001  0.501389  1
  N  N19  1  0.499947  0.000001  0.998611  1
