# generated using pymatgen
data_Ce2Mn2Co10As7
_symmetry_space_group_name_H-M   'P 1'
_cell_length_a   3.79939600
_cell_length_b   9.38783798
_cell_length_c   9.42303998
_cell_angle_alpha   119.62029620
_cell_angle_beta   90.00000000
_cell_angle_gamma   90.00000000
_symmetry_Int_Tables_number   1
_chemical_formula_structural   Ce2Mn2Co10As7
_chemical_formula_sum   'Ce2 Mn2 Co10 As7'
_cell_volume   292.18021445
_cell_formula_units_Z   1
loop_
 _symmetry_equiv_pos_site_id
 _symmetry_equiv_pos_as_xyz
  1  'x, y, z'
loop_
 _atom_site_type_symbol
 _atom_site_label
 _atom_site_symmetry_multiplicity
 _atom_site_fract_x
 _atom_site_fract_y
 _atom_site_fract_z
 _atom_site_occupancy
  Ce  Ce0  1  0.000000  0.668942  0.333934  1
  Ce  Ce1  1  0.500000  0.331712  0.667544  1
  Mn  Mn2  1  0.500000  0.785225  0.893637  1
  Mn  Mn3  1  0.500000  0.112918  0.215857  1
  Co  Co4  1  0.000000  0.565579  0.939230  1
  Co  Co5  1  0.000000  0.372811  0.434979  1
  Co  Co6  1  0.000000  0.060206  0.629832  1
  Co  Co7  1  0.500000  0.095050  0.877957  1
  Co  Co8  1  0.000000  0.879503  0.153729  1
  Co  Co9  1  0.000000  0.279936  0.126703  1
  Co  Co10  1  0.000000  0.846498  0.722607  1
  Co  Co11  1  0.500000  0.946857  0.380470  1
  Co  Co12  1  0.500000  0.431645  0.052221  1
  Co  Co13  1  0.500000  0.620136  0.568298  1
  As  As14  1  0.000000  0.003630  0.997523  1
  As  As15  1  0.500000  0.706334  0.109317  1
  As  As16  1  0.500000  0.407887  0.295703  1
  As  As17  1  0.500000  0.889574  0.597836  1
  As  As18  1  0.000000  0.590471  0.701834  1
  As  As19  1  0.000000  0.110236  0.409353  1
  As  As20  1  0.000000  0.294846  0.891438  1
