# generated using pymatgen
data_Na3Tb(PO4)2
_symmetry_space_group_name_H-M   'P 1'
_cell_length_a   5.30703370
_cell_length_b   5.30703381
_cell_length_c   7.15495514
_cell_angle_alpha   90.09203373
_cell_angle_beta   90.09203678
_cell_angle_gamma   64.73940434
_symmetry_Int_Tables_number   1
_chemical_formula_structural   Na3Tb(PO4)2
_chemical_formula_sum   'Na3 Tb1 P2 O8'
_cell_volume   182.24640746
_cell_formula_units_Z   1
loop_
 _symmetry_equiv_pos_site_id
 _symmetry_equiv_pos_as_xyz
  1  'x, y, z'
loop_
 _atom_site_type_symbol
 _atom_site_label
 _atom_site_symmetry_multiplicity
 _atom_site_fract_x
 _atom_site_fract_y
 _atom_site_fract_z
 _atom_site_occupancy
  Na  Na0  1  0.684665  0.684665  0.287863  1
  Na  Na1  1  0.000000  0.000000  0.500000  1
  Na  Na2  1  0.315335  0.315335  0.712137  1
  Tb  Tb3  1  0.000000  0.000000  0.000000  1
  P  P4  1  0.652728  0.652728  0.770675  1
  P  P5  1  0.347272  0.347272  0.229325  1
  O  O6  1  0.247532  0.247532  0.402053  1
  O  O7  1  0.752468  0.752468  0.597947  1
  O  O8  1  0.229129  0.674829  0.228342  1
  O  O9  1  0.325171  0.770871  0.771658  1
  O  O10  1  0.770871  0.325171  0.771658  1
  O  O11  1  0.674829  0.229129  0.228342  1
  O  O12  1  0.250556  0.250556  0.048717  1
  O  O13  1  0.749444  0.749444  0.951283  1
