# generated using pymatgen
data_Nd15YCd4(IrRu)2
_symmetry_space_group_name_H-M   'P 1'
_cell_length_a   9.93040758
_cell_length_b   9.91219654
_cell_length_c   9.93040730
_cell_angle_alpha   60.06064618
_cell_angle_beta   60.10839675
_cell_angle_gamma   60.06064489
_symmetry_Int_Tables_number   1
_chemical_formula_structural   Nd15YCd4(IrRu)2
_chemical_formula_sum   'Nd15 Y1 Cd4 Ir2 Ru2'
_cell_volume   692.37551402
_cell_formula_units_Z   1
loop_
 _symmetry_equiv_pos_site_id
 _symmetry_equiv_pos_as_xyz
  1  'x, y, z'
loop_
 _atom_site_type_symbol
 _atom_site_label
 _atom_site_symmetry_multiplicity
 _atom_site_fract_x
 _atom_site_fract_y
 _atom_site_fract_z
 _atom_site_occupancy
  Nd  Nd0  1  0.440193  0.437922  0.061069  1
  Nd  Nd1  1  0.061069  0.060815  0.440193  1
  Nd  Nd2  1  0.440193  0.060815  0.061069  1
  Nd  Nd3  1  0.846726  0.848926  0.846726  1
  Nd  Nd4  1  0.690756  0.311190  0.308981  1
  Nd  Nd5  1  0.061069  0.437922  0.440193  1
  Nd  Nd6  1  0.308981  0.689074  0.690756  1
  Nd  Nd7  1  0.308981  0.311190  0.690756  1
  Nd  Nd8  1  0.849019  0.847199  0.456583  1
  Nd  Nd9  1  0.690756  0.689074  0.308981  1
  Nd  Nd10  1  0.456583  0.847199  0.849019  1
  Nd  Nd11  1  0.060931  0.439069  0.060931  1
  Nd  Nd12  1  0.846726  0.457623  0.846726  1
  Nd  Nd13  1  0.439580  0.060420  0.439580  1
  Nd  Nd14  1  0.309533  0.690467  0.309533  1
  Y  Y15  1  0.691007  0.308993  0.691007  1
  Cd  Cd16  1  0.079221  0.761626  0.079221  1
  Cd  Cd17  1  0.077987  0.080701  0.760611  1
  Cd  Cd18  1  0.760611  0.080701  0.077987  1
  Cd  Cd19  1  0.079221  0.079931  0.079221  1
  Ir  Ir20  1  0.640586  0.079591  0.640586  1
  Ir  Ir21  1  0.640586  0.639235  0.640586  1
  Ru  Ru22  1  0.637831  0.640157  0.081854  1
  Ru  Ru23  1  0.081854  0.640157  0.637831  1
