# generated using pymatgen
data_Ho8Si16(Mo3W)3
_symmetry_space_group_name_H-M   'P 1'
_cell_length_a   6.76266508
_cell_length_b   6.94214455
_cell_length_c   12.90070400
_cell_angle_alpha   90.00000000
_cell_angle_beta   90.00000000
_cell_angle_gamma   89.96821272
_symmetry_Int_Tables_number   1
_chemical_formula_structural   Ho8Si16(Mo3W)3
_chemical_formula_sum   'Ho8 Si16 Mo9 W3'
_cell_volume   605.65439879
_cell_formula_units_Z   1
loop_
 _symmetry_equiv_pos_site_id
 _symmetry_equiv_pos_as_xyz
  1  'x, y, z'
loop_
 _atom_site_type_symbol
 _atom_site_label
 _atom_site_symmetry_multiplicity
 _atom_site_fract_x
 _atom_site_fract_y
 _atom_site_fract_z
 _atom_site_occupancy
  Ho  Ho0  1  0.496671  0.332095  0.093635  1
  Ho  Ho1  1  0.996989  0.167650  0.406271  1
  Ho  Ho2  1  0.502996  0.667679  0.593880  1
  Ho  Ho3  1  0.003304  0.832219  0.906070  1
  Ho  Ho4  1  0.502996  0.667679  0.906120  1
  Ho  Ho5  1  0.003304  0.832219  0.593930  1
  Ho  Ho6  1  0.496671  0.332095  0.406365  1
  Ho  Ho7  1  0.996989  0.167650  0.093729  1
  Si  Si8  1  0.660118  0.041452  0.547309  1
  Si  Si9  1  0.159976  0.458417  0.952685  1
  Si  Si10  1  0.339879  0.958591  0.047132  1
  Si  Si11  1  0.840315  0.541928  0.452586  1
  Si  Si12  1  0.339879  0.958591  0.452868  1
  Si  Si13  1  0.840315  0.541928  0.047414  1
  Si  Si14  1  0.660118  0.041452  0.952691  1
  Si  Si15  1  0.159976  0.458417  0.547315  1
  Si  Si16  1  0.534777  0.368621  0.750000  1
  Si  Si17  1  0.034490  0.131368  0.750000  1
  Si  Si18  1  0.465676  0.631540  0.250000  1
  Si  Si19  1  0.965057  0.867636  0.250000  1
  Si  Si20  1  0.801887  0.631627  0.750000  1
  Si  Si21  1  0.301995  0.868508  0.750000  1
  Si  Si22  1  0.197839  0.369211  0.250000  1
  Si  Si23  1  0.698013  0.130988  0.250000  1
  Mo  Mo24  1  0.830570  0.335290  0.625547  1
  Mo  Mo25  1  0.330632  0.164759  0.874317  1
  Mo  Mo26  1  0.170002  0.665257  0.125482  1
  Mo  Mo27  1  0.668929  0.835318  0.374472  1
  Mo  Mo28  1  0.170002  0.665257  0.374518  1
  Mo  Mo29  1  0.668929  0.835318  0.125528  1
  Mo  Mo30  1  0.830570  0.335290  0.874453  1
  Mo  Mo31  1  0.330632  0.164759  0.625683  1
  Mo  Mo32  1  0.834534  0.498238  0.250000  1
  W  W33  1  0.665147  0.998936  0.750000  1
  W  W34  1  0.165063  0.500976  0.750000  1
  W  W35  1  0.334758  0.001043  0.250000  1
