# generated using pymatgen
data_Ta6B4Os7Ru3
_symmetry_space_group_name_H-M   'P 1'
_cell_length_a   9.52106640
_cell_length_b   9.54461339
_cell_length_c   3.01257100
_cell_angle_alpha   90.00000000
_cell_angle_beta   90.00000000
_cell_angle_gamma   90.08123614
_symmetry_Int_Tables_number   1
_chemical_formula_structural   Ta6B4Os7Ru3
_chemical_formula_sum   'Ta6 B4 Os7 Ru3'
_cell_volume   273.76680674
_cell_formula_units_Z   1
loop_
 _symmetry_equiv_pos_site_id
 _symmetry_equiv_pos_as_xyz
  1  'x, y, z'
loop_
 _atom_site_type_symbol
 _atom_site_label
 _atom_site_symmetry_multiplicity
 _atom_site_fract_x
 _atom_site_fract_y
 _atom_site_fract_z
 _atom_site_occupancy
  Ta  Ta0  1  0.823326  0.676464  0.000000  1
  Ta  Ta1  1  0.176437  0.323380  0.000000  1
  Ta  Ta2  1  0.323243  0.823498  0.000000  1
  Ta  Ta3  1  0.676207  0.177078  0.000000  1
  Ta  Ta4  1  0.500121  0.500208  0.000000  1
  Ta  Ta5  1  0.998056  0.999411  0.000000  1
  B  B6  1  0.621428  0.879195  0.000000  1
  B  B7  1  0.379396  0.120567  0.000000  1
  B  B8  1  0.120862  0.621154  0.000000  1
  B  B9  1  0.879509  0.379011  0.000000  1
  Os  Os10  1  0.571832  0.719863  0.500000  1
  Os  Os11  1  0.429079  0.280491  0.500000  1
  Os  Os12  1  0.070651  0.780824  0.500000  1
  Os  Os13  1  0.929098  0.219141  0.500000  1
  Os  Os14  1  0.280954  0.570970  0.500000  1
  Os  Os15  1  0.719197  0.428897  0.500000  1
  Os  Os16  1  0.218861  0.070453  0.500000  1
  Ru  Ru17  1  0.780909  0.929174  0.500000  1
  Ru  Ru18  1  0.500913  0.999977  0.500000  1
  Ru  Ru19  1  0.999922  0.500246  0.500000  1
