# generated using pymatgen
data_Pr8Y11TmSi16
_symmetry_space_group_name_H-M   'P 1'
_cell_length_a   7.53543110
_cell_length_b   7.82405211
_cell_length_c   14.89893200
_cell_angle_alpha   90.00000000
_cell_angle_beta   90.00000000
_cell_angle_gamma   90.01877819
_symmetry_Int_Tables_number   1
_chemical_formula_structural   Pr8Y11TmSi16
_chemical_formula_sum   'Pr8 Y11 Tm1 Si16'
_cell_volume   878.40530909
_cell_formula_units_Z   1
loop_
 _symmetry_equiv_pos_site_id
 _symmetry_equiv_pos_as_xyz
  1  'x, y, z'
loop_
 _atom_site_type_symbol
 _atom_site_label
 _atom_site_symmetry_multiplicity
 _atom_site_fract_x
 _atom_site_fract_y
 _atom_site_fract_z
 _atom_site_occupancy
  Pr  Pr0  1  0.023032  0.179229  0.402210  1
  Pr  Pr1  1  0.523040  0.320804  0.402233  1
  Pr  Pr2  1  0.477153  0.679374  0.902078  1
  Pr  Pr3  1  0.477153  0.679374  0.597922  1
  Pr  Pr4  1  0.976609  0.821036  0.597947  1
  Pr  Pr5  1  0.976609  0.821036  0.902053  1
  Pr  Pr6  1  0.523040  0.320804  0.097767  1
  Pr  Pr7  1  0.023032  0.179229  0.097790  1
  Y  Y8  1  0.321929  0.179186  0.622934  1
  Y  Y9  1  0.678426  0.820630  0.377160  1
  Y  Y10  1  0.178498  0.679378  0.377150  1
  Y  Y11  1  0.821234  0.320261  0.877055  1
  Y  Y12  1  0.821234  0.320261  0.622945  1
  Y  Y13  1  0.847438  0.488164  0.250000  1
  Y  Y14  1  0.347468  0.011776  0.250000  1
  Y  Y15  1  0.321929  0.179186  0.877066  1
  Y  Y16  1  0.178498  0.679378  0.122850  1
  Y  Y17  1  0.678426  0.820630  0.122840  1
  Y  Y18  1  0.152560  0.511640  0.750000  1
  Tm  Tm19  1  0.652843  0.987957  0.750000  1
  Si  Si20  1  0.271211  0.880706  0.750000  1
  Si  Si21  1  0.472089  0.610925  0.250000  1
  Si  Si22  1  0.026701  0.110764  0.750000  1
  Si  Si23  1  0.527875  0.388740  0.750000  1
  Si  Si24  1  0.144805  0.469661  0.539571  1
  Si  Si25  1  0.972101  0.888994  0.250000  1
  Si  Si26  1  0.729906  0.119436  0.250000  1
  Si  Si27  1  0.855216  0.530375  0.039552  1
  Si  Si28  1  0.355157  0.969623  0.039501  1
  Si  Si29  1  0.144805  0.469661  0.960429  1
  Si  Si30  1  0.644875  0.030264  0.539949  1
  Si  Si31  1  0.355157  0.969623  0.460499  1
  Si  Si32  1  0.855216  0.530375  0.460448  1
  Si  Si33  1  0.769855  0.620700  0.750000  1
  Si  Si34  1  0.230003  0.380555  0.250000  1
  Si  Si35  1  0.644875  0.030264  0.960051  1
