# generated using pymatgen
data_TiZn3(GaIr2)4
_symmetry_space_group_name_H-M   'P 1'
_cell_length_a   6.10985200
_cell_length_b   6.10978600
_cell_length_c   6.10016200
_cell_angle_alpha   90.00005631
_cell_angle_beta   90.00005631
_cell_angle_gamma   89.99990622
_symmetry_Int_Tables_number   1
_chemical_formula_structural   TiZn3(GaIr2)4
_chemical_formula_sum   'Ti1 Zn3 Ga4 Ir8'
_cell_volume   227.71836553
_cell_formula_units_Z   1
loop_
 _symmetry_equiv_pos_site_id
 _symmetry_equiv_pos_as_xyz
  1  'x, y, z'
loop_
 _atom_site_type_symbol
 _atom_site_label
 _atom_site_symmetry_multiplicity
 _atom_site_fract_x
 _atom_site_fract_y
 _atom_site_fract_z
 _atom_site_occupancy
  Ti  Ti0  1  0.749974  0.250000  0.999994  1
  Zn  Zn1  1  0.250021  0.750000  0.000009  1
  Zn  Zn2  1  0.249977  0.750000  0.499966  1
  Zn  Zn3  1  0.750022  0.250000  0.500034  1
  Ga  Ga4  1  0.249889  0.250000  0.000008  1
  Ga  Ga5  1  0.750116  0.749999  0.999993  1
  Ga  Ga6  1  0.250112  0.250000  0.499980  1
  Ga  Ga7  1  0.749887  0.750000  0.500021  1
  Ir  Ir8  1  0.499792  0.999760  0.250474  1
  Ir  Ir9  1  0.499793  0.500247  0.250475  1
  Ir  Ir10  1  0.000244  0.999761  0.250529  1
  Ir  Ir11  1  0.000245  0.500230  0.250529  1
  Ir  Ir12  1  0.000238  0.999757  0.749470  1
  Ir  Ir13  1  0.000237  0.500252  0.749470  1
  Ir  Ir14  1  0.499727  0.999758  0.749525  1
  Ir  Ir15  1  0.499725  0.500235  0.749525  1
