# generated using pymatgen
data_Ho11Tm(OsPt)2
_symmetry_space_group_name_H-M   'P 1'
_cell_length_a   7.24963015
_cell_length_b   9.11109636
_cell_length_c   6.42818651
_cell_angle_alpha   90.08251608
_cell_angle_beta   89.53146909
_cell_angle_gamma   89.99350554
_symmetry_Int_Tables_number   1
_chemical_formula_structural   Ho11Tm(OsPt)2
_chemical_formula_sum   'Ho11 Tm1 Os2 Pt2'
_cell_volume   424.58044268
_cell_formula_units_Z   1
loop_
 _symmetry_equiv_pos_site_id
 _symmetry_equiv_pos_as_xyz
  1  'x, y, z'
loop_
 _atom_site_type_symbol
 _atom_site_label
 _atom_site_symmetry_multiplicity
 _atom_site_fract_x
 _atom_site_fract_y
 _atom_site_fract_z
 _atom_site_occupancy
  Ho  Ho0  1  0.027032  0.250466  0.620228  1
  Ho  Ho1  1  0.973609  0.749715  0.380439  1
  Ho  Ho2  1  0.460311  0.749533  0.123330  1
  Ho  Ho3  1  0.539190  0.250507  0.875987  1
  Ho  Ho4  1  0.175637  0.059237  0.167024  1
  Ho  Ho5  1  0.824595  0.940681  0.833272  1
  Ho  Ho6  1  0.316650  0.938117  0.679306  1
  Ho  Ho7  1  0.824821  0.559123  0.832895  1
  Ho  Ho8  1  0.683119  0.061242  0.320825  1
  Ho  Ho9  1  0.175629  0.441285  0.167079  1
  Ho  Ho10  1  0.682717  0.439182  0.321519  1
  Tm  Tm11  1  0.317287  0.562152  0.678738  1
  Os  Os12  1  0.114183  0.749114  0.961928  1
  Os  Os13  1  0.886127  0.249813  0.036956  1
  Pt  Pt14  1  0.387632  0.250884  0.459033  1
  Pt  Pt15  1  0.611460  0.748947  0.541440  1
