# generated using pymatgen
data_Nd5(Ni2Sn5)2
_symmetry_space_group_name_H-M   'P 1'
_cell_length_a   14.00770500
_cell_length_b   14.00770500
_cell_length_c   4.55807700
_cell_angle_alpha   90.00000000
_cell_angle_beta   90.00000000
_cell_angle_gamma   90.00000000
_symmetry_Int_Tables_number   1
_chemical_formula_structural   Nd5(Ni2Sn5)2
_chemical_formula_sum   'Nd10 Ni8 Sn20'
_cell_volume   894.36672213
_cell_formula_units_Z   2
loop_
 _symmetry_equiv_pos_site_id
 _symmetry_equiv_pos_as_xyz
  1  'x, y, z'
loop_
 _atom_site_type_symbol
 _atom_site_label
 _atom_site_symmetry_multiplicity
 _atom_site_fract_x
 _atom_site_fract_y
 _atom_site_fract_z
 _atom_site_occupancy
  Nd  Nd0  1  0.000000  0.000000  0.000000  1
  Nd  Nd1  1  0.500000  0.500000  0.000000  1
  Nd  Nd2  1  0.181343  0.681343  0.500000  1
  Nd  Nd3  1  0.818657  0.318657  0.500000  1
  Nd  Nd4  1  0.681343  0.818657  0.500000  1
  Nd  Nd5  1  0.318657  0.181343  0.500000  1
  Nd  Nd6  1  0.892355  0.607645  0.500000  1
  Nd  Nd7  1  0.107645  0.392355  0.500000  1
  Nd  Nd8  1  0.392355  0.892355  0.500000  1
  Nd  Nd9  1  0.607645  0.107645  0.500000  1
  Ni  Ni10  1  0.256455  0.533214  0.000000  1
  Ni  Ni11  1  0.743545  0.466786  0.000000  1
  Ni  Ni12  1  0.756455  0.966786  0.000000  1
  Ni  Ni13  1  0.243545  0.033214  0.000000  1
  Ni  Ni14  1  0.466786  0.256455  0.000000  1
  Ni  Ni15  1  0.533214  0.743545  0.000000  1
  Ni  Ni16  1  0.033214  0.756455  0.000000  1
  Ni  Ni17  1  0.966786  0.243545  0.000000  1
  Sn  Sn18  1  0.351395  0.700257  0.000000  1
  Sn  Sn19  1  0.648605  0.299743  0.000000  1
  Sn  Sn20  1  0.851395  0.799743  0.000000  1
  Sn  Sn21  1  0.148605  0.200257  0.000000  1
  Sn  Sn22  1  0.299743  0.351395  0.000000  1
  Sn  Sn23  1  0.700257  0.648605  0.000000  1
  Sn  Sn24  1  0.200257  0.851395  0.000000  1
  Sn  Sn25  1  0.799743  0.148605  0.000000  1
  Sn  Sn26  1  0.334070  0.507569  0.500000  1
  Sn  Sn27  1  0.665930  0.492431  0.500000  1
  Sn  Sn28  1  0.834070  0.992431  0.500000  1
  Sn  Sn29  1  0.165930  0.007569  0.500000  1
  Sn  Sn30  1  0.492431  0.334070  0.500000  1
  Sn  Sn31  1  0.507569  0.665930  0.500000  1
  Sn  Sn32  1  0.007569  0.834070  0.500000  1
  Sn  Sn33  1  0.992431  0.165930  0.500000  1
  Sn  Sn34  1  0.071755  0.571755  0.000000  1
  Sn  Sn35  1  0.928245  0.428245  0.000000  1
  Sn  Sn36  1  0.571755  0.928245  0.000000  1
  Sn  Sn37  1  0.428245  0.071755  0.000000  1
