# generated using pymatgen
data_Sc12Ni(IrBr8)2
_symmetry_space_group_name_H-M   'P 1'
_cell_length_a   8.85677471
_cell_length_b   11.69043666
_cell_length_c   12.35917855
_cell_angle_alpha   117.42322613
_cell_angle_beta   101.02171306
_cell_angle_gamma   100.63882430
_symmetry_Int_Tables_number   1
_chemical_formula_structural   Sc12Ni(IrBr8)2
_chemical_formula_sum   'Sc12 Ni1 Ir2 Br16'
_cell_volume   1058.90925958
_cell_formula_units_Z   1
loop_
 _symmetry_equiv_pos_site_id
 _symmetry_equiv_pos_as_xyz
  1  'x, y, z'
loop_
 _atom_site_type_symbol
 _atom_site_label
 _atom_site_symmetry_multiplicity
 _atom_site_fract_x
 _atom_site_fract_y
 _atom_site_fract_z
 _atom_site_occupancy
  Sc  Sc0  1  0.089641  0.270596  0.359342  1
  Sc  Sc1  1  0.913862  0.730405  0.641586  1
  Sc  Sc2  1  0.781099  0.535855  0.329406  1
  Sc  Sc3  1  0.220562  0.463856  0.669142  1
  Sc  Sc4  1  0.277152  0.729393  0.640848  1
  Sc  Sc5  1  0.725299  0.269517  0.357992  1
  Sc  Sc6  1  0.145602  0.535697  0.331343  1
  Sc  Sc7  1  0.857652  0.464730  0.670004  1
  Sc  Sc8  1  0.407256  0.359599  0.275603  1
  Sc  Sc9  1  0.595406  0.640466  0.724936  1
  Sc  Sc10  1  0.460025  0.308615  0.520420  1
  Sc  Sc11  1  0.542426  0.691122  0.479807  1
  Ni  Ni12  1  0.341739  0.499899  0.499718  1
  Ir  Ir13  1  0.004084  0.499993  0.499928  1
  Ir  Ir14  1  0.655584  0.500011  0.500436  1
  Br  Br15  1  0.388776  0.728965  0.865633  1
  Br  Br16  1  0.608074  0.268986  0.131298  1
  Br  Br17  1  0.185070  0.946010  0.772809  1
  Br  Br18  1  0.821300  0.053985  0.226083  1
  Br  Br19  1  0.337428  0.112643  0.262734  1
  Br  Br20  1  0.648103  0.887123  0.737437  1
  Br  Br21  1  0.548144  0.439215  0.785008  1
  Br  Br22  1  0.439135  0.560640  0.215019  1
  Br  Br23  1  0.304427  0.812641  0.465264  1
  Br  Br24  1  0.695638  0.186255  0.534623  1
  Br  Br25  1  0.168699  0.185777  0.531954  1
  Br  Br26  1  0.831056  0.815328  0.468145  1
  Br  Br27  1  0.932099  0.569973  0.172222  1
  Br  Br28  1  0.074579  0.430333  0.828019  1
  Br  Br29  1  0.916643  0.730284  0.868772  1
  Br  Br30  1  0.083439  0.272087  0.134468  1
