# generated using pymatgen
data_HfZr3(ScRu2)4
_symmetry_space_group_name_H-M   'P 1'
_cell_length_a   6.46331700
_cell_length_b   4.58650100
_cell_length_c   9.20220000
_cell_angle_alpha   90.00000000
_cell_angle_beta   90.00007018
_cell_angle_gamma   90.00000000
_symmetry_Int_Tables_number   1
_chemical_formula_structural   HfZr3(ScRu2)4
_chemical_formula_sum   'Hf1 Zr3 Sc4 Ru8'
_cell_volume   272.79010775
_cell_formula_units_Z   1
loop_
 _symmetry_equiv_pos_site_id
 _symmetry_equiv_pos_as_xyz
  1  'x, y, z'
loop_
 _atom_site_type_symbol
 _atom_site_label
 _atom_site_symmetry_multiplicity
 _atom_site_fract_x
 _atom_site_fract_y
 _atom_site_fract_z
 _atom_site_occupancy
  Hf  Hf0  1  0.249966  0.750000  0.874971  1
  Zr  Zr1  1  0.750032  0.250000  0.124810  1
  Zr  Zr2  1  0.250016  0.750000  0.374970  1
  Zr  Zr3  1  0.749979  0.250000  0.625242  1
  Sc  Sc4  1  0.250031  0.250000  0.123627  1
  Sc  Sc5  1  0.750047  0.750000  0.375020  1
  Sc  Sc6  1  0.249964  0.250000  0.626334  1
  Sc  Sc7  1  0.749946  0.750000  0.875020  1
  Ru  Ru8  1  0.498882  0.750000  0.123523  1
  Ru  Ru9  1  0.001167  0.750000  0.123521  1
  Ru  Ru10  1  0.499890  0.250000  0.375029  1
  Ru  Ru11  1  0.000156  0.250000  0.375038  1
  Ru  Ru12  1  0.001084  0.750000  0.626426  1
  Ru  Ru13  1  0.498874  0.750000  0.626416  1
  Ru  Ru14  1  0.002238  0.250000  0.875029  1
  Ru  Ru15  1  0.497732  0.250000  0.875026  1
