# generated using pymatgen
data_Re4Se5S3
_symmetry_space_group_name_H-M   'P 1'
_cell_length_a   6.58276452
_cell_length_b   6.74038004
_cell_length_c   7.34118962
_cell_angle_alpha   91.71084162
_cell_angle_beta   103.67779931
_cell_angle_gamma   118.66362333
_symmetry_Int_Tables_number   1
_chemical_formula_structural   Re4Se5S3
_chemical_formula_sum   'Re4 Se5 S3'
_cell_volume   273.75790297
_cell_formula_units_Z   1
loop_
 _symmetry_equiv_pos_site_id
 _symmetry_equiv_pos_as_xyz
  1  'x, y, z'
loop_
 _atom_site_type_symbol
 _atom_site_label
 _atom_site_symmetry_multiplicity
 _atom_site_fract_x
 _atom_site_fract_y
 _atom_site_fract_z
 _atom_site_occupancy
  Re  Re0  1  0.063321  0.316667  0.489063  1
  Re  Re1  1  0.933192  0.681589  0.506655  1
  Re  Re2  1  0.488378  0.292283  0.495102  1
  Re  Re3  1  0.511904  0.706958  0.500842  1
  Se  Se4  1  0.270774  0.653498  0.740264  1
  Se  Se5  1  0.218326  0.105603  0.703172  1
  Se  Se6  1  0.779631  0.894449  0.291699  1
  Se  Se7  1  0.748900  0.131586  0.680056  1
  Se  Se8  1  0.250340  0.866975  0.317462  1
  S  S9  1  0.266077  0.392569  0.250013  1
  S  S10  1  0.732559  0.606219  0.746123  1
  S  S11  1  0.736598  0.351603  0.279549  1
