# generated using pymatgen
data_Tb12Tc3Pd
_symmetry_space_group_name_H-M   'P 1'
_cell_length_a   7.44044753
_cell_length_b   9.28887000
_cell_length_c   6.32137094
_cell_angle_alpha   90.00000000
_cell_angle_beta   90.16534449
_cell_angle_gamma   90.00000000
_symmetry_Int_Tables_number   1
_chemical_formula_structural   Tb12Tc3Pd
_chemical_formula_sum   'Tb12 Tc3 Pd1'
_cell_volume   436.88930254
_cell_formula_units_Z   1
loop_
 _symmetry_equiv_pos_site_id
 _symmetry_equiv_pos_as_xyz
  1  'x, y, z'
loop_
 _atom_site_type_symbol
 _atom_site_label
 _atom_site_symmetry_multiplicity
 _atom_site_fract_x
 _atom_site_fract_y
 _atom_site_fract_z
 _atom_site_occupancy
  Tb  Tb0  1  0.466038  0.750000  0.133135  1
  Tb  Tb1  1  0.176081  0.069226  0.170906  1
  Tb  Tb2  1  0.176081  0.430775  0.170906  1
  Tb  Tb3  1  0.677567  0.065044  0.334359  1
  Tb  Tb4  1  0.677567  0.434957  0.334359  1
  Tb  Tb5  1  0.953278  0.750000  0.371828  1
  Tb  Tb6  1  0.042686  0.250000  0.630326  1
  Tb  Tb7  1  0.329518  0.559273  0.659202  1
  Tb  Tb8  1  0.329518  0.940727  0.659202  1
  Tb  Tb9  1  0.816703  0.558162  0.833755  1
  Tb  Tb10  1  0.816703  0.941838  0.833755  1
  Tb  Tb11  1  0.538508  0.250000  0.873907  1
  Tc  Tc12  1  0.887382  0.250000  0.037705  1
  Tc  Tc13  1  0.385580  0.250000  0.459880  1
  Tc  Tc14  1  0.614046  0.750000  0.548173  1
  Pd  Pd15  1  0.112749  0.750000  0.948616  1
