# generated using pymatgen
data_Cs12CaSmSe8
_symmetry_space_group_name_H-M   'P 1'
_cell_length_a   11.65578800
_cell_length_b   11.65578806
_cell_length_c   8.80464500
_cell_angle_alpha   90.00000000
_cell_angle_beta   90.00000000
_cell_angle_gamma   120.00000551
_symmetry_Int_Tables_number   1
_chemical_formula_structural   Cs12CaSmSe8
_chemical_formula_sum   'Cs12 Ca1 Sm1 Se8'
_cell_volume   1035.91885847
_cell_formula_units_Z   1
loop_
 _symmetry_equiv_pos_site_id
 _symmetry_equiv_pos_as_xyz
  1  'x, y, z'
loop_
 _atom_site_type_symbol
 _atom_site_label
 _atom_site_symmetry_multiplicity
 _atom_site_fract_x
 _atom_site_fract_y
 _atom_site_fract_z
 _atom_site_occupancy
  Cs  Cs0  1  0.136517  0.863483  0.541830  1
  Cs  Cs1  1  0.283219  0.141609  0.048302  1
  Cs  Cs2  1  0.858391  0.716781  0.048302  1
  Cs  Cs3  1  0.136517  0.273035  0.541830  1
  Cs  Cs4  1  0.726965  0.863483  0.541830  1
  Cs  Cs5  1  0.858391  0.141609  0.048302  1
  Cs  Cs6  1  0.535857  0.464143  0.368253  1
  Cs  Cs7  1  0.055987  0.527994  0.855573  1
  Cs  Cs8  1  0.472006  0.944013  0.855573  1
  Cs  Cs9  1  0.535857  0.071713  0.368253  1
  Cs  Cs10  1  0.928287  0.464143  0.368253  1
  Cs  Cs11  1  0.472006  0.527994  0.855573  1
  Ca  Ca12  1  0.666667  0.333333  0.757699  1
  Sm  Sm13  1  0.333333  0.666667  0.254772  1
  Se  Se14  1  0.333333  0.666667  0.572857  1
  Se  Se15  1  0.666667  0.333333  0.082312  1
  Se  Se16  1  0.202675  0.797325  0.148586  1
  Se  Se17  1  0.395515  0.197758  0.654711  1
  Se  Se18  1  0.802242  0.604485  0.654711  1
  Se  Se19  1  0.202675  0.405349  0.148586  1
  Se  Se20  1  0.594651  0.797325  0.148586  1
  Se  Se21  1  0.802242  0.197758  0.654711  1
