# generated using pymatgen
data_Ac4YbPd4
_symmetry_space_group_name_H-M   'P 1'
_cell_length_a   8.23755600
_cell_length_b   8.18105200
_cell_length_c   15.59703000
_cell_angle_alpha   90.00000000
_cell_angle_beta   90.00000000
_cell_angle_gamma   90.00000000
_symmetry_Int_Tables_number   1
_chemical_formula_structural   Ac4YbPd4
_chemical_formula_sum   'Ac16 Yb4 Pd16'
_cell_volume   1051.11308036
_cell_formula_units_Z   4
loop_
 _symmetry_equiv_pos_site_id
 _symmetry_equiv_pos_as_xyz
  1  'x, y, z'
loop_
 _atom_site_type_symbol
 _atom_site_label
 _atom_site_symmetry_multiplicity
 _atom_site_fract_x
 _atom_site_fract_y
 _atom_site_fract_z
 _atom_site_occupancy
  Ac  Ac0  1  0.321339  0.167898  0.121640  1
  Ac  Ac1  1  0.821339  0.332102  0.378360  1
  Ac  Ac2  1  0.178661  0.667898  0.878360  1
  Ac  Ac3  1  0.678661  0.832102  0.621640  1
  Ac  Ac4  1  0.321339  0.167898  0.378360  1
  Ac  Ac5  1  0.821339  0.332102  0.121640  1
  Ac  Ac6  1  0.178661  0.667898  0.621640  1
  Ac  Ac7  1  0.678661  0.832102  0.878360  1
  Ac  Ac8  1  0.969399  0.820134  0.397279  1
  Ac  Ac9  1  0.469399  0.679866  0.102721  1
  Ac  Ac10  1  0.530601  0.320134  0.602721  1
  Ac  Ac11  1  0.030601  0.179866  0.897279  1
  Ac  Ac12  1  0.030601  0.179866  0.602721  1
  Ac  Ac13  1  0.530601  0.320134  0.897279  1
  Ac  Ac14  1  0.469399  0.679866  0.397279  1
  Ac  Ac15  1  0.969399  0.820134  0.102721  1
  Yb  Yb16  1  0.344516  0.012595  0.750000  1
  Yb  Yb17  1  0.844516  0.487405  0.750000  1
  Yb  Yb18  1  0.155484  0.512595  0.250000  1
  Yb  Yb19  1  0.655484  0.987405  0.250000  1
  Pd  Pd20  1  0.840423  0.528297  0.546235  1
  Pd  Pd21  1  0.340423  0.971703  0.953765  1
  Pd  Pd22  1  0.659577  0.028297  0.453765  1
  Pd  Pd23  1  0.159577  0.471703  0.046235  1
  Pd  Pd24  1  0.159577  0.471703  0.453765  1
  Pd  Pd25  1  0.659577  0.028297  0.046235  1
  Pd  Pd26  1  0.340423  0.971703  0.546235  1
  Pd  Pd27  1  0.840423  0.528297  0.953765  1
  Pd  Pd28  1  0.983568  0.890119  0.750000  1
  Pd  Pd29  1  0.483568  0.609881  0.750000  1
  Pd  Pd30  1  0.516432  0.390119  0.250000  1
  Pd  Pd31  1  0.016432  0.109881  0.250000  1
  Pd  Pd32  1  0.222766  0.362843  0.750000  1
  Pd  Pd33  1  0.722766  0.137157  0.750000  1
  Pd  Pd34  1  0.277234  0.862843  0.250000  1
  Pd  Pd35  1  0.777234  0.637157  0.250000  1
