# generated using pymatgen
data_Er3In3CuAgPt
_symmetry_space_group_name_H-M   'P 1'
_cell_length_a   7.64618600
_cell_length_b   7.64618572
_cell_length_c   3.91165600
_cell_angle_alpha   90.00000000
_cell_angle_beta   90.00000000
_cell_angle_gamma   120.00000119
_symmetry_Int_Tables_number   1
_chemical_formula_structural   Er3In3CuAgPt
_chemical_formula_sum   'Er3 In3 Cu1 Ag1 Pt1'
_cell_volume   198.05279812
_cell_formula_units_Z   1
loop_
 _symmetry_equiv_pos_site_id
 _symmetry_equiv_pos_as_xyz
  1  'x, y, z'
loop_
 _atom_site_type_symbol
 _atom_site_label
 _atom_site_symmetry_multiplicity
 _atom_site_fract_x
 _atom_site_fract_y
 _atom_site_fract_z
 _atom_site_occupancy
  Er  Er0  1  0.018888  0.601206  0.500000  1
  Er  Er1  1  0.398794  0.417682  0.500000  1
  Er  Er2  1  0.582318  0.981112  0.500000  1
  In  In3  1  0.754921  0.751026  0.000000  1
  In  In4  1  0.996105  0.245079  0.000000  1
  In  In5  1  0.248974  0.003895  0.000000  1
  Cu  Cu6  1  0.000000  0.000000  0.500000  1
  Ag  Ag7  1  0.666667  0.333333  0.000000  1
  Pt  Pt8  1  0.333333  0.666667  0.000000  1
