# generated using pymatgen
data_Dy16Sc4Ir11Ru
_symmetry_space_group_name_H-M   'P 1'
_cell_length_a   10.76060800
_cell_length_b   10.76060800
_cell_length_c   6.29720200
_cell_angle_alpha   90.00000000
_cell_angle_beta   90.00000000
_cell_angle_gamma   90.00000000
_symmetry_Int_Tables_number   1
_chemical_formula_structural   Dy16Sc4Ir11Ru
_chemical_formula_sum   'Dy16 Sc4 Ir11 Ru1'
_cell_volume   729.15733020
_cell_formula_units_Z   1
loop_
 _symmetry_equiv_pos_site_id
 _symmetry_equiv_pos_as_xyz
  1  'x, y, z'
loop_
 _atom_site_type_symbol
 _atom_site_label
 _atom_site_symmetry_multiplicity
 _atom_site_fract_x
 _atom_site_fract_y
 _atom_site_fract_z
 _atom_site_occupancy
  Dy  Dy0  1  0.288927  0.085754  0.377103  1
  Dy  Dy1  1  0.289017  0.914232  0.879135  1
  Dy  Dy2  1  0.710983  0.085768  0.879135  1
  Dy  Dy3  1  0.711073  0.914246  0.377103  1
  Dy  Dy4  1  0.585768  0.789017  0.879135  1
  Dy  Dy5  1  0.585754  0.211073  0.377103  1
  Dy  Dy6  1  0.414246  0.788927  0.377103  1
  Dy  Dy7  1  0.414232  0.210983  0.879135  1
  Dy  Dy8  1  0.212477  0.413640  0.621733  1
  Dy  Dy9  1  0.212451  0.586271  0.121520  1
  Dy  Dy10  1  0.787549  0.413729  0.121520  1
  Dy  Dy11  1  0.787523  0.586360  0.621733  1
  Dy  Dy12  1  0.913729  0.712451  0.121520  1
  Dy  Dy13  1  0.913640  0.287523  0.621733  1
  Dy  Dy14  1  0.086360  0.712477  0.621733  1
  Dy  Dy15  1  0.086271  0.287549  0.121520  1
  Sc  Sc16  1  0.000000  0.000000  0.499771  1
  Sc  Sc17  1  0.000000  0.000000  0.999790  1
  Sc  Sc18  1  0.500000  0.500000  0.999790  1
  Sc  Sc19  1  0.500000  0.500000  0.499771  1
  Ir  Ir20  1  0.853346  0.147230  0.250190  1
  Ir  Ir21  1  0.853428  0.852937  0.750025  1
  Ir  Ir22  1  0.146572  0.147063  0.750025  1
  Ir  Ir23  1  0.146654  0.852770  0.250190  1
  Ir  Ir24  1  0.647063  0.353428  0.750025  1
  Ir  Ir25  1  0.647230  0.646654  0.250190  1
  Ir  Ir26  1  0.352770  0.353346  0.250190  1
  Ir  Ir27  1  0.352937  0.646572  0.750025  1
  Ir  Ir28  1  0.500000  0.000000  0.623884  1
  Ir  Ir29  1  0.000000  0.500000  0.876976  1
  Ir  Ir30  1  0.000000  0.500000  0.376953  1
  Ru  Ru31  1  0.500000  0.000000  0.124244  1
