# generated using pymatgen
data_Mg2NpP6BrN12
_symmetry_space_group_name_H-M   'P 1'
_cell_length_a   7.38805819
_cell_length_b   7.39071355
_cell_length_c   7.38805816
_cell_angle_alpha   109.78345462
_cell_angle_beta   109.11940532
_cell_angle_gamma   109.78343463
_symmetry_Int_Tables_number   1
_chemical_formula_structural   Mg2NpP6BrN12
_chemical_formula_sum   'Mg2 Np1 P6 Br1 N12'
_cell_volume   309.48574562
_cell_formula_units_Z   1
loop_
 _symmetry_equiv_pos_site_id
 _symmetry_equiv_pos_as_xyz
  1  'x, y, z'
loop_
 _atom_site_type_symbol
 _atom_site_label
 _atom_site_symmetry_multiplicity
 _atom_site_fract_x
 _atom_site_fract_y
 _atom_site_fract_z
 _atom_site_occupancy
  Mg  Mg0  1  0.004851  0.006345  0.390637  1
  Mg  Mg1  1  0.390637  0.006345  0.004851  1
  Np  Np2  1  0.009876  0.343488  0.009876  1
  P  P3  1  0.497003  0.259300  0.746629  1
  P  P4  1  0.250500  0.755748  0.500730  1
  P  P5  1  0.742632  0.506273  0.258151  1
  P  P6  1  0.746629  0.259300  0.497003  1
  P  P7  1  0.500730  0.755748  0.250500  1
  P  P8  1  0.258151  0.506273  0.742632  1
  Br  Br9  1  0.009399  0.944889  0.009399  1
  N  N10  1  0.387805  0.686242  0.387805  1
  N  N11  1  0.698922  0.423030  0.420166  1
  N  N12  1  0.420166  0.423030  0.698922  1
  N  N13  1  0.711476  0.283945  0.711476  1
  N  N14  1  0.993635  0.581535  0.293429  1
  N  N15  1  0.293429  0.581535  0.993635  1
  N  N16  1  0.281586  0.004474  0.574566  1
  N  N17  1  0.999217  0.287515  0.578333  1
  N  N18  1  0.718407  0.726498  0.292050  1
  N  N19  1  0.574566  0.004474  0.281586  1
  N  N20  1  0.292050  0.726498  0.718407  1
  N  N21  1  0.578333  0.287515  0.999217  1
