# generated using pymatgen
data_Ce3Ho(B4W)4
_symmetry_space_group_name_H-M   'P 1'
_cell_length_a   3.67972800
_cell_length_b   6.06546443
_cell_length_c   11.72599575
_cell_angle_alpha   90.07852843
_cell_angle_beta   90.00000000
_cell_angle_gamma   90.00000000
_symmetry_Int_Tables_number   1
_chemical_formula_structural   Ce3Ho(B4W)4
_chemical_formula_sum   'Ce3 Ho1 B16 W4'
_cell_volume   261.71529366
_cell_formula_units_Z   1
loop_
 _symmetry_equiv_pos_site_id
 _symmetry_equiv_pos_as_xyz
  1  'x, y, z'
loop_
 _atom_site_type_symbol
 _atom_site_label
 _atom_site_symmetry_multiplicity
 _atom_site_fract_x
 _atom_site_fract_y
 _atom_site_fract_z
 _atom_site_occupancy
  Ce  Ce0  1  0.000000  0.125643  0.150697  1
  Ce  Ce1  1  0.000000  0.874146  0.848633  1
  Ce  Ce2  1  0.000000  0.625271  0.349827  1
  Ho  Ho3  1  0.000000  0.374072  0.650199  1
  B  B4  1  0.500000  0.475504  0.191914  1
  B  B5  1  0.500000  0.524127  0.807081  1
  B  B6  1  0.500000  0.975732  0.308531  1
  B  B7  1  0.500000  0.023103  0.692113  1
  B  B8  1  0.500000  0.287449  0.315116  1
  B  B9  1  0.500000  0.712514  0.685418  1
  B  B10  1  0.500000  0.786590  0.185705  1
  B  B11  1  0.500000  0.213124  0.813671  1
  B  B12  1  0.500000  0.365180  0.468285  1
  B  B13  1  0.500000  0.634885  0.532619  1
  B  B14  1  0.500000  0.864566  0.031732  1
  B  B15  1  0.500000  0.135537  0.967539  1
  B  B16  1  0.500000  0.386120  0.046524  1
  B  B17  1  0.500000  0.613510  0.952379  1
  B  B18  1  0.500000  0.886576  0.453936  1
  B  B19  1  0.500000  0.115509  0.547777  1
  W  W20  1  0.000000  0.131001  0.415109  1
  W  W21  1  0.000000  0.870152  0.585590  1
  W  W22  1  0.000000  0.631209  0.085431  1
  W  W23  1  0.000000  0.368479  0.914173  1
