# generated using pymatgen
data_Cd3Ir2Os2PbO14
_symmetry_space_group_name_H-M   'P 1'
_cell_length_a   7.27188573
_cell_length_b   7.28604232
_cell_length_c   7.32423081
_cell_angle_alpha   60.41169141
_cell_angle_beta   60.23614367
_cell_angle_gamma   60.06425321
_symmetry_Int_Tables_number   1
_chemical_formula_structural   Cd3Ir2Os2PbO14
_chemical_formula_sum   'Cd3 Ir2 Os2 Pb1 O14'
_cell_volume   275.87050067
_cell_formula_units_Z   1
loop_
 _symmetry_equiv_pos_site_id
 _symmetry_equiv_pos_as_xyz
  1  'x, y, z'
loop_
 _atom_site_type_symbol
 _atom_site_label
 _atom_site_symmetry_multiplicity
 _atom_site_fract_x
 _atom_site_fract_y
 _atom_site_fract_z
 _atom_site_occupancy
  Cd  Cd0  1  0.125000  0.125000  0.125000  1
  Cd  Cd1  1  0.625000  0.125000  0.125000  1
  Cd  Cd2  1  0.125000  0.625000  0.125000  1
  Ir  Ir3  1  0.625000  0.625000  0.625000  1
  Ir  Ir4  1  0.125000  0.625000  0.625000  1
  Os  Os5  1  0.625000  0.125000  0.625000  1
  Os  Os6  1  0.625000  0.625000  0.125000  1
  Pb  Pb7  1  0.125000  0.125000  0.625000  1
  O  O8  1  0.259367  0.253944  0.227322  1
  O  O9  1  0.990633  0.996056  0.022678  1
  O  O10  1  0.551355  0.951538  0.551602  1
  O  O11  1  0.308616  0.703690  0.301570  1
  O  O12  1  0.563876  0.546310  0.948430  1
  O  O13  1  0.956190  0.543212  0.544407  1
  O  O14  1  0.569891  0.932024  0.928194  1
  O  O15  1  0.945505  0.951538  0.551602  1
  O  O16  1  0.941384  0.546310  0.948430  1
  O  O17  1  0.680109  0.317976  0.321806  1
  O  O18  1  0.293810  0.706788  0.705593  1
  O  O19  1  0.698645  0.298462  0.698398  1
  O  O20  1  0.304495  0.298462  0.698398  1
  O  O21  1  0.686124  0.703690  0.301570  1
