# generated using pymatgen
data_Er12Ga7SiRh8
_symmetry_space_group_name_H-M   'P 1'
_cell_length_a   5.52222671
_cell_length_b   7.79083657
_cell_length_c   13.44265400
_cell_angle_alpha   90.00000000
_cell_angle_beta   90.00000000
_cell_angle_gamma   90.00713910
_symmetry_Int_Tables_number   1
_chemical_formula_structural   Er12Ga7SiRh8
_chemical_formula_sum   'Er12 Ga7 Si1 Rh8'
_cell_volume   578.34015081
_cell_formula_units_Z   1
loop_
 _symmetry_equiv_pos_site_id
 _symmetry_equiv_pos_as_xyz
  1  'x, y, z'
loop_
 _atom_site_type_symbol
 _atom_site_label
 _atom_site_symmetry_multiplicity
 _atom_site_fract_x
 _atom_site_fract_y
 _atom_site_fract_z
 _atom_site_occupancy
  Er  Er0  1  0.627911  0.265234  0.250000  1
  Er  Er1  1  0.367200  0.732387  0.750000  1
  Er  Er2  1  0.369104  0.768190  0.250000  1
  Er  Er3  1  0.635941  0.236128  0.750000  1
  Er  Er4  1  0.153133  0.400992  0.096234  1
  Er  Er5  1  0.848764  0.597044  0.899559  1
  Er  Er6  1  0.848764  0.597044  0.600441  1
  Er  Er7  1  0.846828  0.901222  0.404082  1
  Er  Er8  1  0.153133  0.400992  0.403766  1
  Er  Er9  1  0.153736  0.099537  0.600593  1
  Er  Er10  1  0.153736  0.099537  0.899407  1
  Er  Er11  1  0.846828  0.901222  0.095918  1
  Ga  Ga12  1  0.119879  0.113937  0.250000  1
  Ga  Ga13  1  0.874695  0.884743  0.750000  1
  Ga  Ga14  1  0.875731  0.611558  0.250000  1
  Ga  Ga15  1  0.652935  0.251173  0.998982  1
  Ga  Ga16  1  0.347934  0.749787  0.997813  1
  Ga  Ga17  1  0.347934  0.749787  0.502187  1
  Ga  Ga18  1  0.652935  0.251173  0.501018  1
  Si  Si19  1  0.131377  0.385782  0.750000  1
  Rh  Rh20  1  0.358812  0.039471  0.092820  1
  Rh  Rh21  1  0.639759  0.962078  0.905846  1
  Rh  Rh22  1  0.639759  0.962078  0.594154  1
  Rh  Rh23  1  0.639196  0.541102  0.407830  1
  Rh  Rh24  1  0.358812  0.039471  0.407180  1
  Rh  Rh25  1  0.357983  0.458616  0.598030  1
  Rh  Rh26  1  0.357983  0.458616  0.901970  1
  Rh  Rh27  1  0.639196  0.541102  0.092170  1
