# generated using pymatgen
data_Tb8Dy8MgNi4Hg3
_symmetry_space_group_name_H-M   'P 1'
_cell_length_a   9.52969771
_cell_length_b   9.56143504
_cell_length_c   9.54298200
_cell_angle_alpha   60.06382155
_cell_angle_beta   59.95387649
_cell_angle_gamma   60.06268962
_symmetry_Int_Tables_number   1
_chemical_formula_structural   Tb8Dy8MgNi4Hg3
_chemical_formula_sum   'Tb8 Dy8 Mg1 Ni4 Hg3'
_cell_volume   615.22500532
_cell_formula_units_Z   1
loop_
 _symmetry_equiv_pos_site_id
 _symmetry_equiv_pos_as_xyz
  1  'x, y, z'
loop_
 _atom_site_type_symbol
 _atom_site_label
 _atom_site_symmetry_multiplicity
 _atom_site_fract_x
 _atom_site_fract_y
 _atom_site_fract_z
 _atom_site_occupancy
  Tb  Tb0  1  0.348180  0.347357  0.347456  1
  Tb  Tb1  1  0.348180  0.347357  0.957006  1
  Tb  Tb2  1  0.350615  0.952712  0.348336  1
  Tb  Tb3  1  0.946733  0.351932  0.350667  1
  Tb  Tb4  1  0.808992  0.191320  0.191271  1
  Tb  Tb5  1  0.185654  0.813125  0.811530  1
  Tb  Tb6  1  0.185654  0.813125  0.189691  1
  Tb  Tb7  1  0.808992  0.191320  0.808418  1
  Dy  Dy8  1  0.186816  0.190862  0.811161  1
  Dy  Dy9  1  0.808192  0.809286  0.191261  1
  Dy  Dy10  1  0.935537  0.564177  0.565136  1
  Dy  Dy11  1  0.561097  0.937522  0.936185  1
  Dy  Dy12  1  0.561097  0.937522  0.565196  1
  Dy  Dy13  1  0.935537  0.564177  0.935150  1
  Dy  Dy14  1  0.561903  0.564725  0.936686  1
  Dy  Dy15  1  0.935295  0.936650  0.564027  1
  Mg  Mg16  1  0.284928  0.570852  0.572111  1
  Ni  Ni17  1  0.141423  0.143079  0.144108  1
  Ni  Ni18  1  0.141423  0.143079  0.571391  1
  Ni  Ni19  1  0.139754  0.573111  0.143568  1
  Ni  Ni20  1  0.572401  0.141671  0.142965  1
  Hg  Hg21  1  0.583809  0.586298  0.586179  1
  Hg  Hg22  1  0.583809  0.586298  0.243714  1
  Hg  Hg23  1  0.583982  0.242444  0.586787  1
