# generated using pymatgen
data_Tb5Pr3(AgIr)2
_symmetry_space_group_name_H-M   'P 1'
_cell_length_a   9.69899383
_cell_length_b   9.69899463
_cell_length_c   9.69899400
_cell_angle_alpha   60.00000215
_cell_angle_beta   59.99999942
_cell_angle_gamma   59.99999841
_symmetry_Int_Tables_number   1
_chemical_formula_structural   Tb5Pr3(AgIr)2
_chemical_formula_sum   'Tb10 Pr6 Ag4 Ir4'
_cell_volume   645.15652621
_cell_formula_units_Z   2
loop_
 _symmetry_equiv_pos_site_id
 _symmetry_equiv_pos_as_xyz
  1  'x, y, z'
loop_
 _atom_site_type_symbol
 _atom_site_label
 _atom_site_symmetry_multiplicity
 _atom_site_fract_x
 _atom_site_fract_y
 _atom_site_fract_z
 _atom_site_occupancy
  Tb  Tb0  1  0.349803  0.349803  0.349803  1
  Tb  Tb1  1  0.349803  0.349803  0.950591  1
  Tb  Tb2  1  0.349803  0.950591  0.349803  1
  Tb  Tb3  1  0.950591  0.349803  0.349803  1
  Tb  Tb4  1  0.812669  0.187331  0.187331  1
  Tb  Tb5  1  0.187331  0.812669  0.812669  1
  Tb  Tb6  1  0.187331  0.812669  0.187331  1
  Tb  Tb7  1  0.812669  0.187331  0.812669  1
  Tb  Tb8  1  0.187331  0.187331  0.812669  1
  Tb  Tb9  1  0.812669  0.812669  0.187331  1
  Pr  Pr10  1  0.939588  0.560412  0.560412  1
  Pr  Pr11  1  0.560412  0.939588  0.939588  1
  Pr  Pr12  1  0.560412  0.939588  0.560412  1
  Pr  Pr13  1  0.939588  0.560412  0.939588  1
  Pr  Pr14  1  0.560412  0.560412  0.939588  1
  Pr  Pr15  1  0.939588  0.939588  0.560412  1
  Ag  Ag16  1  0.579457  0.579457  0.579457  1
  Ag  Ag17  1  0.579457  0.579457  0.261626  1
  Ag  Ag18  1  0.579457  0.261626  0.579457  1
  Ag  Ag19  1  0.261626  0.579457  0.579457  1
  Ir  Ir20  1  0.142001  0.142001  0.142001  1
  Ir  Ir21  1  0.142001  0.142001  0.573996  1
  Ir  Ir22  1  0.142001  0.573996  0.142001  1
  Ir  Ir23  1  0.573996  0.142001  0.142001  1
