# generated using pymatgen
data_Y6ErSc3(In2Ni)4
_symmetry_space_group_name_H-M   'P 1'
_cell_length_a   3.56490400
_cell_length_b   7.89965219
_cell_length_c   17.70089443
_cell_angle_alpha   90.02520760
_cell_angle_beta   90.00000000
_cell_angle_gamma   90.00000000
_symmetry_Int_Tables_number   1
_chemical_formula_structural   Y6ErSc3(In2Ni)4
_chemical_formula_sum   'Y6 Er1 Sc3 In8 Ni4'
_cell_volume   498.48372020
_cell_formula_units_Z   1
loop_
 _symmetry_equiv_pos_site_id
 _symmetry_equiv_pos_as_xyz
  1  'x, y, z'
loop_
 _atom_site_type_symbol
 _atom_site_label
 _atom_site_symmetry_multiplicity
 _atom_site_fract_x
 _atom_site_fract_y
 _atom_site_fract_z
 _atom_site_occupancy
  Y  Y0  1  0.000000  0.500578  0.500403  1
  Y  Y1  1  0.000000  0.000132  0.999965  1
  Y  Y2  1  0.000000  0.746712  0.280165  1
  Y  Y3  1  0.000000  0.252855  0.719566  1
  Y  Y4  1  0.000000  0.752739  0.780602  1
  Y  Y5  1  0.000000  0.248118  0.218811  1
  Er  Er6  1  0.000000  0.119256  0.411355  1
  Sc  Sc7  1  0.000000  0.618005  0.090196  1
  Sc  Sc8  1  0.000000  0.382095  0.909685  1
  Sc  Sc9  1  0.000000  0.881999  0.590581  1
  In  In10  1  0.500000  0.694236  0.935239  1
  In  In11  1  0.500000  0.305789  0.064688  1
  In  In12  1  0.500000  0.800387  0.435208  1
  In  In13  1  0.500000  0.195164  0.566492  1
  In  In14  1  0.500000  0.577407  0.652237  1
  In  In15  1  0.500000  0.426564  0.347069  1
  In  In16  1  0.500000  0.922360  0.151829  1
  In  In17  1  0.500000  0.077458  0.847888  1
  Ni  Ni18  1  0.500000  0.530522  0.193375  1
  Ni  Ni19  1  0.500000  0.469665  0.806534  1
  Ni  Ni20  1  0.500000  0.969515  0.693618  1
  Ni  Ni21  1  0.500000  0.028443  0.304494  1
