# generated using pymatgen
data_TbLu3(MnAl3)2
_symmetry_space_group_name_H-M   'P 1'
_cell_length_a   9.31086033
_cell_length_b   9.31086032
_cell_length_c   9.31086010
_cell_angle_alpha   34.35615930
_cell_angle_beta   34.35615880
_cell_angle_gamma   34.35616041
_symmetry_Int_Tables_number   1
_chemical_formula_structural   TbLu3(MnAl3)2
_chemical_formula_sum   'Tb1 Lu3 Mn2 Al6'
_cell_volume   229.27875147
_cell_formula_units_Z   1
loop_
 _symmetry_equiv_pos_site_id
 _symmetry_equiv_pos_as_xyz
  1  'x, y, z'
loop_
 _atom_site_type_symbol
 _atom_site_label
 _atom_site_symmetry_multiplicity
 _atom_site_fract_x
 _atom_site_fract_y
 _atom_site_fract_z
 _atom_site_occupancy
  Tb  Tb0  1  0.813436  0.813436  0.813436  1
  Lu  Lu1  1  0.313582  0.313582  0.313582  1
  Lu  Lu2  1  0.686318  0.686318  0.686318  1
  Lu  Lu3  1  0.186512  0.186512  0.186512  1
  Mn  Mn4  1  0.500163  0.500163  0.500163  1
  Mn  Mn5  1  0.999937  0.999937  0.999937  1
  Al  Al6  1  0.249917  0.249917  0.749389  1
  Al  Al7  1  0.750112  0.750112  0.250602  1
  Al  Al8  1  0.249917  0.749389  0.249917  1
  Al  Al9  1  0.750112  0.250602  0.750112  1
  Al  Al10  1  0.749389  0.249917  0.249917  1
  Al  Al11  1  0.250602  0.750112  0.750112  1
