# generated using pymatgen
data_Er4Al6MoIr
_symmetry_space_group_name_H-M   'P 1'
_cell_length_a   5.48219000
_cell_length_b   5.48219103
_cell_length_c   8.90527300
_cell_angle_alpha   90.00000000
_cell_angle_beta   90.00000000
_cell_angle_gamma   119.99999377
_symmetry_Int_Tables_number   1
_chemical_formula_structural   Er4Al6MoIr
_chemical_formula_sum   'Er4 Al6 Mo1 Ir1'
_cell_volume   231.78543632
_cell_formula_units_Z   1
loop_
 _symmetry_equiv_pos_site_id
 _symmetry_equiv_pos_as_xyz
  1  'x, y, z'
loop_
 _atom_site_type_symbol
 _atom_site_label
 _atom_site_symmetry_multiplicity
 _atom_site_fract_x
 _atom_site_fract_y
 _atom_site_fract_z
 _atom_site_occupancy
  Er  Er0  1  0.666665  0.333333  0.053629  1
  Er  Er1  1  0.666665  0.333333  0.446000  1
  Er  Er2  1  0.333334  0.666667  0.554000  1
  Er  Er3  1  0.333334  0.666667  0.946371  1
  Al  Al4  1  0.163765  0.327529  0.255551  1
  Al  Al5  1  0.163766  0.836236  0.255551  1
  Al  Al6  1  0.672470  0.836236  0.255551  1
  Al  Al7  1  0.327530  0.163766  0.744447  1
  Al  Al8  1  0.836236  0.163766  0.744447  1
  Al  Al9  1  0.836234  0.672470  0.744447  1
  Mo  Mo10  1  0.000000  0.000000  0.000000  1
  Ir  Ir11  1  0.000000  0.000000  0.500000  1
