# generated using pymatgen
data_Zr4Pd3Rh
_symmetry_space_group_name_H-M   'P 1'
_cell_length_a   4.47069800
_cell_length_b   5.48664099
_cell_length_c   6.25619766
_cell_angle_alpha   90.24871706
_cell_angle_beta   90.00000000
_cell_angle_gamma   90.00000000
_symmetry_Int_Tables_number   1
_chemical_formula_structural   Zr4Pd3Rh
_chemical_formula_sum   'Zr4 Pd3 Rh1'
_cell_volume   153.45754540
_cell_formula_units_Z   1
loop_
 _symmetry_equiv_pos_site_id
 _symmetry_equiv_pos_as_xyz
  1  'x, y, z'
loop_
 _atom_site_type_symbol
 _atom_site_label
 _atom_site_symmetry_multiplicity
 _atom_site_fract_x
 _atom_site_fract_y
 _atom_site_fract_z
 _atom_site_occupancy
  Zr  Zr0  1  0.750000  0.863565  0.828381  1
  Zr  Zr1  1  0.250000  0.354786  0.680048  1
  Zr  Zr2  1  0.750000  0.636276  0.325960  1
  Zr  Zr3  1  0.250000  0.149331  0.168397  1
  Pd  Pd4  1  0.750000  0.153745  0.452596  1
  Pd  Pd5  1  0.250000  0.843714  0.542398  1
  Pd  Pd6  1  0.250000  0.660130  0.048028  1
  Rh  Rh7  1  0.750000  0.338453  0.954192  1
