# generated using pymatgen
data_Ta5BeP2
_symmetry_space_group_name_H-M   'P 1'
_cell_length_a   7.42045523
_cell_length_b   7.42045531
_cell_length_c   7.42045561
_cell_angle_alpha   129.19638418
_cell_angle_beta   129.07300628
_cell_angle_gamma   74.79397811
_symmetry_Int_Tables_number   1
_chemical_formula_structural   Ta5BeP2
_chemical_formula_sum   'Ta10 Be2 P4'
_cell_volume   239.46420520
_cell_formula_units_Z   2
loop_
 _symmetry_equiv_pos_site_id
 _symmetry_equiv_pos_as_xyz
  1  'x, y, z'
loop_
 _atom_site_type_symbol
 _atom_site_label
 _atom_site_symmetry_multiplicity
 _atom_site_fract_x
 _atom_site_fract_y
 _atom_site_fract_z
 _atom_site_occupancy
  Ta  Ta0  1  0.017967  0.190131  0.504979  1
  Ta  Ta1  1  0.517967  0.012988  0.827838  1
  Ta  Ta2  1  0.187150  0.681406  0.161550  1
  Ta  Ta3  1  0.480145  0.974401  0.161550  1
  Ta  Ta4  1  0.687150  0.525599  0.505744  1
  Ta  Ta5  1  0.980145  0.818594  0.505744  1
  Ta  Ta6  1  0.314849  0.487012  0.504979  1
  Ta  Ta7  1  0.814849  0.309869  0.827838  1
  Ta  Ta8  1  0.497340  0.501873  0.999214  1
  Ta  Ta9  1  0.997340  0.998127  0.995467  1
  Be  Be10  1  0.124020  0.626131  0.750152  1
  Be  Be11  1  0.624020  0.873869  0.497889  1
  P  P12  1  0.377188  0.119620  0.496808  1
  P  P13  1  0.877188  0.380380  0.257567  1
  P  P14  1  0.751341  0.750000  0.001341  1
  P  P15  1  0.251341  0.250000  0.001341  1
