# generated using pymatgen
data_NaAc2IrO6
_symmetry_space_group_name_H-M   'P 1'
_cell_length_a   5.75696243
_cell_length_b   5.75696372
_cell_length_c   5.75696400
_cell_angle_alpha   61.86889366
_cell_angle_beta   61.86888679
_cell_angle_gamma   61.86889323
_symmetry_Int_Tables_number   1
_chemical_formula_structural   NaAc2IrO6
_chemical_formula_sum   'Na1 Ac2 Ir1 O6'
_cell_volume   140.56180283
_cell_formula_units_Z   1
loop_
 _symmetry_equiv_pos_site_id
 _symmetry_equiv_pos_as_xyz
  1  'x, y, z'
loop_
 _atom_site_type_symbol
 _atom_site_label
 _atom_site_symmetry_multiplicity
 _atom_site_fract_x
 _atom_site_fract_y
 _atom_site_fract_z
 _atom_site_occupancy
  Na  Na0  1  0.169403  0.169403  0.169403  1
  Ac  Ac1  1  0.915253  0.915253  0.915253  1
  Ac  Ac2  1  0.423619  0.423619  0.423619  1
  Ir  Ir3  1  0.669108  0.669108  0.669108  1
  O  O4  1  0.982069  0.443410  0.825142  1
  O  O5  1  0.356701  0.895246  0.513509  1
  O  O6  1  0.443410  0.825142  0.982069  1
  O  O7  1  0.513509  0.356701  0.895246  1
  O  O8  1  0.825142  0.982069  0.443410  1
  O  O9  1  0.895246  0.513509  0.356701  1
