# generated using pymatgen
data_Lu4Fe5Si2Os
_symmetry_space_group_name_H-M   'P 1'
_cell_length_a   5.11483900
_cell_length_b   5.17442548
_cell_length_c   8.12932000
_cell_angle_alpha   90.00000000
_cell_angle_beta   90.00000000
_cell_angle_gamma   119.62591985
_symmetry_Int_Tables_number   1
_chemical_formula_structural   Lu4Fe5Si2Os
_chemical_formula_sum   'Lu4 Fe5 Si2 Os1'
_cell_volume   187.02674240
_cell_formula_units_Z   1
loop_
 _symmetry_equiv_pos_site_id
 _symmetry_equiv_pos_as_xyz
  1  'x, y, z'
loop_
 _atom_site_type_symbol
 _atom_site_label
 _atom_site_symmetry_multiplicity
 _atom_site_fract_x
 _atom_site_fract_y
 _atom_site_fract_z
 _atom_site_occupancy
  Lu  Lu0  1  0.665825  0.331709  0.064980  1
  Lu  Lu1  1  0.334438  0.668805  0.938184  1
  Lu  Lu2  1  0.334438  0.668805  0.561816  1
  Lu  Lu3  1  0.665825  0.331709  0.435020  1
  Fe  Fe4  1  0.831583  0.170638  0.750000  1
  Fe  Fe5  1  0.338984  0.170612  0.750000  1
  Fe  Fe6  1  0.171625  0.343260  0.250000  1
  Fe  Fe7  1  0.171531  0.828020  0.250000  1
  Fe  Fe8  1  0.656496  0.828026  0.250000  1
  Si  Si9  1  0.000788  0.001500  0.495264  1
  Si  Si10  1  0.000788  0.001500  0.004736  1
  Os  Os11  1  0.827679  0.655416  0.750000  1
