# generated using pymatgen
data_Lu3Sc2Tc4(P4Ir5)3
_symmetry_space_group_name_H-M   'P 1'
_cell_length_a   12.65040400
_cell_length_b   12.54190978
_cell_length_c   3.94699200
_cell_angle_alpha   90.00000000
_cell_angle_beta   90.00000000
_cell_angle_gamma   119.79708827
_symmetry_Int_Tables_number   1
_chemical_formula_structural   Lu3Sc2Tc4(P4Ir5)3
_chemical_formula_sum   'Lu3 Sc2 Tc4 P12 Ir15'
_cell_volume   543.43713186
_cell_formula_units_Z   1
loop_
 _symmetry_equiv_pos_site_id
 _symmetry_equiv_pos_as_xyz
  1  'x, y, z'
loop_
 _atom_site_type_symbol
 _atom_site_label
 _atom_site_symmetry_multiplicity
 _atom_site_fract_x
 _atom_site_fract_y
 _atom_site_fract_z
 _atom_site_occupancy
  Lu  Lu0  1  0.331514  0.663306  0.000000  1
  Lu  Lu1  1  0.666704  0.333382  0.000000  1
  Lu  Lu2  1  0.821396  0.002237  0.500000  1
  Sc  Sc3  1  0.000464  0.819061  0.500000  1
  Sc  Sc4  1  0.183800  0.186302  0.500000  1
  Tc  Tc5  1  0.454301  0.998995  0.000000  1
  Tc  Tc6  1  0.995249  0.453057  0.000000  1
  Tc  Tc7  1  0.548791  0.543442  0.000000  1
  Tc  Tc8  1  0.177754  0.376028  0.000000  1
  P  P9  1  0.176999  0.002345  0.000000  1
  P  P10  1  0.005859  0.181605  0.000000  1
  P  P11  1  0.825318  0.826099  0.000000  1
  P  P12  1  0.171140  0.479476  0.500000  1
  P  P13  1  0.516601  0.683859  0.500000  1
  P  P14  1  0.313154  0.828183  0.500000  1
  P  P15  1  0.684481  0.515892  0.500000  1
  P  P16  1  0.829799  0.315024  0.500000  1
  P  P17  1  0.483356  0.167409  0.500000  1
  P  P18  1  0.638659  0.999216  0.000000  1
  P  P19  1  0.000802  0.640732  0.000000  1
  P  P20  1  0.356020  0.361713  0.000000  1
  Ir  Ir21  1  0.362641  0.490447  0.500000  1
  Ir  Ir22  1  0.507190  0.864862  0.500000  1
  Ir  Ir23  1  0.132000  0.639449  0.500000  1
  Ir  Ir24  1  0.865499  0.510028  0.500000  1
  Ir  Ir25  1  0.640869  0.131914  0.500000  1
  Ir  Ir26  1  0.493338  0.356036  0.500000  1
  Ir  Ir27  1  0.628465  0.807606  0.000000  1
  Ir  Ir28  1  0.191332  0.820310  0.000000  1
  Ir  Ir29  1  0.812213  0.632996  0.000000  1
  Ir  Ir30  1  0.816700  0.190196  0.000000  1
  Ir  Ir31  1  0.370746  0.180429  0.000000  1
  Ir  Ir32  1  0.287987  0.999777  0.500000  1
  Ir  Ir33  1  0.994618  0.285207  0.500000  1
  Ir  Ir34  1  0.712921  0.712801  0.500000  1
  Ir  Ir35  1  0.001318  0.000583  0.000000  1
