# generated using pymatgen
data_Tb3Pr4Y(SiO5)4
_symmetry_space_group_name_H-M   'P 1'
_cell_length_a   8.16854334
_cell_length_b   8.16686519
_cell_length_c   10.85401935
_cell_angle_alpha   61.10352343
_cell_angle_beta   61.11533770
_cell_angle_gamma   50.28892317
_symmetry_Int_Tables_number   1
_chemical_formula_structural   Tb3Pr4Y(SiO5)4
_chemical_formula_sum   'Tb3 Pr4 Y1 Si4 O20'
_cell_volume   471.05476368
_cell_formula_units_Z   1
loop_
 _symmetry_equiv_pos_site_id
 _symmetry_equiv_pos_as_xyz
  1  'x, y, z'
loop_
 _atom_site_type_symbol
 _atom_site_label
 _atom_site_symmetry_multiplicity
 _atom_site_fract_x
 _atom_site_fract_y
 _atom_site_fract_z
 _atom_site_occupancy
  Tb  Tb0  1  0.236401  0.477525  0.336777  1
  Tb  Tb1  1  0.522526  0.763773  0.163031  1
  Tb  Tb2  1  0.763632  0.522310  0.663285  1
  Pr  Pr3  1  0.782853  0.291389  0.035440  1
  Pr  Pr4  1  0.708552  0.216909  0.464716  1
  Pr  Pr5  1  0.217058  0.708407  0.964552  1
  Pr  Pr6  1  0.291441  0.782869  0.535459  1
  Y  Y7  1  0.477231  0.237080  0.836711  1
  Si  Si8  1  0.728346  0.903480  0.306896  1
  Si  Si9  1  0.096606  0.271683  0.192909  1
  Si  Si10  1  0.271725  0.096471  0.693347  1
  Si  Si11  1  0.903473  0.728475  0.806765  1
  O  O12  1  0.421767  0.611378  0.109101  1
  O  O13  1  0.388697  0.578232  0.390844  1
  O  O14  1  0.578023  0.388145  0.891052  1
  O  O15  1  0.611306  0.421314  0.609481  1
  O  O16  1  0.866536  0.725000  0.432571  1
  O  O17  1  0.275255  0.133746  0.067084  1
  O  O18  1  0.133669  0.274849  0.567567  1
  O  O19  1  0.724739  0.867493  0.931981  1
  O  O20  1  0.565478  0.842960  0.317915  1
  O  O21  1  0.156875  0.434611  0.182151  1
  O  O22  1  0.434365  0.156927  0.682855  1
  O  O23  1  0.842884  0.565479  0.817960  1
  O  O24  1  0.158392  0.588456  0.822720  1
  O  O25  1  0.411674  0.841570  0.677293  1
  O  O26  1  0.841622  0.411546  0.177152  1
  O  O27  1  0.588472  0.158431  0.322763  1
  O  O28  1  0.908793  0.905279  0.645687  1
  O  O29  1  0.094224  0.091615  0.854091  1
  O  O30  1  0.091762  0.094320  0.353824  1
  O  O31  1  0.905623  0.908279  0.146019  1
