# generated using pymatgen
data_Tb12Th4Cd4Ir3Ru
_symmetry_space_group_name_H-M   'P 1'
_cell_length_a   9.78904666
_cell_length_b   9.78904678
_cell_length_c   9.78904627
_cell_angle_alpha   59.83470050
_cell_angle_beta   59.83470047
_cell_angle_gamma   59.83469996
_symmetry_Int_Tables_number   1
_chemical_formula_structural   Tb12Th4Cd4Ir3Ru
_chemical_formula_sum   'Tb12 Th4 Cd4 Ir3 Ru1'
_cell_volume   660.80574065
_cell_formula_units_Z   1
loop_
 _symmetry_equiv_pos_site_id
 _symmetry_equiv_pos_as_xyz
  1  'x, y, z'
loop_
 _atom_site_type_symbol
 _atom_site_label
 _atom_site_symmetry_multiplicity
 _atom_site_fract_x
 _atom_site_fract_y
 _atom_site_fract_z
 _atom_site_occupancy
  Tb  Tb0  1  0.062710  0.438316  0.438316  1
  Tb  Tb1  1  0.436770  0.062085  0.062085  1
  Tb  Tb2  1  0.438316  0.062710  0.438316  1
  Tb  Tb3  1  0.062085  0.436770  0.062085  1
  Tb  Tb4  1  0.438316  0.438316  0.062710  1
  Tb  Tb5  1  0.062085  0.062085  0.436770  1
  Tb  Tb6  1  0.186873  0.814361  0.814361  1
  Tb  Tb7  1  0.813022  0.185876  0.185876  1
  Tb  Tb8  1  0.814361  0.186873  0.814361  1
  Tb  Tb9  1  0.185876  0.813022  0.185876  1
  Tb  Tb10  1  0.814361  0.814361  0.186873  1
  Tb  Tb11  1  0.185876  0.185876  0.813022  1
  Th  Th12  1  0.598874  0.598874  0.598874  1
  Th  Th13  1  0.597836  0.597836  0.203967  1
  Th  Th14  1  0.597836  0.203967  0.597836  1
  Th  Th15  1  0.203967  0.597836  0.597836  1
  Cd  Cd16  1  0.831404  0.831404  0.831404  1
  Cd  Cd17  1  0.831285  0.831285  0.503626  1
  Cd  Cd18  1  0.831285  0.503626  0.831285  1
  Cd  Cd19  1  0.503626  0.831285  0.831285  1
  Ir  Ir20  1  0.394100  0.394100  0.820054  1
  Ir  Ir21  1  0.394100  0.820054  0.394100  1
  Ir  Ir22  1  0.820054  0.394100  0.394100  1
  Ru  Ru23  1  0.394984  0.394984  0.394984  1
