# generated using pymatgen
data_Dy5Ho7Tc3Ru
_symmetry_space_group_name_H-M   'P 1'
_cell_length_a   6.26838403
_cell_length_b   7.38008719
_cell_length_c   9.12988004
_cell_angle_alpha   89.99667829
_cell_angle_beta   90.00966760
_cell_angle_gamma   89.96990392
_symmetry_Int_Tables_number   1
_chemical_formula_structural   Dy5Ho7Tc3Ru
_chemical_formula_sum   'Dy5 Ho7 Tc3 Ru1'
_cell_volume   422.35932976
_cell_formula_units_Z   1
loop_
 _symmetry_equiv_pos_site_id
 _symmetry_equiv_pos_as_xyz
  1  'x, y, z'
loop_
 _atom_site_type_symbol
 _atom_site_label
 _atom_site_symmetry_multiplicity
 _atom_site_fract_x
 _atom_site_fract_y
 _atom_site_fract_z
 _atom_site_occupancy
  Dy  Dy0  1  0.334844  0.676599  0.063349  1
  Dy  Dy1  1  0.873400  0.540241  0.250038  1
  Dy  Dy2  1  0.625932  0.039091  0.250027  1
  Dy  Dy3  1  0.131092  0.458847  0.749968  1
  Dy  Dy4  1  0.373267  0.958002  0.749972  1
  Ho  Ho5  1  0.162583  0.175559  0.437305  1
  Ho  Ho6  1  0.663044  0.324500  0.562950  1
  Ho  Ho7  1  0.836009  0.824153  0.937448  1
  Ho  Ho8  1  0.663092  0.324448  0.937022  1
  Ho  Ho9  1  0.836017  0.824132  0.562517  1
  Ho  Ho10  1  0.334850  0.676595  0.436701  1
  Ho  Ho11  1  0.162528  0.175553  0.062699  1
  Tc  Tc12  1  0.040055  0.884591  0.250044  1
  Tc  Tc13  1  0.462008  0.386630  0.250029  1
  Tc  Tc14  1  0.961675  0.115149  0.750005  1
  Ru  Ru15  1  0.539605  0.615911  0.749925  1
