# generated using pymatgen
data_BaMnBrO2
_symmetry_space_group_name_H-M   'P 1'
_cell_length_a   7.46836793
_cell_length_b   7.46836868
_cell_length_c   5.62912600
_cell_angle_alpha   90.00000000
_cell_angle_beta   90.00000000
_cell_angle_gamma   132.20771602
_symmetry_Int_Tables_number   1
_chemical_formula_structural   BaMnBrO2
_chemical_formula_sum   'Ba2 Mn2 Br2 O4'
_cell_volume   232.56430231
_cell_formula_units_Z   2
loop_
 _symmetry_equiv_pos_site_id
 _symmetry_equiv_pos_as_xyz
  1  'x, y, z'
loop_
 _atom_site_type_symbol
 _atom_site_label
 _atom_site_symmetry_multiplicity
 _atom_site_fract_x
 _atom_site_fract_y
 _atom_site_fract_z
 _atom_site_occupancy
  Ba  Ba0  1  0.382001  0.617998  0.249999  1
  Ba  Ba1  1  0.617998  0.382001  0.749999  1
  Mn  Mn2  1  0.005996  0.994003  0.249999  1
  Mn  Mn3  1  0.994003  0.005996  0.749999  1
  Br  Br4  1  0.763037  0.236962  0.249999  1
  Br  Br5  1  0.236962  0.763037  0.749999  1
  O  O6  1  0.215535  0.215535  0.000000  1
  O  O7  1  0.784464  0.784464  0.000000  1
  O  O8  1  0.215535  0.215535  0.500000  1
  O  O9  1  0.784464  0.784464  0.500000  1
