# generated using pymatgen
data_NaIr3(Pb2O7)2
_symmetry_space_group_name_H-M   'P 1'
_cell_length_a   7.40622333
_cell_length_b   7.52329297
_cell_length_c   7.40501304
_cell_angle_alpha   60.50926217
_cell_angle_beta   59.99565843
_cell_angle_gamma   60.51259253
_symmetry_Int_Tables_number   1
_chemical_formula_structural   NaIr3(Pb2O7)2
_chemical_formula_sum   'Na1 Ir3 Pb4 O14'
_cell_volume   293.97624108
_cell_formula_units_Z   1
loop_
 _symmetry_equiv_pos_site_id
 _symmetry_equiv_pos_as_xyz
  1  'x, y, z'
loop_
 _atom_site_type_symbol
 _atom_site_label
 _atom_site_symmetry_multiplicity
 _atom_site_fract_x
 _atom_site_fract_y
 _atom_site_fract_z
 _atom_site_occupancy
  Na  Na0  1  0.625000  0.125000  0.625000  1
  Ir  Ir1  1  0.125000  0.625000  0.625000  1
  Ir  Ir2  1  0.625000  0.625000  0.125000  1
  Ir  Ir3  1  0.625000  0.625000  0.625000  1
  Pb  Pb4  1  0.625000  0.125000  0.125000  1
  Pb  Pb5  1  0.125000  0.625000  0.125000  1
  Pb  Pb6  1  0.125000  0.125000  0.625000  1
  Pb  Pb7  1  0.125000  0.125000  0.125000  1
  O  O8  1  0.726528  0.653082  0.310121  1
  O  O9  1  0.241105  0.312698  0.723057  1
  O  O10  1  0.723096  0.312710  0.722969  1
  O  O11  1  0.310232  0.653041  0.310131  1
  O  O12  1  0.310156  0.653002  0.726627  1
  O  O13  1  0.723023  0.312781  0.241174  1
  O  O14  1  0.523472  0.596918  0.939879  1
  O  O15  1  0.008895  0.937302  0.526943  1
  O  O16  1  0.526904  0.937290  0.527031  1
  O  O17  1  0.939768  0.596959  0.939869  1
  O  O18  1  0.939844  0.596998  0.523373  1
  O  O19  1  0.526977  0.937219  0.008826  1
  O  O20  1  0.242289  0.273137  0.242292  1
  O  O21  1  0.007711  0.976863  0.007708  1
