# generated using pymatgen
data_Ho3Tm2Ga4P8Ir19
_symmetry_space_group_name_H-M   'P 1'
_cell_length_a   12.90180849
_cell_length_b   12.87404786
_cell_length_c   3.95292900
_cell_angle_alpha   90.00000000
_cell_angle_beta   90.00000000
_cell_angle_gamma   120.03107840
_symmetry_Int_Tables_number   1
_chemical_formula_structural   Ho3Tm2Ga4P8Ir19
_chemical_formula_sum   'Ho3 Tm2 Ga4 P8 Ir19'
_cell_volume   568.43297603
_cell_formula_units_Z   1
loop_
 _symmetry_equiv_pos_site_id
 _symmetry_equiv_pos_as_xyz
  1  'x, y, z'
loop_
 _atom_site_type_symbol
 _atom_site_label
 _atom_site_symmetry_multiplicity
 _atom_site_fract_x
 _atom_site_fract_y
 _atom_site_fract_z
 _atom_site_occupancy
  Ho  Ho0  1  0.336253  0.669855  0.500000  1
  Ho  Ho1  1  0.180227  0.181330  0.000000  1
  Ho  Ho2  1  0.818317  0.999023  0.000000  1
  Tm  Tm3  1  0.665373  0.330843  0.500000  1
  Tm  Tm4  1  0.003044  0.817413  0.000000  1
  Ga  Ga5  1  0.318319  0.835196  0.000000  1
  Ga  Ga6  1  0.357248  0.357977  0.500000  1
  Ga  Ga7  1  0.641675  0.001258  0.500000  1
  Ga  Ga8  1  0.996376  0.638167  0.500000  1
  P  P9  1  0.172233  0.484679  0.000000  1
  P  P10  1  0.522260  0.689227  0.000000  1
  P  P11  1  0.821204  0.304618  0.000000  1
  P  P12  1  0.482514  0.176229  0.000000  1
  P  P13  1  0.692596  0.513516  0.000000  1
  P  P14  1  0.823783  0.818530  0.500000  1
  P  P15  1  0.178291  0.001486  0.500000  1
  P  P16  1  0.999584  0.179659  0.500000  1
  Ir  Ir17  1  0.189584  0.825740  0.500000  1
  Ir  Ir18  1  0.174556  0.381294  0.500000  1
  Ir  Ir19  1  0.628624  0.797209  0.500000  1
  Ir  Ir20  1  0.825391  0.206631  0.500000  1
  Ir  Ir21  1  0.386121  0.178899  0.500000  1
  Ir  Ir22  1  0.789826  0.613028  0.500000  1
  Ir  Ir23  1  0.129099  0.634729  0.000000  1
  Ir  Ir24  1  0.361601  0.497501  0.000000  1
  Ir  Ir25  1  0.521817  0.869580  0.000000  1
  Ir  Ir26  1  0.631989  0.131489  0.000000  1
  Ir  Ir27  1  0.497823  0.367078  0.000000  1
  Ir  Ir28  1  0.866269  0.499205  0.000000  1
  Ir  Ir29  1  0.546633  0.552369  0.500000  1
  Ir  Ir30  1  0.442681  0.991527  0.500000  1
  Ir  Ir31  1  0.000185  0.448317  0.500000  1
  Ir  Ir32  1  0.720252  0.715785  0.000000  1
  Ir  Ir33  1  0.279392  0.008085  0.000000  1
  Ir  Ir34  1  0.000102  0.282339  0.000000  1
  Ir  Ir35  1  0.998756  0.000191  0.500000  1
