# generated using pymatgen
data_Ta12Al4Ga3Si(IrC)4
_symmetry_space_group_name_H-M   'P 1'
_cell_length_a   8.30231806
_cell_length_b   8.30231884
_cell_length_c   8.30231800
_cell_angle_alpha   60.01472857
_cell_angle_beta   60.01472550
_cell_angle_gamma   60.01472039
_symmetry_Int_Tables_number   1
_chemical_formula_structural   Ta12Al4Ga3Si(IrC)4
_chemical_formula_sum   'Ta12 Al4 Ga3 Si1 Ir4 C4'
_cell_volume   404.78843126
_cell_formula_units_Z   1
loop_
 _symmetry_equiv_pos_site_id
 _symmetry_equiv_pos_as_xyz
  1  'x, y, z'
loop_
 _atom_site_type_symbol
 _atom_site_label
 _atom_site_symmetry_multiplicity
 _atom_site_fract_x
 _atom_site_fract_y
 _atom_site_fract_z
 _atom_site_occupancy
  Ta  Ta0  1  0.564915  0.935130  0.564915  1
  Ta  Ta1  1  0.314695  0.685871  0.685871  1
  Ta  Ta2  1  0.685011  0.314073  0.314073  1
  Ta  Ta3  1  0.314073  0.685011  0.314073  1
  Ta  Ta4  1  0.685871  0.685871  0.314695  1
  Ta  Ta5  1  0.314073  0.314073  0.685011  1
  Ta  Ta6  1  0.564915  0.564915  0.935130  1
  Ta  Ta7  1  0.935130  0.564915  0.564915  1
  Ta  Ta8  1  0.566932  0.935695  0.935695  1
  Ta  Ta9  1  0.935695  0.935695  0.566932  1
  Ta  Ta10  1  0.685871  0.314695  0.685871  1
  Ta  Ta11  1  0.935695  0.566932  0.935695  1
  Al  Al12  1  0.917340  0.251404  0.917340  1
  Al  Al13  1  0.917340  0.917340  0.251404  1
  Al  Al14  1  0.251404  0.917340  0.917340  1
  Al  Al15  1  0.332207  0.332207  0.332207  1
  Ga  Ga16  1  0.992893  0.336048  0.336048  1
  Ga  Ga17  1  0.336048  0.992893  0.336048  1
  Ga  Ga18  1  0.336048  0.336048  0.992893  1
  Si  Si19  1  0.915346  0.915346  0.915346  1
  Ir  Ir20  1  0.124249  0.124249  0.124249  1
  Ir  Ir21  1  0.632177  0.120726  0.120726  1
  Ir  Ir22  1  0.120726  0.632177  0.120726  1
  Ir  Ir23  1  0.120726  0.120726  0.632177  1
  C  C24  1  0.624829  0.624829  0.624829  1
  C  C25  1  0.125273  0.625255  0.625255  1
  C  C26  1  0.625255  0.125273  0.625255  1
  C  C27  1  0.625255  0.625255  0.125273  1
