# generated using pymatgen
data_CePrSc2(ReB6)2
_symmetry_space_group_name_H-M   'P 1'
_cell_length_a   3.65231300
_cell_length_b   9.07755104
_cell_length_c   11.51675531
_cell_angle_alpha   89.94521903
_cell_angle_beta   90.00000000
_cell_angle_gamma   90.00000000
_symmetry_Int_Tables_number   1
_chemical_formula_structural   CePrSc2(ReB6)2
_chemical_formula_sum   'Ce2 Pr2 Sc4 Re4 B24'
_cell_volume   381.82699530
_cell_formula_units_Z   2
loop_
 _symmetry_equiv_pos_site_id
 _symmetry_equiv_pos_as_xyz
  1  'x, y, z'
loop_
 _atom_site_type_symbol
 _atom_site_label
 _atom_site_symmetry_multiplicity
 _atom_site_fract_x
 _atom_site_fract_y
 _atom_site_fract_z
 _atom_site_occupancy
  Ce  Ce0  1  0.000000  0.821050  0.085207  1
  Ce  Ce1  1  0.000000  0.178950  0.914793  1
  Pr  Pr2  1  0.000000  0.321852  0.414590  1
  Pr  Pr3  1  0.000000  0.678148  0.585410  1
  Sc  Sc4  1  0.000000  0.944078  0.370140  1
  Sc  Sc5  1  0.000000  0.055922  0.629860  1
  Sc  Sc6  1  0.000000  0.444802  0.128041  1
  Sc  Sc7  1  0.000000  0.555198  0.871959  1
  Re  Re8  1  0.000000  0.643759  0.314576  1
  Re  Re9  1  0.000000  0.356241  0.685424  1
  Re  Re10  1  0.000000  0.138882  0.179400  1
  Re  Re11  1  0.000000  0.861118  0.820600  1
  B  B12  1  0.500000  0.556990  0.428612  1
  B  B13  1  0.500000  0.443010  0.571388  1
  B  B14  1  0.500000  0.055403  0.068611  1
  B  B15  1  0.500000  0.944597  0.931389  1
  B  B16  1  0.500000  0.754953  0.414562  1
  B  B17  1  0.500000  0.245047  0.585438  1
  B  B18  1  0.500000  0.253637  0.082544  1
  B  B19  1  0.500000  0.746363  0.917456  1
  B  B20  1  0.500000  0.794771  0.263405  1
  B  B21  1  0.500000  0.205229  0.736595  1
  B  B22  1  0.500000  0.293919  0.232755  1
  B  B23  1  0.500000  0.706081  0.767245  1
  B  B24  1  0.500000  0.629785  0.182078  1
  B  B25  1  0.500000  0.370215  0.817922  1
  B  B26  1  0.500000  0.127505  0.314934  1
  B  B27  1  0.500000  0.872495  0.685066  1
  B  B28  1  0.500000  0.982254  0.213268  1
  B  B29  1  0.500000  0.017746  0.786732  1
  B  B30  1  0.500000  0.483735  0.283358  1
  B  B31  1  0.500000  0.516265  0.716642  1
  B  B32  1  0.500000  0.597262  0.025983  1
  B  B33  1  0.500000  0.402738  0.974017  1
  B  B34  1  0.500000  0.093777  0.474634  1
  B  B35  1  0.500000  0.906223  0.525366  1
