# generated using pymatgen
data_Y5Ge3P9Ir19
_symmetry_space_group_name_H-M   'P 1'
_cell_length_a   12.90037810
_cell_length_b   12.79447293
_cell_length_c   3.98593400
_cell_angle_alpha   90.00000000
_cell_angle_beta   90.00000000
_cell_angle_gamma   119.91483516
_symmetry_Int_Tables_number   1
_chemical_formula_structural   Y5Ge3P9Ir19
_chemical_formula_sum   'Y5 Ge3 P9 Ir19'
_cell_volume   570.23994528
_cell_formula_units_Z   1
loop_
 _symmetry_equiv_pos_site_id
 _symmetry_equiv_pos_as_xyz
  1  'x, y, z'
loop_
 _atom_site_type_symbol
 _atom_site_label
 _atom_site_symmetry_multiplicity
 _atom_site_fract_x
 _atom_site_fract_y
 _atom_site_fract_z
 _atom_site_occupancy
  Y  Y0  1  0.662907  0.334034  0.000000  1
  Y  Y1  1  0.334240  0.665840  0.000000  1
  Y  Y2  1  0.821183  0.818760  0.500000  1
  Y  Y3  1  0.179382  0.999631  0.500000  1
  Y  Y4  1  0.999566  0.185120  0.500000  1
  Ge  Ge5  1  0.677239  0.163221  0.500000  1
  Ge  Ge6  1  0.642898  0.643612  0.000000  1
  Ge  Ge7  1  0.356756  0.997410  0.000000  1
  P  P8  1  0.833397  0.517091  0.500000  1
  P  P9  1  0.479215  0.322888  0.500000  1
  P  P10  1  0.180646  0.694369  0.500000  1
  P  P11  1  0.518497  0.823807  0.500000  1
  P  P12  1  0.305272  0.483099  0.500000  1
  P  P13  1  0.998813  0.357782  0.000000  1
  P  P14  1  0.172333  0.181034  0.000000  1
  P  P15  1  0.822814  0.999196  0.000000  1
  P  P16  1  0.003088  0.819752  0.000000  1
  Ir  Ir17  1  0.816048  0.180936  0.000000  1
  Ir  Ir18  1  0.828227  0.624127  0.000000  1
  Ir  Ir19  1  0.358583  0.191021  0.000000  1
  Ir  Ir20  1  0.175875  0.790227  0.000000  1
  Ir  Ir21  1  0.616439  0.825121  0.000000  1
  Ir  Ir22  1  0.190460  0.378457  0.000000  1
  Ir  Ir23  1  0.467796  0.439722  0.000000  1
  Ir  Ir24  1  0.556965  0.020029  0.000000  1
  Ir  Ir25  1  0.995181  0.534930  0.000000  1
  Ir  Ir26  1  0.282513  0.289195  0.500000  1
  Ir  Ir27  1  0.723668  0.996595  0.500000  1
  Ir  Ir28  1  0.002498  0.716146  0.500000  1
  Ir  Ir29  1  0.868442  0.359903  0.500000  1
  Ir  Ir30  1  0.649286  0.510575  0.500000  1
  Ir  Ir31  1  0.478607  0.141046  0.500000  1
  Ir  Ir32  1  0.370332  0.871813  0.500000  1
  Ir  Ir33  1  0.502255  0.630089  0.500000  1
  Ir  Ir34  1  0.128847  0.496230  0.500000  1
  Ir  Ir35  1  0.999731  0.997194  0.000000  1
