# generated using pymatgen
data_Tb7Dy13(Sn3Pb)4
_symmetry_space_group_name_H-M   'P 1'
_cell_length_a   8.09774741
_cell_length_b   8.22765915
_cell_length_c   15.57661800
_cell_angle_alpha   90.00733288
_cell_angle_beta   90.01831145
_cell_angle_gamma   89.99209374
_symmetry_Int_Tables_number   1
_chemical_formula_structural   Tb7Dy13(Sn3Pb)4
_chemical_formula_sum   'Tb7 Dy13 Sn12 Pb4'
_cell_volume   1037.79997789
_cell_formula_units_Z   1
loop_
 _symmetry_equiv_pos_site_id
 _symmetry_equiv_pos_as_xyz
  1  'x, y, z'
loop_
 _atom_site_type_symbol
 _atom_site_label
 _atom_site_symmetry_multiplicity
 _atom_site_fract_x
 _atom_site_fract_y
 _atom_site_fract_z
 _atom_site_occupancy
  Tb  Tb0  1  0.025349  0.179960  0.598875  1
  Tb  Tb1  1  0.474966  0.680139  0.401147  1
  Tb  Tb2  1  0.974860  0.819783  0.098774  1
  Tb  Tb3  1  0.482063  0.678276  0.098946  1
  Tb  Tb4  1  0.981783  0.821706  0.401053  1
  Tb  Tb5  1  0.517477  0.321324  0.598730  1
  Tb  Tb6  1  0.017744  0.178635  0.901183  1
  Dy  Dy7  1  0.368882  0.837143  0.876153  1
  Dy  Dy8  1  0.868936  0.662693  0.623914  1
  Dy  Dy9  1  0.631265  0.162773  0.376150  1
  Dy  Dy10  1  0.131197  0.337172  0.123653  1
  Dy  Dy11  1  0.633963  0.163858  0.122436  1
  Dy  Dy12  1  0.134412  0.336094  0.377475  1
  Dy  Dy13  1  0.365650  0.836035  0.622632  1
  Dy  Dy14  1  0.865621  0.663834  0.877540  1
  Dy  Dy15  1  0.525781  0.320524  0.901118  1
  Dy  Dy16  1  0.199022  0.502311  0.749034  1
  Dy  Dy17  1  0.698781  0.997446  0.751267  1
  Dy  Dy18  1  0.801431  0.497430  0.248599  1
  Dy  Dy19  1  0.301180  0.002701  0.251202  1
  Sn  Sn20  1  0.706062  0.963735  0.958238  1
  Sn  Sn21  1  0.205729  0.536632  0.541696  1
  Sn  Sn22  1  0.293894  0.036354  0.458308  1
  Sn  Sn23  1  0.793299  0.463103  0.041545  1
  Sn  Sn24  1  0.564634  0.618447  0.749874  1
  Sn  Sn25  1  0.064552  0.881516  0.750230  1
  Sn  Sn26  1  0.435442  0.381681  0.249827  1
  Sn  Sn27  1  0.935329  0.118567  0.250052  1
  Sn  Sn28  1  0.329967  0.147249  0.750765  1
  Sn  Sn29  1  0.829328  0.352863  0.749753  1
  Sn  Sn30  1  0.670741  0.852826  0.250308  1
  Sn  Sn31  1  0.170637  0.647177  0.249506  1
  Pb  Pb32  1  0.292322  0.036788  0.041235  1
  Pb  Pb33  1  0.792103  0.463227  0.458703  1
  Pb  Pb34  1  0.707506  0.963148  0.541362  1
  Pb  Pb35  1  0.208092  0.536854  0.958722  1
