# generated using pymatgen
data_TbNd2Si5PPd19Pt
_symmetry_space_group_name_H-M   'P 1'
_cell_length_a   8.76465045
_cell_length_b   8.76465066
_cell_length_c   8.76429000
_cell_angle_alpha   60.00136120
_cell_angle_beta   60.00136042
_cell_angle_gamma   59.99727516
_symmetry_Int_Tables_number   1
_chemical_formula_structural   TbNd2Si5PPd19Pt
_chemical_formula_sum   'Tb1 Nd2 Si5 P1 Pd19 Pt1'
_cell_volume   476.07013813
_cell_formula_units_Z   1
loop_
 _symmetry_equiv_pos_site_id
 _symmetry_equiv_pos_as_xyz
  1  'x, y, z'
loop_
 _atom_site_type_symbol
 _atom_site_label
 _atom_site_symmetry_multiplicity
 _atom_site_fract_x
 _atom_site_fract_y
 _atom_site_fract_z
 _atom_site_occupancy
  Tb  Tb0  1  0.000944  0.000944  0.999046  1
  Nd  Nd1  1  0.248730  0.248730  0.251104  1
  Nd  Nd2  1  0.748742  0.748742  0.751114  1
  Si  Si3  1  0.731985  0.265621  0.267454  1
  Si  Si4  1  0.265452  0.732956  0.734783  1
  Si  Si5  1  0.265621  0.731985  0.267454  1
  Si  Si6  1  0.732956  0.265452  0.734783  1
  Si  Si7  1  0.267638  0.267638  0.731780  1
  P  P8  1  0.735413  0.735413  0.264886  1
  Pd  Pd9  1  0.614657  0.614657  0.613111  1
  Pd  Pd10  1  0.384912  0.384912  0.845134  1
  Pd  Pd11  1  0.386696  0.842823  0.385084  1
  Pd  Pd12  1  0.615560  0.615560  0.156727  1
  Pd  Pd13  1  0.616034  0.154386  0.615831  1
  Pd  Pd14  1  0.842823  0.386696  0.385084  1
  Pd  Pd15  1  0.154386  0.616034  0.615831  1
  Pd  Pd16  1  0.345630  0.000050  0.999504  1
  Pd  Pd17  1  0.654622  0.998177  0.001619  1
  Pd  Pd18  1  0.999857  0.345235  0.654752  1
  Pd  Pd19  1  0.997983  0.654563  0.345160  1
  Pd  Pd20  1  0.000050  0.345630  0.999504  1
  Pd  Pd21  1  0.654563  0.997983  0.345160  1
  Pd  Pd22  1  0.998177  0.654622  0.001619  1
  Pd  Pd23  1  0.345235  0.999857  0.654752  1
  Pd  Pd24  1  0.001296  0.001296  0.344533  1
  Pd  Pd25  1  0.001391  0.001391  0.652630  1
  Pd  Pd26  1  0.655785  0.347242  0.998080  1
  Pd  Pd27  1  0.347242  0.655785  0.998080  1
  Pt  Pt28  1  0.385617  0.385617  0.385405  1
