# generated using pymatgen
data_InTe24
_symmetry_space_group_name_H-M   'P 1'
_cell_length_a   8.71204700
_cell_length_b   8.71204623
_cell_length_c   14.66318700
_cell_angle_alpha   90.00000000
_cell_angle_beta   90.00000000
_cell_angle_gamma   119.99999153
_symmetry_Int_Tables_number   1
_chemical_formula_structural   InTe24
_chemical_formula_sum   'In1 Te24'
_cell_volume   963.82774323
_cell_formula_units_Z   1
loop_
 _symmetry_equiv_pos_site_id
 _symmetry_equiv_pos_as_xyz
  1  'x, y, z'
loop_
 _atom_site_type_symbol
 _atom_site_label
 _atom_site_symmetry_multiplicity
 _atom_site_fract_x
 _atom_site_fract_y
 _atom_site_fract_z
 _atom_site_occupancy
  In  In0  1  0.000000  0.000000  0.000000  1
  Te  Te1  1  0.501624  0.498376  0.718947  1
  Te  Te2  1  0.498376  0.501624  0.281053  1
  Te  Te3  1  0.501624  0.003246  0.718947  1
  Te  Te4  1  0.498376  0.996754  0.281053  1
  Te  Te5  1  0.996754  0.498376  0.718947  1
  Te  Te6  1  0.003246  0.501624  0.281053  1
  Te  Te7  1  0.000000  0.000000  0.720487  1
  Te  Te8  1  0.000000  0.000000  0.279513  1
  Te  Te9  1  0.834861  0.669722  0.158240  1
  Te  Te10  1  0.832707  0.665414  0.597839  1
  Te  Te11  1  0.834861  0.165139  0.158240  1
  Te  Te12  1  0.832707  0.167293  0.597839  1
  Te  Te13  1  0.333333  0.666667  0.159660  1
  Te  Te14  1  0.333333  0.666667  0.598390  1
  Te  Te15  1  0.330278  0.165139  0.158240  1
  Te  Te16  1  0.334586  0.167293  0.597839  1
  Te  Te17  1  0.669722  0.834861  0.841760  1
  Te  Te18  1  0.665414  0.832707  0.402161  1
  Te  Te19  1  0.666667  0.333333  0.840340  1
  Te  Te20  1  0.666667  0.333333  0.401610  1
  Te  Te21  1  0.165139  0.834861  0.841760  1
  Te  Te22  1  0.167293  0.832707  0.402161  1
  Te  Te23  1  0.165139  0.330278  0.841760  1
  Te  Te24  1  0.167293  0.334586  0.402161  1
