# generated using pymatgen
data_DyHo2Lu13(In3Pd)2
_symmetry_space_group_name_H-M   'P 1'
_cell_length_a   10.33542013
_cell_length_b   10.33542081
_cell_length_c   6.87904852
_cell_angle_alpha   90.02754980
_cell_angle_beta   89.97244508
_cell_angle_gamma   119.97999958
_symmetry_Int_Tables_number   1
_chemical_formula_structural   DyHo2Lu13(In3Pd)2
_chemical_formula_sum   'Dy1 Ho2 Lu13 In6 Pd2'
_cell_volume   636.50633102
_cell_formula_units_Z   1
loop_
 _symmetry_equiv_pos_site_id
 _symmetry_equiv_pos_as_xyz
  1  'x, y, z'
loop_
 _atom_site_type_symbol
 _atom_site_label
 _atom_site_symmetry_multiplicity
 _atom_site_fract_x
 _atom_site_fract_y
 _atom_site_fract_z
 _atom_site_occupancy
  Dy  Dy0  1  0.000062  0.999938  0.996464  1
  Ho  Ho1  1  0.529587  0.059353  0.518449  1
  Ho  Ho2  1  0.940647  0.470413  0.518449  1
  Lu  Lu3  1  0.530289  0.469711  0.519344  1
  Lu  Lu4  1  0.469320  0.938425  0.018913  1
  Lu  Lu5  1  0.061575  0.530680  0.018913  1
  Lu  Lu6  1  0.469525  0.530475  0.019696  1
  Lu  Lu7  1  0.176422  0.351179  0.721030  1
  Lu  Lu8  1  0.648821  0.823578  0.721030  1
  Lu  Lu9  1  0.175231  0.824769  0.721527  1
  Lu  Lu10  1  0.823984  0.648890  0.220515  1
  Lu  Lu11  1  0.351110  0.176016  0.220515  1
  Lu  Lu12  1  0.824499  0.175501  0.219596  1
  Lu  Lu13  1  0.666235  0.333765  0.891643  1
  Lu  Lu14  1  0.333887  0.666113  0.391849  1
  Lu  Lu15  1  0.999925  0.000075  0.495719  1
  In  In16  1  0.836804  0.674057  0.758068  1
  In  In17  1  0.325943  0.163196  0.758068  1
  In  In18  1  0.837211  0.162789  0.758077  1
  In  In19  1  0.162786  0.326271  0.261432  1
  In  In20  1  0.673729  0.837214  0.261432  1
  In  In21  1  0.163245  0.836755  0.260719  1
  Pd  Pd22  1  0.665927  0.334073  0.285106  1
  Pd  Pd23  1  0.333236  0.666764  0.787641  1
