# generated using pymatgen
data_Dy4Th(MnB3)2
_symmetry_space_group_name_H-M   'P 1'
_cell_length_a   5.42801857
_cell_length_b   5.42801922
_cell_length_c   8.23398401
_cell_angle_alpha   70.75485701
_cell_angle_beta   70.75485328
_cell_angle_gamma   59.99998747
_symmetry_Int_Tables_number   1
_chemical_formula_structural   Dy4Th(MnB3)2
_chemical_formula_sum   'Dy4 Th1 Mn2 B6'
_cell_volume   194.28645818
_cell_formula_units_Z   1
loop_
 _symmetry_equiv_pos_site_id
 _symmetry_equiv_pos_as_xyz
  1  'x, y, z'
loop_
 _atom_site_type_symbol
 _atom_site_label
 _atom_site_symmetry_multiplicity
 _atom_site_fract_x
 _atom_site_fract_y
 _atom_site_fract_z
 _atom_site_occupancy
  Dy  Dy0  1  0.250907  0.250907  0.247278  1
  Dy  Dy1  1  0.749093  0.749093  0.752722  1
  Dy  Dy2  1  0.416213  0.416213  0.751362  1
  Dy  Dy3  1  0.583787  0.583787  0.248638  1
  Th  Th4  1  0.000000  0.000000  0.000000  1
  Mn  Mn5  1  0.113069  0.113069  0.660793  1
  Mn  Mn6  1  0.886931  0.886931  0.339207  1
  B  B7  1  0.166541  0.833459  0.500000  1
  B  B8  1  0.833459  0.500000  0.500000  1
  B  B9  1  0.500000  0.166541  0.500000  1
  B  B10  1  0.166541  0.500000  0.500000  1
  B  B11  1  0.500000  0.833459  0.500000  1
  B  B12  1  0.833459  0.166541  0.500000  1
