# generated using pymatgen
data_La2Tb3FeSb2
_symmetry_space_group_name_H-M   'P 1'
_cell_length_a   8.13285400
_cell_length_b   8.75806300
_cell_length_c   12.49278500
_cell_angle_alpha   90.00000000
_cell_angle_beta   90.00000000
_cell_angle_gamma   90.00000000
_symmetry_Int_Tables_number   1
_chemical_formula_structural   La2Tb3FeSb2
_chemical_formula_sum   'La8 Tb12 Fe4 Sb8'
_cell_volume   889.83668591
_cell_formula_units_Z   4
loop_
 _symmetry_equiv_pos_site_id
 _symmetry_equiv_pos_as_xyz
  1  'x, y, z'
loop_
 _atom_site_type_symbol
 _atom_site_label
 _atom_site_symmetry_multiplicity
 _atom_site_fract_x
 _atom_site_fract_y
 _atom_site_fract_z
 _atom_site_occupancy
  La  La0  1  0.823439  0.969455  0.061505  1
  La  La1  1  0.323439  0.030545  0.438495  1
  La  La2  1  0.176561  0.469455  0.938495  1
  La  La3  1  0.676561  0.530545  0.561505  1
  La  La4  1  0.176561  0.030545  0.938495  1
  La  La5  1  0.676561  0.969455  0.561505  1
  La  La6  1  0.823439  0.530545  0.061505  1
  La  La7  1  0.323439  0.469455  0.438495  1
  Tb  Tb8  1  0.162333  0.750000  0.207628  1
  Tb  Tb9  1  0.662333  0.250000  0.292372  1
  Tb  Tb10  1  0.837667  0.250000  0.792372  1
  Tb  Tb11  1  0.337667  0.750000  0.707628  1
  Tb  Tb12  1  0.454116  0.750000  0.998763  1
  Tb  Tb13  1  0.954116  0.250000  0.501237  1
  Tb  Tb14  1  0.545884  0.250000  0.001237  1
  Tb  Tb15  1  0.045884  0.750000  0.498763  1
  Tb  Tb16  1  0.623363  0.750000  0.295591  1
  Tb  Tb17  1  0.123363  0.250000  0.204409  1
  Tb  Tb18  1  0.376637  0.250000  0.704409  1
  Tb  Tb19  1  0.876637  0.750000  0.795591  1
  Fe  Fe20  1  0.412415  0.750000  0.480543  1
  Fe  Fe21  1  0.912415  0.250000  0.019457  1
  Fe  Fe22  1  0.587585  0.250000  0.519457  1
  Fe  Fe23  1  0.087585  0.750000  0.980543  1
  Sb  Sb24  1  0.926514  0.989669  0.327875  1
  Sb  Sb25  1  0.426514  0.010331  0.172125  1
  Sb  Sb26  1  0.073486  0.489669  0.672125  1
  Sb  Sb27  1  0.573486  0.510331  0.827875  1
  Sb  Sb28  1  0.073486  0.010331  0.672125  1
  Sb  Sb29  1  0.573486  0.989669  0.827875  1
  Sb  Sb30  1  0.926514  0.510331  0.327875  1
  Sb  Sb31  1  0.426514  0.489669  0.172125  1
