# generated using pymatgen
data_Er3Sn3HgIr2
_symmetry_space_group_name_H-M   'P 1'
_cell_length_a   7.60881000
_cell_length_b   7.60880971
_cell_length_c   3.97613900
_cell_angle_alpha   90.00000000
_cell_angle_beta   90.00000000
_cell_angle_gamma   119.99999255
_symmetry_Int_Tables_number   1
_chemical_formula_structural   Er3Sn3HgIr2
_chemical_formula_sum   'Er3 Sn3 Hg1 Ir2'
_cell_volume   199.35433558
_cell_formula_units_Z   1
loop_
 _symmetry_equiv_pos_site_id
 _symmetry_equiv_pos_as_xyz
  1  'x, y, z'
loop_
 _atom_site_type_symbol
 _atom_site_label
 _atom_site_symmetry_multiplicity
 _atom_site_fract_x
 _atom_site_fract_y
 _atom_site_fract_z
 _atom_site_occupancy
  Er  Er0  1  0.388476  0.411848  0.500000  1
  Er  Er1  1  0.588152  0.976629  0.500000  1
  Er  Er2  1  0.023371  0.611524  0.500000  1
  Sn  Sn3  1  0.744076  0.751336  0.000000  1
  Sn  Sn4  1  0.248664  0.992740  0.000000  1
  Sn  Sn5  1  0.007260  0.255924  0.000000  1
  Hg  Hg6  1  0.666667  0.333333  0.000000  1
  Ir  Ir7  1  0.333333  0.666667  0.000000  1
  Ir  Ir8  1  0.000000  0.000000  0.500000  1
