# generated using pymatgen
data_Ac3Sm(SnPd)4
_symmetry_space_group_name_H-M   'P 1'
_cell_length_a   4.86693000
_cell_length_b   7.84186381
_cell_length_c   8.11367410
_cell_angle_alpha   89.69122414
_cell_angle_beta   90.00000000
_cell_angle_gamma   90.00000000
_symmetry_Int_Tables_number   1
_chemical_formula_structural   Ac3Sm(SnPd)4
_chemical_formula_sum   'Ac3 Sm1 Sn4 Pd4'
_cell_volume   309.66038448
_cell_formula_units_Z   1
loop_
 _symmetry_equiv_pos_site_id
 _symmetry_equiv_pos_as_xyz
  1  'x, y, z'
loop_
 _atom_site_type_symbol
 _atom_site_label
 _atom_site_symmetry_multiplicity
 _atom_site_fract_x
 _atom_site_fract_y
 _atom_site_fract_z
 _atom_site_occupancy
  Ac  Ac0  1  0.750000  0.514797  0.805156  1
  Ac  Ac1  1  0.750000  0.016790  0.702197  1
  Ac  Ac2  1  0.250000  0.980250  0.293781  1
  Sm  Sm3  1  0.250000  0.482488  0.206078  1
  Sn  Sn4  1  0.750000  0.193775  0.092742  1
  Sn  Sn5  1  0.750000  0.673242  0.407031  1
  Sn  Sn6  1  0.250000  0.809150  0.914942  1
  Sn  Sn7  1  0.250000  0.317083  0.580110  1
  Pd  Pd8  1  0.750000  0.795148  0.084773  1
  Pd  Pd9  1  0.250000  0.209469  0.921924  1
  Pd  Pd10  1  0.750000  0.311318  0.411604  1
  Pd  Pd11  1  0.250000  0.696490  0.579662  1
