# generated using pymatgen
data_Ti3Mn2BeFeP2
_symmetry_space_group_name_H-M   'P 1'
_cell_length_a   6.18758800
_cell_length_b   6.20641640
_cell_length_c   3.27566600
_cell_angle_alpha   90.00000000
_cell_angle_beta   90.00000000
_cell_angle_gamma   119.89970734
_symmetry_Int_Tables_number   1
_chemical_formula_structural   Ti3Mn2BeFeP2
_chemical_formula_sum   'Ti3 Mn2 Be1 Fe1 P2'
_cell_volume   109.05122813
_cell_formula_units_Z   1
loop_
 _symmetry_equiv_pos_site_id
 _symmetry_equiv_pos_as_xyz
  1  'x, y, z'
loop_
 _atom_site_type_symbol
 _atom_site_label
 _atom_site_symmetry_multiplicity
 _atom_site_fract_x
 _atom_site_fract_y
 _atom_site_fract_z
 _atom_site_occupancy
  Ti  Ti0  1  0.600789  0.000000  0.000000  1
  Ti  Ti1  1  0.996898  0.596279  0.000000  1
  Ti  Ti2  1  0.400619  0.403721  0.000000  1
  Mn  Mn3  1  0.999996  0.245681  0.500000  1
  Mn  Mn4  1  0.754315  0.754319  0.500000  1
  Be  Be5  1  0.004040  0.000000  0.000000  1
  Fe  Fe6  1  0.246722  0.000000  0.500000  1
  P  P7  1  0.332277  0.667934  0.500000  1
  P  P8  1  0.664343  0.332066  0.500000  1
