# generated using pymatgen
data_La2P7Ru12
_symmetry_space_group_name_H-M   'P 1'
_cell_length_a   9.52031000
_cell_length_b   9.52030923
_cell_length_c   3.99136700
_cell_angle_alpha   90.00000000
_cell_angle_beta   90.00000000
_cell_angle_gamma   120.00000174
_symmetry_Int_Tables_number   1
_chemical_formula_structural   La2P7Ru12
_chemical_formula_sum   'La2 P7 Ru12'
_cell_volume   313.29569801
_cell_formula_units_Z   1
loop_
 _symmetry_equiv_pos_site_id
 _symmetry_equiv_pos_as_xyz
  1  'x, y, z'
loop_
 _atom_site_type_symbol
 _atom_site_label
 _atom_site_symmetry_multiplicity
 _atom_site_fract_x
 _atom_site_fract_y
 _atom_site_fract_z
 _atom_site_occupancy
  La  La0  1  0.666667  0.333333  0.500000  1
  La  La1  1  0.333333  0.666667  0.000000  1
  P  P2  1  0.606396  0.715496  0.500000  1
  P  P3  1  0.000000  0.000000  0.000000  1
  P  P4  1  0.284504  0.890900  0.500000  1
  P  P5  1  0.109100  0.393604  0.500000  1
  P  P6  1  0.891586  0.579285  0.000000  1
  P  P7  1  0.420715  0.312301  0.000000  1
  P  P8  1  0.687699  0.108414  0.000000  1
  Ru  Ru9  1  0.560353  0.950956  0.500000  1
  Ru  Ru10  1  0.390604  0.439647  0.500000  1
  Ru  Ru11  1  0.913368  0.119715  0.500000  1
  Ru  Ru12  1  0.206347  0.086632  0.500000  1
  Ru  Ru13  1  0.880285  0.793653  0.500000  1
  Ru  Ru14  1  0.730997  0.891627  0.000000  1
  Ru  Ru15  1  0.108373  0.839369  0.000000  1
  Ru  Ru16  1  0.160631  0.269003  0.000000  1
  Ru  Ru17  1  0.421203  0.064286  0.000000  1
  Ru  Ru18  1  0.935714  0.356919  0.000000  1
  Ru  Ru19  1  0.643081  0.578797  0.000000  1
  Ru  Ru20  1  0.049044  0.609396  0.500000  1
