# generated using pymatgen
data_Th3Sc2Ir3
_symmetry_space_group_name_H-M   'P 1'
_cell_length_a   8.32664800
_cell_length_b   8.32664855
_cell_length_c   6.16052500
_cell_angle_alpha   90.00065079
_cell_angle_beta   90.00065580
_cell_angle_gamma   120.00051845
_symmetry_Int_Tables_number   1
_chemical_formula_structural   Th3Sc2Ir3
_chemical_formula_sum   'Th6 Sc4 Ir6'
_cell_volume   369.90187030
_cell_formula_units_Z   2
loop_
 _symmetry_equiv_pos_site_id
 _symmetry_equiv_pos_as_xyz
  1  'x, y, z'
loop_
 _atom_site_type_symbol
 _atom_site_label
 _atom_site_symmetry_multiplicity
 _atom_site_fract_x
 _atom_site_fract_y
 _atom_site_fract_z
 _atom_site_occupancy
  Th  Th0  1  0.260979  0.999995  0.249999  1
  Th  Th1  1  0.999995  0.260979  0.249999  1
  Th  Th2  1  0.738999  0.738999  0.250003  1
  Th  Th3  1  0.739003  0.999985  0.749998  1
  Th  Th4  1  0.999985  0.739003  0.749998  1
  Th  Th5  1  0.260981  0.260981  0.749993  1
  Sc  Sc6  1  0.666710  0.333358  0.000003  1
  Sc  Sc7  1  0.333358  0.666710  0.000003  1
  Sc  Sc8  1  0.666693  0.333355  0.500005  1
  Sc  Sc9  1  0.333355  0.666693  0.500005  1
  Ir  Ir10  1  0.609256  0.999988  0.249997  1
  Ir  Ir11  1  0.390727  0.390727  0.250003  1
  Ir  Ir12  1  0.999988  0.609256  0.249997  1
  Ir  Ir13  1  0.390722  0.999992  0.749999  1
  Ir  Ir14  1  0.999992  0.390722  0.749999  1
  Ir  Ir15  1  0.609254  0.609254  0.749999  1
