# generated using pymatgen
data_Lu2Co12Ge3P4
_symmetry_space_group_name_H-M   'P 1'
_cell_length_a   9.10912207
_cell_length_b   9.22938682
_cell_length_c   3.58433900
_cell_angle_alpha   90.00000000
_cell_angle_beta   90.00000000
_cell_angle_gamma   119.74899395
_symmetry_Int_Tables_number   1
_chemical_formula_structural   Lu2Co12Ge3P4
_chemical_formula_sum   'Lu2 Co12 Ge3 P4'
_cell_volume   261.62665873
_cell_formula_units_Z   1
loop_
 _symmetry_equiv_pos_site_id
 _symmetry_equiv_pos_as_xyz
  1  'x, y, z'
loop_
 _atom_site_type_symbol
 _atom_site_label
 _atom_site_symmetry_multiplicity
 _atom_site_fract_x
 _atom_site_fract_y
 _atom_site_fract_z
 _atom_site_occupancy
  Lu  Lu0  1  0.666410  0.333678  0.000000  1
  Lu  Lu1  1  0.009428  0.009724  0.500000  1
  Co  Co2  1  0.761171  0.710827  0.000000  1
  Co  Co3  1  0.282659  0.059529  0.000000  1
  Co  Co4  1  0.960892  0.233302  0.000000  1
  Co  Co5  1  0.716436  0.113924  0.500000  1
  Co  Co6  1  0.887101  0.598778  0.500000  1
  Co  Co7  1  0.389272  0.285465  0.500000  1
  Co  Co8  1  0.487591  0.958301  0.000000  1
  Co  Co9  1  0.047725  0.531726  0.000000  1
  Co  Co10  1  0.455568  0.504117  0.000000  1
  Co  Co11  1  0.565172  0.763735  0.500000  1
  Co  Co12  1  0.238299  0.809434  0.500000  1
  Co  Co13  1  0.193086  0.412996  0.500000  1
  Ge  Ge14  1  0.334857  0.671144  0.000000  1
  Ge  Ge15  1  0.738401  0.952910  0.000000  1
  Ge  Ge16  1  0.046580  0.783901  0.000000  1
  P  P17  1  0.447649  0.075525  0.500000  1
  P  P18  1  0.928689  0.373761  0.500000  1
  P  P19  1  0.622533  0.552425  0.500000  1
  P  P20  1  0.220486  0.264792  0.000000  1
