# generated using pymatgen
data_YbHo8TmIr6
_symmetry_space_group_name_H-M   'P 1'
_cell_length_a   10.81836183
_cell_length_b   10.85421300
_cell_length_c   6.34325707
_cell_angle_alpha   90.00000000
_cell_angle_beta   90.23020242
_cell_angle_gamma   90.00000000
_symmetry_Int_Tables_number   1
_chemical_formula_structural   YbHo8TmIr6
_chemical_formula_sum   'Yb2 Ho16 Tm2 Ir12'
_cell_volume   744.84970349
_cell_formula_units_Z   2
loop_
 _symmetry_equiv_pos_site_id
 _symmetry_equiv_pos_as_xyz
  1  'x, y, z'
loop_
 _atom_site_type_symbol
 _atom_site_label
 _atom_site_symmetry_multiplicity
 _atom_site_fract_x
 _atom_site_fract_y
 _atom_site_fract_z
 _atom_site_occupancy
  Yb  Yb0  1  0.289259  0.087803  0.374615  1
  Yb  Yb1  1  0.289259  0.912197  0.874615  1
  Ho  Ho2  1  0.708940  0.086315  0.878440  1
  Ho  Ho3  1  0.708940  0.913685  0.378440  1
  Ho  Ho4  1  0.586812  0.792230  0.876917  1
  Ho  Ho5  1  0.586812  0.207770  0.376917  1
  Ho  Ho6  1  0.412448  0.792758  0.378234  1
  Ho  Ho7  1  0.412448  0.207242  0.878234  1
  Ho  Ho8  1  0.209930  0.413423  0.623421  1
  Ho  Ho9  1  0.209930  0.586577  0.123421  1
  Ho  Ho10  1  0.790967  0.412610  0.121375  1
  Ho  Ho11  1  0.790967  0.587390  0.621375  1
  Ho  Ho12  1  0.912686  0.709425  0.123544  1
  Ho  Ho13  1  0.912686  0.290575  0.623544  1
  Ho  Ho14  1  0.087407  0.708607  0.622183  1
  Ho  Ho15  1  0.087407  0.291393  0.122183  1
  Ho  Ho16  1  0.000904  0.999625  0.499893  1
  Ho  Ho17  1  0.000904  0.000375  0.999893  1
  Tm  Tm18  1  0.500163  0.499912  0.998661  1
  Tm  Tm19  1  0.500163  0.500088  0.498661  1
  Ir  Ir20  1  0.848425  0.153761  0.250195  1
  Ir  Ir21  1  0.848425  0.846239  0.750195  1
  Ir  Ir22  1  0.148022  0.159745  0.753566  1
  Ir  Ir23  1  0.148022  0.840255  0.253566  1
  Ir  Ir24  1  0.651408  0.346291  0.750476  1
  Ir  Ir25  1  0.651408  0.653709  0.250476  1
  Ir  Ir26  1  0.347980  0.351862  0.246237  1
  Ir  Ir27  1  0.347980  0.648138  0.746237  1
  Ir  Ir28  1  0.504565  0.000271  0.123248  1
  Ir  Ir29  1  0.504565  0.999729  0.623248  1
  Ir  Ir30  1  0.000086  0.500286  0.878996  1
  Ir  Ir31  1  0.000086  0.499714  0.378996  1
