# generated using pymatgen
data_Pr2Ge2BRu2
_symmetry_space_group_name_H-M   'P 1'
_cell_length_a   6.09862427
_cell_length_b   6.09862465
_cell_length_c   7.26736075
_cell_angle_alpha   126.77073864
_cell_angle_beta   126.77074514
_cell_angle_gamma   41.53527516
_symmetry_Int_Tables_number   1
_chemical_formula_structural   Pr2Ge2BRu2
_chemical_formula_sum   'Pr2 Ge2 B1 Ru2'
_cell_volume   137.68308480
_cell_formula_units_Z   1
loop_
 _symmetry_equiv_pos_site_id
 _symmetry_equiv_pos_as_xyz
  1  'x, y, z'
loop_
 _atom_site_type_symbol
 _atom_site_label
 _atom_site_symmetry_multiplicity
 _atom_site_fract_x
 _atom_site_fract_y
 _atom_site_fract_z
 _atom_site_occupancy
  Pr  Pr0  1  0.560930  0.560930  0.299071  1
  Pr  Pr1  1  0.439070  0.439070  0.700927  1
  Ge  Ge2  1  0.831233  0.831233  0.279124  1
  Ge  Ge3  1  0.168767  0.168767  0.720876  1
  B  B4  1  0.000000  0.000000  0.000000  1
  Ru  Ru5  1  0.205405  0.205405  0.098071  1
  Ru  Ru6  1  0.794596  0.794596  0.901929  1
