# generated using pymatgen
data_MnCr2(BW)3
_symmetry_space_group_name_H-M   'P 1'
_cell_length_a   6.05643000
_cell_length_b   6.07342654
_cell_length_c   3.03510700
_cell_angle_alpha   90.00000000
_cell_angle_beta   90.00000000
_cell_angle_gamma   119.90746918
_symmetry_Int_Tables_number   1
_chemical_formula_structural   MnCr2(BW)3
_chemical_formula_sum   'Mn1 Cr2 B3 W3'
_cell_volume   96.77413654
_cell_formula_units_Z   1
loop_
 _symmetry_equiv_pos_site_id
 _symmetry_equiv_pos_as_xyz
  1  'x, y, z'
loop_
 _atom_site_type_symbol
 _atom_site_label
 _atom_site_symmetry_multiplicity
 _atom_site_fract_x
 _atom_site_fract_y
 _atom_site_fract_z
 _atom_site_occupancy
  Mn  Mn0  1  0.752152  0.000000  0.000000  1
  Cr  Cr1  1  0.999010  0.752594  0.000000  1
  Cr  Cr2  1  0.246416  0.247406  0.000000  1
  B  B3  1  0.335050  0.668371  0.000000  1
  B  B4  1  0.666681  0.331629  0.000000  1
  B  B5  1  0.998223  0.000000  0.500000  1
  W  W6  1  0.407361  0.000000  0.500000  1
  W  W7  1  0.003080  0.411052  0.500000  1
  W  W8  1  0.592027  0.588948  0.500000  1
