# generated using pymatgen
data_Li5In(SnRh2)6
_symmetry_space_group_name_H-M   'P 1'
_cell_length_a   4.42463100
_cell_length_b   6.27871100
_cell_length_c   13.33290900
_cell_angle_alpha   90.00000000
_cell_angle_beta   89.99831092
_cell_angle_gamma   90.00000000
_symmetry_Int_Tables_number   1
_chemical_formula_structural   Li5In(SnRh2)6
_chemical_formula_sum   'Li5 In1 Sn6 Rh12'
_cell_volume   370.40126941
_cell_formula_units_Z   1
loop_
 _symmetry_equiv_pos_site_id
 _symmetry_equiv_pos_as_xyz
  1  'x, y, z'
loop_
 _atom_site_type_symbol
 _atom_site_label
 _atom_site_symmetry_multiplicity
 _atom_site_fract_x
 _atom_site_fract_y
 _atom_site_fract_z
 _atom_site_occupancy
  Li  Li0  1  0.499822  0.000000  0.167737  1
  Li  Li1  1  0.999816  0.499999  0.335554  1
  Li  Li2  1  0.500001  0.000000  0.500000  1
  Li  Li3  1  0.000184  0.499999  0.664445  1
  Li  Li4  1  0.500178  0.000000  0.832263  1
  In  In5  1  0.000000  0.499999  0.000000  1
  Sn  Sn6  1  0.000000  0.000000  0.000000  1
  Sn  Sn7  1  0.499334  0.499999  0.176640  1
  Sn  Sn8  1  0.000334  0.000000  0.336455  1
  Sn  Sn9  1  0.500001  0.499999  0.500000  1
  Sn  Sn10  1  0.999665  0.000000  0.663546  1
  Sn  Sn11  1  0.500665  0.499999  0.823361  1
  Rh  Rh12  1  0.500001  0.250583  0.000000  1
  Rh  Rh13  1  0.500001  0.749417  0.000000  1
  Rh  Rh14  1  0.999912  0.247338  0.168149  1
  Rh  Rh15  1  0.999912  0.752662  0.168149  1
  Rh  Rh16  1  0.499855  0.246205  0.335625  1
  Rh  Rh17  1  0.499855  0.753795  0.335625  1
  Rh  Rh18  1  0.000000  0.251362  0.500000  1
  Rh  Rh19  1  0.000000  0.748638  0.500000  1
  Rh  Rh20  1  0.500144  0.246205  0.664375  1
  Rh  Rh21  1  0.500144  0.753795  0.664375  1
  Rh  Rh22  1  0.000088  0.247338  0.831850  1
  Rh  Rh23  1  0.000088  0.752662  0.831850  1
