# generated using pymatgen
data_Tb3ErLu3CoI12
_symmetry_space_group_name_H-M   'P 1'
_cell_length_a   9.70087078
_cell_length_b   9.70086987
_cell_length_c   9.70086986
_cell_angle_alpha   106.87546516
_cell_angle_beta   106.87545784
_cell_angle_gamma   106.87546343
_symmetry_Int_Tables_number   1
_chemical_formula_structural   Tb3ErLu3CoI12
_chemical_formula_sum   'Tb3 Er1 Lu3 Co1 I12'
_cell_volume   762.85553522
_cell_formula_units_Z   1
loop_
 _symmetry_equiv_pos_site_id
 _symmetry_equiv_pos_as_xyz
  1  'x, y, z'
loop_
 _atom_site_type_symbol
 _atom_site_label
 _atom_site_symmetry_multiplicity
 _atom_site_fract_x
 _atom_site_fract_y
 _atom_site_fract_z
 _atom_site_occupancy
  Tb  Tb0  1  0.711382  0.909134  0.980167  1
  Tb  Tb1  1  0.980167  0.711382  0.909134  1
  Tb  Tb2  1  0.909134  0.980167  0.711382  1
  Er  Er3  1  0.500126  0.500126  0.500126  1
  Lu  Lu4  1  0.281316  0.091045  0.022563  1
  Lu  Lu5  1  0.022563  0.281316  0.091045  1
  Lu  Lu6  1  0.091045  0.022563  0.281316  1
  Co  Co7  1  0.000169  0.000169  0.000169  1
  I  I8  1  0.462654  0.162397  0.386099  1
  I  I9  1  0.386099  0.462654  0.162397  1
  I  I10  1  0.162397  0.386099  0.462654  1
  I  I11  1  0.535125  0.837717  0.612588  1
  I  I12  1  0.612588  0.535125  0.837717  1
  I  I13  1  0.837717  0.612588  0.535125  1
  I  I14  1  0.324395  0.778471  0.930605  1
  I  I15  1  0.930605  0.324395  0.778471  1
  I  I16  1  0.778471  0.930605  0.324395  1
  I  I17  1  0.676973  0.226394  0.070679  1
  I  I18  1  0.070679  0.676973  0.226394  1
  I  I19  1  0.226394  0.070679  0.676973  1
