# generated using pymatgen
data_Ac5InSi2
_symmetry_space_group_name_H-M   'P 1'
_cell_length_a   8.37160622
_cell_length_b   8.37160524
_cell_length_c   9.81359813
_cell_angle_alpha   115.24760962
_cell_angle_beta   115.24760830
_cell_angle_gamma   90.00000115
_symmetry_Int_Tables_number   1
_chemical_formula_structural   Ac5InSi2
_chemical_formula_sum   'Ac10 In2 Si4'
_cell_volume   548.55862361
_cell_formula_units_Z   2
loop_
 _symmetry_equiv_pos_site_id
 _symmetry_equiv_pos_as_xyz
  1  'x, y, z'
loop_
 _atom_site_type_symbol
 _atom_site_label
 _atom_site_symmetry_multiplicity
 _atom_site_fract_x
 _atom_site_fract_y
 _atom_site_fract_z
 _atom_site_occupancy
  Ac  Ac0  1  0.500000  0.500000  0.000000  1
  Ac  Ac1  1  0.000000  0.000000  0.000000  1
  Ac  Ac2  1  0.962245  0.814765  0.277011  1
  Ac  Ac3  1  0.314765  0.462245  0.277011  1
  Ac  Ac4  1  0.814765  0.314765  0.277011  1
  Ac  Ac5  1  0.462245  0.962245  0.277011  1
  Ac  Ac6  1  0.037755  0.185235  0.722989  1
  Ac  Ac7  1  0.685235  0.537755  0.722989  1
  Ac  Ac8  1  0.185235  0.685235  0.722989  1
  Ac  Ac9  1  0.537755  0.037755  0.722989  1
  In  In10  1  0.750000  0.750000  0.500000  1
  In  In11  1  0.250000  0.250000  0.500000  1
  Si  Si12  1  0.614018  0.885982  0.000000  1
  Si  Si13  1  0.385982  0.114018  0.000000  1
  Si  Si14  1  0.885982  0.385982  0.000000  1
  Si  Si15  1  0.114018  0.614018  0.000000  1
