# generated using pymatgen
data_Nb5B2As
_symmetry_space_group_name_H-M   'P 1'
_cell_length_a   7.36249577
_cell_length_b   7.36249606
_cell_length_c   7.36249631
_cell_angle_alpha   129.46547961
_cell_angle_beta   129.46548302
_cell_angle_gamma   74.26273668
_symmetry_Int_Tables_number   1
_chemical_formula_structural   Nb5B2As
_chemical_formula_sum   'Nb10 B4 As2'
_cell_volume   231.88053380
_cell_formula_units_Z   2
loop_
 _symmetry_equiv_pos_site_id
 _symmetry_equiv_pos_as_xyz
  1  'x, y, z'
loop_
 _atom_site_type_symbol
 _atom_site_label
 _atom_site_symmetry_multiplicity
 _atom_site_fract_x
 _atom_site_fract_y
 _atom_site_fract_z
 _atom_site_occupancy
  Nb  Nb0  1  0.000000  0.000000  0.000000  1
  Nb  Nb1  1  0.500000  0.500000  0.000000  1
  Nb  Nb2  1  0.804683  0.304683  0.834442  1
  Nb  Nb3  1  0.195317  0.695317  0.165558  1
  Nb  Nb4  1  0.470241  0.970241  0.165558  1
  Nb  Nb5  1  0.304683  0.470241  0.500000  1
  Nb  Nb6  1  0.029759  0.195317  0.500000  1
  Nb  Nb7  1  0.529759  0.029759  0.834442  1
  Nb  Nb8  1  0.695317  0.529759  0.500000  1
  Nb  Nb9  1  0.970241  0.804683  0.500000  1
  B  B10  1  0.113636  0.613636  0.727270  1
  B  B11  1  0.886364  0.386364  0.272730  1
  B  B12  1  0.613636  0.886364  0.500000  1
  B  B13  1  0.386364  0.113636  0.500000  1
  As  As14  1  0.250000  0.250000  0.000000  1
  As  As15  1  0.750000  0.750000  0.000000  1
