# generated using pymatgen
data_MnAlGaI8
_symmetry_space_group_name_H-M   'P 1'
_cell_length_a   8.81853355
_cell_length_b   8.81853332
_cell_length_c   6.94250896
_cell_angle_alpha   93.50199673
_cell_angle_beta   93.50200010
_cell_angle_gamma   81.01435404
_symmetry_Int_Tables_number   1
_chemical_formula_structural   MnAlGaI8
_chemical_formula_sum   'Mn1 Al1 Ga1 I8'
_cell_volume   531.54526701
_cell_formula_units_Z   1
loop_
 _symmetry_equiv_pos_site_id
 _symmetry_equiv_pos_as_xyz
  1  'x, y, z'
loop_
 _atom_site_type_symbol
 _atom_site_label
 _atom_site_symmetry_multiplicity
 _atom_site_fract_x
 _atom_site_fract_y
 _atom_site_fract_z
 _atom_site_occupancy
  Mn  Mn0  1  0.999962  0.999962  0.999955  1
  Al  Al1  1  0.194203  0.194203  0.647176  1
  Ga  Ga2  1  0.805439  0.805439  0.353473  1
  I  I3  1  0.729445  0.081216  0.221389  1
  I  I4  1  0.081216  0.729445  0.221389  1
  I  I5  1  0.623197  0.623197  0.228014  1
  I  I6  1  0.188201  0.188201  0.274916  1
  I  I7  1  0.811979  0.811979  0.728455  1
  I  I8  1  0.375393  0.375393  0.770860  1
  I  I9  1  0.920526  0.270438  0.777187  1
  I  I10  1  0.270438  0.920526  0.777187  1
