# generated using pymatgen
data_Tm8B24Ir2RuW
_symmetry_space_group_name_H-M   'P 1'
_cell_length_a   3.61880400
_cell_length_b   9.10578434
_cell_length_c   11.47740701
_cell_angle_alpha   89.84919276
_cell_angle_beta   90.00000000
_cell_angle_gamma   90.00000000
_symmetry_Int_Tables_number   1
_chemical_formula_structural   Tm8B24Ir2RuW
_chemical_formula_sum   'Tm8 B24 Ir2 Ru1 W1'
_cell_volume   378.20276598
_cell_formula_units_Z   1
loop_
 _symmetry_equiv_pos_site_id
 _symmetry_equiv_pos_as_xyz
  1  'x, y, z'
loop_
 _atom_site_type_symbol
 _atom_site_label
 _atom_site_symmetry_multiplicity
 _atom_site_fract_x
 _atom_site_fract_y
 _atom_site_fract_z
 _atom_site_occupancy
  Tm  Tm0  1  0.000000  0.323782  0.412735  1
  Tm  Tm1  1  0.000000  0.681480  0.583590  1
  Tm  Tm2  1  0.000000  0.816435  0.088843  1
  Tm  Tm3  1  0.000000  0.176019  0.915062  1
  Tm  Tm4  1  0.000000  0.944181  0.375227  1
  Tm  Tm5  1  0.000000  0.055650  0.627981  1
  Tm  Tm6  1  0.000000  0.445339  0.125312  1
  Tm  Tm7  1  0.000000  0.558267  0.872614  1
  B  B8  1  0.500000  0.551323  0.435976  1
  B  B9  1  0.500000  0.446302  0.566632  1
  B  B10  1  0.500000  0.052206  0.065838  1
  B  B11  1  0.500000  0.945681  0.933790  1
  B  B12  1  0.500000  0.750921  0.422268  1
  B  B13  1  0.500000  0.251286  0.579162  1
  B  B14  1  0.500000  0.248886  0.078235  1
  B  B15  1  0.500000  0.750822  0.919835  1
  B  B16  1  0.500000  0.794868  0.264141  1
  B  B17  1  0.500000  0.207471  0.735702  1
  B  B18  1  0.500000  0.291840  0.233159  1
  B  B19  1  0.500000  0.708996  0.765261  1
  B  B20  1  0.500000  0.631234  0.182866  1
  B  B21  1  0.500000  0.367409  0.816831  1
  B  B22  1  0.500000  0.132386  0.315989  1
  B  B23  1  0.500000  0.869721  0.685005  1
  B  B24  1  0.500000  0.981394  0.212661  1
  B  B25  1  0.500000  0.017822  0.787643  1
  B  B26  1  0.500000  0.478599  0.286127  1
  B  B27  1  0.500000  0.518269  0.713137  1
  B  B28  1  0.500000  0.606356  0.027665  1
  B  B29  1  0.500000  0.391590  0.969349  1
  B  B30  1  0.500000  0.108517  0.471166  1
  B  B31  1  0.500000  0.895471  0.530854  1
  Ir  Ir32  1  0.000000  0.362163  0.679278  1
  Ir  Ir33  1  0.000000  0.137496  0.177841  1
  Ru  Ru34  1  0.000000  0.862295  0.821245  1
  W  W35  1  0.000000  0.637526  0.320980  1
