# generated using pymatgen
data_Tb4Ho2Al21Si3Os8
_symmetry_space_group_name_H-M   'P 1'
_cell_length_a   8.71953802
_cell_length_b   8.71953650
_cell_length_c   9.65245300
_cell_angle_alpha   90.00176486
_cell_angle_beta   89.99823501
_cell_angle_gamma   120.00720313
_symmetry_Int_Tables_number   1
_chemical_formula_structural   Tb4Ho2Al21Si3Os8
_chemical_formula_sum   'Tb4 Ho2 Al21 Si3 Os8'
_cell_volume   635.51188290
_cell_formula_units_Z   1
loop_
 _symmetry_equiv_pos_site_id
 _symmetry_equiv_pos_as_xyz
  1  'x, y, z'
loop_
 _atom_site_type_symbol
 _atom_site_label
 _atom_site_symmetry_multiplicity
 _atom_site_fract_x
 _atom_site_fract_y
 _atom_site_fract_z
 _atom_site_occupancy
  Tb  Tb0  1  0.194598  0.389451  0.247607  1
  Tb  Tb1  1  0.804895  0.609504  0.752723  1
  Tb  Tb2  1  0.610549  0.805402  0.247607  1
  Tb  Tb3  1  0.390496  0.195105  0.752723  1
  Ho  Ho4  1  0.195117  0.804883  0.247485  1
  Ho  Ho5  1  0.804281  0.195719  0.752733  1
  Al  Al6  1  0.333216  0.666784  0.476027  1
  Al  Al7  1  0.164179  0.328589  0.574143  1
  Al  Al8  1  0.835120  0.670014  0.423770  1
  Al  Al9  1  0.671411  0.835821  0.574143  1
  Al  Al10  1  0.834982  0.669715  0.076542  1
  Al  Al11  1  0.329986  0.164880  0.423770  1
  Al  Al12  1  0.165396  0.331052  0.922898  1
  Al  Al13  1  0.164330  0.835670  0.573979  1
  Al  Al14  1  0.330285  0.165018  0.076542  1
  Al  Al15  1  0.834961  0.165039  0.423936  1
  Al  Al16  1  0.668948  0.834604  0.922898  1
  Al  Al17  1  0.834817  0.165183  0.076343  1
  Al  Al18  1  0.165567  0.834433  0.923080  1
  Al  Al19  1  0.563382  0.127088  0.248869  1
  Al  Al20  1  0.436966  0.873589  0.748836  1
  Al  Al21  1  0.872912  0.436618  0.248869  1
  Al  Al22  1  0.126411  0.563034  0.748836  1
  Al  Al23  1  0.563721  0.436279  0.248867  1
  Al  Al24  1  0.436618  0.563382  0.748844  1
  Al  Al25  1  0.000145  0.999855  0.248708  1
  Al  Al26  1  0.999857  0.000143  0.749370  1
  Si  Si27  1  0.333131  0.666869  0.039433  1
  Si  Si28  1  0.666866  0.333134  0.961955  1
  Si  Si29  1  0.666854  0.333146  0.539332  1
  Os  Os30  1  0.499970  0.999906  0.998934  1
  Os  Os31  1  0.000094  0.500030  0.998934  1
  Os  Os32  1  0.504319  0.008622  0.501499  1
  Os  Os33  1  0.499940  0.500060  0.998947  1
  Os  Os34  1  0.991378  0.495681  0.501499  1
  Os  Os35  1  0.504310  0.495690  0.501470  1
  Os  Os36  1  0.999992  0.000008  0.998764  1
  Os  Os37  1  0.000002  0.999998  0.499078  1
