# generated using pymatgen
data_Er13Th3MnCd4Ni3
_symmetry_space_group_name_H-M   'P 1'
_cell_length_a   9.53541735
_cell_length_b   9.57414720
_cell_length_c   9.57414875
_cell_angle_alpha   59.43369633
_cell_angle_beta   59.63123437
_cell_angle_gamma   59.63122794
_symmetry_Int_Tables_number   1
_chemical_formula_structural   Er13Th3MnCd4Ni3
_chemical_formula_sum   'Er13 Th3 Mn1 Cd4 Ni3'
_cell_volume   611.94046921
_cell_formula_units_Z   1
loop_
 _symmetry_equiv_pos_site_id
 _symmetry_equiv_pos_as_xyz
  1  'x, y, z'
loop_
 _atom_site_type_symbol
 _atom_site_label
 _atom_site_symmetry_multiplicity
 _atom_site_fract_x
 _atom_site_fract_y
 _atom_site_fract_z
 _atom_site_occupancy
  Er  Er0  1  0.950743  0.350601  0.350601  1
  Er  Er1  1  0.817779  0.187511  0.187511  1
  Er  Er2  1  0.187269  0.812496  0.812496  1
  Er  Er3  1  0.187101  0.816008  0.185351  1
  Er  Er4  1  0.811439  0.187260  0.812691  1
  Er  Er5  1  0.187101  0.185351  0.816008  1
  Er  Er6  1  0.811439  0.812691  0.187260  1
  Er  Er7  1  0.936776  0.565359  0.565359  1
  Er  Er8  1  0.560266  0.934732  0.934732  1
  Er  Er9  1  0.564204  0.935528  0.564042  1
  Er  Er10  1  0.935052  0.561023  0.935686  1
  Er  Er11  1  0.564204  0.564042  0.935528  1
  Er  Er12  1  0.935052  0.935686  0.561023  1
  Th  Th13  1  0.345412  0.349599  0.349599  1
  Th  Th14  1  0.340693  0.344114  0.960713  1
  Th  Th15  1  0.340693  0.960713  0.344114  1
  Mn  Mn16  1  0.157493  0.141656  0.141656  1
  Cd  Cd17  1  0.583585  0.580382  0.580382  1
  Cd  Cd18  1  0.584370  0.580164  0.252964  1
  Cd  Cd19  1  0.584370  0.252964  0.580164  1
  Cd  Cd20  1  0.253352  0.580951  0.580951  1
  Ni  Ni21  1  0.144072  0.142652  0.574263  1
  Ni  Ni22  1  0.144072  0.574263  0.142652  1
  Ni  Ni23  1  0.573458  0.144253  0.144253  1
