# generated using pymatgen
data_Lu12ZnFe3Cu
_symmetry_space_group_name_H-M   'P 1'
_cell_length_a   8.05526817
_cell_length_b   8.05526713
_cell_length_c   8.05526830
_cell_angle_alpha   107.93118463
_cell_angle_beta   109.68546372
_cell_angle_gamma   110.80993934
_symmetry_Int_Tables_number   1
_chemical_formula_structural   Lu12ZnFe3Cu
_chemical_formula_sum   'Lu12 Zn1 Fe3 Cu1'
_cell_volume   402.10586883
_cell_formula_units_Z   1
loop_
 _symmetry_equiv_pos_site_id
 _symmetry_equiv_pos_as_xyz
  1  'x, y, z'
loop_
 _atom_site_type_symbol
 _atom_site_label
 _atom_site_symmetry_multiplicity
 _atom_site_fract_x
 _atom_site_fract_y
 _atom_site_fract_z
 _atom_site_occupancy
  Lu  Lu0  1  0.309087  0.309447  0.618535  1
  Lu  Lu1  1  0.690913  0.690553  0.381465  1
  Lu  Lu2  1  0.690913  0.309447  0.000359  1
  Lu  Lu3  1  0.309087  0.690553  0.999641  1
  Lu  Lu4  1  0.185767  0.416486  0.230717  1
  Lu  Lu5  1  0.814233  0.583514  0.769283  1
  Lu  Lu6  1  0.185767  0.955049  0.769283  1
  Lu  Lu7  1  0.933039  0.190062  0.742977  1
  Lu  Lu8  1  0.814233  0.044951  0.230717  1
  Lu  Lu9  1  0.066961  0.809938  0.257023  1
  Lu  Lu10  1  0.447085  0.190062  0.257023  1
  Lu  Lu11  1  0.552915  0.809938  0.742977  1
  Zn  Zn12  1  0.000000  0.500000  0.500000  1
  Fe  Fe13  1  0.381145  0.381145  0.000000  1
  Fe  Fe14  1  0.618855  0.618855  0.000000  1
  Fe  Fe15  1  0.000000  0.000000  0.000000  1
  Cu  Cu16  1  0.500000  0.000000  0.500000  1
