# generated using pymatgen
data_Lu5OsWC7
_symmetry_space_group_name_H-M   'P 1'
_cell_length_a   8.13006036
_cell_length_b   8.13005957
_cell_length_c   3.38519300
_cell_angle_alpha   90.00000000
_cell_angle_beta   90.00000000
_cell_angle_gamma   121.41221489
_symmetry_Int_Tables_number   1
_chemical_formula_structural   Lu5OsWC7
_chemical_formula_sum   'Lu5 Os1 W1 C7'
_cell_volume   190.96060184
_cell_formula_units_Z   1
loop_
 _symmetry_equiv_pos_site_id
 _symmetry_equiv_pos_as_xyz
  1  'x, y, z'
loop_
 _atom_site_type_symbol
 _atom_site_label
 _atom_site_symmetry_multiplicity
 _atom_site_fract_x
 _atom_site_fract_y
 _atom_site_fract_z
 _atom_site_occupancy
  Lu  Lu0  1  0.335921  0.076967  0.500000  1
  Lu  Lu1  1  0.660774  0.919143  0.500000  1
  Lu  Lu2  1  0.080857  0.339226  0.500000  1
  Lu  Lu3  1  0.923033  0.664079  0.500000  1
  Lu  Lu4  1  0.498062  0.501938  0.000000  1
  Os  Os5  1  0.287186  0.712814  0.000000  1
  W  W6  1  0.715142  0.284858  0.000000  1
  C  C7  1  0.171555  0.169967  0.000000  1
  C  C8  1  0.830033  0.828445  0.000000  1
  C  C9  1  0.000504  0.999496  0.000000  1
  C  C10  1  0.372828  0.627172  0.500000  1
  C  C11  1  0.620943  0.379057  0.500000  1
  C  C12  1  0.501772  0.998609  0.000000  1
  C  C13  1  0.001391  0.498228  0.000000  1
