# generated using pymatgen
data_LiYb3Cd2Pb3
_symmetry_space_group_name_H-M   'P 1'
_cell_length_a   7.68340159
_cell_length_b   7.68340198
_cell_length_c   4.77634800
_cell_angle_alpha   90.00000000
_cell_angle_beta   90.00000000
_cell_angle_gamma   120.23817098
_symmetry_Int_Tables_number   1
_chemical_formula_structural   LiYb3Cd2Pb3
_chemical_formula_sum   'Li1 Yb3 Cd2 Pb3'
_cell_volume   243.60510089
_cell_formula_units_Z   1
loop_
 _symmetry_equiv_pos_site_id
 _symmetry_equiv_pos_as_xyz
  1  'x, y, z'
loop_
 _atom_site_type_symbol
 _atom_site_label
 _atom_site_symmetry_multiplicity
 _atom_site_fract_x
 _atom_site_fract_y
 _atom_site_fract_z
 _atom_site_occupancy
  Li  Li0  1  0.766665  0.766665  0.000000  1
  Yb  Yb1  1  0.423316  0.423316  0.500000  1
  Yb  Yb2  1  0.565713  0.005296  0.500000  1
  Yb  Yb3  1  0.005296  0.565713  0.500000  1
  Cd  Cd4  1  0.242667  0.000406  0.000000  1
  Cd  Cd5  1  0.000406  0.242667  0.000000  1
  Pb  Pb6  1  0.670175  0.348972  0.000000  1
  Pb  Pb7  1  0.348972  0.670175  0.000000  1
  Pb  Pb8  1  0.976790  0.976790  0.500000  1
