# generated using pymatgen
data_PrTlPd4
_symmetry_space_group_name_H-M   'P 1'
_cell_length_a   5.48044607
_cell_length_b   5.48044482
_cell_length_c   5.48044500
_cell_angle_alpha   120.00811697
_cell_angle_beta   120.00811202
_cell_angle_gamma   89.98593565
_symmetry_Int_Tables_number   1
_chemical_formula_structural   PrTlPd4
_chemical_formula_sum   'Pr1 Tl1 Pd4'
_cell_volume   116.38025355
_cell_formula_units_Z   1
loop_
 _symmetry_equiv_pos_site_id
 _symmetry_equiv_pos_as_xyz
  1  'x, y, z'
loop_
 _atom_site_type_symbol
 _atom_site_label
 _atom_site_symmetry_multiplicity
 _atom_site_fract_x
 _atom_site_fract_y
 _atom_site_fract_z
 _atom_site_occupancy
  Pr  Pr0  1  0.000000  0.000000  0.000000  1
  Tl  Tl1  1  0.750001  0.250000  0.500001  1
  Pd  Pd2  1  0.375353  0.624639  0.249286  1
  Pd  Pd3  1  0.873934  0.624648  0.249286  1
  Pd  Pd4  1  0.375353  0.126066  0.750715  1
  Pd  Pd5  1  0.375363  0.624649  0.750715  1
