# generated using pymatgen
data_Dy3Y7Si5Pb
_symmetry_space_group_name_H-M   'P 1'
_cell_length_a   8.54701400
_cell_length_b   8.57881380
_cell_length_c   6.42899600
_cell_angle_alpha   90.00269130
_cell_angle_beta   90.00010709
_cell_angle_gamma   119.87803714
_symmetry_Int_Tables_number   1
_chemical_formula_structural   Dy3Y7Si5Pb
_chemical_formula_sum   'Dy3 Y7 Si5 Pb1'
_cell_volume   408.74068777
_cell_formula_units_Z   1
loop_
 _symmetry_equiv_pos_site_id
 _symmetry_equiv_pos_as_xyz
  1  'x, y, z'
loop_
 _atom_site_type_symbol
 _atom_site_label
 _atom_site_symmetry_multiplicity
 _atom_site_fract_x
 _atom_site_fract_y
 _atom_site_fract_z
 _atom_site_occupancy
  Dy  Dy0  1  0.331351  0.656664  0.496026  1
  Dy  Dy1  1  0.331356  0.656659  0.003981  1
  Dy  Dy2  1  0.674691  0.343339  0.496050  1
  Y  Y3  1  0.987682  0.747295  0.749977  1
  Y  Y4  1  0.998695  0.242853  0.250008  1
  Y  Y5  1  0.755841  0.757156  0.250012  1
  Y  Y6  1  0.766279  0.000011  0.750000  1
  Y  Y7  1  0.240409  0.252730  0.749995  1
  Y  Y8  1  0.240694  0.000004  0.249998  1
  Y  Y9  1  0.674637  0.343259  0.003949  1
  Si  Si10  1  0.393621  0.392232  0.250045  1
  Si  Si11  1  0.001466  0.607821  0.250050  1
  Si  Si12  1  0.998580  0.394404  0.749958  1
  Si  Si13  1  0.604149  0.605634  0.749953  1
  Si  Si14  1  0.606034  0.999966  0.250031  1
  Pb  Pb15  1  0.394515  0.999974  0.749967  1
