# generated using pymatgen
data_Dy4TmNb2P12Ir17
_symmetry_space_group_name_H-M   'P 1'
_cell_length_a   12.58094715
_cell_length_b   12.78759948
_cell_length_c   3.99835000
_cell_angle_alpha   90.00000000
_cell_angle_beta   90.00000000
_cell_angle_gamma   119.44921899
_symmetry_Int_Tables_number   1
_chemical_formula_structural   Dy4TmNb2P12Ir17
_chemical_formula_sum   'Dy4 Tm1 Nb2 P12 Ir17'
_cell_volume   560.14117166
_cell_formula_units_Z   1
loop_
 _symmetry_equiv_pos_site_id
 _symmetry_equiv_pos_as_xyz
  1  'x, y, z'
loop_
 _atom_site_type_symbol
 _atom_site_label
 _atom_site_symmetry_multiplicity
 _atom_site_fract_x
 _atom_site_fract_y
 _atom_site_fract_z
 _atom_site_occupancy
  Dy  Dy0  1  0.668776  0.338684  0.500000  1
  Dy  Dy1  1  0.999080  0.813336  0.000000  1
  Dy  Dy2  1  0.186056  0.186699  0.000000  1
  Dy  Dy3  1  0.814953  0.999895  0.000000  1
  Tm  Tm4  1  0.330361  0.661057  0.500000  1
  Nb  Nb5  1  0.997782  0.450966  0.500000  1
  Nb  Nb6  1  0.546591  0.549385  0.500000  1
  P  P7  1  0.002720  0.641922  0.500000  1
  P  P8  1  0.360775  0.357807  0.500000  1
  P  P9  1  0.645822  0.000181  0.500000  1
  P  P10  1  0.513968  0.683303  0.000000  1
  P  P11  1  0.308771  0.823207  0.000000  1
  P  P12  1  0.163644  0.481220  0.000000  1
  P  P13  1  0.485063  0.176084  0.000000  1
  P  P14  1  0.682488  0.519166  0.000000  1
  P  P15  1  0.831401  0.316893  0.000000  1
  P  P16  1  0.000329  0.175811  0.500000  1
  P  P17  1  0.824404  0.824455  0.500000  1
  P  P18  1  0.180978  0.999996  0.500000  1
  Ir  Ir19  1  0.504592  0.863101  0.000000  1
  Ir  Ir20  1  0.128614  0.641116  0.000000  1
  Ir  Ir21  1  0.354375  0.494258  0.000000  1
  Ir  Ir22  1  0.486430  0.358790  0.000000  1
  Ir  Ir23  1  0.861393  0.506861  0.000000  1
  Ir  Ir24  1  0.641568  0.135837  0.000000  1
  Ir  Ir25  1  0.464432  0.999823  0.500000  1
  Ir  Ir26  1  0.997559  0.282290  0.000000  1
  Ir  Ir27  1  0.714861  0.717673  0.000000  1
  Ir  Ir28  1  0.291604  0.999820  0.000000  1
  Ir  Ir29  1  0.624173  0.807098  0.500000  1
  Ir  Ir30  1  0.201793  0.823656  0.500000  1
  Ir  Ir31  1  0.177826  0.368821  0.500000  1
  Ir  Ir32  1  0.377649  0.176013  0.500000  1
  Ir  Ir33  1  0.809098  0.631692  0.500000  1
  Ir  Ir34  1  0.817389  0.193081  0.500000  1
  Ir  Ir35  1  0.002686  0.000003  0.500000  1
