# generated using pymatgen
data_Sr9Sm(PO4)7
_symmetry_space_group_name_H-M   'P 1'
_cell_length_a   9.12805479
_cell_length_b   9.12805487
_cell_length_c   18.29126000
_cell_angle_alpha   71.96825870
_cell_angle_beta   71.96825855
_cell_angle_gamma   72.55489797
_symmetry_Int_Tables_number   1
_chemical_formula_structural   Sr9Sm(PO4)7
_chemical_formula_sum   'Sr18 Sm2 P14 O56'
_cell_volume   1342.50016659
_cell_formula_units_Z   2
loop_
 _symmetry_equiv_pos_site_id
 _symmetry_equiv_pos_as_xyz
  1  'x, y, z'
loop_
 _atom_site_type_symbol
 _atom_site_label
 _atom_site_symmetry_multiplicity
 _atom_site_fract_x
 _atom_site_fract_y
 _atom_site_fract_z
 _atom_site_occupancy
  Sr  Sr0  1  0.955743  0.504943  0.252972  1
  Sr  Sr1  1  0.497098  0.037751  0.249777  1
  Sr  Sr2  1  0.037751  0.497098  0.749777  1
  Sr  Sr3  1  0.504943  0.955743  0.752972  1
  Sr  Sr4  1  0.160450  0.726591  0.859368  1
  Sr  Sr5  1  0.272310  0.842317  0.641438  1
  Sr  Sr6  1  0.842317  0.272310  0.141438  1
  Sr  Sr7  1  0.726591  0.160450  0.359368  1
  Sr  Sr8  1  0.286475  0.283748  0.412248  1
  Sr  Sr9  1  0.719819  0.714361  0.087552  1
  Sr  Sr10  1  0.714361  0.719819  0.587552  1
  Sr  Sr11  1  0.283748  0.286475  0.912248  1
  Sr  Sr12  1  0.164426  0.719589  0.364720  1
  Sr  Sr13  1  0.281324  0.833980  0.137094  1
  Sr  Sr14  1  0.833980  0.281324  0.637094  1
  Sr  Sr15  1  0.719589  0.164426  0.864720  1
  Sr  Sr16  1  0.495110  0.494875  0.513819  1
  Sr  Sr17  1  0.494875  0.495110  0.013819  1
  Sm  Sm18  1  0.001067  0.001946  0.499464  1
  Sm  Sm19  1  0.001946  0.001067  0.999464  1
  P  P20  1  0.102509  0.115884  0.790811  1
  P  P21  1  0.884112  0.898170  0.709792  1
  P  P22  1  0.898170  0.884112  0.209792  1
  P  P23  1  0.115884  0.102509  0.290811  1
  P  P24  1  0.419431  0.895312  0.943458  1
  P  P25  1  0.104396  0.579848  0.558009  1
  P  P26  1  0.579848  0.104396  0.058009  1
  P  P27  1  0.895312  0.419431  0.443458  1
  P  P28  1  0.418322  0.885986  0.449893  1
  P  P29  1  0.113619  0.581778  0.051027  1
  P  P30  1  0.581778  0.113619  0.551027  1
  P  P31  1  0.885986  0.418322  0.949893  1
  P  P32  1  0.472658  0.525340  0.746903  1
  P  P33  1  0.525340  0.472658  0.246903  1
  O  O34  1  0.618958  0.210528  0.596224  1
  O  O35  1  0.789732  0.379709  0.905229  1
  O  O36  1  0.379709  0.789732  0.405229  1
  O  O37  1  0.210528  0.618958  0.096224  1
  O  O38  1  0.614381  0.202912  0.103992  1
  O  O39  1  0.800355  0.379906  0.397777  1
  O  O40  1  0.379906  0.800355  0.897777  1
  O  O41  1  0.202912  0.614381  0.603992  1
  O  O42  1  0.480125  0.575961  0.168159  1
  O  O43  1  0.407363  0.530073  0.319352  1
  O  O44  1  0.530073  0.407363  0.819352  1
  O  O45  1  0.575961  0.480125  0.668159  1
  O  O46  1  0.498641  0.973701  0.118089  1
  O  O47  1  0.024152  0.503125  0.383328  1
  O  O48  1  0.503125  0.024152  0.883328  1
  O  O49  1  0.973701  0.498641  0.618089  1
  O  O50  1  0.229653  0.499786  0.985597  1
  O  O51  1  0.499178  0.771705  0.516206  1
  O  O52  1  0.771705  0.499178  0.016206  1
  O  O53  1  0.499786  0.229653  0.485597  1
  O  O54  1  0.217480  0.487198  0.496951  1
  O  O55  1  0.511585  0.781605  0.004673  1
  O  O56  1  0.781605  0.511585  0.504673  1
  O  O57  1  0.487198  0.217480  0.996951  1
  O  O58  1  0.700851  0.476992  0.236346  1
  O  O59  1  0.528472  0.293473  0.262821  1
  O  O60  1  0.293473  0.528472  0.762821  1
  O  O61  1  0.476992  0.700851  0.736346  1
  O  O62  1  0.011629  0.016155  0.870186  1
  O  O63  1  0.982464  0.988617  0.629773  1
  O  O64  1  0.988617  0.982464  0.129773  1
  O  O65  1  0.016155  0.011629  0.370186  1
  O  O66  1  0.260432  0.986614  0.494278  1
  O  O67  1  0.014692  0.740339  0.006606  1
  O  O68  1  0.740339  0.014692  0.506606  1
  O  O69  1  0.986614  0.260432  0.994278  1
  O  O70  1  0.993387  0.217390  0.245257  1
  O  O71  1  0.785262  0.007372  0.255303  1
  O  O72  1  0.007372  0.785262  0.755303  1
  O  O73  1  0.217390  0.993387  0.745257  1
  O  O74  1  0.488761  0.991484  0.609388  1
  O  O75  1  0.007372  0.512941  0.891870  1
  O  O76  1  0.512941  0.007372  0.391870  1
  O  O77  1  0.991484  0.488761  0.109388  1
  O  O78  1  0.802511  0.790655  0.191954  1
  O  O79  1  0.210035  0.195443  0.310019  1
  O  O80  1  0.195443  0.210035  0.810019  1
  O  O81  1  0.790655  0.802511  0.691954  1
  O  O82  1  0.261913  0.987432  0.992045  1
  O  O83  1  0.014591  0.739578  0.510153  1
  O  O84  1  0.739578  0.014591  0.010153  1
  O  O85  1  0.987432  0.261913  0.492045  1
  O  O86  1  0.973693  0.232366  0.749245  1
  O  O87  1  0.767082  0.027501  0.750833  1
  O  O88  1  0.027501  0.767082  0.250833  1
  O  O89  1  0.232366  0.973693  0.249245  1
