# generated using pymatgen
data_Yb7ThPd24S
_symmetry_space_group_name_H-M   'P 1'
_cell_length_a   8.32971611
_cell_length_b   8.32971622
_cell_length_c   8.32971600
_cell_angle_alpha   90.05694006
_cell_angle_beta   90.05694006
_cell_angle_gamma   89.94305841
_symmetry_Int_Tables_number   1
_chemical_formula_structural   Yb7ThPd24S
_chemical_formula_sum   'Yb7 Th1 Pd24 S1'
_cell_volume   577.94958706
_cell_formula_units_Z   1
loop_
 _symmetry_equiv_pos_site_id
 _symmetry_equiv_pos_as_xyz
  1  'x, y, z'
loop_
 _atom_site_type_symbol
 _atom_site_label
 _atom_site_symmetry_multiplicity
 _atom_site_fract_x
 _atom_site_fract_y
 _atom_site_fract_z
 _atom_site_occupancy
  Yb  Yb0  1  0.254458  0.746819  0.253181  1
  Yb  Yb1  1  0.746819  0.254458  0.253181  1
  Yb  Yb2  1  0.746819  0.746819  0.745542  1
  Yb  Yb3  1  0.745907  0.745907  0.254093  1
  Yb  Yb4  1  0.746547  0.253519  0.746481  1
  Yb  Yb5  1  0.253519  0.746547  0.746481  1
  Yb  Yb6  1  0.253519  0.253519  0.253453  1
  Th  Th7  1  0.257783  0.257783  0.742217  1
  Pd  Pd8  1  0.502396  0.502396  0.748128  1
  Pd  Pd9  1  0.502396  0.251872  0.497604  1
  Pd  Pd10  1  0.251872  0.502396  0.497604  1
  Pd  Pd11  1  0.500075  0.500075  0.251453  1
  Pd  Pd12  1  0.500075  0.748547  0.499925  1
  Pd  Pd13  1  0.748547  0.500075  0.499925  1
  Pd  Pd14  1  0.998367  0.998367  0.724679  1
  Pd  Pd15  1  0.998367  0.275321  0.001633  1
  Pd  Pd16  1  0.275321  0.998367  0.001633  1
  Pd  Pd17  1  0.000048  0.000048  0.277629  1
  Pd  Pd18  1  0.000048  0.722371  0.999952  1
  Pd  Pd19  1  0.722371  0.000048  0.999952  1
  Pd  Pd20  1  0.999152  0.499982  0.744726  1
  Pd  Pd21  1  0.499982  0.255274  0.000848  1
  Pd  Pd22  1  0.255274  0.999152  0.500018  1
  Pd  Pd23  1  0.999152  0.255274  0.500018  1
  Pd  Pd24  1  0.499982  0.999152  0.744726  1
  Pd  Pd25  1  0.255274  0.499982  0.000848  1
  Pd  Pd26  1  0.000315  0.500117  0.255907  1
  Pd  Pd27  1  0.500117  0.744093  0.999685  1
  Pd  Pd28  1  0.000315  0.744093  0.499883  1
  Pd  Pd29  1  0.500117  0.000315  0.255907  1
  Pd  Pd30  1  0.744093  0.000315  0.499883  1
  Pd  Pd31  1  0.744093  0.500117  0.999685  1
  S  S32  1  0.996883  0.996883  0.003117  1
