# generated using pymatgen
data_LaTl(CO3)2
_symmetry_space_group_name_H-M   'P 1'
_cell_length_a   6.55408600
_cell_length_b   8.68956700
_cell_length_c   9.83449200
_cell_angle_alpha   90.00000000
_cell_angle_beta   90.00000000
_cell_angle_gamma   90.00000000
_symmetry_Int_Tables_number   1
_chemical_formula_structural   LaTl(CO3)2
_chemical_formula_sum   'La4 Tl4 C8 O24'
_cell_volume   560.09565455
_cell_formula_units_Z   4
loop_
 _symmetry_equiv_pos_site_id
 _symmetry_equiv_pos_as_xyz
  1  'x, y, z'
loop_
 _atom_site_type_symbol
 _atom_site_label
 _atom_site_symmetry_multiplicity
 _atom_site_fract_x
 _atom_site_fract_y
 _atom_site_fract_z
 _atom_site_occupancy
  La  La0  1  0.971476  0.952477  0.000000  1
  La  La1  1  0.037252  0.453791  0.000000  1
  La  La2  1  0.028524  0.452477  0.500000  1
  La  La3  1  0.962748  0.953791  0.500000  1
  Tl  Tl4  1  0.466221  0.691985  0.241783  1
  Tl  Tl5  1  0.466221  0.691985  0.758217  1
  Tl  Tl6  1  0.533779  0.191985  0.258217  1
  Tl  Tl7  1  0.533779  0.191985  0.741783  1
  C  C8  1  0.966236  0.760255  0.750212  1
  C  C9  1  0.033764  0.260255  0.749788  1
  C  C10  1  0.474500  0.443810  0.500000  1
  C  C11  1  0.033764  0.260255  0.250212  1
  C  C12  1  0.407807  0.956037  0.500000  1
  C  C13  1  0.966236  0.760255  0.249788  1
  C  C14  1  0.592193  0.456037  0.000000  1
  C  C15  1  0.525500  0.943810  0.000000  1
  O  O16  1  0.396042  0.468294  0.000000  1
  O  O17  1  0.369515  0.316672  0.500000  1
  O  O18  1  0.329865  0.940630  0.000000  1
  O  O19  1  0.024783  0.193794  0.133693  1
  O  O20  1  0.037306  0.701296  0.861129  1
  O  O21  1  0.888502  0.898408  0.754318  1
  O  O22  1  0.975217  0.693794  0.366307  1
  O  O23  1  0.603958  0.968294  0.500000  1
  O  O24  1  0.693112  0.451328  0.886226  1
  O  O25  1  0.111498  0.398408  0.745682  1
  O  O26  1  0.962694  0.201296  0.638871  1
  O  O27  1  0.630485  0.816672  0.000000  1
  O  O28  1  0.111498  0.398408  0.254318  1
  O  O29  1  0.962694  0.201296  0.361129  1
  O  O30  1  0.623621  0.074357  0.000000  1
  O  O31  1  0.888502  0.898408  0.245682  1
  O  O32  1  0.693112  0.451328  0.113774  1
  O  O33  1  0.975217  0.693794  0.633693  1
  O  O34  1  0.376379  0.574357  0.500000  1
  O  O35  1  0.306888  0.951328  0.386226  1
  O  O36  1  0.037306  0.701296  0.138871  1
  O  O37  1  0.024783  0.193794  0.866307  1
  O  O38  1  0.306888  0.951328  0.613774  1
  O  O39  1  0.670135  0.440630  0.500000  1
