# generated using pymatgen
data_Dy12TlTc3Ni2
_symmetry_space_group_name_H-M   'P 1'
_cell_length_a   8.42299286
_cell_length_b   8.42296873
_cell_length_c   8.42299300
_cell_angle_alpha   113.53977186
_cell_angle_beta   109.62592311
_cell_angle_gamma   105.35141536
_symmetry_Int_Tables_number   1
_chemical_formula_structural   Dy12TlTc3Ni2
_chemical_formula_sum   'Dy12 Tl1 Tc3 Ni2'
_cell_volume   457.67360752
_cell_formula_units_Z   1
loop_
 _symmetry_equiv_pos_site_id
 _symmetry_equiv_pos_as_xyz
  1  'x, y, z'
loop_
 _atom_site_type_symbol
 _atom_site_label
 _atom_site_symmetry_multiplicity
 _atom_site_fract_x
 _atom_site_fract_y
 _atom_site_fract_z
 _atom_site_occupancy
  Dy  Dy0  1  0.823564  0.730078  0.553648  1
  Dy  Dy1  1  0.176436  0.269922  0.446352  1
  Dy  Dy2  1  0.176431  0.730078  0.906514  1
  Dy  Dy3  1  0.823569  0.269922  0.093486  1
  Dy  Dy4  1  0.670992  0.355368  0.684378  1
  Dy  Dy5  1  0.329008  0.644632  0.315622  1
  Dy  Dy6  1  0.670984  0.986599  0.315615  1
  Dy  Dy7  1  0.329016  0.013401  0.684385  1
  Dy  Dy8  1  0.577156  0.765468  0.811695  1
  Dy  Dy9  1  0.422844  0.234532  0.188305  1
  Dy  Dy10  1  0.953773  0.765468  0.188312  1
  Dy  Dy11  1  0.046227  0.234532  0.811688  1
  Tl  Tl12  1  0.500000  0.500000  0.000000  1
  Tc  Tc13  1  0.668083  0.000000  0.668083  1
  Tc  Tc14  1  0.331917  0.000000  0.331917  1
  Tc  Tc15  1  0.000000  0.000000  0.000000  1
  Ni  Ni16  1  0.113302  0.613340  0.500039  1
  Ni  Ni17  1  0.886698  0.386660  0.499961  1
