# generated using pymatgen
data_Fe2Co(SeO3)4
_symmetry_space_group_name_H-M   'P 1'
_cell_length_a   8.14940500
_cell_length_b   8.20795587
_cell_length_c   8.34299449
_cell_angle_alpha   87.64154595
_cell_angle_beta   90.00000000
_cell_angle_gamma   90.00000000
_symmetry_Int_Tables_number   1
_chemical_formula_structural   Fe2Co(SeO3)4
_chemical_formula_sum   'Fe4 Co2 Se8 O24'
_cell_volume   557.58982210
_cell_formula_units_Z   2
loop_
 _symmetry_equiv_pos_site_id
 _symmetry_equiv_pos_as_xyz
  1  'x, y, z'
loop_
 _atom_site_type_symbol
 _atom_site_label
 _atom_site_symmetry_multiplicity
 _atom_site_fract_x
 _atom_site_fract_y
 _atom_site_fract_z
 _atom_site_occupancy
  Fe  Fe0  1  0.759655  0.750922  0.002281  1
  Fe  Fe1  1  0.738493  0.243829  0.507142  1
  Fe  Fe2  1  0.240345  0.250922  0.002281  1
  Fe  Fe3  1  0.261507  0.743829  0.507142  1
  Co  Co4  1  0.605102  0.348237  0.158078  1
  Co  Co5  1  0.394898  0.848237  0.158078  1
  Se  Se6  1  0.096517  0.550216  0.191297  1
  Se  Se7  1  0.903483  0.050216  0.191297  1
  Se  Se8  1  0.570422  0.452003  0.820166  1
  Se  Se9  1  0.323268  0.163732  0.414608  1
  Se  Se10  1  0.058448  0.418853  0.680772  1
  Se  Se11  1  0.429578  0.952003  0.820166  1
  Se  Se12  1  0.676732  0.663732  0.414608  1
  Se  Se13  1  0.941552  0.918853  0.680772  1
  O  O14  1  0.964675  0.699558  0.119376  1
  O  O15  1  0.307550  0.010700  0.985890  1
  O  O16  1  0.165748  0.258261  0.777221  1
  O  O17  1  0.664847  0.456621  0.365472  1
  O  O18  1  0.749400  0.176992  0.268103  1
  O  O19  1  0.194070  0.490942  0.020127  1
  O  O20  1  0.220225  0.513172  0.579069  1
  O  O21  1  0.626341  0.756704  0.228455  1
  O  O22  1  0.716820  0.351500  0.718954  1
  O  O23  1  0.335153  0.956621  0.365472  1
  O  O24  1  0.973260  0.314380  0.522794  1
  O  O25  1  0.485683  0.293566  0.941617  1
  O  O26  1  0.834252  0.758261  0.777221  1
  O  O27  1  0.504654  0.690512  0.524478  1
  O  O28  1  0.283180  0.851500  0.718954  1
  O  O29  1  0.250600  0.676992  0.268103  1
  O  O30  1  0.373659  0.256704  0.228455  1
  O  O31  1  0.035325  0.199558  0.119376  1
  O  O32  1  0.026740  0.814380  0.522794  1
  O  O33  1  0.514317  0.793566  0.941617  1
  O  O34  1  0.692450  0.510699  0.985890  1
  O  O35  1  0.779775  0.013172  0.579069  1
  O  O36  1  0.495346  0.190512  0.524478  1
  O  O37  1  0.805930  0.990942  0.020127  1
