# generated using pymatgen
data_Tb5Y5(SiBi)4
_symmetry_space_group_name_H-M   'P 1'
_cell_length_a   8.68683264
_cell_length_b   8.67874684
_cell_length_c   7.95319014
_cell_angle_alpha   89.99872931
_cell_angle_beta   90.01828569
_cell_angle_gamma   125.58679292
_symmetry_Int_Tables_number   1
_chemical_formula_structural   Tb5Y5(SiBi)4
_chemical_formula_sum   'Tb5 Y5 Si4 Bi4'
_cell_volume   487.61362178
_cell_formula_units_Z   1
loop_
 _symmetry_equiv_pos_site_id
 _symmetry_equiv_pos_as_xyz
  1  'x, y, z'
loop_
 _atom_site_type_symbol
 _atom_site_label
 _atom_site_symmetry_multiplicity
 _atom_site_fract_x
 _atom_site_fract_y
 _atom_site_fract_z
 _atom_site_occupancy
  Tb  Tb0  1  0.042727  0.287498  0.335294  1
  Tb  Tb1  1  0.957260  0.712530  0.664716  1
  Tb  Tb2  1  0.457268  0.212468  0.835255  1
  Tb  Tb3  1  0.787439  0.542698  0.164666  1
  Tb  Tb4  1  0.542718  0.787565  0.164683  1
  Y  Y5  1  0.212809  0.457328  0.835548  1
  Y  Y6  1  0.712877  0.957364  0.664494  1
  Y  Y7  1  0.287048  0.042641  0.335546  1
  Y  Y8  1  0.000016  0.000059  0.999979  1
  Y  Y9  1  0.499976  0.499987  0.500027  1
  Si  Si10  1  0.365511  0.365349  0.133337  1
  Si  Si11  1  0.634408  0.634589  0.866581  1
  Si  Si12  1  0.134380  0.134571  0.633306  1
  Si  Si13  1  0.865559  0.865538  0.366720  1
  Bi  Bi14  1  0.792741  0.207486  0.999630  1
  Bi  Bi15  1  0.207454  0.792502  0.000113  1
  Bi  Bi16  1  0.707168  0.292220  0.499876  1
  Bi  Bi17  1  0.292641  0.707608  0.500230  1
