# generated using pymatgen
data_La3Nd5ZrPd24
_symmetry_space_group_name_H-M   'P 1'
_cell_length_a   8.56820412
_cell_length_b   8.56820410
_cell_length_c   8.56762700
_cell_angle_alpha   90.00973631
_cell_angle_beta   89.99026369
_cell_angle_gamma   89.97271860
_symmetry_Int_Tables_number   1
_chemical_formula_structural   La3Nd5ZrPd24
_chemical_formula_sum   'La3 Nd5 Zr1 Pd24'
_cell_volume   628.98472145
_cell_formula_units_Z   1
loop_
 _symmetry_equiv_pos_site_id
 _symmetry_equiv_pos_as_xyz
  1  'x, y, z'
loop_
 _atom_site_type_symbol
 _atom_site_label
 _atom_site_symmetry_multiplicity
 _atom_site_fract_x
 _atom_site_fract_y
 _atom_site_fract_z
 _atom_site_occupancy
  La  La0  1  0.253294  0.746706  0.253390  1
  La  La1  1  0.253297  0.746703  0.746705  1
  La  La2  1  0.746506  0.253494  0.253614  1
  Nd  Nd3  1  0.252174  0.252115  0.252068  1
  Nd  Nd4  1  0.747653  0.747664  0.747668  1
  Nd  Nd5  1  0.747885  0.747826  0.252068  1
  Nd  Nd6  1  0.747719  0.252281  0.747599  1
  Nd  Nd7  1  0.252336  0.252347  0.747668  1
  Zr  Zr8  1  0.999610  0.000390  0.999618  1
  Pd  Pd9  1  0.266566  0.499505  0.999874  1
  Pd  Pd10  1  0.733307  0.499910  0.999244  1
  Pd  Pd11  1  0.000503  0.266658  0.500359  1
  Pd  Pd12  1  0.500090  0.266693  0.999244  1
  Pd  Pd13  1  0.998593  0.733475  0.500218  1
  Pd  Pd14  1  0.500495  0.733434  0.999874  1
  Pd  Pd15  1  0.500226  0.000127  0.266594  1
  Pd  Pd16  1  0.266525  0.001407  0.500218  1
  Pd  Pd17  1  0.500357  0.000759  0.733306  1
  Pd  Pd18  1  0.733342  0.999497  0.500359  1
  Pd  Pd19  1  0.999873  0.499774  0.266594  1
  Pd  Pd20  1  0.999241  0.499643  0.733306  1
  Pd  Pd21  1  0.254711  0.498663  0.500096  1
  Pd  Pd22  1  0.745317  0.500497  0.500697  1
  Pd  Pd23  1  0.499503  0.254683  0.500697  1
  Pd  Pd24  1  0.501337  0.745289  0.500096  1
  Pd  Pd25  1  0.500102  0.499898  0.254720  1
  Pd  Pd26  1  0.500705  0.499295  0.745314  1
  Pd  Pd27  1  0.311297  0.001294  0.999955  1
  Pd  Pd28  1  0.688879  0.999446  0.999346  1
  Pd  Pd29  1  0.000554  0.311121  0.999346  1
  Pd  Pd30  1  0.998706  0.688703  0.999955  1
  Pd  Pd31  1  0.999957  0.000043  0.311287  1
  Pd  Pd32  1  0.999342  0.000658  0.688904  1
