# generated using pymatgen
data_TbYb(AlPd)2
_symmetry_space_group_name_H-M   'P 1'
_cell_length_a   4.32866400
_cell_length_b   7.03751600
_cell_length_c   7.94719300
_cell_angle_alpha   90.00000000
_cell_angle_beta   90.00000000
_cell_angle_gamma   90.00000000
_symmetry_Int_Tables_number   1
_chemical_formula_structural   TbYb(AlPd)2
_chemical_formula_sum   'Tb2 Yb2 Al4 Pd4'
_cell_volume   242.09567540
_cell_formula_units_Z   2
loop_
 _symmetry_equiv_pos_site_id
 _symmetry_equiv_pos_as_xyz
  1  'x, y, z'
loop_
 _atom_site_type_symbol
 _atom_site_label
 _atom_site_symmetry_multiplicity
 _atom_site_fract_x
 _atom_site_fract_y
 _atom_site_fract_z
 _atom_site_occupancy
  Tb  Tb0  1  0.250000  0.032496  0.321736  1
  Tb  Tb1  1  0.250000  0.532496  0.178264  1
  Yb  Yb2  1  0.750000  0.967496  0.678591  1
  Yb  Yb3  1  0.750000  0.467496  0.821409  1
  Al  Al4  1  0.250000  0.138032  0.940375  1
  Al  Al5  1  0.250000  0.638032  0.559625  1
  Al  Al6  1  0.750000  0.862271  0.063379  1
  Al  Al7  1  0.750000  0.362271  0.436621  1
  Pd  Pd8  1  0.250000  0.274024  0.621887  1
  Pd  Pd9  1  0.250000  0.774024  0.878113  1
  Pd  Pd10  1  0.750000  0.725681  0.376071  1
  Pd  Pd11  1  0.750000  0.225681  0.123929  1
