# generated using pymatgen
data_Zr6PPtO2
_symmetry_space_group_name_H-M   'P 1'
_cell_length_a   5.87042337
_cell_length_b   5.87042263
_cell_length_c   8.68193200
_cell_angle_alpha   90.00000000
_cell_angle_beta   90.00000000
_cell_angle_gamma   145.80832368
_symmetry_Int_Tables_number   1
_chemical_formula_structural   Zr6PPtO2
_chemical_formula_sum   'Zr6 P1 Pt1 O2'
_cell_volume   168.13691022
_cell_formula_units_Z   1
loop_
 _symmetry_equiv_pos_site_id
 _symmetry_equiv_pos_as_xyz
  1  'x, y, z'
loop_
 _atom_site_type_symbol
 _atom_site_label
 _atom_site_symmetry_multiplicity
 _atom_site_fract_x
 _atom_site_fract_y
 _atom_site_fract_z
 _atom_site_occupancy
  Zr  Zr0  1  0.359908  0.640093  0.070265  1
  Zr  Zr1  1  0.069641  0.930360  0.250000  1
  Zr  Zr2  1  0.359908  0.640093  0.429735  1
  Zr  Zr3  1  0.636533  0.363468  0.545940  1
  Zr  Zr4  1  0.944980  0.055021  0.750000  1
  Zr  Zr5  1  0.636533  0.363468  0.954060  1
  P  P6  1  0.744082  0.255918  0.250000  1
  Pt  Pt7  1  0.251978  0.748022  0.750000  1
  O  O8  1  0.998220  0.001780  0.001593  1
  O  O9  1  0.998220  0.001780  0.498407  1
