# generated using pymatgen
data_Zr2Nb3Ga3Si
_symmetry_space_group_name_H-M   'P 1'
_cell_length_a   7.04536188
_cell_length_b   7.04440687
_cell_length_c   12.90816916
_cell_angle_alpha   90.01120643
_cell_angle_beta   89.98624725
_cell_angle_gamma   89.86576610
_symmetry_Int_Tables_number   1
_chemical_formula_structural   Zr2Nb3Ga3Si
_chemical_formula_sum   'Zr8 Nb12 Ga12 Si4'
_cell_volume   640.63575320
_cell_formula_units_Z   4
loop_
 _symmetry_equiv_pos_site_id
 _symmetry_equiv_pos_as_xyz
  1  'x, y, z'
loop_
 _atom_site_type_symbol
 _atom_site_label
 _atom_site_symmetry_multiplicity
 _atom_site_fract_x
 _atom_site_fract_y
 _atom_site_fract_z
 _atom_site_occupancy
  Zr  Zr0  1  0.003240  0.659014  0.031903  1
  Zr  Zr1  1  0.996796  0.335808  0.533227  1
  Zr  Zr2  1  0.658974  0.002846  0.967669  1
  Zr  Zr3  1  0.163136  0.497484  0.782887  1
  Zr  Zr4  1  0.833643  0.496202  0.281092  1
  Zr  Zr5  1  0.503752  0.166320  0.218474  1
  Zr  Zr6  1  0.495839  0.838420  0.719915  1
  Zr  Zr7  1  0.338605  0.003351  0.469283  1
  Nb  Nb8  1  0.356124  0.503933  0.378864  1
  Nb  Nb9  1  0.847915  0.995533  0.372361  1
  Nb  Nb10  1  0.004198  0.152744  0.127678  1
  Nb  Nb11  1  0.996401  0.854391  0.628507  1
  Nb  Nb12  1  0.645580  0.496337  0.881358  1
  Nb  Nb13  1  0.505233  0.347485  0.619306  1
  Nb  Nb14  1  0.495523  0.645559  0.118601  1
  Nb  Nb15  1  0.153762  0.005247  0.869825  1
  Nb  Nb16  1  0.669350  0.664903  0.498940  1
  Nb  Nb17  1  0.835112  0.169495  0.748972  1
  Nb  Nb18  1  0.168203  0.831969  0.249742  1
  Nb  Nb19  1  0.333229  0.333358  0.999714  1
  Ga  Ga20  1  0.041704  0.697690  0.434384  1
  Ga  Ga21  1  0.957739  0.299161  0.935137  1
  Ga  Ga22  1  0.697794  0.038116  0.564751  1
  Ga  Ga23  1  0.198897  0.459625  0.186870  1
  Ga  Ga24  1  0.799401  0.542972  0.686311  1
  Ga  Ga25  1  0.460526  0.200887  0.812749  1
  Ga  Ga26  1  0.539580  0.802541  0.313373  1
  Ga  Ga27  1  0.300366  0.959097  0.065170  1
  Ga  Ga28  1  0.862006  0.792376  0.826216  1
  Ga  Ga29  1  0.137259  0.207810  0.325624  1
  Ga  Ga30  1  0.792478  0.861664  0.173958  1
  Ga  Ga31  1  0.291255  0.637646  0.575803  1
  Si  Si32  1  0.709248  0.362502  0.074022  1
  Si  Si33  1  0.637488  0.290419  0.425894  1
  Si  Si34  1  0.361568  0.709160  0.925575  1
  Si  Si35  1  0.208076  0.137934  0.675846  1
