# generated using pymatgen
data_Cs2Pr10Zn2Br17
_symmetry_space_group_name_H-M   'P 1'
_cell_length_a   9.62059861
_cell_length_b   11.25152589
_cell_length_c   11.25181931
_cell_angle_alpha   106.88283907
_cell_angle_beta   94.50700846
_cell_angle_gamma   94.51410364
_symmetry_Int_Tables_number   1
_chemical_formula_structural   Cs2Pr10Zn2Br17
_chemical_formula_sum   'Cs2 Pr10 Zn2 Br17'
_cell_volume   1155.27251252
_cell_formula_units_Z   1
loop_
 _symmetry_equiv_pos_site_id
 _symmetry_equiv_pos_as_xyz
  1  'x, y, z'
loop_
 _atom_site_type_symbol
 _atom_site_label
 _atom_site_symmetry_multiplicity
 _atom_site_fract_x
 _atom_site_fract_y
 _atom_site_fract_z
 _atom_site_occupancy
  Cs  Cs0  1  0.999304  0.819242  0.179729  1
  Cs  Cs1  1  0.999295  0.179735  0.819238  1
  Pr  Pr2  1  0.435354  0.156267  0.156269  1
  Pr  Pr3  1  0.573087  0.515662  0.198006  1
  Pr  Pr4  1  0.840075  0.288763  0.288765  1
  Pr  Pr5  1  0.296295  0.429794  0.429790  1
  Pr  Pr6  1  0.426952  0.802234  0.484534  1
  Pr  Pr7  1  0.573038  0.197991  0.515643  1
  Pr  Pr8  1  0.703902  0.570440  0.570426  1
  Pr  Pr9  1  0.159904  0.711127  0.711147  1
  Pr  Pr10  1  0.426964  0.484536  0.802238  1
  Pr  Pr11  1  0.564821  0.843838  0.843823  1
  Zn  Zn12  1  0.571459  0.357599  0.357597  1
  Zn  Zn13  1  0.428745  0.642605  0.642609  1
  Br  Br14  1  0.582244  0.689171  0.022643  1
  Br  Br15  1  0.713398  0.068318  0.068310  1
  Br  Br16  1  0.856098  0.451409  0.120394  1
  Br  Br17  1  0.135596  0.207414  0.207389  1
  Br  Br18  1  0.284454  0.602465  0.256601  1
  Br  Br19  1  0.418078  0.977389  0.311062  1
  Br  Br20  1  0.715658  0.743831  0.397859  1
  Br  Br21  1  0.856057  0.120374  0.451382  1
  Br  Br22  1  0.999981  0.499845  0.499872  1
  Br  Br23  1  0.143591  0.879387  0.548211  1
  Br  Br24  1  0.284430  0.256603  0.602477  1
  Br  Br25  1  0.582215  0.022658  0.689151  1
  Br  Br26  1  0.715633  0.397821  0.743774  1
  Br  Br27  1  0.864721  0.792764  0.792731  1
  Br  Br28  1  0.143603  0.548190  0.879417  1
  Br  Br29  1  0.286958  0.931433  0.931498  1
  Br  Br30  1  0.418094  0.311093  0.977415  1
