# generated using pymatgen
data_DyHo3Th6(Ge3C)2
_symmetry_space_group_name_H-M   'P 1'
_cell_length_a   8.81249701
_cell_length_b   8.81192266
_cell_length_c   6.40088700
_cell_angle_alpha   90.00108985
_cell_angle_beta   89.99767330
_cell_angle_gamma   119.99677355
_symmetry_Int_Tables_number   1
_chemical_formula_structural   DyHo3Th6(Ge3C)2
_chemical_formula_sum   'Dy1 Ho3 Th6 Ge6 C2'
_cell_volume   430.48157695
_cell_formula_units_Z   1
loop_
 _symmetry_equiv_pos_site_id
 _symmetry_equiv_pos_as_xyz
  1  'x, y, z'
loop_
 _atom_site_type_symbol
 _atom_site_label
 _atom_site_symmetry_multiplicity
 _atom_site_fract_x
 _atom_site_fract_y
 _atom_site_fract_z
 _atom_site_occupancy
  Dy  Dy0  1  0.666649  0.333302  0.500001  1
  Ho  Ho1  1  0.333336  0.666727  0.499984  1
  Ho  Ho2  1  0.333359  0.666822  0.000045  1
  Ho  Ho3  1  0.666648  0.333273  0.000004  1
  Th  Th4  1  0.768584  0.768652  0.249835  1
  Th  Th5  1  0.231276  0.999892  0.249769  1
  Th  Th6  1  0.999989  0.231387  0.249774  1
  Th  Th7  1  0.231393  0.231435  0.750177  1
  Th  Th8  1  0.768677  0.999990  0.750251  1
  Th  Th9  1  0.000140  0.768675  0.750233  1
  Ge  Ge10  1  0.402719  0.403490  0.248805  1
  Ge  Ge11  1  0.596474  0.999217  0.248845  1
  Ge  Ge12  1  0.000723  0.597216  0.248822  1
  Ge  Ge13  1  0.596518  0.597235  0.751157  1
  Ge  Ge14  1  0.402766  0.999254  0.751142  1
  Ge  Ge15  1  0.000765  0.403491  0.751170  1
  C  C16  1  0.999991  0.999969  0.499994  1
  C  C17  1  0.999991  0.999970  0.999991  1
