# generated using pymatgen
data_TbDyLu2Fe3Ru5
_symmetry_space_group_name_H-M   'P 1'
_cell_length_a   5.21945736
_cell_length_b   5.38029641
_cell_length_c   9.04637379
_cell_angle_alpha   72.70010854
_cell_angle_beta   91.92235289
_cell_angle_gamma   121.02470274
_symmetry_Int_Tables_number   1
_chemical_formula_structural   TbDyLu2Fe3Ru5
_chemical_formula_sum   'Tb1 Dy1 Lu2 Fe3 Ru5'
_cell_volume   205.61455437
_cell_formula_units_Z   1
loop_
 _symmetry_equiv_pos_site_id
 _symmetry_equiv_pos_as_xyz
  1  'x, y, z'
loop_
 _atom_site_type_symbol
 _atom_site_label
 _atom_site_symmetry_multiplicity
 _atom_site_fract_x
 _atom_site_fract_y
 _atom_site_fract_z
 _atom_site_occupancy
  Tb  Tb0  1  0.874505  0.749855  0.374795  1
  Dy  Dy1  1  0.500771  0.000143  0.500484  1
  Lu  Lu2  1  0.374930  0.749982  0.874966  1
  Lu  Lu3  1  0.000135  0.000200  0.999738  1
  Fe  Fe4  1  0.687106  0.374839  0.937429  1
  Fe  Fe5  1  0.941788  0.379272  0.183244  1
  Fe  Fe6  1  0.433065  0.370733  0.691598  1
  Ru  Ru7  1  0.441935  0.379788  0.178966  1
  Ru  Ru8  1  0.933101  0.370244  0.696072  1
  Ru  Ru9  1  0.441935  0.883182  0.178966  1
  Ru  Ru10  1  0.933101  0.866783  0.696072  1
  Ru  Ru11  1  0.187626  0.374979  0.437667  1
