# generated using pymatgen
data_Pr3Eu5(CdIr)2
_symmetry_space_group_name_H-M   'P 1'
_cell_length_a   10.24392810
_cell_length_b   10.24737969
_cell_length_c   10.24737858
_cell_angle_alpha   59.97772042
_cell_angle_beta   60.01113937
_cell_angle_gamma   60.01114115
_symmetry_Int_Tables_number   1
_chemical_formula_structural   Pr3Eu5(CdIr)2
_chemical_formula_sum   'Pr6 Eu10 Cd4 Ir4'
_cell_volume   760.63628292
_cell_formula_units_Z   2
loop_
 _symmetry_equiv_pos_site_id
 _symmetry_equiv_pos_as_xyz
  1  'x, y, z'
loop_
 _atom_site_type_symbol
 _atom_site_label
 _atom_site_symmetry_multiplicity
 _atom_site_fract_x
 _atom_site_fract_y
 _atom_site_fract_z
 _atom_site_occupancy
  Pr  Pr0  1  0.344049  0.343351  0.343351  1
  Pr  Pr1  1  0.343351  0.344049  0.969247  1
  Pr  Pr2  1  0.343351  0.969247  0.344049  1
  Pr  Pr3  1  0.969247  0.343351  0.343351  1
  Pr  Pr4  1  0.806086  0.193914  0.193914  1
  Pr  Pr5  1  0.193914  0.806086  0.806086  1
  Eu  Eu6  1  0.192683  0.807317  0.192683  1
  Eu  Eu7  1  0.807317  0.192683  0.807317  1
  Eu  Eu8  1  0.192683  0.192683  0.807317  1
  Eu  Eu9  1  0.807317  0.807317  0.192683  1
  Eu  Eu10  1  0.945323  0.554677  0.554677  1
  Eu  Eu11  1  0.554677  0.945323  0.945323  1
  Eu  Eu12  1  0.556692  0.943308  0.556692  1
  Eu  Eu13  1  0.943308  0.556692  0.943308  1
  Eu  Eu14  1  0.556692  0.556692  0.943308  1
  Eu  Eu15  1  0.943308  0.943308  0.556692  1
  Cd  Cd16  1  0.575885  0.578832  0.578832  1
  Cd  Cd17  1  0.578832  0.575885  0.266452  1
  Cd  Cd18  1  0.578832  0.266452  0.575885  1
  Cd  Cd19  1  0.266452  0.578832  0.578832  1
  Ir  Ir20  1  0.135939  0.143094  0.143094  1
  Ir  Ir21  1  0.143094  0.135939  0.577874  1
  Ir  Ir22  1  0.143094  0.577874  0.135939  1
  Ir  Ir23  1  0.577874  0.143094  0.143094  1
