# generated using pymatgen
data_LaPrY2(SiO5)2
_symmetry_space_group_name_H-M   'P 1'
_cell_length_a   8.16849973
_cell_length_b   8.16849991
_cell_length_c   10.88861093
_cell_angle_alpha   61.13718253
_cell_angle_beta   61.13718276
_cell_angle_gamma   50.34189446
_symmetry_Int_Tables_number   1
_chemical_formula_structural   LaPrY2(SiO5)2
_chemical_formula_sum   'La2 Pr2 Y4 Si4 O20'
_cell_volume   473.13527774
_cell_formula_units_Z   2
loop_
 _symmetry_equiv_pos_site_id
 _symmetry_equiv_pos_as_xyz
  1  'x, y, z'
loop_
 _atom_site_type_symbol
 _atom_site_label
 _atom_site_symmetry_multiplicity
 _atom_site_fract_x
 _atom_site_fract_y
 _atom_site_fract_z
 _atom_site_occupancy
  La  La0  1  0.216350  0.708307  0.965600  1
  La  La1  1  0.291693  0.783650  0.534400  1
  Pr  Pr2  1  0.783338  0.292413  0.034651  1
  Pr  Pr3  1  0.707587  0.216662  0.465349  1
  Y  Y4  1  0.237187  0.476198  0.337739  1
  Y  Y5  1  0.523802  0.762813  0.162261  1
  Y  Y6  1  0.763714  0.522307  0.663275  1
  Y  Y7  1  0.477693  0.236286  0.836725  1
  Si  Si8  1  0.728515  0.903436  0.307031  1
  Si  Si9  1  0.096564  0.271485  0.192969  1
  Si  Si10  1  0.271765  0.097836  0.692824  1
  Si  Si11  1  0.902164  0.728235  0.807176  1
  O  O12  1  0.422632  0.609788  0.109938  1
  O  O13  1  0.390212  0.577368  0.390062  1
  O  O14  1  0.579190  0.387859  0.890271  1
  O  O15  1  0.612141  0.420810  0.609729  1
  O  O16  1  0.867164  0.723332  0.432122  1
  O  O17  1  0.276668  0.132836  0.067878  1
  O  O18  1  0.133199  0.276737  0.567555  1
  O  O19  1  0.723263  0.866801  0.932445  1
  O  O20  1  0.568547  0.841739  0.314776  1
  O  O21  1  0.158261  0.431453  0.185224  1
  O  O22  1  0.433116  0.159387  0.683026  1
  O  O23  1  0.840613  0.566884  0.816974  1
  O  O24  1  0.156618  0.585551  0.824206  1
  O  O25  1  0.414449  0.843382  0.675794  1
  O  O26  1  0.842649  0.413023  0.175061  1
  O  O27  1  0.586977  0.157351  0.324939  1
  O  O28  1  0.906341  0.906633  0.647366  1
  O  O29  1  0.093367  0.093659  0.852634  1
  O  O30  1  0.088861  0.094640  0.353244  1
  O  O31  1  0.905360  0.911139  0.146756  1
