# generated using pymatgen
data_Ca4TbLu3Cd8
_symmetry_space_group_name_H-M   'P 1'
_cell_length_a   7.54832100
_cell_length_b   7.53094100
_cell_length_c   7.46204600
_cell_angle_alpha   90.00000000
_cell_angle_beta   90.00068315
_cell_angle_gamma   90.00000000
_symmetry_Int_Tables_number   1
_chemical_formula_structural   Ca4TbLu3Cd8
_chemical_formula_sum   'Ca4 Tb1 Lu3 Cd8'
_cell_volume   424.18716918
_cell_formula_units_Z   1
loop_
 _symmetry_equiv_pos_site_id
 _symmetry_equiv_pos_as_xyz
  1  'x, y, z'
loop_
 _atom_site_type_symbol
 _atom_site_label
 _atom_site_symmetry_multiplicity
 _atom_site_fract_x
 _atom_site_fract_y
 _atom_site_fract_z
 _atom_site_occupancy
  Ca  Ca0  1  0.749679  0.250019  0.000148  1
  Ca  Ca1  1  0.250060  0.749964  0.499753  1
  Ca  Ca2  1  0.749947  0.250049  0.500192  1
  Ca  Ca3  1  0.250371  0.749995  0.999888  1
  Tb  Tb4  1  0.250565  0.249994  0.000003  1
  Lu  Lu5  1  0.749561  0.750006  0.000004  1
  Lu  Lu6  1  0.750476  0.749990  0.499994  1
  Lu  Lu7  1  0.249541  0.250008  0.499985  1
  Cd  Cd8  1  0.999041  0.501086  0.249931  1
  Cd  Cd9  1  0.999057  0.998922  0.249939  1
  Cd  Cd10  1  0.501093  0.999017  0.252158  1
  Cd  Cd11  1  0.501098  0.500959  0.252160  1
  Cd  Cd12  1  0.500908  0.501094  0.747844  1
  Cd  Cd13  1  0.500921  0.998898  0.747855  1
  Cd  Cd14  1  0.998844  0.999038  0.750076  1
  Cd  Cd15  1  0.998838  0.500967  0.750071  1
