# generated using pymatgen
data_La4Tb2Al24Ru5Pt3
_symmetry_space_group_name_H-M   'P 1'
_cell_length_a   8.93083964
_cell_length_b   8.92246974
_cell_length_c   9.67744817
_cell_angle_alpha   90.06854799
_cell_angle_beta   89.97738273
_cell_angle_gamma   119.48644972
_symmetry_Int_Tables_number   1
_chemical_formula_structural   La4Tb2Al24Ru5Pt3
_chemical_formula_sum   'La4 Tb2 Al24 Ru5 Pt3'
_cell_volume   671.26310555
_cell_formula_units_Z   1
loop_
 _symmetry_equiv_pos_site_id
 _symmetry_equiv_pos_as_xyz
  1  'x, y, z'
loop_
 _atom_site_type_symbol
 _atom_site_label
 _atom_site_symmetry_multiplicity
 _atom_site_fract_x
 _atom_site_fract_y
 _atom_site_fract_z
 _atom_site_occupancy
  La  La0  1  0.379330  0.188239  0.250147  1
  La  La1  1  0.810352  0.190271  0.250283  1
  La  La2  1  0.810606  0.618034  0.249072  1
  La  La3  1  0.621464  0.811716  0.749623  1
  Tb  Tb4  1  0.190841  0.806801  0.750045  1
  Tb  Tb5  1  0.189151  0.385690  0.751291  1
  Al  Al6  1  0.434292  0.869532  0.245781  1
  Al  Al7  1  0.127182  0.562495  0.250423  1
  Al  Al8  1  0.432741  0.563954  0.250504  1
  Al  Al9  1  0.560710  0.126077  0.752848  1
  Al  Al10  1  0.879298  0.441154  0.749858  1
  Al  Al11  1  0.562536  0.435172  0.749453  1
  Al  Al12  1  0.159403  0.831044  0.424862  1
  Al  Al13  1  0.159140  0.326732  0.428194  1
  Al  Al14  1  0.674674  0.836103  0.425165  1
  Al  Al15  1  0.844914  0.170382  0.581907  1
  Al  Al16  1  0.844730  0.675830  0.578582  1
  Al  Al17  1  0.321785  0.162294  0.579293  1
  Al  Al18  1  0.838627  0.165989  0.919818  1
  Al  Al19  1  0.843758  0.675033  0.922542  1
  Al  Al20  1  0.322725  0.157172  0.922938  1
  Al  Al21  1  0.164390  0.834868  0.073249  1
  Al  Al22  1  0.159866  0.327265  0.070733  1
  Al  Al23  1  0.673441  0.840694  0.072298  1
  Al  Al24  1  0.325211  0.663225  0.529641  1
  Al  Al25  1  0.672002  0.335097  0.484310  1
  Al  Al26  1  0.669539  0.329895  0.015302  1
  Al  Al27  1  0.327843  0.668849  0.971795  1
  Al  Al28  1  0.003516  0.997841  0.250061  1
  Al  Al29  1  0.003654  0.005386  0.750321  1
  Ru  Ru30  1  0.000807  0.000394  0.501334  1
  Ru  Ru31  1  0.000459  0.000305  0.998954  1
  Ru  Ru32  1  0.001195  0.500805  0.502516  1
  Ru  Ru33  1  0.497529  0.998500  0.997763  1
  Ru  Ru34  1  0.001076  0.500645  0.997539  1
  Pt  Pt35  1  0.497148  0.997690  0.501865  1
  Pt  Pt36  1  0.497116  0.499455  0.502052  1
  Pt  Pt37  1  0.496951  0.499370  0.997636  1
