# generated using pymatgen
data_SrP12IrRu3
_symmetry_space_group_name_H-M   'P 1'
_cell_length_a   7.03139608
_cell_length_b   7.03139603
_cell_length_c   7.03139623
_cell_angle_alpha   109.41757613
_cell_angle_beta   109.41758622
_cell_angle_gamma   109.41758406
_symmetry_Int_Tables_number   1
_chemical_formula_structural   SrP12IrRu3
_chemical_formula_sum   'Sr1 P12 Ir1 Ru3'
_cell_volume   268.14042076
_cell_formula_units_Z   1
loop_
 _symmetry_equiv_pos_site_id
 _symmetry_equiv_pos_as_xyz
  1  'x, y, z'
loop_
 _atom_site_type_symbol
 _atom_site_label
 _atom_site_symmetry_multiplicity
 _atom_site_fract_x
 _atom_site_fract_y
 _atom_site_fract_z
 _atom_site_occupancy
  Sr  Sr0  1  0.000000  0.000000  0.000000  1
  P  P1  1  0.358124  0.215061  0.856429  1
  P  P2  1  0.641876  0.784939  0.143571  1
  P  P3  1  0.643063  0.498643  0.860252  1
  P  P4  1  0.356937  0.501357  0.139748  1
  P  P5  1  0.215061  0.856429  0.358124  1
  P  P6  1  0.784939  0.143571  0.641876  1
  P  P7  1  0.498643  0.860252  0.643063  1
  P  P8  1  0.501357  0.139748  0.356937  1
  P  P9  1  0.856429  0.358124  0.215061  1
  P  P10  1  0.143571  0.641876  0.784939  1
  P  P11  1  0.860252  0.643063  0.498643  1
  P  P12  1  0.139748  0.356937  0.501357  1
  Ir  Ir13  1  0.500000  0.500000  0.500000  1
  Ru  Ru14  1  0.000000  0.000000  0.500000  1
  Ru  Ru15  1  0.500000  0.000000  0.000000  1
  Ru  Ru16  1  0.000000  0.500000  0.000000  1
