# generated using pymatgen
data_Lu3B7Mo
_symmetry_space_group_name_H-M   'P 1'
_cell_length_a   8.01187908
_cell_length_b   8.01187895
_cell_length_c   9.35679600
_cell_angle_alpha   90.00000000
_cell_angle_beta   90.00000000
_cell_angle_gamma   155.48375799
_symmetry_Int_Tables_number   1
_chemical_formula_structural   Lu3B7Mo
_chemical_formula_sum   'Lu6 B14 Mo2'
_cell_volume   249.22576002
_cell_formula_units_Z   2
loop_
 _symmetry_equiv_pos_site_id
 _symmetry_equiv_pos_as_xyz
  1  'x, y, z'
loop_
 _atom_site_type_symbol
 _atom_site_label
 _atom_site_symmetry_multiplicity
 _atom_site_fract_x
 _atom_site_fract_y
 _atom_site_fract_z
 _atom_site_occupancy
  Lu  Lu0  1  0.255263  0.744737  0.250000  1
  Lu  Lu1  1  0.744737  0.255263  0.750000  1
  Lu  Lu2  1  0.607285  0.392715  0.060145  1
  Lu  Lu3  1  0.392715  0.607285  0.939855  1
  Lu  Lu4  1  0.392715  0.607285  0.560145  1
  Lu  Lu5  1  0.607285  0.392715  0.439855  1
  B  B6  1  0.981597  0.018403  0.090680  1
  B  B7  1  0.018403  0.981597  0.909320  1
  B  B8  1  0.018403  0.981597  0.590680  1
  B  B9  1  0.981597  0.018403  0.409320  1
  B  B10  1  0.771630  0.228370  0.033746  1
  B  B11  1  0.228370  0.771630  0.966254  1
  B  B12  1  0.228370  0.771630  0.533746  1
  B  B13  1  0.771630  0.228370  0.466254  1
  B  B14  1  0.864513  0.135487  0.147164  1
  B  B15  1  0.135487  0.864513  0.852836  1
  B  B16  1  0.135487  0.864513  0.647164  1
  B  B17  1  0.864513  0.135487  0.352836  1
  B  B18  1  0.048941  0.951059  0.250000  1
  B  B19  1  0.951059  0.048941  0.750000  1
  Mo  Mo20  1  0.447340  0.552660  0.250000  1
  Mo  Mo21  1  0.552660  0.447340  0.750000  1
