# generated using pymatgen
data_ErTh(PPd)2
_symmetry_space_group_name_H-M   'P 1'
_cell_length_a   4.18646500
_cell_length_b   4.18646521
_cell_length_c   15.36162500
_cell_angle_alpha   90.00000000
_cell_angle_beta   90.00000000
_cell_angle_gamma   120.00000621
_symmetry_Int_Tables_number   1
_chemical_formula_structural   ErTh(PPd)2
_chemical_formula_sum   'Er2 Th2 P4 Pd4'
_cell_volume   233.16465398
_cell_formula_units_Z   2
loop_
 _symmetry_equiv_pos_site_id
 _symmetry_equiv_pos_as_xyz
  1  'x, y, z'
loop_
 _atom_site_type_symbol
 _atom_site_label
 _atom_site_symmetry_multiplicity
 _atom_site_fract_x
 _atom_site_fract_y
 _atom_site_fract_z
 _atom_site_occupancy
  Er  Er0  1  0.000000  0.000000  0.250000  1
  Er  Er1  1  0.000000  0.000000  0.750000  1
  Th  Th2  1  0.000000  0.000000  0.500000  1
  Th  Th3  1  0.000000  0.000000  0.000000  1
  P  P4  1  0.333333  0.666667  0.881341  1
  P  P5  1  0.666667  0.333333  0.118659  1
  P  P6  1  0.666667  0.333333  0.381341  1
  P  P7  1  0.333333  0.666667  0.618659  1
  Pd  Pd8  1  0.333333  0.666667  0.357273  1
  Pd  Pd9  1  0.666667  0.333333  0.642727  1
  Pd  Pd10  1  0.666667  0.333333  0.857273  1
  Pd  Pd11  1  0.333333  0.666667  0.142727  1
