# generated using pymatgen
data_Tm2Si2Ge2Mo3
_symmetry_space_group_name_H-M   'P 1'
_cell_length_a   6.93852200
_cell_length_b   6.77916095
_cell_length_c   6.93707128
_cell_angle_alpha   70.78182551
_cell_angle_beta   90.00000000
_cell_angle_gamma   90.00000000
_symmetry_Int_Tables_number   1
_chemical_formula_structural   Tm2Si2Ge2Mo3
_chemical_formula_sum   'Tm4 Si4 Ge4 Mo6'
_cell_volume   308.11737250
_cell_formula_units_Z   2
loop_
 _symmetry_equiv_pos_site_id
 _symmetry_equiv_pos_as_xyz
  1  'x, y, z'
loop_
 _atom_site_type_symbol
 _atom_site_label
 _atom_site_symmetry_multiplicity
 _atom_site_fract_x
 _atom_site_fract_y
 _atom_site_fract_z
 _atom_site_occupancy
  Tm  Tm0  1  0.327738  0.559112  0.804539  1
  Tm  Tm1  1  0.827738  0.940888  0.195461  1
  Tm  Tm2  1  0.672262  0.440888  0.195461  1
  Tm  Tm3  1  0.172262  0.059112  0.804539  1
  Si  Si4  1  0.131738  0.871784  0.495129  1
  Si  Si5  1  0.631738  0.628216  0.504871  1
  Si  Si6  1  0.868262  0.128216  0.504871  1
  Si  Si7  1  0.368262  0.371784  0.495129  1
  Ge  Ge8  1  0.545185  0.856182  0.910934  1
  Ge  Ge9  1  0.045185  0.643818  0.089066  1
  Ge  Ge10  1  0.454815  0.143818  0.089066  1
  Ge  Ge11  1  0.954815  0.356182  0.910934  1
  Mo  Mo12  1  0.500000  0.000000  0.500000  1
  Mo  Mo13  1  0.000000  0.500000  0.500000  1
  Mo  Mo14  1  0.841555  0.749575  0.742936  1
  Mo  Mo15  1  0.341555  0.750425  0.257064  1
  Mo  Mo16  1  0.158445  0.250425  0.257064  1
  Mo  Mo17  1  0.658445  0.249575  0.742936  1
