# generated using pymatgen
data_TbY(Ga4Ni)2
_symmetry_space_group_name_H-M   'P 1'
_cell_length_a   7.93808821
_cell_length_b   7.93808900
_cell_length_c   6.60163000
_cell_angle_alpha   90.00000000
_cell_angle_beta   90.00000000
_cell_angle_gamma   150.11839162
_symmetry_Int_Tables_number   1
_chemical_formula_structural   TbY(Ga4Ni)2
_chemical_formula_sum   'Tb1 Y1 Ga8 Ni2'
_cell_volume   207.25022999
_cell_formula_units_Z   1
loop_
 _symmetry_equiv_pos_site_id
 _symmetry_equiv_pos_as_xyz
  1  'x, y, z'
loop_
 _atom_site_type_symbol
 _atom_site_label
 _atom_site_symmetry_multiplicity
 _atom_site_fract_x
 _atom_site_fract_y
 _atom_site_fract_z
 _atom_site_occupancy
  Tb  Tb0  1  0.381643  0.618357  0.750000  1
  Y  Y1  1  0.618193  0.381807  0.250000  1
  Ga  Ga2  1  0.999970  0.000030  0.000049  1
  Ga  Ga3  1  0.999970  0.000030  0.499951  1
  Ga  Ga4  1  0.571035  0.428965  0.750000  1
  Ga  Ga5  1  0.429002  0.570998  0.250000  1
  Ga  Ga6  1  0.185279  0.814721  0.948207  1
  Ga  Ga7  1  0.814720  0.185280  0.052044  1
  Ga  Ga8  1  0.185279  0.814721  0.551793  1
  Ga  Ga9  1  0.814720  0.185280  0.447956  1
  Ni  Ni10  1  0.724294  0.275706  0.750000  1
  Ni  Ni11  1  0.275894  0.724106  0.250000  1
