# generated using pymatgen
data_Ca2Ga3Ir
_symmetry_space_group_name_H-M   'P 1'
_cell_length_a   5.56280300
_cell_length_b   5.56280263
_cell_length_c   8.69363200
_cell_angle_alpha   90.00000000
_cell_angle_beta   90.00000000
_cell_angle_gamma   120.00000814
_symmetry_Int_Tables_number   1
_chemical_formula_structural   Ca2Ga3Ir
_chemical_formula_sum   'Ca4 Ga6 Ir2'
_cell_volume   232.98028936
_cell_formula_units_Z   2
loop_
 _symmetry_equiv_pos_site_id
 _symmetry_equiv_pos_as_xyz
  1  'x, y, z'
loop_
 _atom_site_type_symbol
 _atom_site_label
 _atom_site_symmetry_multiplicity
 _atom_site_fract_x
 _atom_site_fract_y
 _atom_site_fract_z
 _atom_site_occupancy
  Ca  Ca0  1  0.333333  0.666667  0.448108  1
  Ca  Ca1  1  0.666667  0.333333  0.948108  1
  Ca  Ca2  1  0.333333  0.666667  0.051892  1
  Ca  Ca3  1  0.666667  0.333333  0.551892  1
  Ga  Ga4  1  0.837384  0.674767  0.250000  1
  Ga  Ga5  1  0.837384  0.162616  0.250000  1
  Ga  Ga6  1  0.162616  0.837384  0.750000  1
  Ga  Ga7  1  0.325233  0.162616  0.250000  1
  Ga  Ga8  1  0.674767  0.837384  0.750000  1
  Ga  Ga9  1  0.162616  0.325233  0.750000  1
  Ir  Ir10  1  0.000000  0.000000  0.000000  1
  Ir  Ir11  1  0.000000  0.000000  0.500000  1
