# generated using pymatgen
data_Ca10AsP5CO27
_symmetry_space_group_name_H-M   'P 1'
_cell_length_a   6.91146875
_cell_length_b   9.50013553
_cell_length_c   9.84128671
_cell_angle_alpha   117.79731589
_cell_angle_beta   89.86096187
_cell_angle_gamma   90.96445681
_symmetry_Int_Tables_number   1
_chemical_formula_structural   Ca10AsP5CO27
_chemical_formula_sum   'Ca10 As1 P5 C1 O27'
_cell_volume   571.51898356
_cell_formula_units_Z   1
loop_
 _symmetry_equiv_pos_site_id
 _symmetry_equiv_pos_as_xyz
  1  'x, y, z'
loop_
 _atom_site_type_symbol
 _atom_site_label
 _atom_site_symmetry_multiplicity
 _atom_site_fract_x
 _atom_site_fract_y
 _atom_site_fract_z
 _atom_site_occupancy
  Ca  Ca0  1  0.019279  0.333199  0.677822  1
  Ca  Ca1  1  0.493162  0.676071  0.348697  1
  Ca  Ca2  1  0.987588  0.677386  0.322500  1
  Ca  Ca3  1  0.514937  0.328164  0.655586  1
  Ca  Ca4  1  0.244065  0.026976  0.264421  1
  Ca  Ca5  1  0.762330  0.982712  0.723907  1
  Ca  Ca6  1  0.251744  0.723201  0.717079  1
  Ca  Ca7  1  0.254865  0.244188  0.998396  1
  Ca  Ca8  1  0.759225  0.736574  0.981628  1
  Ca  Ca9  1  0.760453  0.279673  0.270535  1
  As  As10  1  0.257926  0.637929  0.033593  1
  P  P11  1  0.760394  0.357896  0.966678  1
  P  P12  1  0.253013  0.969593  0.593997  1
  P  P13  1  0.257025  0.404288  0.380200  1
  P  P14  1  0.759824  0.593857  0.621975  1
  P  P15  1  0.744648  0.031654  0.404571  1
  C  C16  1  0.491718  0.002726  0.998403  1
  O  O17  1  0.255837  0.518317  0.838261  1
  O  O18  1  0.767863  0.467075  0.144031  1
  O  O19  1  0.267032  0.154020  0.670632  1
  O  O20  1  0.249392  0.337569  0.498096  1
  O  O21  1  0.758286  0.668428  0.511274  1
  O  O22  1  0.739013  0.849237  0.347085  1
  O  O23  1  0.250058  0.529020  0.133939  1
  O  O24  1  0.773542  0.458196  0.877288  1
  O  O25  1  0.217296  0.892542  0.415946  1
  O  O26  1  0.180262  0.577900  0.453339  1
  O  O27  1  0.800855  0.411229  0.535753  1
  O  O28  1  0.802988  0.119104  0.579768  1
  O  O29  1  0.061554  0.761625  0.097457  1
  O  O30  1  0.571388  0.256032  0.911718  1
  O  O31  1  0.086154  0.917041  0.666537  1
  O  O32  1  0.127462  0.291557  0.239985  1
  O  O33  1  0.562238  0.609458  0.702986  1
  O  O34  1  0.545027  0.099824  0.399539  1
  O  O35  1  0.933843  0.241105  0.914116  1
  O  O36  1  0.458352  0.760026  0.099408  1
  O  O37  1  0.893195  0.071775  0.308271  1
  O  O38  1  0.919241  0.675199  0.747864  1
  O  O39  1  0.466644  0.418527  0.333436  1
  O  O40  1  0.442823  0.894120  0.614195  1
  O  O41  1  0.498455  0.118416  0.135500  1
  O  O42  1  0.649561  0.938072  0.926684  1
  O  O43  1  0.319943  0.958295  0.936708  1
