# generated using pymatgen
data_Ca3Dy(TcB4)4
_symmetry_space_group_name_H-M   'P 1'
_cell_length_a   3.57690500
_cell_length_b   6.00569607
_cell_length_c   11.60848009
_cell_angle_alpha   89.97280297
_cell_angle_beta   90.00000000
_cell_angle_gamma   90.00000000
_symmetry_Int_Tables_number   1
_chemical_formula_structural   Ca3Dy(TcB4)4
_chemical_formula_sum   'Ca3 Dy1 Tc4 B16'
_cell_volume   249.37106945
_cell_formula_units_Z   1
loop_
 _symmetry_equiv_pos_site_id
 _symmetry_equiv_pos_as_xyz
  1  'x, y, z'
loop_
 _atom_site_type_symbol
 _atom_site_label
 _atom_site_symmetry_multiplicity
 _atom_site_fract_x
 _atom_site_fract_y
 _atom_site_fract_z
 _atom_site_occupancy
  Ca  Ca0  1  0.000000  0.627497  0.349764  1
  Ca  Ca1  1  0.000000  0.373035  0.649321  1
  Ca  Ca2  1  0.000000  0.127684  0.151533  1
  Dy  Dy3  1  0.000000  0.871596  0.849214  1
  Tc  Tc4  1  0.000000  0.630947  0.082313  1
  Tc  Tc5  1  0.000000  0.370883  0.915672  1
  Tc  Tc6  1  0.000000  0.129945  0.417416  1
  Tc  Tc7  1  0.000000  0.871262  0.583685  1
  B  B8  1  0.500000  0.784070  0.184980  1
  B  B9  1  0.500000  0.214669  0.815342  1
  B  B10  1  0.500000  0.284965  0.315347  1
  B  B11  1  0.500000  0.714768  0.684891  1
  B  B12  1  0.500000  0.864284  0.031648  1
  B  B13  1  0.500000  0.135370  0.968039  1
  B  B14  1  0.500000  0.365094  0.467897  1
  B  B15  1  0.500000  0.634589  0.532166  1
  B  B16  1  0.500000  0.886088  0.453095  1
  B  B17  1  0.500000  0.113316  0.547623  1
  B  B18  1  0.500000  0.386108  0.047403  1
  B  B19  1  0.500000  0.612200  0.952538  1
  B  B20  1  0.500000  0.977291  0.307540  1
  B  B21  1  0.500000  0.023012  0.692768  1
  B  B22  1  0.500000  0.477549  0.192382  1
  B  B23  1  0.500000  0.523778  0.807428  1
