# generated using pymatgen
data_MgSi6Ag6(SnP4)3
_symmetry_space_group_name_H-M   'P 1'
_cell_length_a   8.97581028
_cell_length_b   9.03451786
_cell_length_c   9.03451782
_cell_angle_alpha   109.60248277
_cell_angle_beta   109.33964093
_cell_angle_gamma   109.33963574
_symmetry_Int_Tables_number   1
_chemical_formula_structural   MgSi6Ag6(SnP4)3
_chemical_formula_sum   'Mg1 Si6 Ag6 Sn3 P12'
_cell_volume   564.89067379
_cell_formula_units_Z   1
loop_
 _symmetry_equiv_pos_site_id
 _symmetry_equiv_pos_as_xyz
  1  'x, y, z'
loop_
 _atom_site_type_symbol
 _atom_site_label
 _atom_site_symmetry_multiplicity
 _atom_site_fract_x
 _atom_site_fract_y
 _atom_site_fract_z
 _atom_site_occupancy
  Mg  Mg0  1  0.407583  0.000000  0.000000  1
  Si  Si1  1  0.751531  0.497243  0.251537  1
  Si  Si2  1  0.499994  0.748463  0.245706  1
  Si  Si3  1  0.751531  0.251537  0.497243  1
  Si  Si4  1  0.254288  0.754294  0.502757  1
  Si  Si5  1  0.499994  0.245706  0.748463  1
  Si  Si6  1  0.254288  0.502757  0.754294  1
  Ag  Ag7  1  0.199999  0.197814  0.000000  1
  Ag  Ag8  1  0.794688  0.796470  0.000000  1
  Ag  Ag9  1  0.199999  0.000000  0.197814  1
  Ag  Ag10  1  0.998218  0.203530  0.203530  1
  Ag  Ag11  1  0.794688  0.000000  0.796470  1
  Ag  Ag12  1  0.002185  0.802186  0.802186  1
  Sn  Sn13  1  0.002881  0.408212  0.000000  1
  Sn  Sn14  1  0.002881  0.000000  0.408212  1
  Sn  Sn15  1  0.594668  0.591788  0.591788  1
  P  P16  1  0.753267  0.497121  0.000000  1
  P  P17  1  0.497040  0.756532  0.000000  1
  P  P18  1  0.740508  0.243468  0.243468  1
  P  P19  1  0.246481  0.746634  0.246150  1
  P  P20  1  0.499847  0.499516  0.253366  1
  P  P21  1  0.499847  0.253366  0.499516  1
  P  P22  1  0.256146  0.502879  0.502879  1
  P  P23  1  0.753267  0.000000  0.497121  1
  P  P24  1  0.000331  0.753850  0.500484  1
  P  P25  1  0.246481  0.246150  0.746634  1
  P  P26  1  0.497040  0.000000  0.756532  1
  P  P27  1  0.000331  0.500484  0.753850  1
