# generated using pymatgen
data_LaTlBi2(SbO4)4
_symmetry_space_group_name_H-M   'P 1'
_cell_length_a   5.24116906
_cell_length_b   5.28165036
_cell_length_c   13.78614108
_cell_angle_alpha   68.61434165
_cell_angle_beta   90.01730107
_cell_angle_gamma   90.14303563
_symmetry_Int_Tables_number   1
_chemical_formula_structural   LaTlBi2(SbO4)4
_chemical_formula_sum   'La1 Tl1 Bi2 Sb4 O16'
_cell_volume   355.35087826
_cell_formula_units_Z   1
loop_
 _symmetry_equiv_pos_site_id
 _symmetry_equiv_pos_as_xyz
  1  'x, y, z'
loop_
 _atom_site_type_symbol
 _atom_site_label
 _atom_site_symmetry_multiplicity
 _atom_site_fract_x
 _atom_site_fract_y
 _atom_site_fract_z
 _atom_site_occupancy
  La  La0  1  0.267839  0.337056  0.166387  1
  Tl  Tl1  1  0.246487  0.336367  0.668115  1
  Bi  Bi2  1  0.758997  0.662977  0.328437  1
  Bi  Bi3  1  0.742370  0.676895  0.826167  1
  Sb  Sb4  1  0.746773  0.929454  0.065390  1
  Sb  Sb5  1  0.752391  0.924000  0.570824  1
  Sb  Sb6  1  0.247838  0.086150  0.926772  1
  Sb  Sb7  1  0.252829  0.062111  0.435233  1
  O  O8  1  0.431143  0.754649  0.034123  1
  O  O9  1  0.069514  0.728488  0.547461  1
  O  O10  1  0.556041  0.261471  0.964677  1
  O  O11  1  0.937198  0.238635  0.462962  1
  O  O12  1  0.605741  0.009044  0.184728  1
  O  O13  1  0.901498  0.022294  0.685132  1
  O  O14  1  0.399637  0.995593  0.812350  1
  O  O15  1  0.106746  0.967743  0.320953  1
  O  O16  1  0.061836  0.160427  0.046381  1
  O  O17  1  0.434273  0.158607  0.551027  1
  O  O18  1  0.934065  0.849369  0.948735  1
  O  O19  1  0.570061  0.835480  0.455115  1
  O  O20  1  0.876298  0.592448  0.173867  1
  O  O21  1  0.603769  0.600474  0.680174  1
  O  O22  1  0.106260  0.416066  0.818812  1
  O  O23  1  0.390396  0.394203  0.326179  1
