# generated using pymatgen
data_DyEr5SbRuO14
_symmetry_space_group_name_H-M   'P 1'
_cell_length_a   6.41011157
_cell_length_b   6.41011254
_cell_length_c   7.42858928
_cell_angle_alpha   90.26612678
_cell_angle_beta   89.73387063
_cell_angle_gamma   109.18727221
_symmetry_Int_Tables_number   1
_chemical_formula_structural   DyEr5SbRuO14
_chemical_formula_sum   'Dy1 Er5 Sb1 Ru1 O14'
_cell_volume   288.27649573
_cell_formula_units_Z   1
loop_
 _symmetry_equiv_pos_site_id
 _symmetry_equiv_pos_as_xyz
  1  'x, y, z'
loop_
 _atom_site_type_symbol
 _atom_site_label
 _atom_site_symmetry_multiplicity
 _atom_site_fract_x
 _atom_site_fract_y
 _atom_site_fract_z
 _atom_site_occupancy
  Dy  Dy0  1  0.492436  0.492436  0.000000  1
  Er  Er1  1  0.000469  0.466113  0.745531  1
  Er  Er2  1  0.000654  0.534290  0.249271  1
  Er  Er3  1  0.534290  0.000654  0.750729  1
  Er  Er4  1  0.466113  0.000469  0.254469  1
  Er  Er5  1  0.523568  0.523568  0.500000  1
  Sb  Sb6  1  0.999903  0.999903  0.000000  1
  Ru  Ru7  1  0.000681  0.000681  0.500000  1
  O  O8  1  0.638225  0.361771  0.745924  1
  O  O9  1  0.361771  0.638225  0.254076  1
  O  O10  1  0.927033  0.073027  0.748709  1
  O  O11  1  0.073027  0.927033  0.251291  1
  O  O12  1  0.920169  0.674753  0.528158  1
  O  O13  1  0.075820  0.326154  0.028230  1
  O  O14  1  0.326154  0.075820  0.971770  1
  O  O15  1  0.674753  0.920169  0.471842  1
  O  O16  1  0.368969  0.631443  0.747826  1
  O  O17  1  0.631443  0.368969  0.252174  1
  O  O18  1  0.930240  0.676450  0.968040  1
  O  O19  1  0.063653  0.314177  0.465045  1
  O  O20  1  0.314177  0.063653  0.534955  1
  O  O21  1  0.676450  0.930240  0.031960  1
