# generated using pymatgen
data_Nd3Lu3Fe2(Co4P3)4
_symmetry_space_group_name_H-M   'P 1'
_cell_length_a   3.70592500
_cell_length_b   10.54284358
_cell_length_c   12.21004967
_cell_angle_alpha   89.96207390
_cell_angle_beta   90.00000000
_cell_angle_gamma   90.00000000
_symmetry_Int_Tables_number   1
_chemical_formula_structural   Nd3Lu3Fe2(Co4P3)4
_chemical_formula_sum   'Nd3 Lu3 Fe2 Co16 P12'
_cell_volume   477.05859450
_cell_formula_units_Z   1
loop_
 _symmetry_equiv_pos_site_id
 _symmetry_equiv_pos_as_xyz
  1  'x, y, z'
loop_
 _atom_site_type_symbol
 _atom_site_label
 _atom_site_symmetry_multiplicity
 _atom_site_fract_x
 _atom_site_fract_y
 _atom_site_fract_z
 _atom_site_occupancy
  Nd  Nd0  1  0.000000  0.500641  0.521148  1
  Nd  Nd1  1  0.500000  0.999999  0.477470  1
  Nd  Nd2  1  0.000000  0.318583  0.795057  1
  Lu  Lu3  1  0.500000  0.818184  0.205451  1
  Lu  Lu4  1  0.500000  0.181096  0.202870  1
  Lu  Lu5  1  0.000000  0.683558  0.796616  1
  Fe  Fe6  1  0.500000  0.501051  0.155459  1
  Fe  Fe7  1  0.000000  0.998312  0.845591  1
  Co  Co8  1  0.500000  0.505343  0.705813  1
  Co  Co9  1  0.000000  0.998909  0.293692  1
  Co  Co10  1  0.000000  0.502489  0.989183  1
  Co  Co11  1  0.500000  0.997727  0.015689  1
  Co  Co12  1  0.500000  0.332843  0.997106  1
  Co  Co13  1  0.500000  0.669337  0.996087  1
  Co  Co14  1  0.000000  0.164839  0.007963  1
  Co  Co15  1  0.000000  0.832496  0.007117  1
  Co  Co16  1  0.500000  0.296045  0.424886  1
  Co  Co17  1  0.500000  0.704935  0.428944  1
  Co  Co18  1  0.000000  0.203505  0.566401  1
  Co  Co19  1  0.000000  0.796458  0.571602  1
  Co  Co20  1  0.500000  0.877673  0.713381  1
  Co  Co21  1  0.500000  0.118286  0.709829  1
  Co  Co22  1  0.000000  0.621692  0.288133  1
  Co  Co23  1  0.000000  0.378241  0.285522  1
  P  P24  1  0.500000  0.504458  0.885677  1
  P  P25  1  0.000000  0.998538  0.118482  1
  P  P26  1  0.500000  0.499728  0.337935  1
  P  P27  1  0.000000  0.000052  0.661551  1
  P  P28  1  0.500000  0.306503  0.612290  1
  P  P29  1  0.500000  0.693317  0.618996  1
  P  P30  1  0.000000  0.191174  0.378235  1
  P  P31  1  0.000000  0.808000  0.381419  1
  P  P32  1  0.500000  0.846018  0.893754  1
  P  P33  1  0.500000  0.149424  0.895550  1
  P  P34  1  0.000000  0.655351  0.108786  1
  P  P35  1  0.000000  0.345195  0.106317  1
