# generated using pymatgen
data_ScAlCu5
_symmetry_space_group_name_H-M   'P 1'
_cell_length_a   5.06256632
_cell_length_b   5.06256657
_cell_length_c   5.06256722
_cell_angle_alpha   103.20957077
_cell_angle_beta   103.20957792
_cell_angle_gamma   122.88624309
_symmetry_Int_Tables_number   1
_chemical_formula_structural   ScAlCu5
_chemical_formula_sum   'Sc1 Al1 Cu5'
_cell_volume   95.70322622
_cell_formula_units_Z   1
loop_
 _symmetry_equiv_pos_site_id
 _symmetry_equiv_pos_as_xyz
  1  'x, y, z'
loop_
 _atom_site_type_symbol
 _atom_site_label
 _atom_site_symmetry_multiplicity
 _atom_site_fract_x
 _atom_site_fract_y
 _atom_site_fract_z
 _atom_site_occupancy
  Sc  Sc0  1  0.000000  0.000000  0.000000  1
  Al  Al1  1  0.250000  0.750000  0.500000  1
  Cu  Cu2  1  0.693980  0.306020  0.000000  1
  Cu  Cu3  1  0.306020  0.693980  0.000000  1
  Cu  Cu4  1  0.306020  0.306020  0.612041  1
  Cu  Cu5  1  0.693980  0.693980  0.387959  1
  Cu  Cu6  1  0.750000  0.250000  0.500000  1
