# generated using pymatgen
data_Ta7Nb(VSi3)2
_symmetry_space_group_name_H-M   'P 1'
_cell_length_a   7.53617634
_cell_length_b   7.53617591
_cell_length_c   7.53354421
_cell_angle_alpha   129.46696150
_cell_angle_beta   129.46695532
_cell_angle_gamma   74.25406625
_symmetry_Int_Tables_number   1
_chemical_formula_structural   Ta7Nb(VSi3)2
_chemical_formula_sum   'Ta7 Nb1 V2 Si6'
_cell_volume   248.59456986
_cell_formula_units_Z   1
loop_
 _symmetry_equiv_pos_site_id
 _symmetry_equiv_pos_as_xyz
  1  'x, y, z'
loop_
 _atom_site_type_symbol
 _atom_site_label
 _atom_site_symmetry_multiplicity
 _atom_site_fract_x
 _atom_site_fract_y
 _atom_site_fract_z
 _atom_site_occupancy
  Ta  Ta0  1  0.684362  0.184362  0.168729  1
  Ta  Ta1  1  0.515722  0.684715  0.500312  1
  Ta  Ta2  1  0.184715  0.015722  0.500312  1
  Ta  Ta3  1  0.984508  0.484508  0.169031  1
  Ta  Ta4  1  0.315058  0.815058  0.830655  1
  Ta  Ta5  1  0.483916  0.315068  0.499654  1
  Ta  Ta6  1  0.815068  0.983916  0.499654  1
  Nb  Nb7  1  0.016491  0.516491  0.831766  1
  V  V8  1  0.999967  0.000616  0.000073  1
  V  V9  1  0.500616  0.499967  0.000073  1
  Si  Si10  1  0.749853  0.749969  0.999930  1
  Si  Si11  1  0.249969  0.249853  0.999930  1
  Si  Si12  1  0.633524  0.133524  0.766973  1
  Si  Si13  1  0.366382  0.866382  0.233113  1
  Si  Si14  1  0.133383  0.366467  0.499897  1
  Si  Si15  1  0.866467  0.633383  0.499897  1
