# generated using pymatgen
data_Er12TlFe2AgOs
_symmetry_space_group_name_H-M   'P 1'
_cell_length_a   8.25420962
_cell_length_b   8.25417832
_cell_length_c   8.25420641
_cell_angle_alpha   107.15081149
_cell_angle_beta   110.24228182
_cell_angle_gamma   111.04639872
_symmetry_Int_Tables_number   1
_chemical_formula_structural   Er12TlFe2AgOs
_chemical_formula_sum   'Er12 Tl1 Fe2 Ag1 Os1'
_cell_volume   432.36227381
_cell_formula_units_Z   1
loop_
 _symmetry_equiv_pos_site_id
 _symmetry_equiv_pos_as_xyz
  1  'x, y, z'
loop_
 _atom_site_type_symbol
 _atom_site_label
 _atom_site_symmetry_multiplicity
 _atom_site_fract_x
 _atom_site_fract_y
 _atom_site_fract_z
 _atom_site_occupancy
  Er  Er0  1  0.308507  0.309599  0.618126  1
  Er  Er1  1  0.691493  0.690401  0.381874  1
  Er  Er2  1  0.308527  0.690401  0.998907  1
  Er  Er3  1  0.691473  0.309599  0.001093  1
  Er  Er4  1  0.440727  0.192655  0.248076  1
  Er  Er5  1  0.559273  0.807345  0.751924  1
  Er  Er6  1  0.944579  0.192655  0.751929  1
  Er  Er7  1  0.191644  0.958970  0.767326  1
  Er  Er8  1  0.055421  0.807345  0.248071  1
  Er  Er9  1  0.808356  0.041030  0.232674  1
  Er  Er10  1  0.191651  0.424324  0.232674  1
  Er  Er11  1  0.808349  0.575676  0.767326  1
  Tl  Tl12  1  0.000000  0.500000  0.500000  1
  Fe  Fe13  1  0.383186  0.383178  0.999993  1
  Fe  Fe14  1  0.616814  0.616822  0.000007  1
  Ag  Ag15  1  0.500000  0.000000  0.500000  1
  Os  Os16  1  0.000000  0.000000  0.000000  1
