# generated using pymatgen
data_SmInSnI6
_symmetry_space_group_name_H-M   'P 1'
_cell_length_a   8.86628192
_cell_length_b   8.86622005
_cell_length_c   8.86634600
_cell_angle_alpha   55.31617894
_cell_angle_beta   55.31712359
_cell_angle_gamma   55.31689142
_symmetry_Int_Tables_number   1
_chemical_formula_structural   SmInSnI6
_chemical_formula_sum   'Sm1 In1 Sn1 I6'
_cell_volume   439.21192442
_cell_formula_units_Z   1
loop_
 _symmetry_equiv_pos_site_id
 _symmetry_equiv_pos_as_xyz
  1  'x, y, z'
loop_
 _atom_site_type_symbol
 _atom_site_label
 _atom_site_symmetry_multiplicity
 _atom_site_fract_x
 _atom_site_fract_y
 _atom_site_fract_z
 _atom_site_occupancy
  Sm  Sm0  1  0.999605  0.999610  0.999607  1
  In  In1  1  0.670258  0.670261  0.670261  1
  Sn  Sn2  1  0.331308  0.331309  0.331309  1
  I  I3  1  0.219835  0.600427  0.940608  1
  I  I4  1  0.600428  0.940603  0.219832  1
  I  I5  1  0.940605  0.219831  0.600423  1
  I  I6  1  0.752844  0.370383  0.114733  1
  I  I7  1  0.370380  0.114735  0.752846  1
  I  I8  1  0.114740  0.752842  0.370380  1
