# generated using pymatgen
data_HoLu5(Ni3P2)6
_symmetry_space_group_name_H-M   'P 1'
_cell_length_a   3.73162900
_cell_length_b   10.40684200
_cell_length_c   12.23158000
_cell_angle_alpha   90.00000000
_cell_angle_beta   89.99941316
_cell_angle_gamma   90.00000000
_symmetry_Int_Tables_number   1
_chemical_formula_structural   HoLu5(Ni3P2)6
_chemical_formula_sum   'Ho1 Lu5 Ni18 P12'
_cell_volume   475.00696821
_cell_formula_units_Z   1
loop_
 _symmetry_equiv_pos_site_id
 _symmetry_equiv_pos_as_xyz
  1  'x, y, z'
loop_
 _atom_site_type_symbol
 _atom_site_label
 _atom_site_symmetry_multiplicity
 _atom_site_fract_x
 _atom_site_fract_y
 _atom_site_fract_z
 _atom_site_occupancy
  Ho  Ho0  1  0.252020  0.500000  0.521925  1
  Lu  Lu1  1  0.752033  0.000000  0.478298  1
  Lu  Lu2  1  0.251708  0.682772  0.793983  1
  Lu  Lu3  1  0.251708  0.317228  0.793983  1
  Lu  Lu4  1  0.751700  0.817337  0.206149  1
  Lu  Lu5  1  0.751700  0.182663  0.206149  1
  Ni  Ni6  1  0.751362  0.000000  0.016933  1
  Ni  Ni7  1  0.251352  0.500000  0.983117  1
  Ni  Ni8  1  0.252151  0.198083  0.571015  1
  Ni  Ni9  1  0.252151  0.801917  0.571015  1
  Ni  Ni10  1  0.752125  0.300558  0.428576  1
  Ni  Ni11  1  0.752125  0.699442  0.428576  1
  Ni  Ni12  1  0.252126  0.622096  0.288739  1
  Ni  Ni13  1  0.252126  0.377904  0.288739  1
  Ni  Ni14  1  0.752126  0.878157  0.710959  1
  Ni  Ni15  1  0.752126  0.121843  0.710959  1
  Ni  Ni16  1  0.251397  0.167356  0.004398  1
  Ni  Ni17  1  0.251397  0.832644  0.004398  1
  Ni  Ni18  1  0.751400  0.332516  0.995597  1
  Ni  Ni19  1  0.751400  0.667484  0.995597  1
  Ni  Ni20  1  0.252135  0.000000  0.841510  1
  Ni  Ni21  1  0.752127  0.500000  0.158256  1
  Ni  Ni22  1  0.251767  0.000000  0.300386  1
  Ni  Ni23  1  0.751811  0.500000  0.700541  1
  P  P24  1  0.252073  0.185334  0.385298  1
  P  P25  1  0.252073  0.814666  0.385298  1
  P  P26  1  0.752056  0.313888  0.615257  1
  P  P27  1  0.752056  0.686112  0.615257  1
  P  P28  1  0.251442  0.000000  0.124752  1
  P  P29  1  0.751437  0.500000  0.875681  1
  P  P30  1  0.251549  0.653055  0.108424  1
  P  P31  1  0.251549  0.346945  0.108424  1
  P  P32  1  0.751554  0.846960  0.891469  1
  P  P33  1  0.751554  0.153040  0.891469  1
  P  P34  1  0.252100  0.000000  0.654270  1
  P  P35  1  0.752095  0.500000  0.344600  1
