# generated using pymatgen
data_Tb3Dy3(SiNi3)4
_symmetry_space_group_name_H-M   'P 1'
_cell_length_a   7.61579559
_cell_length_b   7.61579560
_cell_length_c   7.61768700
_cell_angle_alpha   109.47625163
_cell_angle_beta   109.47625165
_cell_angle_gamma   109.46618912
_symmetry_Int_Tables_number   1
_chemical_formula_structural   Tb3Dy3(SiNi3)4
_chemical_formula_sum   'Tb3 Dy3 Si4 Ni12'
_cell_volume   340.09858318
_cell_formula_units_Z   1
loop_
 _symmetry_equiv_pos_site_id
 _symmetry_equiv_pos_as_xyz
  1  'x, y, z'
loop_
 _atom_site_type_symbol
 _atom_site_label
 _atom_site_symmetry_multiplicity
 _atom_site_fract_x
 _atom_site_fract_y
 _atom_site_fract_z
 _atom_site_occupancy
  Tb  Tb0  1  0.714960  0.714960  0.999954  1
  Tb  Tb1  1  0.285040  0.000000  0.284995  1
  Tb  Tb2  1  0.000000  0.285040  0.284995  1
  Dy  Dy3  1  0.285524  0.285524  0.999855  1
  Dy  Dy4  1  0.714476  0.000000  0.714331  1
  Dy  Dy5  1  0.000000  0.714476  0.714331  1
  Si  Si6  1  0.000000  0.000000  0.500729  1
  Si  Si7  1  0.000000  0.499672  0.999740  1
  Si  Si8  1  0.499672  0.000000  0.999740  1
  Si  Si9  1  0.500328  0.500328  0.500069  1
  Ni  Ni10  1  0.330894  0.330894  0.661986  1
  Ni  Ni11  1  0.669106  0.000000  0.331092  1
  Ni  Ni12  1  0.000000  0.669106  0.331092  1
  Ni  Ni13  1  0.668957  0.330582  0.999705  1
  Ni  Ni14  1  0.331043  0.661625  0.330748  1
  Ni  Ni15  1  0.000000  0.330633  0.669523  1
  Ni  Ni16  1  0.330582  0.668957  0.999705  1
  Ni  Ni17  1  0.330633  0.000000  0.669523  1
  Ni  Ni18  1  0.661625  0.331043  0.330748  1
  Ni  Ni19  1  0.669367  0.669367  0.338890  1
  Ni  Ni20  1  0.669418  0.338375  0.669123  1
  Ni  Ni21  1  0.338375  0.669418  0.669123  1
