# generated using pymatgen
data_Dy4Ho6HgBi5
_symmetry_space_group_name_H-M   'P 1'
_cell_length_a   9.12274700
_cell_length_b   9.13738759
_cell_length_c   6.43476500
_cell_angle_alpha   90.00000000
_cell_angle_beta   90.00000000
_cell_angle_gamma   120.05310320
_symmetry_Int_Tables_number   1
_chemical_formula_structural   Dy4Ho6HgBi5
_chemical_formula_sum   'Dy4 Ho6 Hg1 Bi5'
_cell_volume   464.27827241
_cell_formula_units_Z   1
loop_
 _symmetry_equiv_pos_site_id
 _symmetry_equiv_pos_as_xyz
  1  'x, y, z'
loop_
 _atom_site_type_symbol
 _atom_site_label
 _atom_site_symmetry_multiplicity
 _atom_site_fract_x
 _atom_site_fract_y
 _atom_site_fract_z
 _atom_site_occupancy
  Dy  Dy0  1  0.759892  0.757931  0.750000  1
  Dy  Dy1  1  0.240108  0.998038  0.750000  1
  Dy  Dy2  1  0.232586  0.244825  0.250000  1
  Dy  Dy3  1  0.767414  0.012239  0.250000  1
  Ho  Ho4  1  0.675638  0.334699  0.999664  1
  Ho  Ho5  1  0.324362  0.659062  0.999664  1
  Ho  Ho6  1  0.324362  0.659062  0.500336  1
  Ho  Ho7  1  0.675638  0.334699  0.500336  1
  Ho  Ho8  1  0.000000  0.242328  0.750000  1
  Ho  Ho9  1  0.000000  0.754802  0.250000  1
  Hg  Hg10  1  0.000000  0.394565  0.250000  1
  Bi  Bi11  1  0.392210  0.388764  0.750000  1
  Bi  Bi12  1  0.607790  0.996553  0.750000  1
  Bi  Bi13  1  0.000000  0.608946  0.750000  1
  Bi  Bi14  1  0.610598  0.612042  0.250000  1
  Bi  Bi15  1  0.389402  0.001443  0.250000  1
