# generated using pymatgen
data_ErSc(Co3Si2)2
_symmetry_space_group_name_H-M   'P 1'
_cell_length_a   6.20012010
_cell_length_b   6.20012036
_cell_length_c   6.20012019
_cell_angle_alpha   130.55742487
_cell_angle_beta   112.58355699
_cell_angle_gamma   88.03779587
_symmetry_Int_Tables_number   1
_chemical_formula_structural   ErSc(Co3Si2)2
_chemical_formula_sum   'Er1 Sc1 Co6 Si4'
_cell_volume   159.11440147
_cell_formula_units_Z   1
loop_
 _symmetry_equiv_pos_site_id
 _symmetry_equiv_pos_as_xyz
  1  'x, y, z'
loop_
 _atom_site_type_symbol
 _atom_site_label
 _atom_site_symmetry_multiplicity
 _atom_site_fract_x
 _atom_site_fract_y
 _atom_site_fract_z
 _atom_site_occupancy
  Er  Er0  1  0.750000  0.469260  0.719260  1
  Sc  Sc1  1  0.250000  0.545695  0.295695  1
  Co  Co2  1  0.992926  0.997123  0.490049  1
  Co  Co3  1  0.507074  0.997123  0.004197  1
  Co  Co4  1  0.719203  0.996044  0.719278  1
  Co  Co5  1  0.223234  0.500075  0.719278  1
  Co  Co6  1  0.276766  0.996044  0.276841  1
  Co  Co7  1  0.780797  0.500075  0.276841  1
  Si  Si8  1  0.088251  0.885315  0.797064  1
  Si  Si9  1  0.925707  0.127924  0.202217  1
  Si  Si10  1  0.574293  0.776511  0.202217  1
  Si  Si11  1  0.411749  0.208812  0.797064  1
