# generated using pymatgen
data_U3Fe6SiC2
_symmetry_space_group_name_H-M   'P 1'
_cell_length_a   5.08433300
_cell_length_b   5.08433365
_cell_length_c   13.02627000
_cell_angle_alpha   90.00000000
_cell_angle_beta   90.00000000
_cell_angle_gamma   120.00000228
_symmetry_Int_Tables_number   1
_chemical_formula_structural   U3Fe6SiC2
_chemical_formula_sum   'U6 Fe12 Si2 C4'
_cell_volume   291.62095441
_cell_formula_units_Z   2
loop_
 _symmetry_equiv_pos_site_id
 _symmetry_equiv_pos_as_xyz
  1  'x, y, z'
loop_
 _atom_site_type_symbol
 _atom_site_label
 _atom_site_symmetry_multiplicity
 _atom_site_fract_x
 _atom_site_fract_y
 _atom_site_fract_z
 _atom_site_occupancy
  U  U0  1  0.333333  0.666667  0.250000  1
  U  U1  1  0.666667  0.333333  0.750000  1
  U  U2  1  0.333333  0.666667  0.038053  1
  U  U3  1  0.666667  0.333333  0.538053  1
  U  U4  1  0.666667  0.333333  0.961947  1
  U  U5  1  0.333333  0.666667  0.461947  1
  Fe  Fe6  1  0.832988  0.665974  0.147550  1
  Fe  Fe7  1  0.167012  0.832988  0.647550  1
  Fe  Fe8  1  0.665974  0.832988  0.647550  1
  Fe  Fe9  1  0.334026  0.167012  0.147550  1
  Fe  Fe10  1  0.832988  0.167012  0.147550  1
  Fe  Fe11  1  0.167012  0.334026  0.852450  1
  Fe  Fe12  1  0.167012  0.832988  0.852450  1
  Fe  Fe13  1  0.167012  0.334026  0.647550  1
  Fe  Fe14  1  0.665974  0.832988  0.852450  1
  Fe  Fe15  1  0.334026  0.167012  0.352450  1
  Fe  Fe16  1  0.832988  0.665974  0.352450  1
  Fe  Fe17  1  0.832988  0.167012  0.352450  1
  Si  Si18  1  0.000000  0.000000  0.000000  1
  Si  Si19  1  0.000000  0.000000  0.500000  1
  C  C20  1  0.000000  0.000000  0.250000  1
  C  C21  1  0.000000  0.000000  0.750000  1
  C  C22  1  0.333333  0.666667  0.750000  1
  C  C23  1  0.666667  0.333333  0.250000  1
