# generated using pymatgen
data_Zr10In4CuSb2P
_symmetry_space_group_name_H-M   'P 1'
_cell_length_a   8.68279709
_cell_length_b   8.70802339
_cell_length_c   5.90936688
_cell_angle_alpha   90.14862798
_cell_angle_beta   89.92546879
_cell_angle_gamma   120.09615247
_symmetry_Int_Tables_number   1
_chemical_formula_structural   Zr10In4CuSb2P
_chemical_formula_sum   'Zr10 In4 Cu1 Sb2 P1'
_cell_volume   386.56965651
_cell_formula_units_Z   1
loop_
 _symmetry_equiv_pos_site_id
 _symmetry_equiv_pos_as_xyz
  1  'x, y, z'
loop_
 _atom_site_type_symbol
 _atom_site_label
 _atom_site_symmetry_multiplicity
 _atom_site_fract_x
 _atom_site_fract_y
 _atom_site_fract_z
 _atom_site_occupancy
  Zr  Zr0  1  0.746495  0.750092  0.259063  1
  Zr  Zr1  1  0.253505  0.003597  0.259063  1
  Zr  Zr2  1  0.000000  0.246743  0.256838  1
  Zr  Zr3  1  0.260746  0.262089  0.745168  1
  Zr  Zr4  1  0.739254  0.001343  0.745168  1
  Zr  Zr5  1  0.000000  0.737783  0.739089  1
  Zr  Zr6  1  0.665095  0.332653  0.501826  1
  Zr  Zr7  1  0.334905  0.667558  0.501826  1
  Zr  Zr8  1  0.334839  0.666715  0.998550  1
  Zr  Zr9  1  0.665161  0.331875  0.998550  1
  In  In10  1  0.000000  0.607795  0.243748  1
  In  In11  1  0.614031  0.613874  0.755151  1
  In  In12  1  0.385969  0.999842  0.755151  1
  In  In13  1  0.000000  0.389868  0.755995  1
  Cu  Cu14  1  0.000000  0.993559  0.977739  1
  Sb  Sb15  1  0.393940  0.394802  0.246178  1
  Sb  Sb16  1  0.606060  0.000862  0.246178  1
  P  P17  1  0.000000  0.998949  0.514720  1
