# generated using pymatgen
data_Ta6Cr3Si3C2
_symmetry_space_group_name_H-M   'P 1'
_cell_length_a   8.11677734
_cell_length_b   8.11653448
_cell_length_c   8.11656159
_cell_angle_alpha   120.03962592
_cell_angle_beta   120.00503129
_cell_angle_gamma   89.96070298
_symmetry_Int_Tables_number   1
_chemical_formula_structural   Ta6Cr3Si3C2
_chemical_formula_sum   'Ta12 Cr6 Si6 C4'
_cell_volume   377.97840792
_cell_formula_units_Z   2
loop_
 _symmetry_equiv_pos_site_id
 _symmetry_equiv_pos_as_xyz
  1  'x, y, z'
loop_
 _atom_site_type_symbol
 _atom_site_label
 _atom_site_symmetry_multiplicity
 _atom_site_fract_x
 _atom_site_fract_y
 _atom_site_fract_z
 _atom_site_occupancy
  Ta  Ta0  1  0.067604  0.067613  0.999991  1
  Ta  Ta1  1  0.676503  0.676486  0.000020  1
  Ta  Ta2  1  0.678664  0.071157  0.000832  1
  Ta  Ta3  1  0.070314  0.677844  0.999179  1
  Ta  Ta4  1  0.070311  0.071134  0.392468  1
  Ta  Ta5  1  0.678665  0.677834  0.607509  1
  Ta  Ta6  1  0.426913  0.926901  0.500014  1
  Ta  Ta7  1  0.818913  0.318929  0.499988  1
  Ta  Ta8  1  0.822555  0.930442  0.502530  1
  Ta  Ta9  1  0.427937  0.320005  0.497487  1
  Ta  Ta10  1  0.427934  0.930451  0.107930  1
  Ta  Ta11  1  0.822555  0.320028  0.892118  1
  Cr  Cr12  1  0.246516  0.498488  0.748029  1
  Cr  Cr13  1  0.750654  0.498646  0.252004  1
  Cr  Cr14  1  0.247476  0.493300  0.245759  1
  Cr  Cr15  1  0.247475  0.001698  0.754160  1
  Cr  Cr16  1  0.451681  0.303078  0.148582  1
  Cr  Cr17  1  0.154444  0.303042  0.851390  1
  Si  Si18  1  0.459151  0.291701  0.832738  1
  Si  Si19  1  0.459158  0.626417  0.167451  1
  Si  Si20  1  0.037103  0.709924  0.327193  1
  Si  Si21  1  0.382833  0.710015  0.672830  1
  Si  Si22  1  0.037443  0.707180  0.669486  1
  Si  Si23  1  0.037438  0.367953  0.330267  1
  C  C24  1  0.748547  0.000217  0.748335  1
  C  C25  1  0.251889  0.000209  0.251682  1
  C  C26  1  0.749663  0.999669  0.250029  1
  C  C27  1  0.749663  0.499637  0.749998  1
