# generated using pymatgen
data_HoTi(NbS2)8
_symmetry_space_group_name_H-M   'P 1'
_cell_length_a   6.71661300
_cell_length_b   6.71661196
_cell_length_c   13.06642900
_cell_angle_alpha   90.00000000
_cell_angle_beta   90.00000000
_cell_angle_gamma   120.00001003
_symmetry_Int_Tables_number   1
_chemical_formula_structural   HoTi(NbS2)8
_chemical_formula_sum   'Ho1 Ti1 Nb8 S16'
_cell_volume   510.49099447
_cell_formula_units_Z   1
loop_
 _symmetry_equiv_pos_site_id
 _symmetry_equiv_pos_as_xyz
  1  'x, y, z'
loop_
 _atom_site_type_symbol
 _atom_site_label
 _atom_site_symmetry_multiplicity
 _atom_site_fract_x
 _atom_site_fract_y
 _atom_site_fract_z
 _atom_site_occupancy
  Ho  Ho0  1  0.000000  0.000000  0.500000  1
  Ti  Ti1  1  0.000000  0.000000  0.000000  1
  Nb  Nb2  1  0.000000  0.000000  0.236200  1
  Nb  Nb3  1  0.000000  0.000000  0.763800  1
  Nb  Nb4  1  0.504793  0.495207  0.235466  1
  Nb  Nb5  1  0.504793  0.009587  0.235466  1
  Nb  Nb6  1  0.990413  0.495207  0.235466  1
  Nb  Nb7  1  0.495207  0.504793  0.764534  1
  Nb  Nb8  1  0.495207  0.990413  0.764534  1
  Nb  Nb9  1  0.009587  0.504793  0.764534  1
  S  S10  1  0.333333  0.666667  0.885834  1
  S  S11  1  0.666667  0.333333  0.114166  1
  S  S12  1  0.666667  0.333333  0.358488  1
  S  S13  1  0.333333  0.666667  0.641512  1
  S  S14  1  0.168441  0.831559  0.356562  1
  S  S15  1  0.168441  0.336881  0.356562  1
  S  S16  1  0.663119  0.831559  0.356562  1
  S  S17  1  0.831559  0.168441  0.643438  1
  S  S18  1  0.831559  0.663119  0.643438  1
  S  S19  1  0.336881  0.168441  0.643438  1
  S  S20  1  0.833215  0.166785  0.884973  1
  S  S21  1  0.833215  0.666432  0.884973  1
  S  S22  1  0.333568  0.166785  0.884973  1
  S  S23  1  0.166785  0.833215  0.115027  1
  S  S24  1  0.166785  0.333568  0.115027  1
  S  S25  1  0.666432  0.833215  0.115027  1
