# generated using pymatgen
data_Er5ThTcOs
_symmetry_space_group_name_H-M   'P 1'
_cell_length_a   6.31703300
_cell_length_b   7.35576800
_cell_length_c   9.20076500
_cell_angle_alpha   90.00000000
_cell_angle_beta   90.00000000
_cell_angle_gamma   90.00000000
_symmetry_Int_Tables_number   1
_chemical_formula_structural   Er5ThTcOs
_chemical_formula_sum   'Er10 Th2 Tc2 Os2'
_cell_volume   427.52853558
_cell_formula_units_Z   2
loop_
 _symmetry_equiv_pos_site_id
 _symmetry_equiv_pos_as_xyz
  1  'x, y, z'
loop_
 _atom_site_type_symbol
 _atom_site_label
 _atom_site_symmetry_multiplicity
 _atom_site_fract_x
 _atom_site_fract_y
 _atom_site_fract_z
 _atom_site_occupancy
  Er  Er0  1  0.336930  0.675974  0.060616  1
  Er  Er1  1  0.163070  0.175974  0.439384  1
  Er  Er2  1  0.668235  0.324077  0.568655  1
  Er  Er3  1  0.831765  0.824077  0.931345  1
  Er  Er4  1  0.668235  0.324077  0.931345  1
  Er  Er5  1  0.831765  0.824077  0.568655  1
  Er  Er6  1  0.336930  0.675974  0.439384  1
  Er  Er7  1  0.163070  0.175974  0.060616  1
  Er  Er8  1  0.132008  0.460585  0.750000  1
  Er  Er9  1  0.367992  0.960585  0.750000  1
  Th  Th10  1  0.869643  0.548857  0.250000  1
  Th  Th11  1  0.630357  0.048857  0.250000  1
  Tc  Tc12  1  0.019046  0.873057  0.250000  1
  Tc  Tc13  1  0.480954  0.373057  0.250000  1
  Os  Os14  1  0.962258  0.117399  0.750000  1
  Os  Os15  1  0.537742  0.617399  0.750000  1
