# generated using pymatgen
data_BaNd2CoH12Ir
_symmetry_space_group_name_H-M   'P 1'
_cell_length_a   5.06515500
_cell_length_b   5.06515533
_cell_length_c   8.66183200
_cell_angle_alpha   90.00000000
_cell_angle_beta   90.00000000
_cell_angle_gamma   120.00000436
_symmetry_Int_Tables_number   1
_chemical_formula_structural   BaNd2CoH12Ir
_chemical_formula_sum   'Ba1 Nd2 Co1 H12 Ir1'
_cell_volume   192.45352808
_cell_formula_units_Z   1
loop_
 _symmetry_equiv_pos_site_id
 _symmetry_equiv_pos_as_xyz
  1  'x, y, z'
loop_
 _atom_site_type_symbol
 _atom_site_label
 _atom_site_symmetry_multiplicity
 _atom_site_fract_x
 _atom_site_fract_y
 _atom_site_fract_z
 _atom_site_occupancy
  Ba  Ba0  1  0.000000  0.000000  0.975521  1
  Nd  Nd1  1  0.666667  0.333333  0.380628  1
  Nd  Nd2  1  0.333333  0.666667  0.650495  1
  Co  Co3  1  0.666667  0.333333  0.734830  1
  H  H4  1  0.172605  0.827395  0.379298  1
  H  H5  1  0.654791  0.827395  0.379298  1
  H  H6  1  0.172605  0.345209  0.379298  1
  H  H7  1  0.816290  0.183710  0.620165  1
  H  H8  1  0.367421  0.183710  0.620165  1
  H  H9  1  0.816290  0.632579  0.620165  1
  H  H10  1  0.512149  0.024298  0.845488  1
  H  H11  1  0.512149  0.487851  0.845488  1
  H  H12  1  0.975702  0.487851  0.845488  1
  H  H13  1  0.485111  0.970221  0.151444  1
  H  H14  1  0.485111  0.514889  0.151444  1
  H  H15  1  0.029779  0.514889  0.151444  1
  Ir  Ir16  1  0.333333  0.666667  0.269341  1
