# generated using pymatgen
data_YbPr3Si10OsPt5
_symmetry_space_group_name_H-M   'P 1'
_cell_length_a   8.28120244
_cell_length_b   8.30080078
_cell_length_c   8.29536210
_cell_angle_alpha   137.72021664
_cell_angle_beta   104.77328672
_cell_angle_gamma   90.33818402
_symmetry_Int_Tables_number   1
_chemical_formula_structural   YbPr3Si10OsPt5
_chemical_formula_sum   'Yb1 Pr3 Si10 Os1 Pt5'
_cell_volume   353.95983450
_cell_formula_units_Z   1
loop_
 _symmetry_equiv_pos_site_id
 _symmetry_equiv_pos_as_xyz
  1  'x, y, z'
loop_
 _atom_site_type_symbol
 _atom_site_label
 _atom_site_symmetry_multiplicity
 _atom_site_fract_x
 _atom_site_fract_y
 _atom_site_fract_z
 _atom_site_occupancy
  Yb  Yb0  1  0.863205  0.629944  0.234633  1
  Pr  Pr1  1  0.137177  0.370669  0.767862  1
  Pr  Pr2  1  0.395709  0.128512  0.265833  1
  Pr  Pr3  1  0.604878  0.870812  0.733280  1
  Si  Si4  1  0.501365  0.749291  0.250169  1
  Si  Si5  1  0.501222  0.251247  0.752044  1
  Si  Si6  1  0.223377  0.974187  0.749045  1
  Si  Si7  1  0.776093  0.525441  0.751506  1
  Si  Si8  1  0.771920  0.019153  0.250404  1
  Si  Si9  1  0.227698  0.478487  0.248014  1
  Si  Si10  1  0.041060  0.886304  0.145744  1
  Si  Si11  1  0.956602  0.101934  0.841569  1
  Si  Si12  1  0.743135  0.399801  0.354869  1
  Si  Si13  1  0.257961  0.613007  0.655133  1
  Os  Os14  1  0.999987  0.752016  0.751587  1
  Pt  Pt15  1  0.999799  0.249638  0.247837  1
  Pt  Pt16  1  0.249043  0.863526  0.389798  1
  Pt  Pt17  1  0.748382  0.138960  0.614351  1
  Pt  Pt18  1  0.475983  0.362004  0.110020  1
  Pt  Pt19  1  0.525405  0.635068  0.886303  1
