# generated using pymatgen
data_YbSb12Os2RuRh
_symmetry_space_group_name_H-M   'P 1'
_cell_length_a   8.17830227
_cell_length_b   8.15659581
_cell_length_c   8.14314385
_cell_angle_alpha   109.43495904
_cell_angle_beta   109.51701461
_cell_angle_gamma   109.56247088
_symmetry_Int_Tables_number   1
_chemical_formula_structural   YbSb12Os2RuRh
_chemical_formula_sum   'Yb1 Sb12 Os2 Ru1 Rh1'
_cell_volume   417.63852367
_cell_formula_units_Z   1
loop_
 _symmetry_equiv_pos_site_id
 _symmetry_equiv_pos_as_xyz
  1  'x, y, z'
loop_
 _atom_site_type_symbol
 _atom_site_label
 _atom_site_symmetry_multiplicity
 _atom_site_fract_x
 _atom_site_fract_y
 _atom_site_fract_z
 _atom_site_occupancy
  Yb  Yb0  1  0.000000  0.000000  0.000000  1
  Sb  Sb1  1  0.843062  0.661051  0.504465  1
  Sb  Sb2  1  0.156938  0.338949  0.495535  1
  Sb  Sb3  1  0.154324  0.658407  0.815512  1
  Sb  Sb4  1  0.845676  0.341593  0.184488  1
  Sb  Sb5  1  0.661703  0.503857  0.844049  1
  Sb  Sb6  1  0.338297  0.496143  0.155951  1
  Sb  Sb7  1  0.660306  0.815927  0.156379  1
  Sb  Sb8  1  0.339694  0.184073  0.843621  1
  Sb  Sb9  1  0.504490  0.843710  0.659449  1
  Sb  Sb10  1  0.495510  0.156290  0.340551  1
  Sb  Sb11  1  0.182059  0.842581  0.338258  1
  Sb  Sb12  1  0.817941  0.157419  0.661742  1
  Os  Os13  1  0.500000  0.500000  0.500000  1
  Os  Os14  1  0.000000  0.000000  0.500000  1
  Ru  Ru15  1  0.000000  0.500000  0.000000  1
  Rh  Rh16  1  0.500000  0.000000  0.000000  1
