# generated using pymatgen
data_CsK5(AgPb4)2
_symmetry_space_group_name_H-M   'P 1'
_cell_length_a   7.06779100
_cell_length_b   7.11221800
_cell_length_c   12.94242400
_cell_angle_alpha   90.00000000
_cell_angle_beta   90.00000000
_cell_angle_gamma   90.00000000
_symmetry_Int_Tables_number   1
_chemical_formula_structural   CsK5(AgPb4)2
_chemical_formula_sum   'Cs1 K5 Ag2 Pb8'
_cell_volume   650.58550343
_cell_formula_units_Z   1
loop_
 _symmetry_equiv_pos_site_id
 _symmetry_equiv_pos_as_xyz
  1  'x, y, z'
loop_
 _atom_site_type_symbol
 _atom_site_label
 _atom_site_symmetry_multiplicity
 _atom_site_fract_x
 _atom_site_fract_y
 _atom_site_fract_z
 _atom_site_occupancy
  Cs  Cs0  1  0.564400  0.000000  0.000000  1
  K  K1  1  0.164632  0.000000  0.752452  1
  K  K2  1  0.164632  0.000000  0.247548  1
  K  K3  1  0.437991  0.500000  0.500000  1
  K  K4  1  0.834961  0.500000  0.252634  1
  K  K5  1  0.834961  0.500000  0.747366  1
  Ag  Ag6  1  0.301592  0.000000  0.500000  1
  Ag  Ag7  1  0.699610  0.500000  0.000000  1
  Pb  Pb8  1  0.049648  0.263373  0.000000  1
  Pb  Pb9  1  0.049648  0.736627  0.000000  1
  Pb  Pb10  1  0.340614  0.500000  0.873839  1
  Pb  Pb11  1  0.340614  0.500000  0.126161  1
  Pb  Pb12  1  0.658177  0.000000  0.373815  1
  Pb  Pb13  1  0.658177  0.000000  0.626185  1
  Pb  Pb14  1  0.950171  0.761633  0.500000  1
  Pb  Pb15  1  0.950171  0.238367  0.500000  1
