# generated using pymatgen
data_Yb2Lu2Os7Ru
_symmetry_space_group_name_H-M   'P 1'
_cell_length_a   5.25584500
_cell_length_b   5.25554059
_cell_length_c   8.83780900
_cell_angle_alpha   90.00024203
_cell_angle_beta   89.99865013
_cell_angle_gamma   119.99813941
_symmetry_Int_Tables_number   1
_chemical_formula_structural   Yb2Lu2Os7Ru
_chemical_formula_sum   'Yb2 Lu2 Os7 Ru1'
_cell_volume   211.41866645
_cell_formula_units_Z   1
loop_
 _symmetry_equiv_pos_site_id
 _symmetry_equiv_pos_as_xyz
  1  'x, y, z'
loop_
 _atom_site_type_symbol
 _atom_site_label
 _atom_site_symmetry_multiplicity
 _atom_site_fract_x
 _atom_site_fract_y
 _atom_site_fract_z
 _atom_site_occupancy
  Yb  Yb0  1  0.333336  0.666667  0.060696  1
  Yb  Yb1  1  0.666664  0.333333  0.939304  1
  Lu  Lu2  1  0.666671  0.333329  0.570653  1
  Lu  Lu3  1  0.333329  0.666671  0.429347  1
  Os  Os4  1  0.000000  0.000000  0.500000  1
  Os  Os5  1  0.172182  0.344365  0.746834  1
  Os  Os6  1  0.172172  0.827825  0.746838  1
  Os  Os7  1  0.655643  0.827833  0.746832  1
  Os  Os8  1  0.827818  0.655635  0.253166  1
  Os  Os9  1  0.827828  0.172175  0.253162  1
  Os  Os10  1  0.344357  0.172167  0.253168  1
  Ru  Ru11  1  0.000000  0.000000  0.000000  1
