# generated using pymatgen
data_DyNbN2
_symmetry_space_group_name_H-M   'P 1'
_cell_length_a   3.26824200
_cell_length_b   5.68984600
_cell_length_c   10.98444800
_cell_angle_alpha   90.00000000
_cell_angle_beta   90.00000000
_cell_angle_gamma   90.00000000
_symmetry_Int_Tables_number   1
_chemical_formula_structural   DyNbN2
_chemical_formula_sum   'Dy4 Nb4 N8'
_cell_volume   204.26452859
_cell_formula_units_Z   4
loop_
 _symmetry_equiv_pos_site_id
 _symmetry_equiv_pos_as_xyz
  1  'x, y, z'
loop_
 _atom_site_type_symbol
 _atom_site_label
 _atom_site_symmetry_multiplicity
 _atom_site_fract_x
 _atom_site_fract_y
 _atom_site_fract_z
 _atom_site_occupancy
  Dy  Dy0  1  0.250000  0.587124  0.862056  1
  Dy  Dy1  1  0.750000  0.412878  0.137946  1
  Dy  Dy2  1  0.750000  0.912876  0.362056  1
  Dy  Dy3  1  0.250000  0.087122  0.637946  1
  Nb  Nb4  1  0.250000  0.915306  0.109310  1
  Nb  Nb5  1  0.750000  0.084698  0.890682  1
  Nb  Nb6  1  0.750000  0.584694  0.609310  1
  Nb  Nb7  1  0.250000  0.415302  0.390682  1
  N  N8  1  0.250000  0.660744  0.244742  1
  N  N9  1  0.750000  0.339264  0.755257  1
  N  N10  1  0.750000  0.839256  0.744742  1
  N  N11  1  0.250000  0.160736  0.255257  1
  N  N12  1  0.250000  0.748326  0.505325  1
  N  N13  1  0.750000  0.251669  0.494683  1
  N  N14  1  0.750000  0.751674  0.005325  1
  N  N15  1  0.250000  0.248331  0.994683  1
