# generated using pymatgen
data_KInSn5Ir4
_symmetry_space_group_name_H-M   'P 1'
_cell_length_a   6.99560616
_cell_length_b   7.10581939
_cell_length_c   7.03312528
_cell_angle_alpha   120.11089824
_cell_angle_beta   119.58965225
_cell_angle_gamma   90.40238315
_symmetry_Int_Tables_number   1
_chemical_formula_structural   KInSn5Ir4
_chemical_formula_sum   'K1 In1 Sn5 Ir4'
_cell_volume   247.45350733
_cell_formula_units_Z   1
loop_
 _symmetry_equiv_pos_site_id
 _symmetry_equiv_pos_as_xyz
  1  'x, y, z'
loop_
 _atom_site_type_symbol
 _atom_site_label
 _atom_site_symmetry_multiplicity
 _atom_site_fract_x
 _atom_site_fract_y
 _atom_site_fract_z
 _atom_site_occupancy
  K  K0  1  0.001073  0.001303  0.000000  1
  In  In1  1  0.468688  0.110991  0.000000  1
  Sn  Sn2  1  0.118653  0.466976  0.000000  1
  Sn  Sn3  1  0.883039  0.884278  0.351328  1
  Sn  Sn4  1  0.531712  0.532950  0.648672  1
  Sn  Sn5  1  0.998516  0.500539  0.499040  1
  Sn  Sn6  1  0.499476  0.001499  0.500960  1
  Ir  Ir7  1  0.415274  0.741103  0.000000  1
  Ir  Ir8  1  0.747756  0.420083  0.000000  1
  Ir  Ir9  1  0.249263  0.251496  0.662712  1
  Ir  Ir10  1  0.586550  0.588782  0.337288  1
