# generated using pymatgen
data_Ho8Mg2Cu3NiBi2
_symmetry_space_group_name_H-M   'P 1'
_cell_length_a   8.58505848
_cell_length_b   8.58506351
_cell_length_c   8.65434096
_cell_angle_alpha   127.69031682
_cell_angle_beta   127.69027735
_cell_angle_gamma   76.54365695
_symmetry_Int_Tables_number   1
_chemical_formula_structural   Ho8Mg2Cu3NiBi2
_chemical_formula_sum   'Ho8 Mg2 Cu3 Ni1 Bi2'
_cell_volume   389.15125350
_cell_formula_units_Z   1
loop_
 _symmetry_equiv_pos_site_id
 _symmetry_equiv_pos_as_xyz
  1  'x, y, z'
loop_
 _atom_site_type_symbol
 _atom_site_label
 _atom_site_symmetry_multiplicity
 _atom_site_fract_x
 _atom_site_fract_y
 _atom_site_fract_z
 _atom_site_occupancy
  Ho  Ho0  1  0.030637  0.522044  0.816614  1
  Ho  Ho1  1  0.714023  0.205421  0.183379  1
  Ho  Ho2  1  0.528455  0.703864  0.499999  1
  Ho  Ho3  1  0.196297  0.040246  0.500001  1
  Ho  Ho4  1  0.977958  0.469364  0.183387  1
  Ho  Ho5  1  0.294580  0.785977  0.816621  1
  Ho  Ho6  1  0.459754  0.303701  0.499998  1
  Ho  Ho7  1  0.796136  0.971544  0.500000  1
  Mg  Mg8  1  0.000065  0.999811  0.999868  1
  Mg  Mg9  1  0.500190  0.499937  0.000136  1
  Cu  Cu10  1  0.373556  0.875794  0.249329  1
  Cu  Cu11  1  0.624205  0.126443  0.750668  1
  Cu  Cu12  1  0.872170  0.627830  0.500000  1
  Ni  Ni13  1  0.123598  0.376401  0.500000  1
  Bi  Bi14  1  0.754189  0.745811  0.000000  1
  Bi  Bi15  1  0.254188  0.245812  0.000000  1
