# generated using pymatgen
data_LiNd6RuBr12
_symmetry_space_group_name_H-M   'P 1'
_cell_length_a   9.61871159
_cell_length_b   9.60854397
_cell_length_c   9.59591405
_cell_angle_alpha   108.02532483
_cell_angle_beta   108.29973236
_cell_angle_gamma   108.20463700
_symmetry_Int_Tables_number   1
_chemical_formula_structural   LiNd6RuBr12
_chemical_formula_sum   'Li1 Nd6 Ru1 Br12'
_cell_volume   713.56057803
_cell_formula_units_Z   1
loop_
 _symmetry_equiv_pos_site_id
 _symmetry_equiv_pos_as_xyz
  1  'x, y, z'
loop_
 _atom_site_type_symbol
 _atom_site_label
 _atom_site_symmetry_multiplicity
 _atom_site_fract_x
 _atom_site_fract_y
 _atom_site_fract_z
 _atom_site_occupancy
  Li  Li0  1  0.500000  0.500000  0.500000  1
  Nd  Nd1  1  0.119336  0.323340  0.038625  1
  Nd  Nd2  1  0.323452  0.038326  0.119433  1
  Nd  Nd3  1  0.038680  0.119199  0.323220  1
  Nd  Nd4  1  0.961321  0.880801  0.676781  1
  Nd  Nd5  1  0.676548  0.961675  0.880567  1
  Nd  Nd6  1  0.880664  0.676660  0.961375  1
  Ru  Ru7  1  0.000000  0.000000  0.000000  1
  Br  Br8  1  0.213979  0.688574  0.072076  1
  Br  Br9  1  0.466217  0.387167  0.181197  1
  Br  Br10  1  0.688887  0.072122  0.214176  1
  Br  Br11  1  0.928203  0.786285  0.311557  1
  Br  Br12  1  0.181626  0.466818  0.387785  1
  Br  Br13  1  0.387431  0.181007  0.466727  1
  Br  Br14  1  0.612569  0.818993  0.533274  1
  Br  Br15  1  0.818375  0.533182  0.612215  1
  Br  Br16  1  0.071798  0.213715  0.688444  1
  Br  Br17  1  0.311114  0.927879  0.785824  1
  Br  Br18  1  0.533783  0.612833  0.818804  1
  Br  Br19  1  0.786021  0.311426  0.927924  1
