# generated using pymatgen
data_ErNbB2SbRu5
_symmetry_space_group_name_H-M   'P 1'
_cell_length_a   9.58048930
_cell_length_b   9.58048935
_cell_length_c   3.09532900
_cell_angle_alpha   90.00000000
_cell_angle_beta   90.00000000
_cell_angle_gamma   88.84133984
_symmetry_Int_Tables_number   1
_chemical_formula_structural   ErNbB2SbRu5
_chemical_formula_sum   'Er2 Nb2 B4 Sb2 Ru10'
_cell_volume   284.04908270
_cell_formula_units_Z   2
loop_
 _symmetry_equiv_pos_site_id
 _symmetry_equiv_pos_as_xyz
  1  'x, y, z'
loop_
 _atom_site_type_symbol
 _atom_site_label
 _atom_site_symmetry_multiplicity
 _atom_site_fract_x
 _atom_site_fract_y
 _atom_site_fract_z
 _atom_site_occupancy
  Er  Er0  1  0.175670  0.175670  0.000000  1
  Er  Er1  1  0.824330  0.824330  0.000000  1
  Nb  Nb2  1  0.673997  0.326003  0.000000  1
  Nb  Nb3  1  0.326003  0.673997  0.000000  1
  B  B4  1  0.379792  0.379792  0.000000  1
  B  B5  1  0.620208  0.620208  0.000000  1
  B  B6  1  0.878682  0.121318  0.000000  1
  B  B7  1  0.121318  0.878682  0.000000  1
  Sb  Sb8  1  0.500000  0.000000  0.000000  1
  Sb  Sb9  1  0.000000  0.500000  0.000000  1
  Ru  Ru10  1  0.500000  0.500000  0.500000  1
  Ru  Ru11  1  0.000000  0.000000  0.500000  1
  Ru  Ru12  1  0.442068  0.225863  0.500000  1
  Ru  Ru13  1  0.557932  0.774137  0.500000  1
  Ru  Ru14  1  0.917092  0.283735  0.500000  1
  Ru  Ru15  1  0.082908  0.716265  0.500000  1
  Ru  Ru16  1  0.716265  0.082908  0.500000  1
  Ru  Ru17  1  0.283735  0.917092  0.500000  1
  Ru  Ru18  1  0.774137  0.557932  0.500000  1
  Ru  Ru19  1  0.225863  0.442068  0.500000  1
