# generated using pymatgen
data_Yb3Gd(Al3Pt)6
_symmetry_space_group_name_H-M   'P 1'
_cell_length_a   7.64911500
_cell_length_b   7.65810884
_cell_length_c   9.49803700
_cell_angle_alpha   90.00000000
_cell_angle_beta   90.00000000
_cell_angle_gamma   119.65419320
_symmetry_Int_Tables_number   1
_chemical_formula_structural   Yb3Gd(Al3Pt)6
_chemical_formula_sum   'Yb3 Gd1 Al18 Pt6'
_cell_volume   483.50394791
_cell_formula_units_Z   1
loop_
 _symmetry_equiv_pos_site_id
 _symmetry_equiv_pos_as_xyz
  1  'x, y, z'
loop_
 _atom_site_type_symbol
 _atom_site_label
 _atom_site_symmetry_multiplicity
 _atom_site_fract_x
 _atom_site_fract_y
 _atom_site_fract_z
 _atom_site_occupancy
  Yb  Yb0  1  0.003095  0.328144  0.750000  1
  Yb  Yb1  1  0.670465  0.996095  0.250000  1
  Yb  Yb2  1  0.330022  0.004800  0.750000  1
  Gd  Gd3  1  0.996755  0.669914  0.250000  1
  Al  Al4  1  0.130877  0.129625  0.250000  1
  Al  Al5  1  0.868307  0.868868  0.750000  1
  Al  Al6  1  0.999444  0.333649  0.075840  1
  Al  Al7  1  0.000773  0.665192  0.921864  1
  Al  Al8  1  0.000773  0.665192  0.578136  1
  Al  Al9  1  0.335791  0.000730  0.424124  1
  Al  Al10  1  0.999444  0.333649  0.424160  1
  Al  Al11  1  0.665050  0.000448  0.576412  1
  Al  Al12  1  0.665050  0.000448  0.923588  1
  Al  Al13  1  0.335791  0.000730  0.075876  1
  Al  Al14  1  0.332335  0.332522  0.557095  1
  Al  Al15  1  0.667512  0.667677  0.443834  1
  Al  Al16  1  0.667512  0.667677  0.056166  1
  Al  Al17  1  0.332335  0.332522  0.942905  1
  Al  Al18  1  0.338624  0.545138  0.250000  1
  Al  Al19  1  0.658901  0.454219  0.750000  1
  Al  Al20  1  0.547343  0.342696  0.250000  1
  Al  Al21  1  0.453064  0.659728  0.750000  1
  Pt  Pt22  1  0.671658  0.328127  0.999933  1
  Pt  Pt23  1  0.328620  0.671947  0.000250  1
  Pt  Pt24  1  0.328620  0.671947  0.499750  1
  Pt  Pt25  1  0.671658  0.328127  0.500067  1
  Pt  Pt26  1  0.000090  0.000094  0.000000  1
  Pt  Pt27  1  0.000090  0.000094  0.500000  1
