# generated using pymatgen
data_Zr12Al3Si(Ir2N)4
_symmetry_space_group_name_H-M   'P 1'
_cell_length_a   8.55643768
_cell_length_b   8.55643816
_cell_length_c   8.55643773
_cell_angle_alpha   60.13360802
_cell_angle_beta   60.13360940
_cell_angle_gamma   60.13360284
_symmetry_Int_Tables_number   1
_chemical_formula_structural   Zr12Al3Si(Ir2N)4
_chemical_formula_sum   'Zr12 Al3 Si1 Ir8 N4'
_cell_volume   444.30016098
_cell_formula_units_Z   1
loop_
 _symmetry_equiv_pos_site_id
 _symmetry_equiv_pos_as_xyz
  1  'x, y, z'
loop_
 _atom_site_type_symbol
 _atom_site_label
 _atom_site_symmetry_multiplicity
 _atom_site_fract_x
 _atom_site_fract_y
 _atom_site_fract_z
 _atom_site_occupancy
  Zr  Zr0  1  0.807535  0.807535  0.192974  1
  Zr  Zr1  1  0.192168  0.192168  0.807583  1
  Zr  Zr2  1  0.807535  0.192974  0.807535  1
  Zr  Zr3  1  0.192168  0.807583  0.192168  1
  Zr  Zr4  1  0.192974  0.807535  0.807535  1
  Zr  Zr5  1  0.807583  0.192168  0.192168  1
  Zr  Zr6  1  0.442465  0.442465  0.057026  1
  Zr  Zr7  1  0.057832  0.057832  0.442417  1
  Zr  Zr8  1  0.442465  0.057026  0.442465  1
  Zr  Zr9  1  0.057832  0.442417  0.057832  1
  Zr  Zr10  1  0.057026  0.442465  0.442465  1
  Zr  Zr11  1  0.442417  0.057832  0.057832  1
  Al  Al12  1  0.125000  0.625000  0.625000  1
  Al  Al13  1  0.625000  0.125000  0.625000  1
  Al  Al14  1  0.625000  0.625000  0.125000  1
  Si  Si15  1  0.625000  0.625000  0.625000  1
  Ir  Ir16  1  0.751844  0.417892  0.417892  1
  Ir  Ir17  1  0.417892  0.751844  0.417892  1
  Ir  Ir18  1  0.417892  0.417892  0.751844  1
  Ir  Ir19  1  0.415627  0.415627  0.415627  1
  Ir  Ir20  1  0.498156  0.832108  0.832108  1
  Ir  Ir21  1  0.832108  0.498156  0.832108  1
  Ir  Ir22  1  0.832108  0.832108  0.498156  1
  Ir  Ir23  1  0.834373  0.834373  0.834373  1
  N  N24  1  0.625000  0.125000  0.125000  1
  N  N25  1  0.125000  0.625000  0.125000  1
  N  N26  1  0.125000  0.125000  0.625000  1
  N  N27  1  0.125000  0.125000  0.125000  1
