# generated using pymatgen
data_TbY2Mg3RuAu2
_symmetry_space_group_name_H-M   'P 1'
_cell_length_a   7.56700658
_cell_length_b   7.53640166
_cell_length_c   4.06423600
_cell_angle_alpha   90.00000000
_cell_angle_beta   90.00000000
_cell_angle_gamma   119.66337756
_symmetry_Int_Tables_number   1
_chemical_formula_structural   TbY2Mg3RuAu2
_chemical_formula_sum   'Tb1 Y2 Mg3 Ru1 Au2'
_cell_volume   201.40064961
_cell_formula_units_Z   1
loop_
 _symmetry_equiv_pos_site_id
 _symmetry_equiv_pos_as_xyz
  1  'x, y, z'
loop_
 _atom_site_type_symbol
 _atom_site_label
 _atom_site_symmetry_multiplicity
 _atom_site_fract_x
 _atom_site_fract_y
 _atom_site_fract_z
 _atom_site_occupancy
  Tb  Tb0  1  0.399189  0.427017  0.000000  1
  Y  Y1  1  0.574144  0.974007  0.000000  1
  Y  Y2  1  0.026531  0.601635  0.000000  1
  Mg  Mg3  1  0.254346  0.000689  0.500000  1
  Mg  Mg4  1  0.998298  0.253247  0.500000  1
  Mg  Mg5  1  0.748018  0.746861  0.500000  1
  Ru  Ru6  1  0.333123  0.663177  0.500000  1
  Au  Au7  1  0.666280  0.333059  0.500000  1
  Au  Au8  1  0.000073  0.000307  0.000000  1
