# generated using pymatgen
data_Nd3Y(SnRh2)4
_symmetry_space_group_name_H-M   'P 1'
_cell_length_a   4.45800200
_cell_length_b   7.10812438
_cell_length_c   10.10947370
_cell_angle_alpha   90.54238689
_cell_angle_beta   90.00000000
_cell_angle_gamma   90.00000000
_symmetry_Int_Tables_number   1
_chemical_formula_structural   Nd3Y(SnRh2)4
_chemical_formula_sum   'Nd3 Y1 Sn4 Rh8'
_cell_volume   320.33497960
_cell_formula_units_Z   1
loop_
 _symmetry_equiv_pos_site_id
 _symmetry_equiv_pos_as_xyz
  1  'x, y, z'
loop_
 _atom_site_type_symbol
 _atom_site_label
 _atom_site_symmetry_multiplicity
 _atom_site_fract_x
 _atom_site_fract_y
 _atom_site_fract_z
 _atom_site_occupancy
  Nd  Nd0  1  0.750000  0.678228  0.905156  1
  Nd  Nd1  1  0.750000  0.820717  0.404139  1
  Nd  Nd2  1  0.250000  0.177661  0.594837  1
  Y  Y3  1  0.250000  0.323185  0.095216  1
  Sn  Sn4  1  0.250000  0.798810  0.140782  1
  Sn  Sn5  1  0.750000  0.200090  0.862498  1
  Sn  Sn6  1  0.750000  0.298917  0.354316  1
  Sn  Sn7  1  0.250000  0.696605  0.642841  1
  Rh  Rh8  1  0.250000  0.520721  0.383955  1
  Rh  Rh9  1  0.750000  0.479397  0.605929  1
  Rh  Rh10  1  0.750000  0.027527  0.115754  1
  Rh  Rh11  1  0.250000  0.985848  0.896494  1
  Rh  Rh12  1  0.250000  0.092241  0.311374  1
  Rh  Rh13  1  0.750000  0.907436  0.688005  1
  Rh  Rh14  1  0.750000  0.587312  0.184144  1
  Rh  Rh15  1  0.250000  0.405306  0.814560  1
