# generated using pymatgen
data_Ti4Re21Tc3Sn
_symmetry_space_group_name_H-M   'P 1'
_cell_length_a   8.38477429
_cell_length_b   8.37711986
_cell_length_c   8.37782401
_cell_angle_alpha   109.45167364
_cell_angle_beta   109.48743105
_cell_angle_gamma   109.49290026
_symmetry_Int_Tables_number   1
_chemical_formula_structural   Ti4Re21Tc3Sn
_chemical_formula_sum   'Ti4 Re21 Tc3 Sn1'
_cell_volume   452.89449800
_cell_formula_units_Z   1
loop_
 _symmetry_equiv_pos_site_id
 _symmetry_equiv_pos_as_xyz
  1  'x, y, z'
loop_
 _atom_site_type_symbol
 _atom_site_label
 _atom_site_symmetry_multiplicity
 _atom_site_fract_x
 _atom_site_fract_y
 _atom_site_fract_z
 _atom_site_occupancy
  Ti  Ti0  1  0.630469  0.000066  0.999991  1
  Ti  Ti1  1  0.999878  0.631443  0.999970  1
  Ti  Ti2  1  0.999783  0.999959  0.631334  1
  Ti  Ti3  1  0.368442  0.368614  0.368639  1
  Re  Re4  1  0.680502  0.398012  0.000007  1
  Re  Re5  1  0.000802  0.399189  0.681127  1
  Re  Re6  1  0.319699  0.718116  0.318921  1
  Re  Re7  1  0.319688  0.318891  0.718034  1
  Re  Re8  1  0.000709  0.680997  0.399175  1
  Re  Re9  1  0.680322  0.999937  0.397988  1
  Re  Re10  1  0.601608  0.600857  0.281989  1
  Re  Re11  1  0.282296  0.601899  0.601965  1
  Re  Re12  1  0.601471  0.281789  0.600820  1
  Re  Re13  1  0.376728  0.194945  0.999973  1
  Re  Re14  1  0.181745  0.805108  0.805018  1
  Re  Re15  1  0.376740  0.000078  0.194968  1
  Re  Re16  1  0.194073  0.377988  0.999999  1
  Re  Re17  1  0.000680  0.377794  0.194612  1
  Re  Re18  1  0.806129  0.183250  0.805417  1
  Re  Re19  1  0.806108  0.805461  0.183268  1
  Re  Re20  1  0.000592  0.194526  0.377759  1
  Re  Re21  1  0.194014  0.999929  0.377934  1
  Re  Re22  1  0.622865  0.622251  0.816801  1
  Re  Re23  1  0.816068  0.621984  0.622039  1
  Re  Re24  1  0.622815  0.816773  0.622235  1
  Tc  Tc25  1  0.399267  0.681596  0.999969  1
  Tc  Tc26  1  0.717762  0.318470  0.318411  1
  Tc  Tc27  1  0.399370  0.000045  0.681624  1
  Sn  Sn28  1  0.999374  0.000033  0.000013  1
