# generated using pymatgen
data_PuZr5(GaRu2)6
_symmetry_space_group_name_H-M   'P 1'
_cell_length_a   4.46995000
_cell_length_b   6.33207500
_cell_length_c   13.45201200
_cell_angle_alpha   90.00000000
_cell_angle_beta   90.00005545
_cell_angle_gamma   90.00000000
_symmetry_Int_Tables_number   1
_chemical_formula_structural   PuZr5(GaRu2)6
_chemical_formula_sum   'Pu1 Zr5 Ga6 Ru12'
_cell_volume   380.74653656
_cell_formula_units_Z   1
loop_
 _symmetry_equiv_pos_site_id
 _symmetry_equiv_pos_as_xyz
  1  'x, y, z'
loop_
 _atom_site_type_symbol
 _atom_site_label
 _atom_site_symmetry_multiplicity
 _atom_site_fract_x
 _atom_site_fract_y
 _atom_site_fract_z
 _atom_site_occupancy
  Pu  Pu0  1  0.000000  0.500000  0.000000  1
  Zr  Zr1  1  0.500000  0.000000  0.169329  1
  Zr  Zr2  1  0.999994  0.500000  0.335607  1
  Zr  Zr3  1  0.500001  0.000000  0.500000  1
  Zr  Zr4  1  0.000006  0.500000  0.664393  1
  Zr  Zr5  1  0.500002  0.000000  0.830671  1
  Ga  Ga6  1  0.000000  0.000000  0.000000  1
  Ga  Ga7  1  0.499997  0.500000  0.174589  1
  Ga  Ga8  1  0.999997  0.000000  0.334667  1
  Ga  Ga9  1  0.500001  0.500000  0.500000  1
  Ga  Ga10  1  0.000003  0.000000  0.665333  1
  Ga  Ga11  1  0.500002  0.500000  0.825410  1
  Ru  Ru12  1  0.500001  0.255458  0.000000  1
  Ru  Ru13  1  0.500001  0.744542  0.000000  1
  Ru  Ru14  1  0.999999  0.255957  0.161072  1
  Ru  Ru15  1  0.999999  0.744043  0.161072  1
  Ru  Ru16  1  0.499995  0.249007  0.332270  1
  Ru  Ru17  1  0.499995  0.750993  0.332270  1
  Ru  Ru18  1  0.000000  0.249777  0.500000  1
  Ru  Ru19  1  0.000000  0.750223  0.500000  1
  Ru  Ru20  1  0.500004  0.249007  0.667730  1
  Ru  Ru21  1  0.500004  0.750993  0.667730  1
  Ru  Ru22  1  0.000001  0.255957  0.838928  1
  Ru  Ru23  1  0.000001  0.744043  0.838928  1
