# generated using pymatgen
data_Zr4V4FeIr3
_symmetry_space_group_name_H-M   'P 1'
_cell_length_a   5.15161600
_cell_length_b   5.15161504
_cell_length_c   8.57503200
_cell_angle_alpha   90.00000000
_cell_angle_beta   90.00000000
_cell_angle_gamma   120.41009520
_symmetry_Int_Tables_number   1
_chemical_formula_structural   Zr4V4FeIr3
_chemical_formula_sum   'Zr4 V4 Fe1 Ir3'
_cell_volume   196.26538852
_cell_formula_units_Z   1
loop_
 _symmetry_equiv_pos_site_id
 _symmetry_equiv_pos_as_xyz
  1  'x, y, z'
loop_
 _atom_site_type_symbol
 _atom_site_label
 _atom_site_symmetry_multiplicity
 _atom_site_fract_x
 _atom_site_fract_y
 _atom_site_fract_z
 _atom_site_occupancy
  Zr  Zr0  1  0.332637  0.667363  0.439890  1
  Zr  Zr1  1  0.666887  0.333113  0.564032  1
  Zr  Zr2  1  0.666887  0.333113  0.935968  1
  Zr  Zr3  1  0.332637  0.667363  0.060110  1
  V  V4  1  0.826480  0.673037  0.250000  1
  V  V5  1  0.326963  0.173520  0.250000  1
  V  V6  1  0.171169  0.335590  0.750000  1
  V  V7  1  0.664410  0.828831  0.750000  1
  Fe  Fe8  1  0.187683  0.812317  0.750000  1
  Ir  Ir9  1  0.004230  0.995770  0.504962  1
  Ir  Ir10  1  0.004230  0.995770  0.995038  1
  Ir  Ir11  1  0.815790  0.184210  0.250000  1
