# generated using pymatgen
data_TbYb2Lu5(B6Os)4
_symmetry_space_group_name_H-M   'P 1'
_cell_length_a   3.60634500
_cell_length_b   9.07516457
_cell_length_c   11.46445000
_cell_angle_alpha   89.87377822
_cell_angle_beta   90.00000000
_cell_angle_gamma   90.00000000
_symmetry_Int_Tables_number   1
_chemical_formula_structural   TbYb2Lu5(B6Os)4
_chemical_formula_sum   'Tb1 Yb2 Lu5 B24 Os4'
_cell_volume   375.20960844
_cell_formula_units_Z   1
loop_
 _symmetry_equiv_pos_site_id
 _symmetry_equiv_pos_as_xyz
  1  'x, y, z'
loop_
 _atom_site_type_symbol
 _atom_site_label
 _atom_site_symmetry_multiplicity
 _atom_site_fract_x
 _atom_site_fract_y
 _atom_site_fract_z
 _atom_site_occupancy
  Tb  Tb0  1  0.000000  0.821536  0.086222  1
  Yb  Yb1  1  0.000000  0.323765  0.414647  1
  Yb  Yb2  1  0.000000  0.676102  0.585543  1
  Lu  Lu3  1  0.000000  0.178794  0.913613  1
  Lu  Lu4  1  0.000000  0.942592  0.370776  1
  Lu  Lu5  1  0.000000  0.057684  0.629301  1
  Lu  Lu6  1  0.000000  0.442798  0.129524  1
  Lu  Lu7  1  0.000000  0.556600  0.870184  1
  B  B8  1  0.500000  0.553790  0.432504  1
  B  B9  1  0.500000  0.445820  0.567875  1
  B  B10  1  0.500000  0.054473  0.066039  1
  B  B11  1  0.500000  0.947162  0.932974  1
  B  B12  1  0.500000  0.749255  0.418139  1
  B  B13  1  0.500000  0.250699  0.582336  1
  B  B14  1  0.500000  0.249635  0.080299  1
  B  B15  1  0.500000  0.750493  0.918211  1
  B  B16  1  0.500000  0.791734  0.264907  1
  B  B17  1  0.500000  0.207692  0.736195  1
  B  B18  1  0.500000  0.291161  0.234168  1
  B  B19  1  0.500000  0.708992  0.765421  1
  B  B20  1  0.500000  0.630067  0.184746  1
  B  B21  1  0.500000  0.368821  0.816051  1
  B  B22  1  0.500000  0.130448  0.314598  1
  B  B23  1  0.500000  0.870091  0.685392  1
  B  B24  1  0.500000  0.982875  0.212289  1
  B  B25  1  0.500000  0.018663  0.788034  1
  B  B26  1  0.500000  0.482467  0.287418  1
  B  B27  1  0.500000  0.516984  0.712770  1
  B  B28  1  0.500000  0.600652  0.027584  1
  B  B29  1  0.500000  0.397502  0.971841  1
  B  B30  1  0.500000  0.098496  0.472972  1
  B  B31  1  0.500000  0.901699  0.527160  1
  Os  Os32  1  0.000000  0.639827  0.318555  1
  Os  Os33  1  0.000000  0.359421  0.682263  1
  Os  Os34  1  0.000000  0.137719  0.178019  1
  Os  Os35  1  0.000000  0.863489  0.821430  1
