# generated using pymatgen
data_P6Pd21Pb2
_symmetry_space_group_name_H-M   'P 1'
_cell_length_a   8.61585942
_cell_length_b   8.61586918
_cell_length_c   8.61588900
_cell_angle_alpha   60.00010436
_cell_angle_beta   59.99985189
_cell_angle_gamma   59.99996421
_symmetry_Int_Tables_number   1
_chemical_formula_structural   P6Pd21Pb2
_chemical_formula_sum   'P6 Pd21 Pb2'
_cell_volume   452.25412533
_cell_formula_units_Z   1
loop_
 _symmetry_equiv_pos_site_id
 _symmetry_equiv_pos_as_xyz
  1  'x, y, z'
loop_
 _atom_site_type_symbol
 _atom_site_label
 _atom_site_symmetry_multiplicity
 _atom_site_fract_x
 _atom_site_fract_y
 _atom_site_fract_z
 _atom_site_occupancy
  P  P0  1  0.738122  0.738121  0.261878  1
  P  P1  1  0.261878  0.261879  0.738122  1
  P  P2  1  0.261887  0.738112  0.738119  1
  P  P3  1  0.738113  0.261887  0.738120  1
  P  P4  1  0.261887  0.738113  0.261880  1
  P  P5  1  0.738113  0.261888  0.261881  1
  Pd  Pd6  1  0.000000  0.000000  0.000000  1
  Pd  Pd7  1  0.615440  0.615440  0.615433  1
  Pd  Pd8  1  0.384564  0.846313  0.384560  1
  Pd  Pd9  1  0.656860  0.343140  0.999999  1
  Pd  Pd10  1  0.999992  0.343131  0.656870  1
  Pd  Pd11  1  0.656869  0.000007  0.999992  1
  Pd  Pd12  1  0.615444  0.615445  0.153673  1
  Pd  Pd13  1  0.999998  0.000000  0.656866  1
  Pd  Pd14  1  0.999994  0.343130  0.000007  1
  Pd  Pd15  1  0.656866  0.000008  0.343131  1
  Pd  Pd16  1  0.343131  0.999993  0.000008  1
  Pd  Pd17  1  0.000006  0.656870  0.999993  1
  Pd  Pd18  1  0.343134  0.999992  0.656869  1
  Pd  Pd19  1  0.000008  0.656869  0.343130  1
  Pd  Pd20  1  0.343140  0.656860  0.000001  1
  Pd  Pd21  1  0.153688  0.615435  0.615439  1
  Pd  Pd22  1  0.384560  0.384560  0.384567  1
  Pd  Pd23  1  0.846312  0.384565  0.384561  1
  Pd  Pd24  1  0.384556  0.384555  0.846327  1
  Pd  Pd25  1  0.615436  0.153687  0.615440  1
  Pd  Pd26  1  0.000002  0.000000  0.343134  1
  Pb  Pb27  1  0.249985  0.249984  0.250026  1
  Pb  Pb28  1  0.750015  0.750016  0.749974  1
