# generated using pymatgen
data_Rb2Pr10Fe2Br17
_symmetry_space_group_name_H-M   'P 1'
_cell_length_a   9.55417526
_cell_length_b   11.25262893
_cell_length_c   11.25335178
_cell_angle_alpha   107.61355892
_cell_angle_beta   93.40043714
_cell_angle_gamma   93.40715972
_symmetry_Int_Tables_number   1
_chemical_formula_structural   Rb2Pr10Fe2Br17
_chemical_formula_sum   'Rb2 Pr10 Fe2 Br17'
_cell_volume   1147.28127754
_cell_formula_units_Z   1
loop_
 _symmetry_equiv_pos_site_id
 _symmetry_equiv_pos_as_xyz
  1  'x, y, z'
loop_
 _atom_site_type_symbol
 _atom_site_label
 _atom_site_symmetry_multiplicity
 _atom_site_fract_x
 _atom_site_fract_y
 _atom_site_fract_z
 _atom_site_occupancy
  Rb  Rb0  1  0.998110  0.818220  0.179923  1
  Rb  Rb1  1  0.998101  0.179926  0.818213  1
  Pr  Pr2  1  0.437734  0.165302  0.165276  1
  Pr  Pr3  1  0.573525  0.505178  0.207522  1
  Pr  Pr4  1  0.825404  0.291265  0.291256  1
  Pr  Pr5  1  0.312440  0.438255  0.438262  1
  Pr  Pr6  1  0.426575  0.802281  0.488383  1
  Pr  Pr7  1  0.573441  0.207514  0.505158  1
  Pr  Pr8  1  0.685073  0.569960  0.569959  1
  Pr  Pr9  1  0.183278  0.705573  0.705628  1
  Pr  Pr10  1  0.426592  0.488395  0.802300  1
  Pr  Pr11  1  0.560255  0.830449  0.830453  1
  Fe  Fe12  1  0.570465  0.357987  0.358019  1
  Fe  Fe13  1  0.430731  0.643126  0.643169  1
  Br  Br14  1  0.580915  0.685118  0.022074  1
  Br  Br15  1  0.712580  0.066937  0.066925  1
  Br  Br16  1  0.856641  0.449087  0.120578  1
  Br  Br17  1  0.132644  0.208788  0.208758  1
  Br  Br18  1  0.283616  0.604142  0.256795  1
  Br  Br19  1  0.419060  0.980693  0.311270  1
  Br  Br20  1  0.716304  0.743727  0.396817  1
  Br  Br21  1  0.856562  0.120544  0.449078  1
  Br  Br22  1  0.999049  0.500498  0.500547  1
  Br  Br23  1  0.142915  0.879524  0.548924  1
  Br  Br24  1  0.283555  0.256815  0.604158  1
  Br  Br25  1  0.580846  0.022098  0.685082  1
  Br  Br26  1  0.716271  0.396796  0.743671  1
  Br  Br27  1  0.867971  0.791130  0.791049  1
  Br  Br28  1  0.142936  0.548934  0.879565  1
  Br  Br29  1  0.287317  0.930438  0.930454  1
  Br  Br30  1  0.419098  0.311296  0.980736  1
