# generated using pymatgen
data_La15NdMgHg3Rh4
_symmetry_space_group_name_H-M   'P 1'
_cell_length_a   10.06956013
_cell_length_b   10.13341844
_cell_length_c   10.14364900
_cell_angle_alpha   59.96659427
_cell_angle_beta   59.75630578
_cell_angle_gamma   59.69618396
_symmetry_Int_Tables_number   1
_chemical_formula_structural   La15NdMgHg3Rh4
_chemical_formula_sum   'La15 Nd1 Mg1 Hg3 Rh4'
_cell_volume   728.66369233
_cell_formula_units_Z   1
loop_
 _symmetry_equiv_pos_site_id
 _symmetry_equiv_pos_as_xyz
  1  'x, y, z'
loop_
 _atom_site_type_symbol
 _atom_site_label
 _atom_site_symmetry_multiplicity
 _atom_site_fract_x
 _atom_site_fract_y
 _atom_site_fract_z
 _atom_site_occupancy
  La  La0  1  0.597935  0.596671  0.597067  1
  La  La1  1  0.597935  0.596671  0.208329  1
  La  La2  1  0.597554  0.205807  0.598320  1
  La  La3  1  0.197018  0.600213  0.601385  1
  La  La4  1  0.057426  0.441993  0.443802  1
  La  La5  1  0.436990  0.061152  0.060323  1
  La  La6  1  0.436990  0.061152  0.441535  1
  La  La7  1  0.057426  0.441993  0.056779  1
  La  La8  1  0.437680  0.439570  0.061375  1
  La  La9  1  0.056836  0.057567  0.442798  1
  La  La10  1  0.189457  0.812632  0.812603  1
  La  La11  1  0.810844  0.189655  0.187550  1
  La  La12  1  0.810844  0.189655  0.811953  1
  La  La13  1  0.189457  0.812632  0.185308  1
  La  La14  1  0.810313  0.812243  0.188723  1
  Nd  Nd15  1  0.188379  0.188461  0.811580  1
  Mg  Mg16  1  0.538567  0.820759  0.820337  1
  Hg  Hg17  1  0.830446  0.835935  0.835636  1
  Hg  Hg18  1  0.830446  0.835935  0.497985  1
  Hg  Hg19  1  0.831813  0.496483  0.835853  1
  Rh  Rh20  1  0.390107  0.391892  0.391382  1
  Rh  Rh21  1  0.390107  0.391892  0.826618  1
  Rh  Rh22  1  0.390219  0.827055  0.391362  1
  Rh  Rh23  1  0.825214  0.391986  0.391399  1
