# generated using pymatgen
data_Nd8TiZn7Rh8
_symmetry_space_group_name_H-M   'P 1'
_cell_length_a   4.03912100
_cell_length_b   7.34004882
_cell_length_c   16.67633526
_cell_angle_alpha   90.22996511
_cell_angle_beta   90.00000000
_cell_angle_gamma   90.00000000
_symmetry_Int_Tables_number   1
_chemical_formula_structural   Nd8TiZn7Rh8
_chemical_formula_sum   'Nd8 Ti1 Zn7 Rh8'
_cell_volume   494.40508816
_cell_formula_units_Z   1
loop_
 _symmetry_equiv_pos_site_id
 _symmetry_equiv_pos_as_xyz
  1  'x, y, z'
loop_
 _atom_site_type_symbol
 _atom_site_label
 _atom_site_symmetry_multiplicity
 _atom_site_fract_x
 _atom_site_fract_y
 _atom_site_fract_z
 _atom_site_occupancy
  Nd  Nd0  1  0.750000  0.448417  0.216516  1
  Nd  Nd1  1  0.750000  0.955171  0.274162  1
  Nd  Nd2  1  0.750000  0.826811  0.058710  1
  Nd  Nd3  1  0.250000  0.045739  0.718131  1
  Nd  Nd4  1  0.250000  0.167963  0.939195  1
  Nd  Nd5  1  0.250000  0.545943  0.786062  1
  Nd  Nd6  1  0.750000  0.356344  0.439914  1
  Nd  Nd7  1  0.250000  0.667677  0.568162  1
  Ti  Ti8  1  0.250000  0.994047  0.439041  1
  Zn  Zn9  1  0.750000  0.499221  0.939754  1
  Zn  Zn10  1  0.750000  0.002176  0.564449  1
  Zn  Zn11  1  0.250000  0.636075  0.345196  1
  Zn  Zn12  1  0.750000  0.368215  0.650492  1
  Zn  Zn13  1  0.750000  0.875656  0.850173  1
  Zn  Zn14  1  0.250000  0.495800  0.060563  1
  Zn  Zn15  1  0.250000  0.120036  0.145538  1
  Rh  Rh16  1  0.250000  0.235582  0.558060  1
  Rh  Rh17  1  0.750000  0.253831  0.065139  1
  Rh  Rh18  1  0.250000  0.231076  0.323743  1
  Rh  Rh19  1  0.750000  0.252128  0.813233  1
  Rh  Rh20  1  0.250000  0.742848  0.935611  1
  Rh  Rh21  1  0.750000  0.752034  0.689578  1
  Rh  Rh22  1  0.750000  0.784736  0.433397  1
  Rh  Rh23  1  0.250000  0.742472  0.185180  1
