# generated using pymatgen
data_Ti(Nb3P2)2
_symmetry_space_group_name_H-M   'P 1'
_cell_length_a   7.69208592
_cell_length_b   7.69208600
_cell_length_c   13.83506925
_cell_angle_alpha   75.80525761
_cell_angle_beta   75.80525768
_cell_angle_gamma   25.99446187
_symmetry_Int_Tables_number   1
_chemical_formula_structural   Ti(Nb3P2)2
_chemical_formula_sum   'Ti2 Nb12 P8'
_cell_volume   347.23017514
_cell_formula_units_Z   2
loop_
 _symmetry_equiv_pos_site_id
 _symmetry_equiv_pos_as_xyz
  1  'x, y, z'
loop_
 _atom_site_type_symbol
 _atom_site_label
 _atom_site_symmetry_multiplicity
 _atom_site_fract_x
 _atom_site_fract_y
 _atom_site_fract_z
 _atom_site_occupancy
  Ti  Ti0  1  0.000000  0.000000  0.000000  1
  Ti  Ti1  1  0.500000  0.500000  0.500000  1
  Nb  Nb2  1  0.431364  0.431364  0.171373  1
  Nb  Nb3  1  0.568636  0.568636  0.828627  1
  Nb  Nb4  1  0.195366  0.195366  0.687795  1
  Nb  Nb5  1  0.804634  0.804634  0.312205  1
  Nb  Nb6  1  0.209070  0.209070  0.200476  1
  Nb  Nb7  1  0.790930  0.790930  0.799524  1
  Nb  Nb8  1  0.337242  0.337242  0.971740  1
  Nb  Nb9  1  0.662758  0.662758  0.028260  1
  Nb  Nb10  1  0.003581  0.003581  0.334657  1
  Nb  Nb11  1  0.996419  0.996419  0.665343  1
  Nb  Nb12  1  0.174971  0.174971  0.458715  1
  Nb  Nb13  1  0.825029  0.825029  0.541285  1
  P  P14  1  0.173512  0.173512  0.888874  1
  P  P15  1  0.826488  0.826488  0.111126  1
  P  P16  1  0.375981  0.375981  0.399758  1
  P  P17  1  0.624019  0.624019  0.600242  1
  P  P18  1  0.371293  0.371293  0.662571  1
  P  P19  1  0.628707  0.628707  0.337429  1
  P  P20  1  0.062423  0.062423  0.148989  1
  P  P21  1  0.937577  0.937577  0.851011  1
