# generated using pymatgen
data_Er3In3IrRhPb
_symmetry_space_group_name_H-M   'P 1'
_cell_length_a   7.82762500
_cell_length_b   7.82762639
_cell_length_c   3.88241200
_cell_angle_alpha   90.00000000
_cell_angle_beta   90.00000000
_cell_angle_gamma   119.99998988
_symmetry_Int_Tables_number   1
_chemical_formula_structural   Er3In3IrRhPb
_chemical_formula_sum   'Er3 In3 Ir1 Rh1 Pb1'
_cell_volume   206.01194256
_cell_formula_units_Z   1
loop_
 _symmetry_equiv_pos_site_id
 _symmetry_equiv_pos_as_xyz
  1  'x, y, z'
loop_
 _atom_site_type_symbol
 _atom_site_label
 _atom_site_symmetry_multiplicity
 _atom_site_fract_x
 _atom_site_fract_y
 _atom_site_fract_z
 _atom_site_occupancy
  Er  Er0  1  0.035856  0.614572  0.500000  1
  Er  Er1  1  0.385428  0.421284  0.500000  1
  Er  Er2  1  0.578716  0.964144  0.500000  1
  In  In3  1  0.244099  0.988132  0.000000  1
  In  In4  1  0.744033  0.755901  0.000000  1
  In  In5  1  0.011868  0.255967  0.000000  1
  Ir  Ir6  1  0.333333  0.666667  0.000000  1
  Rh  Rh7  1  0.000000  0.000000  0.500000  1
  Pb  Pb8  1  0.666667  0.333333  0.000000  1
