# generated using pymatgen
data_Fe4I11Cl
_symmetry_space_group_name_H-M   'P 1'
_cell_length_a   6.67486658
_cell_length_b   10.14759293
_cell_length_c   12.62786874
_cell_angle_alpha   71.57820454
_cell_angle_beta   90.56028132
_cell_angle_gamma   90.10438513
_symmetry_Int_Tables_number   1
_chemical_formula_structural   Fe4I11Cl
_chemical_formula_sum   'Fe4 I11 Cl1'
_cell_volume   811.46353486
_cell_formula_units_Z   1
loop_
 _symmetry_equiv_pos_site_id
 _symmetry_equiv_pos_as_xyz
  1  'x, y, z'
loop_
 _atom_site_type_symbol
 _atom_site_label
 _atom_site_symmetry_multiplicity
 _atom_site_fract_x
 _atom_site_fract_y
 _atom_site_fract_z
 _atom_site_occupancy
  Fe  Fe0  1  0.003868  0.180778  0.955865  1
  Fe  Fe1  1  0.509359  0.826720  0.545256  1
  Fe  Fe2  1  0.996468  0.819132  0.043882  1
  Fe  Fe3  1  0.501788  0.173252  0.460983  1
  I  I4  1  0.786674  0.324959  0.801459  1
  I  I5  1  0.295126  0.681044  0.697942  1
  I  I6  1  0.213764  0.674848  0.198547  1
  I  I7  1  0.718319  0.318545  0.309177  1
  I  I8  1  0.227897  0.316170  0.041989  1
  I  I9  1  0.731348  0.690324  0.461585  1
  I  I10  1  0.772378  0.684280  0.957642  1
  I  I11  1  0.281797  0.310043  0.545129  1
  I  I12  1  0.785227  0.000346  0.112087  1
  I  I13  1  0.281344  0.999727  0.385946  1
  I  I14  1  0.214591  0.999627  0.887730  1
  Cl  Cl15  1  0.680054  0.000209  0.594781  1
