# generated using pymatgen
data_Ca10NbMoN10
_symmetry_space_group_name_H-M   'P 1'
_cell_length_a   6.94545127
_cell_length_b   6.94545112
_cell_length_c   8.90637060
_cell_angle_alpha   80.54527398
_cell_angle_beta   80.54527407
_cell_angle_gamma   59.73818272
_symmetry_Int_Tables_number   1
_chemical_formula_structural   Ca10NbMoN10
_chemical_formula_sum   'Ca10 Nb1 Mo1 N10'
_cell_volume   364.37208239
_cell_formula_units_Z   1
loop_
 _symmetry_equiv_pos_site_id
 _symmetry_equiv_pos_as_xyz
  1  'x, y, z'
loop_
 _atom_site_type_symbol
 _atom_site_label
 _atom_site_symmetry_multiplicity
 _atom_site_fract_x
 _atom_site_fract_y
 _atom_site_fract_z
 _atom_site_occupancy
  Ca  Ca0  1  0.875836  0.353018  0.834404  1
  Ca  Ca1  1  0.874440  0.874440  0.824120  1
  Ca  Ca2  1  0.739302  0.739302  0.527840  1
  Ca  Ca3  1  0.753135  0.249154  0.506625  1
  Ca  Ca4  1  0.629255  0.136696  0.151333  1
  Ca  Ca5  1  0.353018  0.875836  0.834404  1
  Ca  Ca6  1  0.249154  0.753135  0.506625  1
  Ca  Ca7  1  0.240571  0.240571  0.495534  1
  Ca  Ca8  1  0.140632  0.140632  0.160944  1
  Ca  Ca9  1  0.136696  0.629255  0.151333  1
  Nb  Nb10  1  0.369421  0.369421  0.774555  1
  Mo  Mo11  1  0.632482  0.632482  0.224950  1
  N  N12  1  0.909079  0.470255  0.319634  1
  N  N13  1  0.996537  0.996537  0.017331  1
  N  N14  1  0.679151  0.679151  0.014189  1
  N  N15  1  0.536465  0.536465  0.692664  1
  N  N16  1  0.470255  0.909079  0.319634  1
  N  N17  1  0.538387  0.084293  0.675531  1
  N  N18  1  0.472766  0.472766  0.295495  1
  N  N19  1  0.319799  0.319799  0.996627  1
  N  N20  1  0.061614  0.061614  0.646500  1
  N  N21  1  0.084293  0.538387  0.675531  1
