# generated using pymatgen
data_Y6Ho10Tl2Cd2IrPd3
_symmetry_space_group_name_H-M   'P 1'
_cell_length_a   9.67952637
_cell_length_b   9.65817465
_cell_length_c   9.65817400
_cell_angle_alpha   59.99999539
_cell_angle_beta   60.07293801
_cell_angle_gamma   60.07294911
_symmetry_Int_Tables_number   1
_chemical_formula_structural   Y6Ho10Tl2Cd2IrPd3
_chemical_formula_sum   'Y6 Ho10 Tl2 Cd2 Ir1 Pd3'
_cell_volume   639.15637243
_cell_formula_units_Z   1
loop_
 _symmetry_equiv_pos_site_id
 _symmetry_equiv_pos_as_xyz
  1  'x, y, z'
loop_
 _atom_site_type_symbol
 _atom_site_label
 _atom_site_symmetry_multiplicity
 _atom_site_fract_x
 _atom_site_fract_y
 _atom_site_fract_z
 _atom_site_occupancy
  Y  Y0  1  0.938107  0.564844  0.563544  1
  Y  Y1  1  0.566440  0.938104  0.935120  1
  Y  Y2  1  0.566440  0.938104  0.560337  1
  Y  Y3  1  0.938107  0.564844  0.933505  1
  Y  Y4  1  0.565304  0.560465  0.937116  1
  Y  Y5  1  0.935736  0.934653  0.564806  1
  Ho  Ho6  1  0.356835  0.349620  0.350367  1
  Ho  Ho7  1  0.356835  0.349620  0.943179  1
  Ho  Ho8  1  0.356652  0.943754  0.349798  1
  Ho  Ho9  1  0.936768  0.353919  0.354657  1
  Ho  Ho10  1  0.807708  0.187183  0.188319  1
  Ho  Ho11  1  0.188207  0.811074  0.811546  1
  Ho  Ho12  1  0.188207  0.811074  0.189175  1
  Ho  Ho13  1  0.807708  0.187183  0.816787  1
  Ho  Ho14  1  0.188349  0.188022  0.811815  1
  Ho  Ho15  1  0.807188  0.816341  0.188235  1
  Tl  Tl16  1  0.583413  0.584215  0.587251  1
  Tl  Tl17  1  0.583413  0.584215  0.245122  1
  Cd  Cd18  1  0.581832  0.249048  0.584561  1
  Cd  Cd19  1  0.249423  0.582123  0.584228  1
  Ir  Ir20  1  0.569694  0.143912  0.143198  1
  Pd  Pd21  1  0.142393  0.145190  0.144675  1
  Pd  Pd22  1  0.142393  0.145190  0.567741  1
  Pd  Pd23  1  0.142851  0.567307  0.144921  1
