# generated using pymatgen
data_Ho12Fe2Co2BiRu
_symmetry_space_group_name_H-M   'P 1'
_cell_length_a   8.28818311
_cell_length_b   8.28818264
_cell_length_c   8.28818284
_cell_angle_alpha   111.22402820
_cell_angle_beta   111.76535229
_cell_angle_gamma   105.49642145
_symmetry_Int_Tables_number   1
_chemical_formula_structural   Ho12Fe2Co2BiRu
_chemical_formula_sum   'Ho12 Fe2 Co2 Bi1 Ru1'
_cell_volume   436.70624443
_cell_formula_units_Z   1
loop_
 _symmetry_equiv_pos_site_id
 _symmetry_equiv_pos_as_xyz
  1  'x, y, z'
loop_
 _atom_site_type_symbol
 _atom_site_label
 _atom_site_symmetry_multiplicity
 _atom_site_fract_x
 _atom_site_fract_y
 _atom_site_fract_z
 _atom_site_occupancy
  Ho  Ho0  1  0.281013  0.184008  0.465022  1
  Ho  Ho1  1  0.718987  0.815992  0.534978  1
  Ho  Ho2  1  0.281013  0.815992  0.097004  1
  Ho  Ho3  1  0.718987  0.184008  0.902996  1
  Ho  Ho4  1  0.618193  0.309746  0.308447  1
  Ho  Ho5  1  0.381807  0.690254  0.691553  1
  Ho  Ho6  1  0.001299  0.309746  0.691553  1
  Ho  Ho7  1  0.998701  0.690254  0.308447  1
  Ho  Ho8  1  0.213889  0.411077  0.197189  1
  Ho  Ho9  1  0.786111  0.588923  0.802811  1
  Ho  Ho10  1  0.213889  0.016701  0.802811  1
  Ho  Ho11  1  0.786111  0.983299  0.197189  1
  Fe  Fe12  1  0.000000  0.382900  0.382900  1
  Fe  Fe13  1  0.000000  0.617100  0.617100  1
  Co  Co14  1  0.390262  0.890262  0.500000  1
  Co  Co15  1  0.609738  0.109738  0.500000  1
  Bi  Bi16  1  0.500000  0.500000  0.000000  1
  Ru  Ru17  1  0.000000  0.000000  0.000000  1
