# generated using pymatgen
data_Ca8Si4SnGePd8
_symmetry_space_group_name_H-M   'P 1'
_cell_length_a   11.03620168
_cell_length_b   11.01954833
_cell_length_c   7.87398241
_cell_angle_alpha   71.26527602
_cell_angle_beta   71.15121345
_cell_angle_gamma   30.75646697
_symmetry_Int_Tables_number   1
_chemical_formula_structural   Ca8Si4SnGePd8
_chemical_formula_sum   'Ca8 Si4 Sn1 Ge1 Pd8'
_cell_volume   461.55902063
_cell_formula_units_Z   1
loop_
 _symmetry_equiv_pos_site_id
 _symmetry_equiv_pos_as_xyz
  1  'x, y, z'
loop_
 _atom_site_type_symbol
 _atom_site_label
 _atom_site_symmetry_multiplicity
 _atom_site_fract_x
 _atom_site_fract_y
 _atom_site_fract_z
 _atom_site_occupancy
  Ca  Ca0  1  0.925537  0.212130  0.330927  1
  Ca  Ca1  1  0.066802  0.796239  0.670138  1
  Ca  Ca2  1  0.790054  0.072530  0.167958  1
  Ca  Ca3  1  0.455098  0.198656  0.908279  1
  Ca  Ca4  1  0.793262  0.550335  0.596464  1
  Ca  Ca5  1  0.208437  0.445763  0.404559  1
  Ca  Ca6  1  0.202507  0.935152  0.828657  1
  Ca  Ca7  1  0.542447  0.797324  0.095105  1
  Si  Si8  1  0.040412  0.306051  0.931754  1
  Si  Si9  1  0.700468  0.956729  0.565076  1
  Si  Si10  1  0.960057  0.696125  0.061912  1
  Si  Si11  1  0.631252  0.366803  0.751402  1
  Sn  Sn12  1  0.348467  0.650337  0.249791  1
  Ge  Ge13  1  0.299383  0.050291  0.432197  1
  Pd  Pd14  1  0.580342  0.288837  0.538426  1
  Pd  Pd15  1  0.709998  0.419925  0.961074  1
  Pd  Pd16  1  0.302825  0.562266  0.006793  1
  Pd  Pd17  1  0.440125  0.688377  0.496468  1
  Pd  Pd18  1  0.660729  0.901634  0.320411  1
  Pd  Pd19  1  0.907595  0.648363  0.819704  1
  Pd  Pd20  1  0.368271  0.079120  0.689767  1
  Pd  Pd21  1  0.065931  0.377012  0.173139  1
