# generated using pymatgen
data_Pr2Pa(InRh)3
_symmetry_space_group_name_H-M   'P 1'
_cell_length_a   7.71514475
_cell_length_b   7.93096237
_cell_length_c   3.91067100
_cell_angle_alpha   90.00000000
_cell_angle_beta   90.00000000
_cell_angle_gamma   120.92974330
_symmetry_Int_Tables_number   1
_chemical_formula_structural   Pr2Pa(InRh)3
_chemical_formula_sum   'Pr2 Pa1 In3 Rh3'
_cell_volume   205.26097156
_cell_formula_units_Z   1
loop_
 _symmetry_equiv_pos_site_id
 _symmetry_equiv_pos_as_xyz
  1  'x, y, z'
loop_
 _atom_site_type_symbol
 _atom_site_label
 _atom_site_symmetry_multiplicity
 _atom_site_fract_x
 _atom_site_fract_y
 _atom_site_fract_z
 _atom_site_occupancy
  Pr  Pr0  1  0.409308  0.408603  0.500000  1
  Pr  Pr1  1  0.590692  0.999296  0.500000  1
  Pa  Pa2  1  0.000000  0.583459  0.500000  1
  In  In3  1  0.741418  0.746560  0.000000  1
  In  In4  1  0.000000  0.240646  0.000000  1
  In  In5  1  0.258582  0.005142  0.000000  1
  Rh  Rh6  1  0.281887  0.658115  0.000000  1
  Rh  Rh7  1  0.000000  0.981951  0.500000  1
  Rh  Rh8  1  0.718113  0.376227  0.000000  1
