# generated using pymatgen
data_Mn2Ag(PO4)2
_symmetry_space_group_name_H-M   'P 1'
_cell_length_a   5.15559573
_cell_length_b   5.63860276
_cell_length_c   6.61256393
_cell_angle_alpha   73.99336789
_cell_angle_beta   86.09997490
_cell_angle_gamma   67.17848333
_symmetry_Int_Tables_number   1
_chemical_formula_structural   Mn2Ag(PO4)2
_chemical_formula_sum   'Mn2 Ag1 P2 O8'
_cell_volume   170.14748034
_cell_formula_units_Z   1
loop_
 _symmetry_equiv_pos_site_id
 _symmetry_equiv_pos_as_xyz
  1  'x, y, z'
loop_
 _atom_site_type_symbol
 _atom_site_label
 _atom_site_symmetry_multiplicity
 _atom_site_fract_x
 _atom_site_fract_y
 _atom_site_fract_z
 _atom_site_occupancy
  Mn  Mn0  1  0.297132  0.259853  0.306114  1
  Mn  Mn1  1  0.702874  0.740137  0.693889  1
  Ag  Ag2  1  0.999997  0.999996  0.000002  1
  P  P3  1  0.644229  0.648710  0.226249  1
  P  P4  1  0.355768  0.351293  0.773749  1
  O  O5  1  0.254153  0.233302  0.993615  1
  O  O6  1  0.360083  0.623528  0.188822  1
  O  O7  1  0.861694  0.371930  0.334987  1
  O  O8  1  0.595363  0.847842  0.362943  1
  O  O9  1  0.404642  0.152165  0.637051  1
  O  O10  1  0.138306  0.628078  0.665015  1
  O  O11  1  0.639915  0.376470  0.811182  1
  O  O12  1  0.745842  0.766696  0.006382  1
