# generated using pymatgen
data_Tb3Tm5(InPt)2
_symmetry_space_group_name_H-M   'P 1'
_cell_length_a   9.66379081
_cell_length_b   9.66379095
_cell_length_c   9.66379100
_cell_angle_alpha   59.99999640
_cell_angle_beta   59.99999594
_cell_angle_gamma   59.99999775
_symmetry_Int_Tables_number   1
_chemical_formula_structural   Tb3Tm5(InPt)2
_chemical_formula_sum   'Tb6 Tm10 In4 Pt4'
_cell_volume   638.15701190
_cell_formula_units_Z   2
loop_
 _symmetry_equiv_pos_site_id
 _symmetry_equiv_pos_as_xyz
  1  'x, y, z'
loop_
 _atom_site_type_symbol
 _atom_site_label
 _atom_site_symmetry_multiplicity
 _atom_site_fract_x
 _atom_site_fract_y
 _atom_site_fract_z
 _atom_site_occupancy
  Tb  Tb0  1  0.938582  0.561418  0.561418  1
  Tb  Tb1  1  0.561418  0.938582  0.938582  1
  Tb  Tb2  1  0.561418  0.938582  0.561418  1
  Tb  Tb3  1  0.938582  0.561418  0.938582  1
  Tb  Tb4  1  0.561418  0.561418  0.938582  1
  Tb  Tb5  1  0.938582  0.938582  0.561418  1
  Tm  Tm6  1  0.350182  0.350182  0.350182  1
  Tm  Tm7  1  0.350182  0.350182  0.949455  1
  Tm  Tm8  1  0.350182  0.949455  0.350182  1
  Tm  Tm9  1  0.949455  0.350182  0.350182  1
  Tm  Tm10  1  0.811675  0.188325  0.188325  1
  Tm  Tm11  1  0.188325  0.811675  0.811675  1
  Tm  Tm12  1  0.188325  0.811675  0.188325  1
  Tm  Tm13  1  0.811675  0.188325  0.811675  1
  Tm  Tm14  1  0.188325  0.188325  0.811675  1
  Tm  Tm15  1  0.811675  0.811675  0.188325  1
  In  In16  1  0.582247  0.582247  0.582247  1
  In  In17  1  0.582247  0.582247  0.253260  1
  In  In18  1  0.582247  0.253260  0.582247  1
  In  In19  1  0.253260  0.582247  0.582247  1
  Pt  Pt20  1  0.142711  0.142711  0.142711  1
  Pt  Pt21  1  0.142711  0.142711  0.571868  1
  Pt  Pt22  1  0.142711  0.571868  0.142711  1
  Pt  Pt23  1  0.571868  0.142711  0.142711  1
