# generated using pymatgen
data_EuCoSb2Pd
_symmetry_space_group_name_H-M   'P 1'
_cell_length_a   4.57712700
_cell_length_b   4.57712700
_cell_length_c   10.17319900
_cell_angle_alpha   90.00000000
_cell_angle_beta   90.00000000
_cell_angle_gamma   90.00000000
_symmetry_Int_Tables_number   1
_chemical_formula_structural   EuCoSb2Pd
_chemical_formula_sum   'Eu2 Co2 Sb4 Pd2'
_cell_volume   213.12945065
_cell_formula_units_Z   2
loop_
 _symmetry_equiv_pos_site_id
 _symmetry_equiv_pos_as_xyz
  1  'x, y, z'
loop_
 _atom_site_type_symbol
 _atom_site_label
 _atom_site_symmetry_multiplicity
 _atom_site_fract_x
 _atom_site_fract_y
 _atom_site_fract_z
 _atom_site_occupancy
  Eu  Eu0  1  0.500000  0.000000  0.248837  1
  Eu  Eu1  1  0.000000  0.500000  0.751163  1
  Co  Co2  1  0.500000  0.000000  0.609452  1
  Co  Co3  1  0.000000  0.500000  0.390548  1
  Sb  Sb4  1  0.000000  0.000000  0.500000  1
  Sb  Sb5  1  0.500000  0.500000  0.500000  1
  Sb  Sb6  1  0.500000  0.000000  0.852469  1
  Sb  Sb7  1  0.000000  0.500000  0.147531  1
  Pd  Pd8  1  0.000000  0.000000  0.000000  1
  Pd  Pd9  1  0.500000  0.500000  0.000000  1
