# generated using pymatgen
data_CdAg6CO11
_symmetry_space_group_name_H-M   'P 1'
_cell_length_a   7.04175372
_cell_length_b   7.04175403
_cell_length_c   7.04175326
_cell_angle_alpha   61.18554340
_cell_angle_beta   61.18554518
_cell_angle_gamma   61.18553576
_symmetry_Int_Tables_number   1
_chemical_formula_structural   CdAg6CO11
_chemical_formula_sum   'Cd1 Ag6 C1 O11'
_cell_volume   253.48866642
_cell_formula_units_Z   1
loop_
 _symmetry_equiv_pos_site_id
 _symmetry_equiv_pos_as_xyz
  1  'x, y, z'
loop_
 _atom_site_type_symbol
 _atom_site_label
 _atom_site_symmetry_multiplicity
 _atom_site_fract_x
 _atom_site_fract_y
 _atom_site_fract_z
 _atom_site_occupancy
  Cd  Cd0  1  0.999219  0.999219  0.999219  1
  Ag  Ag1  1  0.499468  0.000449  0.000449  1
  Ag  Ag2  1  0.500247  0.500247  0.000600  1
  Ag  Ag3  1  0.500247  0.000600  0.500247  1
  Ag  Ag4  1  0.000449  0.000449  0.499468  1
  Ag  Ag5  1  0.000600  0.500247  0.500247  1
  Ag  Ag6  1  0.000449  0.499468  0.000449  1
  C  C7  1  0.499946  0.499946  0.499946  1
  O  O8  1  0.578876  0.145619  0.145619  1
  O  O9  1  0.145619  0.578876  0.145619  1
  O  O10  1  0.139624  0.139624  0.139624  1
  O  O11  1  0.145619  0.145619  0.578876  1
  O  O12  1  0.603858  0.603858  0.292135  1
  O  O13  1  0.603858  0.292135  0.603858  1
  O  O14  1  0.292135  0.603858  0.603858  1
  O  O15  1  0.855414  0.855414  0.418959  1
  O  O16  1  0.855414  0.418959  0.855414  1
  O  O17  1  0.859999  0.859999  0.859999  1
  O  O18  1  0.418959  0.855414  0.855414  1
