# generated using pymatgen
data_TiCo2TcB2
_symmetry_space_group_name_H-M   'P 1'
_cell_length_a   3.21493200
_cell_length_b   5.70374100
_cell_length_c   6.61866200
_cell_angle_alpha   90.00000000
_cell_angle_beta   90.00000000
_cell_angle_gamma   90.00000000
_symmetry_Int_Tables_number   1
_chemical_formula_structural   TiCo2TcB2
_chemical_formula_sum   'Ti2 Co4 Tc2 B4'
_cell_volume   121.36732814
_cell_formula_units_Z   2
loop_
 _symmetry_equiv_pos_site_id
 _symmetry_equiv_pos_as_xyz
  1  'x, y, z'
loop_
 _atom_site_type_symbol
 _atom_site_label
 _atom_site_symmetry_multiplicity
 _atom_site_fract_x
 _atom_site_fract_y
 _atom_site_fract_z
 _atom_site_occupancy
  Ti  Ti0  1  0.750000  0.972471  0.173323  1
  Ti  Ti1  1  0.750000  0.472471  0.326677  1
  Co  Co2  1  0.250000  0.147434  0.439348  1
  Co  Co3  1  0.250000  0.647434  0.060652  1
  Co  Co4  1  0.750000  0.853039  0.553345  1
  Co  Co5  1  0.750000  0.353039  0.946655  1
  Tc  Tc6  1  0.250000  0.029073  0.823745  1
  Tc  Tc7  1  0.250000  0.529073  0.676255  1
  B  B8  1  0.250000  0.272574  0.120031  1
  B  B9  1  0.250000  0.772574  0.379969  1
  B  B10  1  0.750000  0.725410  0.870455  1
  B  B11  1  0.750000  0.225410  0.629545  1
