# generated using pymatgen
data_Ho3Th2Sn3C
_symmetry_space_group_name_H-M   'P 1'
_cell_length_a   9.17216600
_cell_length_b   9.10290417
_cell_length_c   6.52593300
_cell_angle_alpha   90.00000000
_cell_angle_beta   90.00000000
_cell_angle_gamma   120.25200932
_symmetry_Int_Tables_number   1
_chemical_formula_structural   Ho3Th2Sn3C
_chemical_formula_sum   'Ho6 Th4 Sn6 C2'
_cell_volume   470.67014945
_cell_formula_units_Z   2
loop_
 _symmetry_equiv_pos_site_id
 _symmetry_equiv_pos_as_xyz
  1  'x, y, z'
loop_
 _atom_site_type_symbol
 _atom_site_label
 _atom_site_symmetry_multiplicity
 _atom_site_fract_x
 _atom_site_fract_y
 _atom_site_fract_z
 _atom_site_occupancy
  Ho  Ho0  1  0.333395  0.666791  0.500000  1
  Ho  Ho1  1  0.666605  0.333209  0.500000  1
  Ho  Ho2  1  0.666605  0.333209  0.000000  1
  Ho  Ho3  1  0.333395  0.666791  0.000000  1
  Ho  Ho4  1  0.219120  0.000000  0.750000  1
  Ho  Ho5  1  0.780880  0.000000  0.250000  1
  Th  Th6  1  0.000863  0.220393  0.750000  1
  Th  Th7  1  0.999137  0.779607  0.250000  1
  Th  Th8  1  0.780470  0.779607  0.750000  1
  Th  Th9  1  0.219530  0.220393  0.250000  1
  Sn  Sn10  1  0.591635  0.000000  0.750000  1
  Sn  Sn11  1  0.408365  0.000000  0.250000  1
  Sn  Sn12  1  0.003041  0.597915  0.750000  1
  Sn  Sn13  1  0.996959  0.402085  0.250000  1
  Sn  Sn14  1  0.405126  0.402085  0.750000  1
  Sn  Sn15  1  0.594874  0.597915  0.250000  1
  C  C16  1  0.000000  0.000000  0.500000  1
  C  C17  1  0.000000  0.000000  0.000000  1
