# generated using pymatgen
data_Yb2Th3Si12Ir19
_symmetry_space_group_name_H-M   'P 1'
_cell_length_a   12.91315071
_cell_length_b   12.91315162
_cell_length_c   4.02814400
_cell_angle_alpha   90.00000000
_cell_angle_beta   90.00000000
_cell_angle_gamma   120.12520063
_symmetry_Int_Tables_number   1
_chemical_formula_structural   Yb2Th3Si12Ir19
_chemical_formula_sum   'Yb2 Th3 Si12 Ir19'
_cell_volume   580.96610799
_cell_formula_units_Z   1
loop_
 _symmetry_equiv_pos_site_id
 _symmetry_equiv_pos_as_xyz
  1  'x, y, z'
loop_
 _atom_site_type_symbol
 _atom_site_label
 _atom_site_symmetry_multiplicity
 _atom_site_fract_x
 _atom_site_fract_y
 _atom_site_fract_z
 _atom_site_occupancy
  Yb  Yb0  1  0.812570  0.998383  0.500000  1
  Yb  Yb1  1  0.998383  0.812570  0.500000  1
  Th  Th2  1  0.334441  0.666622  0.000000  1
  Th  Th3  1  0.666622  0.334441  0.000000  1
  Th  Th4  1  0.181419  0.181419  0.500000  1
  Si  Si5  1  0.819851  0.819851  0.000000  1
  Si  Si6  1  0.179371  0.993872  0.000000  1
  Si  Si7  1  0.993872  0.179371  0.000000  1
  Si  Si8  1  0.311308  0.833962  0.500000  1
  Si  Si9  1  0.164532  0.477016  0.500000  1
  Si  Si10  1  0.525130  0.689702  0.500000  1
  Si  Si11  1  0.833962  0.311308  0.500000  1
  Si  Si12  1  0.477016  0.164532  0.500000  1
  Si  Si13  1  0.689702  0.525130  0.500000  1
  Si  Si14  1  0.370068  0.370068  0.000000  1
  Si  Si15  1  0.632835  0.000273  0.000000  1
  Si  Si16  1  0.000273  0.632835  0.000000  1
  Ir  Ir17  1  0.195444  0.815966  0.000000  1
  Ir  Ir18  1  0.181454  0.375182  0.000000  1
  Ir  Ir19  1  0.622601  0.805995  0.000000  1
  Ir  Ir20  1  0.815966  0.195444  0.000000  1
  Ir  Ir21  1  0.375182  0.181454  0.000000  1
  Ir  Ir22  1  0.805995  0.622601  0.000000  1
  Ir  Ir23  1  0.720635  0.720635  0.500000  1
  Ir  Ir24  1  0.281493  0.999655  0.500000  1
  Ir  Ir25  1  0.999655  0.281493  0.500000  1
  Ir  Ir26  1  0.126749  0.638164  0.500000  1
  Ir  Ir27  1  0.362035  0.489084  0.500000  1
  Ir  Ir28  1  0.511561  0.874162  0.500000  1
  Ir  Ir29  1  0.638164  0.126749  0.500000  1
  Ir  Ir30  1  0.489084  0.362035  0.500000  1
  Ir  Ir31  1  0.874162  0.511561  0.500000  1
  Ir  Ir32  1  0.552694  0.552694  0.000000  1
  Ir  Ir33  1  0.450124  0.002882  0.000000  1
  Ir  Ir34  1  0.002882  0.450124  0.000000  1
  Ir  Ir35  1  0.002765  0.002765  0.000000  1
