# generated using pymatgen
data_Dy2ErIn3Rh2Au
_symmetry_space_group_name_H-M   'P 1'
_cell_length_a   7.74796015
_cell_length_b   7.73803037
_cell_length_c   3.80426400
_cell_angle_alpha   90.00000000
_cell_angle_beta   90.00000000
_cell_angle_gamma   120.01973836
_symmetry_Int_Tables_number   1
_chemical_formula_structural   Dy2ErIn3Rh2Au
_chemical_formula_sum   'Dy2 Er1 In3 Rh2 Au1'
_cell_volume   197.48434481
_cell_formula_units_Z   1
loop_
 _symmetry_equiv_pos_site_id
 _symmetry_equiv_pos_as_xyz
  1  'x, y, z'
loop_
 _atom_site_type_symbol
 _atom_site_label
 _atom_site_symmetry_multiplicity
 _atom_site_fract_x
 _atom_site_fract_y
 _atom_site_fract_z
 _atom_site_occupancy
  Dy  Dy0  1  0.019559  0.607693  0.500000  1
  Dy  Dy1  1  0.392466  0.412116  0.500000  1
  Er  Er2  1  0.588050  0.979903  0.500000  1
  In  In3  1  0.257547  0.997925  0.000000  1
  In  In4  1  0.740309  0.743047  0.000000  1
  In  In5  1  0.001694  0.259097  0.000000  1
  Rh  Rh6  1  0.334813  0.668529  0.000000  1
  Rh  Rh7  1  0.999205  0.999910  0.500000  1
  Au  Au8  1  0.666356  0.331780  0.000000  1
