# generated using pymatgen
data_SrMnNiP2
_symmetry_space_group_name_H-M   'P 1'
_cell_length_a   8.44118472
_cell_length_b   8.43691401
_cell_length_c   8.43691394
_cell_angle_alpha   154.12621446
_cell_angle_beta   90.75640499
_cell_angle_gamma   94.99048771
_symmetry_Int_Tables_number   1
_chemical_formula_structural   SrMnNiP2
_chemical_formula_sum   'Sr3 Mn3 Ni3 P6'
_cell_volume   255.36622873
_cell_formula_units_Z   3
loop_
 _symmetry_equiv_pos_site_id
 _symmetry_equiv_pos_as_xyz
  1  'x, y, z'
loop_
 _atom_site_type_symbol
 _atom_site_label
 _atom_site_symmetry_multiplicity
 _atom_site_fract_x
 _atom_site_fract_y
 _atom_site_fract_z
 _atom_site_occupancy
  Sr  Sr0  1  0.330419  0.332574  0.997845  1
  Sr  Sr1  1  0.670383  0.668322  0.002061  1
  Sr  Sr2  1  0.998249  0.999722  0.998527  1
  Mn  Mn3  1  0.577977  0.830247  0.747729  1
  Mn  Mn4  1  0.250738  0.500405  0.750333  1
  Mn  Mn5  1  0.753118  0.501732  0.251386  1
  Ni  Ni6  1  0.084075  0.833143  0.250932  1
  Ni  Ni7  1  0.413512  0.163811  0.249702  1
  Ni  Ni8  1  0.920091  0.170676  0.749415  1
  P  P9  1  0.313784  0.664964  0.648820  1
  P  P10  1  0.683430  0.334997  0.348434  1
  P  P11  1  0.987718  0.339887  0.647831  1
  P  P12  1  0.352790  0.998935  0.353854  1
  P  P13  1  0.016193  0.663592  0.352601  1
  P  P14  1  0.647522  0.996994  0.650529  1
