# generated using pymatgen
data_Zr2Co3BIr3
_symmetry_space_group_name_H-M   'P 1'
_cell_length_a   5.62737753
_cell_length_b   5.62737714
_cell_length_c   5.55164063
_cell_angle_alpha   59.54768948
_cell_angle_beta   59.54769050
_cell_angle_gamma   59.99999147
_symmetry_Int_Tables_number   1
_chemical_formula_structural   Zr2Co3BIr3
_chemical_formula_sum   'Zr2 Co3 B1 Ir3'
_cell_volume   123.45684899
_cell_formula_units_Z   1
loop_
 _symmetry_equiv_pos_site_id
 _symmetry_equiv_pos_as_xyz
  1  'x, y, z'
loop_
 _atom_site_type_symbol
 _atom_site_label
 _atom_site_symmetry_multiplicity
 _atom_site_fract_x
 _atom_site_fract_y
 _atom_site_fract_z
 _atom_site_occupancy
  Zr  Zr0  1  0.754104  0.754104  0.737687  1
  Zr  Zr1  1  0.250038  0.250038  0.249886  1
  Co  Co2  1  0.738547  0.738547  0.251445  1
  Co  Co3  1  0.271462  0.738547  0.251445  1
  Co  Co4  1  0.738547  0.271462  0.251445  1
  B  B5  1  0.987454  0.987454  0.037636  1
  Ir  Ir6  1  0.257616  0.257616  0.740152  1
  Ir  Ir7  1  0.744616  0.257616  0.740152  1
  Ir  Ir8  1  0.257616  0.744616  0.740152  1
