# generated using pymatgen
data_Ta2CoNi4Ir
_symmetry_space_group_name_H-M   'P 1'
_cell_length_a   5.29411093
_cell_length_b   5.23573872
_cell_length_c   4.25309700
_cell_angle_alpha   90.00000000
_cell_angle_beta   90.00000000
_cell_angle_gamma   119.33017661
_symmetry_Int_Tables_number   1
_chemical_formula_structural   Ta2CoNi4Ir
_chemical_formula_sum   'Ta2 Co1 Ni4 Ir1'
_cell_volume   102.77768613
_cell_formula_units_Z   1
loop_
 _symmetry_equiv_pos_site_id
 _symmetry_equiv_pos_as_xyz
  1  'x, y, z'
loop_
 _atom_site_type_symbol
 _atom_site_label
 _atom_site_symmetry_multiplicity
 _atom_site_fract_x
 _atom_site_fract_y
 _atom_site_fract_z
 _atom_site_occupancy
  Ta  Ta0  1  0.336706  0.660506  0.000000  1
  Ta  Ta1  1  0.655681  0.326801  0.500000  1
  Co  Co2  1  0.321775  0.159373  0.000000  1
  Ni  Ni3  1  0.840553  0.164569  0.000000  1
  Ni  Ni4  1  0.157976  0.320577  0.500000  1
  Ni  Ni5  1  0.674309  0.845238  0.500000  1
  Ni  Ni6  1  0.168666  0.842684  0.500000  1
  Ir  Ir7  1  0.844094  0.680493  0.000000  1
