# generated using pymatgen
data_Er4ReTcC4
_symmetry_space_group_name_H-M   'P 1'
_cell_length_a   5.05359000
_cell_length_b   6.53788200
_cell_length_c   9.79975000
_cell_angle_alpha   90.00000000
_cell_angle_beta   90.00000000
_cell_angle_gamma   90.00000000
_symmetry_Int_Tables_number   1
_chemical_formula_structural   Er4ReTcC4
_chemical_formula_sum   'Er8 Re2 Tc2 C8'
_cell_volume   323.78153600
_cell_formula_units_Z   2
loop_
 _symmetry_equiv_pos_site_id
 _symmetry_equiv_pos_as_xyz
  1  'x, y, z'
loop_
 _atom_site_type_symbol
 _atom_site_label
 _atom_site_symmetry_multiplicity
 _atom_site_fract_x
 _atom_site_fract_y
 _atom_site_fract_z
 _atom_site_occupancy
  Er  Er0  1  0.750000  0.824053  0.057419  1
  Er  Er1  1  0.250000  0.675947  0.557419  1
  Er  Er2  1  0.750000  0.322949  0.441477  1
  Er  Er3  1  0.250000  0.177051  0.941477  1
  Er  Er4  1  0.750000  0.465002  0.783043  1
  Er  Er5  1  0.250000  0.034998  0.283043  1
  Er  Er6  1  0.750000  0.965645  0.716564  1
  Er  Er7  1  0.250000  0.534355  0.216564  1
  Re  Re8  1  0.750000  0.783338  0.367584  1
  Re  Re9  1  0.250000  0.716662  0.867584  1
  Tc  Tc10  1  0.750000  0.282410  0.132054  1
  Tc  Tc11  1  0.250000  0.217590  0.632054  1
  C  C12  1  0.750000  0.175444  0.949118  1
  C  C13  1  0.250000  0.823788  0.051724  1
  C  C14  1  0.750000  0.676212  0.551724  1
  C  C15  1  0.250000  0.324556  0.449118  1
  C  C16  1  0.750000  0.049353  0.259343  1
  C  C17  1  0.250000  0.450647  0.759343  1
  C  C18  1  0.750000  0.551016  0.241673  1
  C  C19  1  0.250000  0.948984  0.741673  1
