# generated using pymatgen
data_Lu7Co6Sn22Au
_symmetry_space_group_name_H-M   'P 1'
_cell_length_a   9.60007500
_cell_length_b   9.60007453
_cell_length_c   9.90866600
_cell_angle_alpha   90.00000000
_cell_angle_beta   90.00000000
_cell_angle_gamma   120.00000506
_symmetry_Int_Tables_number   1
_chemical_formula_structural   Lu7Co6Sn22Au
_chemical_formula_sum   'Lu7 Co6 Sn22 Au1'
_cell_volume   790.85165874
_cell_formula_units_Z   1
loop_
 _symmetry_equiv_pos_site_id
 _symmetry_equiv_pos_as_xyz
  1  'x, y, z'
loop_
 _atom_site_type_symbol
 _atom_site_label
 _atom_site_symmetry_multiplicity
 _atom_site_fract_x
 _atom_site_fract_y
 _atom_site_fract_z
 _atom_site_occupancy
  Lu  Lu0  1  0.000000  0.000000  0.000000  1
  Lu  Lu1  1  0.479568  0.520432  0.306684  1
  Lu  Lu2  1  0.520432  0.479568  0.693316  1
  Lu  Lu3  1  0.479568  0.959135  0.306684  1
  Lu  Lu4  1  0.520432  0.040865  0.693316  1
  Lu  Lu5  1  0.040865  0.520432  0.306684  1
  Lu  Lu6  1  0.959135  0.479568  0.693316  1
  Co  Co7  1  0.831823  0.168177  0.197243  1
  Co  Co8  1  0.168177  0.831823  0.802757  1
  Co  Co9  1  0.831823  0.663645  0.197243  1
  Co  Co10  1  0.168177  0.336355  0.802757  1
  Co  Co11  1  0.336355  0.168177  0.197243  1
  Co  Co12  1  0.663645  0.831823  0.802757  1
  Sn  Sn13  1  0.346162  0.000000  0.000000  1
  Sn  Sn14  1  0.653838  0.000000  0.000000  1
  Sn  Sn15  1  0.000000  0.346162  0.000000  1
  Sn  Sn16  1  0.000000  0.653838  0.000000  1
  Sn  Sn17  1  0.653838  0.653838  0.000000  1
  Sn  Sn18  1  0.346162  0.346162  0.000000  1
  Sn  Sn19  1  0.333333  0.666667  0.816700  1
  Sn  Sn20  1  0.666667  0.333333  0.183300  1
  Sn  Sn21  1  0.782890  0.217110  0.454142  1
  Sn  Sn22  1  0.217110  0.782890  0.545858  1
  Sn  Sn23  1  0.782890  0.565781  0.454142  1
  Sn  Sn24  1  0.217110  0.434219  0.545858  1
  Sn  Sn25  1  0.434219  0.217110  0.454142  1
  Sn  Sn26  1  0.565781  0.782890  0.545858  1
  Sn  Sn27  1  0.333333  0.666667  0.122256  1
  Sn  Sn28  1  0.666667  0.333333  0.877744  1
  Sn  Sn29  1  0.114254  0.885746  0.277814  1
  Sn  Sn30  1  0.885746  0.114254  0.722186  1
  Sn  Sn31  1  0.114254  0.228509  0.277814  1
  Sn  Sn32  1  0.885746  0.771491  0.722186  1
  Sn  Sn33  1  0.771491  0.885746  0.277814  1
  Sn  Sn34  1  0.228509  0.114254  0.722186  1
  Au  Au35  1  0.000000  0.000000  0.500000  1
