# generated using pymatgen
data_TbNdZn5Si
_symmetry_space_group_name_H-M   'P 1'
_cell_length_a   8.26012442
_cell_length_b   8.26012320
_cell_length_c   8.78108800
_cell_angle_alpha   90.00000000
_cell_angle_beta   90.00000000
_cell_angle_gamma   149.36973677
_symmetry_Int_Tables_number   1
_chemical_formula_structural   TbNdZn5Si
_chemical_formula_sum   'Tb2 Nd2 Zn10 Si2'
_cell_volume   305.25459302
_cell_formula_units_Z   2
loop_
 _symmetry_equiv_pos_site_id
 _symmetry_equiv_pos_as_xyz
  1  'x, y, z'
loop_
 _atom_site_type_symbol
 _atom_site_label
 _atom_site_symmetry_multiplicity
 _atom_site_fract_x
 _atom_site_fract_y
 _atom_site_fract_z
 _atom_site_occupancy
  Tb  Tb0  1  0.202160  0.797840  0.250000  1
  Tb  Tb1  1  0.798133  0.201867  0.750000  1
  Nd  Nd2  1  0.999874  0.000126  0.499204  1
  Nd  Nd3  1  0.999874  0.000126  0.000796  1
  Zn  Zn4  1  0.812334  0.187666  0.392918  1
  Zn  Zn5  1  0.187408  0.812592  0.606861  1
  Zn  Zn6  1  0.812334  0.187666  0.107082  1
  Zn  Zn7  1  0.187408  0.812592  0.893139  1
  Zn  Zn8  1  0.650704  0.349296  0.474515  1
  Zn  Zn9  1  0.349115  0.650885  0.525472  1
  Zn  Zn10  1  0.650704  0.349296  0.025485  1
  Zn  Zn11  1  0.349115  0.650885  0.974528  1
  Zn  Zn12  1  0.404093  0.595907  0.250000  1
  Zn  Zn13  1  0.596440  0.403560  0.750000  1
  Si  Si14  1  0.558179  0.441821  0.250000  1
  Si  Si15  1  0.442118  0.557882  0.750000  1
