# generated using pymatgen
data_Hf11Nb(Ga2Sn)4
_symmetry_space_group_name_H-M   'P 1'
_cell_length_a   5.69711294
_cell_length_b   8.76236345
_cell_length_c   9.34256900
_cell_angle_alpha   90.00000000
_cell_angle_beta   90.00000000
_cell_angle_gamma   90.06588892
_symmetry_Int_Tables_number   1
_chemical_formula_structural   Hf11Nb(Ga2Sn)4
_chemical_formula_sum   'Hf11 Nb1 Ga8 Sn4'
_cell_volume   466.38236360
_cell_formula_units_Z   1
loop_
 _symmetry_equiv_pos_site_id
 _symmetry_equiv_pos_as_xyz
  1  'x, y, z'
loop_
 _atom_site_type_symbol
 _atom_site_label
 _atom_site_symmetry_multiplicity
 _atom_site_fract_x
 _atom_site_fract_y
 _atom_site_fract_z
 _atom_site_occupancy
  Hf  Hf0  1  0.500000  0.250000  0.880250  1
  Hf  Hf1  1  0.000000  0.250000  0.877012  1
  Hf  Hf2  1  0.500000  0.750000  0.122335  1
  Hf  Hf3  1  0.751295  0.470402  0.609838  1
  Hf  Hf4  1  0.250562  0.530846  0.389291  1
  Hf  Hf5  1  0.749438  0.969154  0.389291  1
  Hf  Hf6  1  0.248705  0.029598  0.609838  1
  Hf  Hf7  1  0.749372  0.374529  0.198223  1
  Hf  Hf8  1  0.251406  0.625630  0.802707  1
  Hf  Hf9  1  0.748594  0.874370  0.802707  1
  Hf  Hf10  1  0.250628  0.125471  0.198223  1
  Nb  Nb11  1  0.000000  0.750000  0.119936  1
  Ga  Ga12  1  0.000000  0.750000  0.572762  1
  Ga  Ga13  1  0.500000  0.250000  0.429401  1
  Ga  Ga14  1  0.000000  0.250000  0.428799  1
  Ga  Ga15  1  0.500000  0.750000  0.570013  1
  Ga  Ga16  1  0.748466  0.136987  0.645134  1
  Ga  Ga17  1  0.244304  0.862223  0.352796  1
  Ga  Ga18  1  0.755696  0.637777  0.352796  1
  Ga  Ga19  1  0.251534  0.363013  0.645134  1
  Sn  Sn20  1  0.752672  0.049196  0.085223  1
  Sn  Sn21  1  0.247978  0.947505  0.916535  1
  Sn  Sn22  1  0.752022  0.552495  0.916535  1
  Sn  Sn23  1  0.247328  0.450804  0.085223  1
