# generated using pymatgen
data_Tb7Ho3(CoSb2)2
_symmetry_space_group_name_H-M   'P 1'
_cell_length_a   7.92616200
_cell_length_b   8.78562137
_cell_length_c   12.25588451
_cell_angle_alpha   90.03316047
_cell_angle_beta   90.00000000
_cell_angle_gamma   90.00000000
_symmetry_Int_Tables_number   1
_chemical_formula_structural   Tb7Ho3(CoSb2)2
_chemical_formula_sum   'Tb14 Ho6 Co4 Sb8'
_cell_volume   853.45379589
_cell_formula_units_Z   2
loop_
 _symmetry_equiv_pos_site_id
 _symmetry_equiv_pos_as_xyz
  1  'x, y, z'
loop_
 _atom_site_type_symbol
 _atom_site_label
 _atom_site_symmetry_multiplicity
 _atom_site_fract_x
 _atom_site_fract_y
 _atom_site_fract_z
 _atom_site_occupancy
  Tb  Tb0  1  0.153936  0.750267  0.202824  1
  Tb  Tb1  1  0.653936  0.249733  0.297176  1
  Tb  Tb2  1  0.846163  0.249835  0.796953  1
  Tb  Tb3  1  0.346163  0.750165  0.703047  1
  Tb  Tb4  1  0.453628  0.750275  0.997733  1
  Tb  Tb5  1  0.953628  0.249725  0.502267  1
  Tb  Tb6  1  0.544771  0.249604  0.002077  1
  Tb  Tb7  1  0.044771  0.750396  0.497923  1
  Tb  Tb8  1  0.622434  0.750168  0.306702  1
  Tb  Tb9  1  0.122434  0.249832  0.193298  1
  Tb  Tb10  1  0.378414  0.249567  0.693394  1
  Tb  Tb11  1  0.878414  0.750433  0.806606  1
  Tb  Tb12  1  0.820798  0.535127  0.064722  1
  Tb  Tb13  1  0.320798  0.464873  0.435278  1
  Ho  Ho14  1  0.822655  0.964806  0.064779  1
  Ho  Ho15  1  0.322655  0.035194  0.435221  1
  Ho  Ho16  1  0.177708  0.464516  0.934847  1
  Ho  Ho17  1  0.677708  0.535484  0.565153  1
  Ho  Ho18  1  0.177447  0.035654  0.934822  1
  Ho  Ho19  1  0.677447  0.964346  0.565178  1
  Co  Co20  1  0.435973  0.750359  0.490949  1
  Co  Co21  1  0.935973  0.249641  0.009051  1
  Co  Co22  1  0.565955  0.249353  0.509545  1
  Co  Co23  1  0.065955  0.750647  0.990455  1
  Sb  Sb24  1  0.928791  0.992086  0.326685  1
  Sb  Sb25  1  0.428791  0.007914  0.173315  1
  Sb  Sb26  1  0.071724  0.491964  0.673125  1
  Sb  Sb27  1  0.571724  0.508036  0.826875  1
  Sb  Sb28  1  0.071644  0.008087  0.673061  1
  Sb  Sb29  1  0.571644  0.991913  0.826939  1
  Sb  Sb30  1  0.927959  0.508096  0.326871  1
  Sb  Sb31  1  0.427959  0.491904  0.173129  1
