# generated using pymatgen
data_YHf2Al7Ag2
_symmetry_space_group_name_H-M   'P 1'
_cell_length_a   9.18805209
_cell_length_b   9.18805125
_cell_length_c   9.18805300
_cell_angle_alpha   34.25877415
_cell_angle_beta   34.25878187
_cell_angle_gamma   34.25877434
_symmetry_Int_Tables_number   1
_chemical_formula_structural   YHf2Al7Ag2
_chemical_formula_sum   'Y1 Hf2 Al7 Ag2'
_cell_volume   219.19477761
_cell_formula_units_Z   1
loop_
 _symmetry_equiv_pos_site_id
 _symmetry_equiv_pos_as_xyz
  1  'x, y, z'
loop_
 _atom_site_type_symbol
 _atom_site_label
 _atom_site_symmetry_multiplicity
 _atom_site_fract_x
 _atom_site_fract_y
 _atom_site_fract_z
 _atom_site_occupancy
  Y  Y0  1  0.000000  0.000000  0.000000  1
  Hf  Hf1  1  0.854904  0.854904  0.854904  1
  Hf  Hf2  1  0.145096  0.145096  0.145096  1
  Al  Al3  1  0.409574  0.409574  0.920794  1
  Al  Al4  1  0.920794  0.409574  0.409574  1
  Al  Al5  1  0.409574  0.920794  0.409574  1
  Al  Al6  1  0.590426  0.079206  0.590426  1
  Al  Al7  1  0.079206  0.590426  0.590426  1
  Al  Al8  1  0.590426  0.590426  0.079206  1
  Al  Al9  1  0.500000  0.500000  0.500000  1
  Ag  Ag10  1  0.665566  0.665566  0.665566  1
  Ag  Ag11  1  0.334434  0.334434  0.334434  1
