# generated using pymatgen
data_Dy3Y13Cd3AgIr4
_symmetry_space_group_name_H-M   'P 1'
_cell_length_a   9.65710623
_cell_length_b   9.66843667
_cell_length_c   9.66843772
_cell_angle_alpha   59.91287838
_cell_angle_beta   59.87656916
_cell_angle_gamma   59.87657743
_symmetry_Int_Tables_number   1
_chemical_formula_structural   Dy3Y13Cd3AgIr4
_chemical_formula_sum   'Dy3 Y13 Cd3 Ag1 Ir4'
_cell_volume   636.71654654
_cell_formula_units_Z   1
loop_
 _symmetry_equiv_pos_site_id
 _symmetry_equiv_pos_as_xyz
  1  'x, y, z'
loop_
 _atom_site_type_symbol
 _atom_site_label
 _atom_site_symmetry_multiplicity
 _atom_site_fract_x
 _atom_site_fract_y
 _atom_site_fract_z
 _atom_site_occupancy
  Dy  Dy0  1  0.348987  0.349001  0.349001  1
  Dy  Dy1  1  0.349498  0.349310  0.953741  1
  Dy  Dy2  1  0.349498  0.953741  0.349310  1
  Y  Y3  1  0.951792  0.350190  0.350190  1
  Y  Y4  1  0.809605  0.189609  0.189609  1
  Y  Y5  1  0.187805  0.809563  0.809563  1
  Y  Y6  1  0.189733  0.809488  0.189741  1
  Y  Y7  1  0.809664  0.187661  0.809700  1
  Y  Y8  1  0.189733  0.189741  0.809488  1
  Y  Y9  1  0.809664  0.809700  0.187661  1
  Y  Y10  1  0.936933  0.561340  0.561340  1
  Y  Y11  1  0.561607  0.936816  0.936816  1
  Y  Y12  1  0.560880  0.936998  0.561190  1
  Y  Y13  1  0.936758  0.561965  0.936363  1
  Y  Y14  1  0.560880  0.561190  0.936998  1
  Y  Y15  1  0.936758  0.936363  0.561965  1
  Cd  Cd16  1  0.581267  0.581328  0.258990  1
  Cd  Cd17  1  0.581267  0.258990  0.581328  1
  Cd  Cd18  1  0.259058  0.581257  0.581257  1
  Ag  Ag19  1  0.582678  0.582815  0.582815  1
  Ir  Ir20  1  0.142873  0.141531  0.141531  1
  Ir  Ir21  1  0.144352  0.142862  0.574939  1
  Ir  Ir22  1  0.144352  0.574939  0.142862  1
  Ir  Ir23  1  0.574361  0.143604  0.143604  1
