# generated using pymatgen
data_Zr10NiSb6As
_symmetry_space_group_name_H-M   'P 1'
_cell_length_a   8.64799600
_cell_length_b   8.64799580
_cell_length_c   5.87928800
_cell_angle_alpha   90.00000000
_cell_angle_beta   90.00000000
_cell_angle_gamma   120.00000075
_symmetry_Int_Tables_number   1
_chemical_formula_structural   Zr10NiSb6As
_chemical_formula_sum   'Zr10 Ni1 Sb6 As1'
_cell_volume   380.79068277
_cell_formula_units_Z   1
loop_
 _symmetry_equiv_pos_site_id
 _symmetry_equiv_pos_as_xyz
  1  'x, y, z'
loop_
 _atom_site_type_symbol
 _atom_site_label
 _atom_site_symmetry_multiplicity
 _atom_site_fract_x
 _atom_site_fract_y
 _atom_site_fract_z
 _atom_site_occupancy
  Zr  Zr0  1  0.739433  0.739433  0.744542  1
  Zr  Zr1  1  0.260567  0.000000  0.744542  1
  Zr  Zr2  1  0.000000  0.260567  0.744542  1
  Zr  Zr3  1  0.260567  0.260567  0.255458  1
  Zr  Zr4  1  0.739433  0.000000  0.255458  1
  Zr  Zr5  1  0.000000  0.739433  0.255458  1
  Zr  Zr6  1  0.666667  0.333333  0.000000  1
  Zr  Zr7  1  0.333333  0.666667  0.000000  1
  Zr  Zr8  1  0.333333  0.666667  0.500000  1
  Zr  Zr9  1  0.666667  0.333333  0.500000  1
  Ni  Ni10  1  0.000000  0.000000  0.500000  1
  Sb  Sb11  1  0.391570  0.391570  0.747956  1
  Sb  Sb12  1  0.608430  0.000000  0.747956  1
  Sb  Sb13  1  0.000000  0.608430  0.747956  1
  Sb  Sb14  1  0.608430  0.608430  0.252044  1
  Sb  Sb15  1  0.391570  0.000000  0.252044  1
  Sb  Sb16  1  0.000000  0.391570  0.252044  1
  As  As17  1  0.000000  0.000000  0.000000  1
