# generated using pymatgen
data_Zn2H11Pt
_symmetry_space_group_name_H-M   'P 1'
_cell_length_a   2.92346502
_cell_length_b   4.26036896
_cell_length_c   18.23727521
_cell_angle_alpha   80.11948105
_cell_angle_beta   89.77726326
_cell_angle_gamma   90.46251149
_symmetry_Int_Tables_number   1
_chemical_formula_structural   Zn2H11Pt
_chemical_formula_sum   'Zn2 H11 Pt1'
_cell_volume   223.76639841
_cell_formula_units_Z   1
loop_
 _symmetry_equiv_pos_site_id
 _symmetry_equiv_pos_as_xyz
  1  'x, y, z'
loop_
 _atom_site_type_symbol
 _atom_site_label
 _atom_site_symmetry_multiplicity
 _atom_site_fract_x
 _atom_site_fract_y
 _atom_site_fract_z
 _atom_site_occupancy
  Zn  Zn0  1  0.416816  0.860590  0.605673  1
  Zn  Zn1  1  0.413768  0.416208  0.743441  1
  H  H2  1  0.402833  0.750908  0.529941  1
  H  H3  1  0.913813  0.122713  0.633194  1
  H  H4  1  0.632423  0.878600  0.013997  1
  H  H5  1  0.157542  0.263154  0.924023  1
  H  H6  1  0.981073  0.350189  0.121190  1
  H  H7  1  0.918341  0.828199  0.813563  1
  H  H8  1  0.538244  0.734214  0.038918  1
  H  H9  1  0.296555  0.405174  0.930101  1
  H  H10  1  0.548526  0.554939  0.399991  1
  H  H11  1  0.929816  0.175270  0.125939  1
  H  H12  1  0.742962  0.624616  0.375364  1
  Pt  Pt13  1  0.913939  0.933440  0.724389  1
