# generated using pymatgen
data_Sc6Zn21GeAu2
_symmetry_space_group_name_H-M   'P 1'
_cell_length_a   8.82886232
_cell_length_b   8.82886078
_cell_length_c   8.84909500
_cell_angle_alpha   59.92416174
_cell_angle_beta   59.92416751
_cell_angle_gamma   60.22059728
_symmetry_Int_Tables_number   1
_chemical_formula_structural   Sc6Zn21GeAu2
_chemical_formula_sum   'Sc6 Zn21 Ge1 Au2'
_cell_volume   487.99081790
_cell_formula_units_Z   1
loop_
 _symmetry_equiv_pos_site_id
 _symmetry_equiv_pos_as_xyz
  1  'x, y, z'
loop_
 _atom_site_type_symbol
 _atom_site_label
 _atom_site_symmetry_multiplicity
 _atom_site_fract_x
 _atom_site_fract_y
 _atom_site_fract_z
 _atom_site_occupancy
  Sc  Sc0  1  0.714369  0.285631  0.283246  1
  Sc  Sc1  1  0.285631  0.714369  0.716754  1
  Sc  Sc2  1  0.285631  0.714369  0.283246  1
  Sc  Sc3  1  0.714369  0.285631  0.716754  1
  Sc  Sc4  1  0.281647  0.281647  0.718353  1
  Sc  Sc5  1  0.718353  0.718353  0.281647  1
  Zn  Zn6  1  0.125964  0.125964  0.124036  1
  Zn  Zn7  1  0.874036  0.874036  0.875964  1
  Zn  Zn8  1  0.125964  0.125964  0.624038  1
  Zn  Zn9  1  0.127100  0.624145  0.124378  1
  Zn  Zn10  1  0.874036  0.874036  0.375962  1
  Zn  Zn11  1  0.872900  0.375855  0.875622  1
  Zn  Zn12  1  0.624145  0.127100  0.124378  1
  Zn  Zn13  1  0.375855  0.872900  0.875622  1
  Zn  Zn14  1  0.500000  0.000000  0.000000  1
  Zn  Zn15  1  0.000000  0.500000  0.500000  1
  Zn  Zn16  1  0.000000  0.500000  0.000000  1
  Zn  Zn17  1  0.500000  0.000000  0.500000  1
  Zn  Zn18  1  0.500000  0.500000  0.000000  1
  Zn  Zn19  1  0.338585  0.338585  0.340441  1
  Zn  Zn20  1  0.661415  0.661415  0.659559  1
  Zn  Zn21  1  0.338585  0.338585  0.982389  1
  Zn  Zn22  1  0.346640  0.977280  0.338040  1
  Zn  Zn23  1  0.661415  0.661415  0.017611  1
  Zn  Zn24  1  0.653360  0.022720  0.661960  1
  Zn  Zn25  1  0.977280  0.346640  0.338040  1
  Zn  Zn26  1  0.022720  0.653360  0.661960  1
  Ge  Ge27  1  0.500000  0.500000  0.500000  1
  Au  Au28  1  0.000000  0.000000  0.500000  1
  Au  Au29  1  0.000000  0.000000  0.000000  1
