# generated using pymatgen
data_Hf18Re3Mo3(WSe)2
_symmetry_space_group_name_H-M   'P 1'
_cell_length_a   8.69992799
_cell_length_b   8.73398264
_cell_length_c   8.62303000
_cell_angle_alpha   90.00000000
_cell_angle_beta   90.00000000
_cell_angle_gamma   120.12956132
_symmetry_Int_Tables_number   1
_chemical_formula_structural   Hf18Re3Mo3(WSe)2
_chemical_formula_sum   'Hf18 Re3 Mo3 W2 Se2'
_cell_volume   566.69585789
_cell_formula_units_Z   1
loop_
 _symmetry_equiv_pos_site_id
 _symmetry_equiv_pos_as_xyz
  1  'x, y, z'
loop_
 _atom_site_type_symbol
 _atom_site_label
 _atom_site_symmetry_multiplicity
 _atom_site_fract_x
 _atom_site_fract_y
 _atom_site_fract_z
 _atom_site_occupancy
  Hf  Hf0  1  0.192305  0.807878  0.451692  1
  Hf  Hf1  1  0.192305  0.384428  0.451692  1
  Hf  Hf2  1  0.616315  0.808158  0.451462  1
  Hf  Hf3  1  0.806994  0.191660  0.549738  1
  Hf  Hf4  1  0.806994  0.615334  0.549738  1
  Hf  Hf5  1  0.385106  0.192554  0.549236  1
  Hf  Hf6  1  0.806994  0.191660  0.950262  1
  Hf  Hf7  1  0.806994  0.615334  0.950262  1
  Hf  Hf8  1  0.385106  0.192554  0.950764  1
  Hf  Hf9  1  0.192305  0.807878  0.048308  1
  Hf  Hf10  1  0.192305  0.384428  0.048308  1
  Hf  Hf11  1  0.616315  0.808158  0.048538  1
  Hf  Hf12  1  0.545475  0.454732  0.250000  1
  Hf  Hf13  1  0.545475  0.090744  0.250000  1
  Hf  Hf14  1  0.909951  0.454976  0.250000  1
  Hf  Hf15  1  0.454913  0.546719  0.750000  1
  Hf  Hf16  1  0.454913  0.908193  0.750000  1
  Hf  Hf17  1  0.091504  0.545753  0.750000  1
  Re  Re18  1  0.777574  0.888787  0.750000  1
  Re  Re19  1  0.999569  0.999784  0.501170  1
  Re  Re20  1  0.999569  0.999784  0.998830  1
  Mo  Mo21  1  0.220245  0.110122  0.250000  1
  Mo  Mo22  1  0.109614  0.890506  0.750000  1
  Mo  Mo23  1  0.109614  0.219108  0.750000  1
  W  W24  1  0.890179  0.109395  0.250000  1
  W  W25  1  0.890179  0.780784  0.250000  1
  Se  Se26  1  0.332661  0.666331  0.250000  1
  Se  Se27  1  0.668518  0.334259  0.750000  1
