# generated using pymatgen
data_Ir2PdO6
_symmetry_space_group_name_H-M   'P 1'
_cell_length_a   4.58046121
_cell_length_b   10.62872392
_cell_length_c   9.16941304
_cell_angle_alpha   64.44860606
_cell_angle_beta   89.97748281
_cell_angle_gamma   89.99026525
_symmetry_Int_Tables_number   1
_chemical_formula_structural   Ir2PdO6
_chemical_formula_sum   'Ir8 Pd4 O24'
_cell_volume   402.74862136
_cell_formula_units_Z   4
loop_
 _symmetry_equiv_pos_site_id
 _symmetry_equiv_pos_as_xyz
  1  'x, y, z'
loop_
 _atom_site_type_symbol
 _atom_site_label
 _atom_site_symmetry_multiplicity
 _atom_site_fract_x
 _atom_site_fract_y
 _atom_site_fract_z
 _atom_site_occupancy
  Ir  Ir0  1  0.500046  0.166828  0.166600  1
  Ir  Ir1  1  0.499998  0.166830  0.666597  1
  Ir  Ir2  1  0.000005  0.667024  0.166481  1
  Ir  Ir3  1  0.999961  0.667022  0.666492  1
  Ir  Ir4  1  0.499984  0.833168  0.833383  1
  Ir  Ir5  1  0.500009  0.833179  0.333455  1
  Ir  Ir6  1  0.999991  0.332963  0.333498  1
  Ir  Ir7  1  0.000026  0.332996  0.833506  1
  Pd  Pd8  1  0.499999  0.499924  0.999993  1
  Pd  Pd9  1  0.999982  0.000032  0.499971  1
  Pd  Pd10  1  0.499974  0.499970  0.500034  1
  Pd  Pd11  1  0.000047  0.000085  0.000017  1
  O  O12  1  0.186114  0.499997  0.842844  1
  O  O13  1  0.186116  0.499966  0.342848  1
  O  O14  1  0.813858  0.499964  0.157143  1
  O  O15  1  0.813863  0.499990  0.657152  1
  O  O16  1  0.313762  0.000007  0.342864  1
  O  O17  1  0.313846  0.000005  0.842875  1
  O  O18  1  0.686164  0.000008  0.157118  1
  O  O19  1  0.686164  0.999996  0.657146  1
  O  O20  1  0.198137  0.171484  0.013126  1
  O  O21  1  0.198089  0.171414  0.513134  1
  O  O22  1  0.801968  0.171403  0.315453  1
  O  O23  1  0.801936  0.171460  0.815449  1
  O  O24  1  0.301945  0.671731  0.012947  1
  O  O25  1  0.301836  0.671764  0.512988  1
  O  O26  1  0.698092  0.671730  0.815271  1
  O  O27  1  0.698045  0.671767  0.315290  1
  O  O28  1  0.801835  0.828597  0.986814  1
  O  O29  1  0.801900  0.828566  0.486860  1
  O  O30  1  0.198110  0.828550  0.684590  1
  O  O31  1  0.198165  0.828581  0.184603  1
  O  O32  1  0.698097  0.328237  0.987014  1
  O  O33  1  0.698122  0.328259  0.487017  1
  O  O34  1  0.301895  0.328245  0.184696  1
  O  O35  1  0.301920  0.328260  0.684732  1
