# generated using pymatgen
data_Pr3MgGaSe7
_symmetry_space_group_name_H-M   'P 1'
_cell_length_a   10.53443800
_cell_length_b   10.53443757
_cell_length_c   6.52619300
_cell_angle_alpha   90.00000000
_cell_angle_beta   90.00000000
_cell_angle_gamma   119.99999508
_symmetry_Int_Tables_number   1
_chemical_formula_structural   Pr3MgGaSe7
_chemical_formula_sum   'Pr6 Mg2 Ga2 Se14'
_cell_volume   627.21045843
_cell_formula_units_Z   2
loop_
 _symmetry_equiv_pos_site_id
 _symmetry_equiv_pos_as_xyz
  1  'x, y, z'
loop_
 _atom_site_type_symbol
 _atom_site_label
 _atom_site_symmetry_multiplicity
 _atom_site_fract_x
 _atom_site_fract_y
 _atom_site_fract_z
 _atom_site_occupancy
  Pr  Pr0  1  0.771898  0.148602  0.737604  1
  Pr  Pr1  1  0.376703  0.228102  0.737604  1
  Pr  Pr2  1  0.851398  0.623297  0.737604  1
  Pr  Pr3  1  0.228102  0.851398  0.237604  1
  Pr  Pr4  1  0.623297  0.771898  0.237604  1
  Pr  Pr5  1  0.148602  0.376703  0.237604  1
  Mg  Mg6  1  0.000000  0.000000  0.538690  1
  Mg  Mg7  1  0.000000  0.000000  0.038690  1
  Ga  Ga8  1  0.666667  0.333333  0.156110  1
  Ga  Ga9  1  0.333333  0.666667  0.656110  1
  Se  Se10  1  0.856219  0.098575  0.305895  1
  Se  Se11  1  0.242356  0.143781  0.305895  1
  Se  Se12  1  0.901425  0.757644  0.305895  1
  Se  Se13  1  0.143781  0.901425  0.805895  1
  Se  Se14  1  0.757644  0.856219  0.805895  1
  Se  Se15  1  0.098575  0.242356  0.805895  1
  Se  Se16  1  0.908267  0.425852  0.004543  1
  Se  Se17  1  0.517585  0.091733  0.004543  1
  Se  Se18  1  0.574148  0.482415  0.004543  1
  Se  Se19  1  0.091733  0.574148  0.504543  1
  Se  Se20  1  0.482415  0.908267  0.504543  1
  Se  Se21  1  0.425852  0.517585  0.504543  1
  Se  Se22  1  0.666667  0.333333  0.525129  1
  Se  Se23  1  0.333333  0.666667  0.025129  1
