# generated using pymatgen
data_TbTm3Ga12Tc
_symmetry_space_group_name_H-M   'P 1'
_cell_length_a   7.46595972
_cell_length_b   7.46595883
_cell_length_c   7.43004900
_cell_angle_alpha   109.37381701
_cell_angle_beta   109.37381462
_cell_angle_gamma   109.56844933
_symmetry_Int_Tables_number   1
_chemical_formula_structural   TbTm3Ga12Tc
_chemical_formula_sum   'Tb1 Tm3 Ga12 Tc1'
_cell_volume   319.19911471
_cell_formula_units_Z   1
loop_
 _symmetry_equiv_pos_site_id
 _symmetry_equiv_pos_as_xyz
  1  'x, y, z'
loop_
 _atom_site_type_symbol
 _atom_site_label
 _atom_site_symmetry_multiplicity
 _atom_site_fract_x
 _atom_site_fract_y
 _atom_site_fract_z
 _atom_site_occupancy
  Tb  Tb0  1  0.000000  0.000000  0.500000  1
  Tm  Tm1  1  0.500000  0.000000  0.000000  1
  Tm  Tm2  1  0.500000  0.500000  0.500000  1
  Tm  Tm3  1  0.000000  0.500000  0.000000  1
  Ga  Ga4  1  0.291766  0.000000  0.290800  1
  Ga  Ga5  1  0.501275  0.250638  0.750638  1
  Ga  Ga6  1  0.000000  0.708234  0.709200  1
  Ga  Ga7  1  0.708234  0.000000  0.709200  1
  Ga  Ga8  1  0.749362  0.498725  0.249362  1
  Ga  Ga9  1  0.250638  0.749362  0.500000  1
  Ga  Ga10  1  0.749362  0.250638  0.500000  1
  Ga  Ga11  1  0.708234  0.708234  0.999034  1
  Ga  Ga12  1  0.250638  0.501275  0.750638  1
  Ga  Ga13  1  0.498725  0.749362  0.249362  1
  Ga  Ga14  1  0.291766  0.291766  0.000966  1
  Ga  Ga15  1  0.000000  0.291766  0.290800  1
  Tc  Tc16  1  0.000000  0.000000  0.000000  1
