# generated using pymatgen
data_Dy2Lu10ZnCo4Bi
_symmetry_space_group_name_H-M   'P 1'
_cell_length_a   8.18401167
_cell_length_b   8.24436661
_cell_length_c   8.24436630
_cell_angle_alpha   111.80325137
_cell_angle_beta   109.95891067
_cell_angle_gamma   106.96987717
_symmetry_Int_Tables_number   1
_chemical_formula_structural   Dy2Lu10ZnCo4Bi
_chemical_formula_sum   'Dy2 Lu10 Zn1 Co4 Bi1'
_cell_volume   425.94488064
_cell_formula_units_Z   1
loop_
 _symmetry_equiv_pos_site_id
 _symmetry_equiv_pos_as_xyz
  1  'x, y, z'
loop_
 _atom_site_type_symbol
 _atom_site_label
 _atom_site_symmetry_multiplicity
 _atom_site_fract_x
 _atom_site_fract_y
 _atom_site_fract_z
 _atom_site_occupancy
  Dy  Dy0  1  0.986255  0.778829  0.207425  1
  Dy  Dy1  1  0.013745  0.221171  0.792575  1
  Lu  Lu2  1  0.817315  0.713283  0.533686  1
  Lu  Lu3  1  0.182685  0.286717  0.466314  1
  Lu  Lu4  1  0.182685  0.716371  0.895968  1
  Lu  Lu5  1  0.817315  0.283629  0.104032  1
  Lu  Lu6  1  0.683101  0.378827  0.689301  1
  Lu  Lu7  1  0.316899  0.621173  0.310699  1
  Lu  Lu8  1  0.683101  0.993800  0.304274  1
  Lu  Lu9  1  0.316899  0.006200  0.695726  1
  Lu  Lu10  1  0.571436  0.779282  0.792154  1
  Lu  Lu11  1  0.428564  0.220718  0.207846  1
  Zn  Zn12  1  0.000000  0.000000  0.000000  1
  Co  Co13  1  0.620631  0.997488  0.623143  1
  Co  Co14  1  0.379369  0.002512  0.376857  1
  Co  Co15  1  0.113843  0.612956  0.500887  1
  Co  Co16  1  0.886157  0.387044  0.499113  1
  Bi  Bi17  1  0.500000  0.500000  0.000000  1
