# generated using pymatgen
data_Er12Tc3Sn2
_symmetry_space_group_name_H-M   'P 1'
_cell_length_a   8.41834597
_cell_length_b   8.41824100
_cell_length_c   8.41834434
_cell_angle_alpha   109.17347728
_cell_angle_beta   109.17645508
_cell_angle_gamma   110.06587755
_symmetry_Int_Tables_number   1
_chemical_formula_structural   Er12Tc3Sn2
_chemical_formula_sum   'Er12 Tc3 Sn2'
_cell_volume   459.21396871
_cell_formula_units_Z   1
loop_
 _symmetry_equiv_pos_site_id
 _symmetry_equiv_pos_as_xyz
  1  'x, y, z'
loop_
 _atom_site_type_symbol
 _atom_site_label
 _atom_site_symmetry_multiplicity
 _atom_site_fract_x
 _atom_site_fract_y
 _atom_site_fract_z
 _atom_site_occupancy
  Er  Er0  1  0.190628  0.429937  0.239309  1
  Er  Er1  1  0.809372  0.570063  0.760691  1
  Er  Er2  1  0.190632  0.951321  0.760688  1
  Er  Er3  1  0.951302  0.190628  0.760676  1
  Er  Er4  1  0.809368  0.048679  0.239312  1
  Er  Er5  1  0.048698  0.809372  0.239324  1
  Er  Er6  1  0.429952  0.190628  0.239326  1
  Er  Er7  1  0.570048  0.809372  0.760674  1
  Er  Er8  1  0.305981  0.305978  0.611962  1
  Er  Er9  1  0.694019  0.694022  0.388038  1
  Er  Er10  1  0.694017  0.305978  0.999997  1
  Er  Er11  1  0.305983  0.694022  0.000003  1
  Tc  Tc12  1  0.371803  0.371793  0.999991  1
  Tc  Tc13  1  0.628197  0.628207  0.000009  1
  Tc  Tc14  1  0.000000  0.000000  0.000000  1
  Sn  Sn15  1  0.000000  0.500000  0.500000  1
  Sn  Sn16  1  0.500000  0.000000  0.500000  1
