# generated using pymatgen
data_ErMgScNi7B2
_symmetry_space_group_name_H-M   'P 1'
_cell_length_a   4.95118500
_cell_length_b   4.95118526
_cell_length_c   14.03458200
_cell_angle_alpha   90.00000000
_cell_angle_beta   90.00000000
_cell_angle_gamma   120.00000495
_symmetry_Int_Tables_number   1
_chemical_formula_structural   ErMgScNi7B2
_chemical_formula_sum   'Er2 Mg2 Sc2 Ni14 B4'
_cell_volume   297.95345314
_cell_formula_units_Z   2
loop_
 _symmetry_equiv_pos_site_id
 _symmetry_equiv_pos_as_xyz
  1  'x, y, z'
loop_
 _atom_site_type_symbol
 _atom_site_label
 _atom_site_symmetry_multiplicity
 _atom_site_fract_x
 _atom_site_fract_y
 _atom_site_fract_z
 _atom_site_occupancy
  Er  Er0  1  0.666667  0.333333  0.753542  1
  Er  Er1  1  0.333333  0.666667  0.253542  1
  Mg  Mg2  1  0.333333  0.666667  0.469891  1
  Mg  Mg3  1  0.666667  0.333333  0.969891  1
  Sc  Sc4  1  0.666667  0.333333  0.528787  1
  Sc  Sc5  1  0.333333  0.666667  0.028787  1
  Ni  Ni6  1  0.833900  0.166100  0.354825  1
  Ni  Ni7  1  0.833900  0.667799  0.354825  1
  Ni  Ni8  1  0.000000  0.000000  0.999140  1
  Ni  Ni9  1  0.000000  0.000000  0.499140  1
  Ni  Ni10  1  0.834047  0.668095  0.145460  1
  Ni  Ni11  1  0.165953  0.834047  0.645460  1
  Ni  Ni12  1  0.668095  0.834047  0.645460  1
  Ni  Ni13  1  0.331905  0.165953  0.145460  1
  Ni  Ni14  1  0.834047  0.165953  0.145460  1
  Ni  Ni15  1  0.166100  0.332201  0.854825  1
  Ni  Ni16  1  0.166100  0.833900  0.854825  1
  Ni  Ni17  1  0.165953  0.331905  0.645460  1
  Ni  Ni18  1  0.667799  0.833900  0.854825  1
  Ni  Ni19  1  0.332201  0.166100  0.354825  1
  B  B20  1  0.666667  0.333333  0.249620  1
  B  B21  1  0.333333  0.666667  0.749620  1
  B  B22  1  0.000000  0.000000  0.748166  1
  B  B23  1  0.000000  0.000000  0.248166  1
