# generated using pymatgen
data_U4Al4Pt7Au
_symmetry_space_group_name_H-M   'P 1'
_cell_length_a   5.75384440
_cell_length_b   6.88305447
_cell_length_c   7.69540450
_cell_angle_alpha   89.70364852
_cell_angle_beta   89.96443172
_cell_angle_gamma   90.26455082
_symmetry_Int_Tables_number   1
_chemical_formula_structural   U4Al4Pt7Au
_chemical_formula_sum   'U4 Al4 Pt7 Au1'
_cell_volume   304.76159876
_cell_formula_units_Z   1
loop_
 _symmetry_equiv_pos_site_id
 _symmetry_equiv_pos_as_xyz
  1  'x, y, z'
loop_
 _atom_site_type_symbol
 _atom_site_label
 _atom_site_symmetry_multiplicity
 _atom_site_fract_x
 _atom_site_fract_y
 _atom_site_fract_z
 _atom_site_occupancy
  U  U0  1  0.338995  0.745653  0.049296  1
  U  U1  1  0.153657  0.752591  0.546720  1
  U  U2  1  0.665796  0.232427  0.956521  1
  U  U3  1  0.839268  0.239099  0.443387  1
  Al  Al4  1  0.659456  0.758668  0.382516  1
  Al  Al5  1  0.838209  0.759351  0.891952  1
  Al  Al6  1  0.330806  0.253072  0.611573  1
  Al  Al7  1  0.169400  0.258602  0.109336  1
  Pt  Pt8  1  0.893261  0.540857  0.175633  1
  Pt  Pt9  1  0.591136  0.954360  0.676184  1
  Pt  Pt10  1  0.105030  0.046437  0.826477  1
  Pt  Pt11  1  0.405873  0.457213  0.325676  1
  Pt  Pt12  1  0.087801  0.457362  0.821940  1
  Pt  Pt13  1  0.395945  0.048330  0.324076  1
  Pt  Pt14  1  0.920589  0.949393  0.179024  1
  Au  Au15  1  0.604776  0.546584  0.679689  1
