# generated using pymatgen
data_Tm8MgHgPt2
_symmetry_space_group_name_H-M   'P 1'
_cell_length_a   9.56163290
_cell_length_b   9.56163293
_cell_length_c   9.55147300
_cell_angle_alpha   60.03514685
_cell_angle_beta   60.03514677
_cell_angle_gamma   60.24702766
_symmetry_Int_Tables_number   1
_chemical_formula_structural   Tm8MgHgPt2
_chemical_formula_sum   'Tm16 Mg2 Hg2 Pt4'
_cell_volume   618.94933275
_cell_formula_units_Z   2
loop_
 _symmetry_equiv_pos_site_id
 _symmetry_equiv_pos_as_xyz
  1  'x, y, z'
loop_
 _atom_site_type_symbol
 _atom_site_label
 _atom_site_symmetry_multiplicity
 _atom_site_fract_x
 _atom_site_fract_y
 _atom_site_fract_z
 _atom_site_occupancy
  Tm  Tm0  1  0.351756  0.351756  0.347764  1
  Tm  Tm1  1  0.351756  0.351756  0.948727  1
  Tm  Tm2  1  0.358926  0.934877  0.353099  1
  Tm  Tm3  1  0.934877  0.358926  0.353099  1
  Tm  Tm4  1  0.811507  0.188172  0.189477  1
  Tm  Tm5  1  0.188172  0.811507  0.810843  1
  Tm  Tm6  1  0.188172  0.811507  0.189477  1
  Tm  Tm7  1  0.811507  0.188172  0.810843  1
  Tm  Tm8  1  0.188503  0.188503  0.811497  1
  Tm  Tm9  1  0.809244  0.809244  0.190756  1
  Tm  Tm10  1  0.932572  0.564864  0.565592  1
  Tm  Tm11  1  0.564864  0.932572  0.936972  1
  Tm  Tm12  1  0.564864  0.932572  0.565592  1
  Tm  Tm13  1  0.932572  0.564864  0.936972  1
  Tm  Tm14  1  0.565276  0.565276  0.934724  1
  Tm  Tm15  1  0.935896  0.935896  0.564104  1
  Mg  Mg16  1  0.578402  0.267776  0.576911  1
  Mg  Mg17  1  0.267776  0.578402  0.576911  1
  Hg  Hg18  1  0.583457  0.583457  0.590696  1
  Hg  Hg19  1  0.583457  0.583457  0.242390  1
  Pt  Pt20  1  0.142604  0.142604  0.148129  1
  Pt  Pt21  1  0.142604  0.142604  0.566665  1
  Pt  Pt22  1  0.140017  0.571221  0.144381  1
  Pt  Pt23  1  0.571221  0.140017  0.144381  1
