# generated using pymatgen
data_Ho5Er11(CdIr)4
_symmetry_space_group_name_H-M   'P 1'
_cell_length_a   9.55470589
_cell_length_b   9.55404104
_cell_length_c   9.55404101
_cell_angle_alpha   60.00247000
_cell_angle_beta   59.99769680
_cell_angle_gamma   59.99769792
_symmetry_Int_Tables_number   1
_chemical_formula_structural   Ho5Er11(CdIr)4
_chemical_formula_sum   'Ho5 Er11 Cd4 Ir4'
_cell_volume   616.69371049
_cell_formula_units_Z   1
loop_
 _symmetry_equiv_pos_site_id
 _symmetry_equiv_pos_as_xyz
  1  'x, y, z'
loop_
 _atom_site_type_symbol
 _atom_site_label
 _atom_site_symmetry_multiplicity
 _atom_site_fract_x
 _atom_site_fract_y
 _atom_site_fract_z
 _atom_site_occupancy
  Ho  Ho0  1  0.812348  0.187652  0.187652  1
  Ho  Ho1  1  0.812470  0.187496  0.812356  1
  Ho  Ho2  1  0.187678  0.812356  0.187496  1
  Ho  Ho3  1  0.812470  0.812356  0.187496  1
  Ho  Ho4  1  0.187678  0.187496  0.812356  1
  Er  Er5  1  0.599553  0.599663  0.599663  1
  Er  Er6  1  0.599577  0.599683  0.201164  1
  Er  Er7  1  0.599577  0.201164  0.599683  1
  Er  Er8  1  0.201122  0.599663  0.599663  1
  Er  Er9  1  0.060722  0.439278  0.439278  1
  Er  Er10  1  0.439323  0.060677  0.060677  1
  Er  Er11  1  0.439208  0.060669  0.439382  1
  Er  Er12  1  0.060741  0.439382  0.060669  1
  Er  Er13  1  0.439208  0.439382  0.060669  1
  Er  Er14  1  0.060741  0.060669  0.439382  1
  Er  Er15  1  0.187684  0.812316  0.812316  1
  Cd  Cd16  1  0.831211  0.831099  0.831099  1
  Cd  Cd17  1  0.831078  0.831104  0.506739  1
  Cd  Cd18  1  0.831078  0.506739  0.831104  1
  Cd  Cd19  1  0.506591  0.831099  0.831099  1
  Ir  Ir20  1  0.392015  0.392000  0.392000  1
  Ir  Ir21  1  0.391972  0.392120  0.823938  1
  Ir  Ir22  1  0.391972  0.823938  0.392120  1
  Ir  Ir23  1  0.823985  0.392000  0.392000  1
