# generated using pymatgen
data_Tb3Mg2ScIr3
_symmetry_space_group_name_H-M   'P 1'
_cell_length_a   7.28424400
_cell_length_b   7.34785037
_cell_length_c   4.12297400
_cell_angle_alpha   90.00000000
_cell_angle_beta   90.00000000
_cell_angle_gamma   119.71405739
_symmetry_Int_Tables_number   1
_chemical_formula_structural   Tb3Mg2ScIr3
_chemical_formula_sum   'Tb3 Mg2 Sc1 Ir3'
_cell_volume   191.65942126
_cell_formula_units_Z   1
loop_
 _symmetry_equiv_pos_site_id
 _symmetry_equiv_pos_as_xyz
  1  'x, y, z'
loop_
 _atom_site_type_symbol
 _atom_site_label
 _atom_site_symmetry_multiplicity
 _atom_site_fract_x
 _atom_site_fract_y
 _atom_site_fract_z
 _atom_site_occupancy
  Tb  Tb0  1  0.401370  0.000000  0.500000  1
  Tb  Tb1  1  0.004253  0.418248  0.500000  1
  Tb  Tb2  1  0.586006  0.581752  0.500000  1
  Mg  Mg3  1  0.246789  0.247143  0.000000  1
  Mg  Mg4  1  0.999646  0.752857  0.000000  1
  Sc  Sc5  1  0.754880  0.000000  0.000000  1
  Ir  Ir6  1  0.671582  0.325794  0.000000  1
  Ir  Ir7  1  0.345788  0.674206  0.000000  1
  Ir  Ir8  1  0.989685  0.000000  0.500000  1
