# generated using pymatgen
data_LiHoV3Ni9As7
_symmetry_space_group_name_H-M   'P 1'
_cell_length_a   9.46380300
_cell_length_b   9.46380254
_cell_length_c   3.72337000
_cell_angle_alpha   90.00000000
_cell_angle_beta   90.00000000
_cell_angle_gamma   120.00000509
_symmetry_Int_Tables_number   1
_chemical_formula_structural   LiHoV3Ni9As7
_chemical_formula_sum   'Li1 Ho1 V3 Ni9 As7'
_cell_volume   288.80065010
_cell_formula_units_Z   1
loop_
 _symmetry_equiv_pos_site_id
 _symmetry_equiv_pos_as_xyz
  1  'x, y, z'
loop_
 _atom_site_type_symbol
 _atom_site_label
 _atom_site_symmetry_multiplicity
 _atom_site_fract_x
 _atom_site_fract_y
 _atom_site_fract_z
 _atom_site_occupancy
  Li  Li0  1  0.333333  0.666667  0.000000  1
  Ho  Ho1  1  0.000000  0.000000  0.500000  1
  V  V2  1  0.762815  0.551749  0.500000  1
  V  V3  1  0.448251  0.211065  0.500000  1
  V  V4  1  0.788935  0.237185  0.500000  1
  Ni  Ni5  1  0.287860  0.387639  0.500000  1
  Ni  Ni6  1  0.612361  0.900221  0.500000  1
  Ni  Ni7  1  0.099779  0.712140  0.500000  1
  Ni  Ni8  1  0.511714  0.460262  0.000000  1
  Ni  Ni9  1  0.539738  0.051451  0.000000  1
  Ni  Ni10  1  0.948549  0.488286  0.000000  1
  Ni  Ni11  1  0.726936  0.766699  0.000000  1
  Ni  Ni12  1  0.233301  0.960237  0.000000  1
  Ni  Ni13  1  0.039763  0.273064  0.000000  1
  As  As14  1  0.958902  0.741925  0.000000  1
  As  As15  1  0.258075  0.216977  0.000000  1
  As  As16  1  0.783023  0.041098  0.000000  1
  As  As17  1  0.666667  0.333333  0.000000  1
  As  As18  1  0.544794  0.629513  0.500000  1
  As  As19  1  0.370487  0.915281  0.500000  1
  As  As20  1  0.084719  0.455206  0.500000  1
