# generated using pymatgen
data_NdTm3(B4Mo)4
_symmetry_space_group_name_H-M   'P 1'
_cell_length_a   3.62549700
_cell_length_b   6.02941966
_cell_length_c   11.65430566
_cell_angle_alpha   89.85744222
_cell_angle_beta   90.00000000
_cell_angle_gamma   90.00000000
_symmetry_Int_Tables_number   1
_chemical_formula_structural   NdTm3(B4Mo)4
_chemical_formula_sum   'Nd1 Tm3 B16 Mo4'
_cell_volume   254.75817128
_cell_formula_units_Z   1
loop_
 _symmetry_equiv_pos_site_id
 _symmetry_equiv_pos_as_xyz
  1  'x, y, z'
loop_
 _atom_site_type_symbol
 _atom_site_label
 _atom_site_symmetry_multiplicity
 _atom_site_fract_x
 _atom_site_fract_y
 _atom_site_fract_z
 _atom_site_occupancy
  Nd  Nd0  1  0.000000  0.373051  0.650531  1
  Tm  Tm1  1  0.000000  0.126842  0.149568  1
  Tm  Tm2  1  0.000000  0.872786  0.851378  1
  Tm  Tm3  1  0.000000  0.627283  0.349763  1
  B  B4  1  0.500000  0.020652  0.694094  1
  B  B5  1  0.500000  0.976502  0.304677  1
  B  B6  1  0.500000  0.527018  0.809112  1
  B  B7  1  0.500000  0.476873  0.194230  1
  B  B8  1  0.500000  0.110377  0.545244  1
  B  B9  1  0.500000  0.884305  0.450289  1
  B  B10  1  0.500000  0.615554  0.953521  1
  B  B11  1  0.500000  0.385715  0.048793  1
  B  B12  1  0.500000  0.287890  0.312315  1
  B  B13  1  0.500000  0.716914  0.687373  1
  B  B14  1  0.500000  0.787854  0.186327  1
  B  B15  1  0.500000  0.210544  0.816416  1
  B  B16  1  0.500000  0.366554  0.465220  1
  B  B17  1  0.500000  0.634428  0.529304  1
  B  B18  1  0.500000  0.867197  0.032521  1
  B  B19  1  0.500000  0.132126  0.969497  1
  Mo  Mo20  1  0.000000  0.129016  0.414163  1
  Mo  Mo21  1  0.000000  0.869874  0.582632  1
  Mo  Mo22  1  0.000000  0.630379  0.084698  1
  Mo  Mo23  1  0.000000  0.370267  0.918335  1
