# generated using pymatgen
data_ErAs4Ru5Rh
_symmetry_space_group_name_H-M   'P 1'
_cell_length_a   7.18703843
_cell_length_b   7.18703768
_cell_length_c   3.86083300
_cell_angle_alpha   90.00000000
_cell_angle_beta   90.00000000
_cell_angle_gamma   120.41977738
_symmetry_Int_Tables_number   1
_chemical_formula_structural   ErAs4Ru5Rh
_chemical_formula_sum   'Er1 As4 Ru5 Rh1'
_cell_volume   171.97246057
_cell_formula_units_Z   1
loop_
 _symmetry_equiv_pos_site_id
 _symmetry_equiv_pos_as_xyz
  1  'x, y, z'
loop_
 _atom_site_type_symbol
 _atom_site_label
 _atom_site_symmetry_multiplicity
 _atom_site_fract_x
 _atom_site_fract_y
 _atom_site_fract_z
 _atom_site_occupancy
  Er  Er0  1  0.332610  0.667390  0.000000  1
  As  As1  1  0.669843  0.330157  0.000000  1
  As  As2  1  0.715932  0.860714  0.500000  1
  As  As3  1  0.139286  0.284068  0.500000  1
  As  As4  1  0.143139  0.856861  0.500000  1
  Ru  Ru5  1  0.264766  0.133298  0.000000  1
  Ru  Ru6  1  0.866702  0.735234  0.000000  1
  Ru  Ru7  1  0.869275  0.130725  0.000000  1
  Ru  Ru8  1  0.934435  0.466869  0.500000  1
  Ru  Ru9  1  0.533131  0.065565  0.500000  1
  Rh  Rh10  1  0.530880  0.469120  0.500000  1
