# generated using pymatgen
data_Cs6TlSb3
_symmetry_space_group_name_H-M   'P 1'
_cell_length_a   11.44267469
_cell_length_b   6.59713200
_cell_length_c   13.52516391
_cell_angle_alpha   90.00000000
_cell_angle_beta   101.20240938
_cell_angle_gamma   90.00000000
_symmetry_Int_Tables_number   1
_chemical_formula_structural   Cs6TlSb3
_chemical_formula_sum   'Cs12 Tl2 Sb6'
_cell_volume   1001.54576666
_cell_formula_units_Z   2
loop_
 _symmetry_equiv_pos_site_id
 _symmetry_equiv_pos_as_xyz
  1  'x, y, z'
loop_
 _atom_site_type_symbol
 _atom_site_label
 _atom_site_symmetry_multiplicity
 _atom_site_fract_x
 _atom_site_fract_y
 _atom_site_fract_z
 _atom_site_occupancy
  Cs  Cs0  1  0.937554  0.249999  0.041415  1
  Cs  Cs1  1  0.417641  0.749999  0.130824  1
  Cs  Cs2  1  0.618138  0.249999  0.172394  1
  Cs  Cs3  1  0.244079  0.249999  0.274244  1
  Cs  Cs4  1  0.954476  0.249999  0.420885  1
  Cs  Cs5  1  0.369658  0.749999  0.481350  1
  Cs  Cs6  1  0.630342  0.249999  0.518649  1
  Cs  Cs7  1  0.045523  0.749999  0.579114  1
  Cs  Cs8  1  0.755922  0.749999  0.725756  1
  Cs  Cs9  1  0.381862  0.749999  0.827607  1
  Cs  Cs10  1  0.582359  0.249999  0.869176  1
  Cs  Cs11  1  0.062445  0.749999  0.958584  1
  Tl  Tl12  1  0.821670  0.749999  0.221204  1
  Tl  Tl13  1  0.178329  0.249999  0.778796  1
  Sb  Sb14  1  0.711286  0.749999  0.008650  1
  Sb  Sb15  1  0.076776  0.749999  0.277580  1
  Sb  Sb16  1  0.667439  0.749999  0.372551  1
  Sb  Sb17  1  0.332561  0.249999  0.627449  1
  Sb  Sb18  1  0.923223  0.249999  0.722420  1
  Sb  Sb19  1  0.288714  0.249999  0.991350  1
