# generated using pymatgen
data_Tm7(PSe3)2
_symmetry_space_group_name_H-M   'P 1'
_cell_length_a   8.02710426
_cell_length_b   6.95434281
_cell_length_c   8.04483000
_cell_angle_alpha   89.97499509
_cell_angle_beta   59.97772040
_cell_angle_gamma   73.05161159
_symmetry_Int_Tables_number   1
_chemical_formula_structural   Tm7(PSe3)2
_chemical_formula_sum   'Tm7 P2 Se6'
_cell_volume   366.16879627
_cell_formula_units_Z   1
loop_
 _symmetry_equiv_pos_site_id
 _symmetry_equiv_pos_as_xyz
  1  'x, y, z'
loop_
 _atom_site_type_symbol
 _atom_site_label
 _atom_site_symmetry_multiplicity
 _atom_site_fract_x
 _atom_site_fract_y
 _atom_site_fract_z
 _atom_site_occupancy
  Tm  Tm0  1  0.159936  0.688028  0.979871  1
  Tm  Tm1  1  0.660922  0.186925  0.745402  1
  Tm  Tm2  1  0.149028  0.177854  0.736342  1
  Tm  Tm3  1  0.659363  0.688876  0.980854  1
  Tm  Tm4  1  0.160664  0.687985  0.479915  1
  Tm  Tm5  1  0.659624  0.188722  0.214001  1
  Tm  Tm6  1  0.169730  0.200190  0.225867  1
  P  P7  1  0.408735  0.444845  0.105139  1
  P  P8  1  0.911623  0.931362  0.854361  1
  Se  Se9  1  0.412610  0.936377  0.357923  1
  Se  Se10  1  0.906668  0.441444  0.604023  1
  Se  Se11  1  0.905736  0.441809  0.111543  1
  Se  Se12  1  0.409359  0.429399  0.605672  1
  Se  Se13  1  0.911813  0.946797  0.354039  1
  Se  Se14  1  0.412121  0.936326  0.851465  1
