# generated using pymatgen
data_Nd3SmAl18(RuPt2)2
_symmetry_space_group_name_H-M   'P 1'
_cell_length_a   7.65480400
_cell_length_b   7.65978653
_cell_length_c   9.59769100
_cell_angle_alpha   90.00000000
_cell_angle_beta   90.00000000
_cell_angle_gamma   119.49151319
_symmetry_Int_Tables_number   1
_chemical_formula_structural   Nd3SmAl18(RuPt2)2
_chemical_formula_sum   'Nd3 Sm1 Al18 Ru2 Pt4'
_cell_volume   489.83596682
_cell_formula_units_Z   1
loop_
 _symmetry_equiv_pos_site_id
 _symmetry_equiv_pos_as_xyz
  1  'x, y, z'
loop_
 _atom_site_type_symbol
 _atom_site_label
 _atom_site_symmetry_multiplicity
 _atom_site_fract_x
 _atom_site_fract_y
 _atom_site_fract_z
 _atom_site_occupancy
  Nd  Nd0  1  0.994449  0.667989  0.250000  1
  Nd  Nd1  1  0.005284  0.332065  0.750000  1
  Nd  Nd2  1  0.668069  0.993935  0.250000  1
  Sm  Sm3  1  0.331484  0.005763  0.750000  1
  Al  Al4  1  0.125763  0.125011  0.250000  1
  Al  Al5  1  0.875586  0.875359  0.750000  1
  Al  Al6  1  0.001951  0.328467  0.074291  1
  Al  Al7  1  0.999200  0.672035  0.924139  1
  Al  Al8  1  0.999200  0.672035  0.575861  1
  Al  Al9  1  0.328588  0.001634  0.426956  1
  Al  Al10  1  0.001951  0.328467  0.425709  1
  Al  Al11  1  0.670569  0.998612  0.575721  1
  Al  Al12  1  0.670569  0.998612  0.924279  1
  Al  Al13  1  0.328588  0.001634  0.073044  1
  Al  Al14  1  0.328637  0.328240  0.551576  1
  Al  Al15  1  0.671465  0.671347  0.451704  1
  Al  Al16  1  0.671465  0.671347  0.048296  1
  Al  Al17  1  0.328637  0.328240  0.948424  1
  Al  Al18  1  0.342639  0.543678  0.250000  1
  Al  Al19  1  0.656727  0.455144  0.750000  1
  Al  Al20  1  0.543819  0.341537  0.250000  1
  Al  Al21  1  0.455586  0.658945  0.750000  1
  Ru  Ru22  1  0.000167  0.000044  0.999482  1
  Ru  Ru23  1  0.000167  0.000044  0.500518  1
  Pt  Pt24  1  0.671430  0.328294  0.999523  1
  Pt  Pt25  1  0.328295  0.671616  0.999657  1
  Pt  Pt26  1  0.328295  0.671616  0.500343  1
  Pt  Pt27  1  0.671430  0.328294  0.500477  1
