# generated using pymatgen
data_Y2Er2Ni13Rh
_symmetry_space_group_name_H-M   'P 1'
_cell_length_a   4.92923588
_cell_length_b   4.92923435
_cell_length_c   12.53230441
_cell_angle_alpha   78.65822707
_cell_angle_beta   78.65823015
_cell_angle_gamma   60.00001155
_symmetry_Int_Tables_number   1
_chemical_formula_structural   Y2Er2Ni13Rh
_chemical_formula_sum   'Y2 Er2 Ni13 Rh1'
_cell_volume   256.81708941
_cell_formula_units_Z   1
loop_
 _symmetry_equiv_pos_site_id
 _symmetry_equiv_pos_as_xyz
  1  'x, y, z'
loop_
 _atom_site_type_symbol
 _atom_site_label
 _atom_site_symmetry_multiplicity
 _atom_site_fract_x
 _atom_site_fract_y
 _atom_site_fract_z
 _atom_site_occupancy
  Y  Y0  1  0.949607  0.949607  0.151180  1
  Y  Y1  1  0.050393  0.050393  0.848820  1
  Er  Er2  1  0.853511  0.853511  0.439466  1
  Er  Er3  1  0.146489  0.146489  0.560534  1
  Ni  Ni4  1  0.720905  0.720905  0.837287  1
  Ni  Ni5  1  0.279095  0.279095  0.162713  1
  Ni  Ni6  1  0.612523  0.612523  0.162429  1
  Ni  Ni7  1  0.387477  0.387477  0.837571  1
  Ni  Ni8  1  0.000000  0.500000  0.000000  1
  Ni  Ni9  1  0.500000  0.000000  0.000000  1
  Ni  Ni10  1  0.500000  0.500000  0.000000  1
  Ni  Ni11  1  0.390953  0.390953  0.323898  1
  Ni  Ni12  1  0.894194  0.390953  0.323898  1
  Ni  Ni13  1  0.390953  0.894194  0.323898  1
  Ni  Ni14  1  0.609047  0.609047  0.676102  1
  Ni  Ni15  1  0.105806  0.609047  0.676102  1
  Ni  Ni16  1  0.609047  0.105806  0.676102  1
  Rh  Rh17  1  0.500000  0.500000  0.500000  1
