# generated using pymatgen
data_Ca3Co(As3Rh4)2
_symmetry_space_group_name_H-M   'P 1'
_cell_length_a   3.98022100
_cell_length_b   11.61148500
_cell_length_c   13.24563000
_cell_angle_alpha   90.00000000
_cell_angle_beta   90.00000000
_cell_angle_gamma   90.00000000
_symmetry_Int_Tables_number   1
_chemical_formula_structural   Ca3Co(As3Rh4)2
_chemical_formula_sum   'Ca6 Co2 As12 Rh16'
_cell_volume   612.16369768
_cell_formula_units_Z   2
loop_
 _symmetry_equiv_pos_site_id
 _symmetry_equiv_pos_as_xyz
  1  'x, y, z'
loop_
 _atom_site_type_symbol
 _atom_site_label
 _atom_site_symmetry_multiplicity
 _atom_site_fract_x
 _atom_site_fract_y
 _atom_site_fract_z
 _atom_site_occupancy
  Ca  Ca0  1  0.000000  0.500000  0.525414  1
  Ca  Ca1  1  0.500000  0.000000  0.474586  1
  Ca  Ca2  1  0.500000  0.819452  0.203247  1
  Ca  Ca3  1  0.500000  0.180548  0.203247  1
  Ca  Ca4  1  0.000000  0.680548  0.796753  1
  Ca  Ca5  1  0.000000  0.319452  0.796753  1
  Co  Co6  1  0.000000  0.500000  0.987923  1
  Co  Co7  1  0.500000  0.000000  0.012077  1
  As  As8  1  0.500000  0.500000  0.883948  1
  As  As9  1  0.000000  0.000000  0.116052  1
  As  As10  1  0.500000  0.500000  0.345221  1
  As  As11  1  0.000000  0.000000  0.654779  1
  As  As12  1  0.500000  0.312252  0.619910  1
  As  As13  1  0.500000  0.687748  0.619910  1
  As  As14  1  0.000000  0.187748  0.380090  1
  As  As15  1  0.000000  0.812252  0.380090  1
  As  As16  1  0.500000  0.852331  0.892803  1
  As  As17  1  0.500000  0.147669  0.892803  1
  As  As18  1  0.000000  0.647669  0.107197  1
  As  As19  1  0.000000  0.352331  0.107197  1
  Rh  Rh20  1  0.500000  0.500000  0.157996  1
  Rh  Rh21  1  0.000000  0.000000  0.842004  1
  Rh  Rh22  1  0.500000  0.500000  0.701513  1
  Rh  Rh23  1  0.000000  0.000000  0.298487  1
  Rh  Rh24  1  0.500000  0.333368  0.992207  1
  Rh  Rh25  1  0.500000  0.666632  0.992207  1
  Rh  Rh26  1  0.000000  0.166632  0.007793  1
  Rh  Rh27  1  0.000000  0.833368  0.007793  1
  Rh  Rh28  1  0.500000  0.297209  0.432166  1
  Rh  Rh29  1  0.500000  0.702791  0.432166  1
  Rh  Rh30  1  0.000000  0.202791  0.567834  1
  Rh  Rh31  1  0.000000  0.797209  0.567834  1
  Rh  Rh32  1  0.500000  0.875712  0.709014  1
  Rh  Rh33  1  0.500000  0.124288  0.709014  1
  Rh  Rh34  1  0.000000  0.624288  0.290986  1
  Rh  Rh35  1  0.000000  0.375712  0.290986  1
