# generated using pymatgen
data_TmFeNi4P3
_symmetry_space_group_name_H-M   'P 1'
_cell_length_a   3.67489100
_cell_length_b   10.27134300
_cell_length_c   11.83460300
_cell_angle_alpha   90.00000000
_cell_angle_beta   90.00000000
_cell_angle_gamma   90.00000000
_symmetry_Int_Tables_number   1
_chemical_formula_structural   TmFeNi4P3
_chemical_formula_sum   'Tm4 Fe4 Ni16 P12'
_cell_volume   446.70970531
_cell_formula_units_Z   4
loop_
 _symmetry_equiv_pos_site_id
 _symmetry_equiv_pos_as_xyz
  1  'x, y, z'
loop_
 _atom_site_type_symbol
 _atom_site_label
 _atom_site_symmetry_multiplicity
 _atom_site_fract_x
 _atom_site_fract_y
 _atom_site_fract_z
 _atom_site_occupancy
  Tm  Tm0  1  0.250000  0.579478  0.705191  1
  Tm  Tm1  1  0.250000  0.920522  0.205191  1
  Tm  Tm2  1  0.750000  0.420522  0.294809  1
  Tm  Tm3  1  0.750000  0.079478  0.794809  1
  Fe  Fe4  1  0.250000  0.463673  0.931445  1
  Fe  Fe5  1  0.250000  0.036327  0.431445  1
  Fe  Fe6  1  0.750000  0.536327  0.068555  1
  Fe  Fe7  1  0.750000  0.963673  0.568555  1
  Ni  Ni8  1  0.250000  0.713850  0.993060  1
  Ni  Ni9  1  0.250000  0.786150  0.493060  1
  Ni  Ni10  1  0.750000  0.286150  0.006940  1
  Ni  Ni11  1  0.750000  0.213850  0.506940  1
  Ni  Ni12  1  0.250000  0.407520  0.487155  1
  Ni  Ni13  1  0.250000  0.092480  0.987155  1
  Ni  Ni14  1  0.750000  0.592480  0.512845  1
  Ni  Ni15  1  0.750000  0.907520  0.012845  1
  Ni  Ni16  1  0.250000  0.224841  0.177430  1
  Ni  Ni17  1  0.250000  0.275159  0.677430  1
  Ni  Ni18  1  0.750000  0.775159  0.822570  1
  Ni  Ni19  1  0.750000  0.724841  0.322570  1
  Ni  Ni20  1  0.250000  0.877812  0.701787  1
  Ni  Ni21  1  0.250000  0.622188  0.201787  1
  Ni  Ni22  1  0.750000  0.122188  0.298213  1
  Ni  Ni23  1  0.750000  0.377812  0.798213  1
  P  P24  1  0.250000  0.425311  0.112267  1
  P  P25  1  0.250000  0.074689  0.612267  1
  P  P26  1  0.750000  0.574689  0.887733  1
  P  P27  1  0.750000  0.925311  0.387733  1
  P  P28  1  0.250000  0.267522  0.869086  1
  P  P29  1  0.250000  0.232478  0.369086  1
  P  P30  1  0.750000  0.732478  0.130914  1
  P  P31  1  0.750000  0.767522  0.630914  1
  P  P32  1  0.250000  0.602466  0.392089  1
  P  P33  1  0.250000  0.897534  0.892089  1
  P  P34  1  0.750000  0.397534  0.607911  1
  P  P35  1  0.750000  0.102466  0.107911  1
