# generated using pymatgen
data_K7Ta(SeO4)6
_symmetry_space_group_name_H-M   'P 1'
_cell_length_a   9.75855027
_cell_length_b   9.75855002
_cell_length_c   9.75855056
_cell_angle_alpha   109.45529929
_cell_angle_beta   109.45531243
_cell_angle_gamma   109.45530997
_symmetry_Int_Tables_number   1
_chemical_formula_structural   K7Ta(SeO4)6
_chemical_formula_sum   'K7 Ta1 Se6 O24'
_cell_volume   715.79660740
_cell_formula_units_Z   1
loop_
 _symmetry_equiv_pos_site_id
 _symmetry_equiv_pos_as_xyz
  1  'x, y, z'
loop_
 _atom_site_type_symbol
 _atom_site_label
 _atom_site_symmetry_multiplicity
 _atom_site_fract_x
 _atom_site_fract_y
 _atom_site_fract_z
 _atom_site_occupancy
  K  K0  1  0.318051  0.659614  0.161981  1
  K  K1  1  0.659615  0.161981  0.318051  1
  K  K2  1  0.838018  0.681949  0.340386  1
  K  K3  1  0.500000  0.500000  0.500000  1
  K  K4  1  0.161982  0.318051  0.659614  1
  K  K5  1  0.340385  0.838019  0.681949  1
  K  K6  1  0.681949  0.340386  0.838018  1
  Ta  Ta7  1  0.000000  0.000000  0.000000  1
  Se  Se8  1  0.383170  0.256803  0.030685  1
  Se  Se9  1  0.030686  0.383170  0.256804  1
  Se  Se10  1  0.256804  0.030686  0.383170  1
  Se  Se11  1  0.743196  0.969314  0.616830  1
  Se  Se12  1  0.969314  0.616830  0.743196  1
  Se  Se13  1  0.616830  0.743197  0.969315  1
  O  O14  1  0.697787  0.633735  0.025338  1
  O  O15  1  0.227542  0.095111  0.025153  1
  O  O16  1  0.564524  0.839401  0.099986  1
  O  O17  1  0.025154  0.227542  0.095110  1
  O  O18  1  0.900014  0.435476  0.160599  1
  O  O19  1  0.537948  0.367152  0.228521  1
  O  O20  1  0.095111  0.025154  0.227541  1
  O  O21  1  0.366265  0.974662  0.302213  1
  O  O22  1  0.974662  0.302212  0.366265  1
  O  O23  1  0.228521  0.537947  0.367152  1
  O  O24  1  0.160599  0.900014  0.435476  1
  O  O25  1  0.632848  0.771479  0.462052  1
  O  O26  1  0.367152  0.228521  0.537948  1
  O  O27  1  0.839401  0.099986  0.564524  1
  O  O28  1  0.771479  0.462053  0.632848  1
  O  O29  1  0.025338  0.697788  0.633735  1
  O  O30  1  0.633736  0.025338  0.697787  1
  O  O31  1  0.904889  0.974846  0.772459  1
  O  O32  1  0.462053  0.632848  0.771479  1
  O  O33  1  0.099986  0.564524  0.839401  1
  O  O34  1  0.974846  0.772458  0.904890  1
  O  O35  1  0.435477  0.160599  0.900014  1
  O  O36  1  0.772458  0.904889  0.974847  1
  O  O37  1  0.302213  0.366265  0.974662  1
