# generated using pymatgen
data_Dy3Ga3Ru2Au
_symmetry_space_group_name_H-M   'P 1'
_cell_length_a   7.29497400
_cell_length_b   7.29497380
_cell_length_c   3.92625400
_cell_angle_alpha   90.00000000
_cell_angle_beta   90.00000000
_cell_angle_gamma   120.00000210
_symmetry_Int_Tables_number   1
_chemical_formula_structural   Dy3Ga3Ru2Au
_chemical_formula_sum   'Dy3 Ga3 Ru2 Au1'
_cell_volume   180.94913001
_cell_formula_units_Z   1
loop_
 _symmetry_equiv_pos_site_id
 _symmetry_equiv_pos_as_xyz
  1  'x, y, z'
loop_
 _atom_site_type_symbol
 _atom_site_label
 _atom_site_symmetry_multiplicity
 _atom_site_fract_x
 _atom_site_fract_y
 _atom_site_fract_z
 _atom_site_occupancy
  Dy  Dy0  1  0.580178  0.598445  0.000000  1
  Dy  Dy1  1  0.401555  0.981733  0.000000  1
  Dy  Dy2  1  0.018267  0.419822  0.000000  1
  Ga  Ga3  1  0.023086  0.770113  0.500000  1
  Ga  Ga4  1  0.229887  0.252973  0.500000  1
  Ga  Ga5  1  0.747027  0.976914  0.500000  1
  Ru  Ru6  1  0.000000  0.000000  0.000000  1
  Ru  Ru7  1  0.333333  0.666667  0.500000  1
  Au  Au8  1  0.666667  0.333333  0.500000  1
