# generated using pymatgen
data_Tb6Ti2MnCrC12
_symmetry_space_group_name_H-M   'P 1'
_cell_length_a   8.27456500
_cell_length_b   8.27456519
_cell_length_c   5.05435300
_cell_angle_alpha   90.00000000
_cell_angle_beta   90.00000000
_cell_angle_gamma   119.99999525
_symmetry_Int_Tables_number   1
_chemical_formula_structural   Tb6Ti2MnCrC12
_chemical_formula_sum   'Tb6 Ti2 Mn1 Cr1 C12'
_cell_volume   299.69988488
_cell_formula_units_Z   1
loop_
 _symmetry_equiv_pos_site_id
 _symmetry_equiv_pos_as_xyz
  1  'x, y, z'
loop_
 _atom_site_type_symbol
 _atom_site_label
 _atom_site_symmetry_multiplicity
 _atom_site_fract_x
 _atom_site_fract_y
 _atom_site_fract_z
 _atom_site_occupancy
  Tb  Tb0  1  0.620634  0.679773  0.750000  1
  Tb  Tb1  1  0.937306  0.617113  0.250000  1
  Tb  Tb2  1  0.679808  0.062694  0.250000  1
  Tb  Tb3  1  0.320227  0.940861  0.750000  1
  Tb  Tb4  1  0.059139  0.379366  0.750000  1
  Tb  Tb5  1  0.382887  0.320192  0.250000  1
  Ti  Ti6  1  0.000000  0.000000  0.502135  1
  Ti  Ti7  1  0.000000  0.000000  0.997865  1
  Mn  Mn8  1  0.333333  0.666667  0.250000  1
  Cr  Cr9  1  0.666667  0.333333  0.750000  1
  C  C10  1  0.964271  0.764690  0.750000  1
  C  C11  1  0.203033  0.963054  0.250000  1
  C  C12  1  0.760022  0.796967  0.250000  1
  C  C13  1  0.235310  0.199582  0.750000  1
  C  C14  1  0.800418  0.035729  0.750000  1
  C  C15  1  0.036946  0.239978  0.250000  1
  C  C16  1  0.864333  0.572870  0.750000  1
  C  C17  1  0.290759  0.860534  0.250000  1
  C  C18  1  0.569775  0.709241  0.250000  1
  C  C19  1  0.427130  0.291463  0.750000  1
  C  C20  1  0.139466  0.430225  0.250000  1
  C  C21  1  0.708537  0.135667  0.750000  1
