# generated using pymatgen
data_Tb3Sm5Hf11Si16W
_symmetry_space_group_name_H-M   'P 1'
_cell_length_a   7.29129480
_cell_length_b   7.29320604
_cell_length_c   13.39526136
_cell_angle_alpha   89.93546422
_cell_angle_beta   90.08843941
_cell_angle_gamma   90.09276635
_symmetry_Int_Tables_number   1
_chemical_formula_structural   Tb3Sm5Hf11Si16W
_chemical_formula_sum   'Tb3 Sm5 Hf11 Si16 W1'
_cell_volume   712.31644596
_cell_formula_units_Z   1
loop_
 _symmetry_equiv_pos_site_id
 _symmetry_equiv_pos_as_xyz
  1  'x, y, z'
loop_
 _atom_site_type_symbol
 _atom_site_label
 _atom_site_symmetry_multiplicity
 _atom_site_fract_x
 _atom_site_fract_y
 _atom_site_fract_z
 _atom_site_occupancy
  Tb  Tb0  1  0.495749  0.156472  0.534743  1
  Tb  Tb1  1  0.343195  0.999417  0.787554  1
  Tb  Tb2  1  0.656249  0.004231  0.283652  1
  Sm  Sm3  1  0.997636  0.342101  0.212886  1
  Sm  Sm4  1  0.005476  0.657655  0.716701  1
  Sm  Sm5  1  0.158000  0.494173  0.465578  1
  Sm  Sm6  1  0.502928  0.844467  0.034047  1
  Sm  Sm7  1  0.844240  0.502982  0.965903  1
  Hf  Hf8  1  0.825012  0.826582  0.499937  1
  Hf  Hf9  1  0.324665  0.675194  0.248974  1
  Hf  Hf10  1  0.674053  0.323457  0.750974  1
  Hf  Hf11  1  0.148012  0.996647  0.373320  1
  Hf  Hf12  1  0.853152  0.005894  0.877171  1
  Hf  Hf13  1  0.504641  0.649125  0.624518  1
  Hf  Hf14  1  0.347687  0.491662  0.877520  1
  Hf  Hf15  1  0.492307  0.347303  0.122358  1
  Hf  Hf16  1  0.648862  0.505014  0.375575  1
  Hf  Hf17  1  0.995934  0.147794  0.626824  1
  Hf  Hf18  1  0.006167  0.853413  0.122638  1
  Si  Si19  1  0.365415  0.294597  0.315326  1
  Si  Si20  1  0.634442  0.705348  0.816352  1
  Si  Si21  1  0.205762  0.865475  0.566144  1
  Si  Si22  1  0.137513  0.799505  0.933559  1
  Si  Si23  1  0.797544  0.136053  0.065987  1
  Si  Si24  1  0.861518  0.202924  0.433696  1
  Si  Si25  1  0.297573  0.361523  0.684624  1
  Si  Si26  1  0.703932  0.637140  0.184128  1
  Si  Si27  1  0.293539  0.051117  0.182823  1
  Si  Si28  1  0.703678  0.952482  0.686281  1
  Si  Si29  1  0.451500  0.795890  0.434968  1
  Si  Si30  1  0.206074  0.546701  0.063888  1
  Si  Si31  1  0.545581  0.204956  0.935581  1
  Si  Si32  1  0.792382  0.448978  0.564852  1
  Si  Si33  1  0.052642  0.291163  0.817616  1
  Si  Si34  1  0.950273  0.706887  0.313597  1
  W  W35  1  0.176667  0.175679  0.999704  1
