# generated using pymatgen
data_PrSm7(Te3N2)2
_symmetry_space_group_name_H-M   'P 1'
_cell_length_a   7.36690900
_cell_length_b   11.29171733
_cell_length_c   11.69238237
_cell_angle_alpha   89.94454272
_cell_angle_beta   90.00000000
_cell_angle_gamma   90.00000000
_symmetry_Int_Tables_number   1
_chemical_formula_structural   PrSm7(Te3N2)2
_chemical_formula_sum   'Pr2 Sm14 Te12 N8'
_cell_volume   972.63100279
_cell_formula_units_Z   2
loop_
 _symmetry_equiv_pos_site_id
 _symmetry_equiv_pos_as_xyz
  1  'x, y, z'
loop_
 _atom_site_type_symbol
 _atom_site_label
 _atom_site_symmetry_multiplicity
 _atom_site_fract_x
 _atom_site_fract_y
 _atom_site_fract_z
 _atom_site_occupancy
  Pr  Pr0  1  0.852930  0.611601  0.049842  1
  Pr  Pr1  1  0.647070  0.111601  0.549842  1
  Sm  Sm2  1  0.855030  0.608352  0.451345  1
  Sm  Sm3  1  0.145692  0.392227  0.547942  1
  Sm  Sm4  1  0.090248  0.657396  0.748786  1
  Sm  Sm5  1  0.235035  0.031836  0.750884  1
  Sm  Sm6  1  0.264965  0.531836  0.250884  1
  Sm  Sm7  1  0.409752  0.157396  0.248786  1
  Sm  Sm8  1  0.145451  0.391106  0.951665  1
  Sm  Sm9  1  0.763059  0.967187  0.249272  1
  Sm  Sm10  1  0.736941  0.467187  0.749272  1
  Sm  Sm11  1  0.588638  0.841214  0.750202  1
  Sm  Sm12  1  0.354549  0.891106  0.451665  1
  Sm  Sm13  1  0.644970  0.108352  0.951345  1
  Sm  Sm14  1  0.354308  0.892227  0.047942  1
  Sm  Sm15  1  0.911362  0.341214  0.250202  1
  Te  Te16  1  0.919342  0.223227  0.753708  1
  Te  Te17  1  0.083958  0.778603  0.250258  1
  Te  Te18  1  0.564555  0.366101  0.417526  1
  Te  Te19  1  0.065692  0.135343  0.080248  1
  Te  Te20  1  0.416042  0.278603  0.750258  1
  Te  Te21  1  0.580658  0.723227  0.253708  1
  Te  Te22  1  0.566381  0.362415  0.080111  1
  Te  Te23  1  0.434308  0.635343  0.580248  1
  Te  Te24  1  0.935445  0.866101  0.917526  1
  Te  Te25  1  0.933619  0.862415  0.580111  1
  Te  Te26  1  0.068324  0.136905  0.420009  1
  Te  Te27  1  0.431676  0.636905  0.920009  1
  N  N28  1  0.051611  0.468349  0.378242  1
  N  N29  1  0.552026  0.031389  0.120964  1
  N  N30  1  0.444511  0.965895  0.622699  1
  N  N31  1  0.947974  0.531389  0.620964  1
  N  N32  1  0.949682  0.530853  0.876298  1
  N  N33  1  0.448389  0.968349  0.878242  1
  N  N34  1  0.550318  0.030853  0.376298  1
  N  N35  1  0.055489  0.465895  0.122699  1
