# generated using pymatgen
data_Cs5(WSe4)2
_symmetry_space_group_name_H-M   'P 1'
_cell_length_a   12.83847814
_cell_length_b   12.84976552
_cell_length_c   12.85190728
_cell_angle_alpha   132.82720617
_cell_angle_beta   127.44334506
_cell_angle_gamma   73.23484528
_symmetry_Int_Tables_number   1
_chemical_formula_structural   Cs5(WSe4)2
_chemical_formula_sum   'Cs10 W4 Se16'
_cell_volume   1205.86415792
_cell_formula_units_Z   2
loop_
 _symmetry_equiv_pos_site_id
 _symmetry_equiv_pos_as_xyz
  1  'x, y, z'
loop_
 _atom_site_type_symbol
 _atom_site_label
 _atom_site_symmetry_multiplicity
 _atom_site_fract_x
 _atom_site_fract_y
 _atom_site_fract_z
 _atom_site_occupancy
  Cs  Cs0  1  0.496705  0.246768  0.250007  1
  Cs  Cs1  1  0.003242  0.753244  0.249854  1
  Cs  Cs2  1  0.572511  0.715266  0.142833  1
  Cs  Cs3  1  0.427486  0.284809  0.857200  1
  Cs  Cs4  1  0.503440  0.753333  0.750120  1
  Cs  Cs5  1  0.072434  0.429610  0.357191  1
  Cs  Cs6  1  0.927523  0.570216  0.642700  1
  Cs  Cs7  1  0.996750  0.246848  0.750100  1
  Cs  Cs8  1  0.249973  0.999987  0.250053  1
  Cs  Cs9  1  0.749927  0.999897  0.749934  1
  W  W10  1  0.137315  0.915415  0.778032  1
  W  W11  1  0.862667  0.084604  0.221946  1
  W  W12  1  0.362669  0.640825  0.278154  1
  W  W13  1  0.637335  0.359182  0.721927  1
  Se  Se14  1  0.577629  0.588999  0.350655  1
  Se  Se15  1  0.748776  0.995895  0.247037  1
  Se  Se16  1  0.886559  0.884543  0.998140  1
  Se  Se17  1  0.761552  0.410863  0.988363  1
  Se  Se18  1  0.738362  0.226942  0.149369  1
  Se  Se19  1  0.751158  0.498210  0.747037  1
  Se  Se20  1  0.251232  0.004112  0.752918  1
  Se  Se21  1  0.238427  0.589139  0.011667  1
  Se  Se22  1  0.248832  0.501875  0.253055  1
  Se  Se23  1  0.261661  0.773024  0.850554  1
  Se  Se24  1  0.113407  0.115348  0.001782  1
  Se  Se25  1  0.922562  0.773189  0.511631  1
  Se  Se26  1  0.077472  0.226762  0.488269  1
  Se  Se27  1  0.613581  0.111666  0.498257  1
  Se  Se28  1  0.422357  0.411012  0.649378  1
  Se  Se29  1  0.386457  0.888416  0.501839  1
