# generated using pymatgen
data_Pr7Nd3Si5Ir
_symmetry_space_group_name_H-M   'P 1'
_cell_length_a   7.69497878
_cell_length_b   7.69917036
_cell_length_c   9.11922466
_cell_angle_alpha   114.97384490
_cell_angle_beta   114.94224005
_cell_angle_gamma   90.02112593
_symmetry_Int_Tables_number   1
_chemical_formula_structural   Pr7Nd3Si5Ir
_chemical_formula_sum   'Pr7 Nd3 Si5 Ir1'
_cell_volume   433.48803197
_cell_formula_units_Z   1
loop_
 _symmetry_equiv_pos_site_id
 _symmetry_equiv_pos_as_xyz
  1  'x, y, z'
loop_
 _atom_site_type_symbol
 _atom_site_label
 _atom_site_symmetry_multiplicity
 _atom_site_fract_x
 _atom_site_fract_y
 _atom_site_fract_z
 _atom_site_occupancy
  Pr  Pr0  1  0.336509  0.479439  0.286602  1
  Pr  Pr1  1  0.807644  0.336707  0.286937  1
  Pr  Pr2  1  0.479194  0.950408  0.286750  1
  Pr  Pr3  1  0.020709  0.163294  0.713422  1
  Pr  Pr4  1  0.692176  0.549637  0.713494  1
  Pr  Pr5  1  0.163654  0.692679  0.713059  1
  Pr  Pr6  1  0.549364  0.020821  0.713197  1
  Nd  Nd7  1  0.469561  0.469606  0.938684  1
  Nd  Nd8  1  0.030552  0.030634  0.061648  1
  Nd  Nd9  1  0.949311  0.806719  0.285453  1
  Si  Si10  1  0.250023  0.248816  0.499693  1
  Si  Si11  1  0.615604  0.884897  0.000440  1
  Si  Si12  1  0.385225  0.114915  0.000109  1
  Si  Si13  1  0.884997  0.385632  0.000537  1
  Si  Si14  1  0.114873  0.615448  0.000468  1
  Ir  Ir15  1  0.750602  0.750349  0.499505  1
