# generated using pymatgen
data_LuB4Ir
_symmetry_space_group_name_H-M   'P 1'
_cell_length_a   3.53984700
_cell_length_b   5.92329600
_cell_length_c   11.49343000
_cell_angle_alpha   90.00000000
_cell_angle_beta   90.00000000
_cell_angle_gamma   90.00000000
_symmetry_Int_Tables_number   1
_chemical_formula_structural   LuB4Ir
_chemical_formula_sum   'Lu4 B16 Ir4'
_cell_volume   240.98920124
_cell_formula_units_Z   4
loop_
 _symmetry_equiv_pos_site_id
 _symmetry_equiv_pos_as_xyz
  1  'x, y, z'
loop_
 _atom_site_type_symbol
 _atom_site_label
 _atom_site_symmetry_multiplicity
 _atom_site_fract_x
 _atom_site_fract_y
 _atom_site_fract_z
 _atom_site_occupancy
  Lu  Lu0  1  0.000000  0.631896  0.351365  1
  Lu  Lu1  1  0.000000  0.368104  0.648635  1
  Lu  Lu2  1  0.000000  0.131896  0.148635  1
  Lu  Lu3  1  0.000000  0.868104  0.851365  1
  B  B4  1  0.500000  0.793357  0.188295  1
  B  B5  1  0.500000  0.206643  0.811705  1
  B  B6  1  0.500000  0.293357  0.311705  1
  B  B7  1  0.500000  0.706643  0.688295  1
  B  B8  1  0.500000  0.864770  0.029358  1
  B  B9  1  0.500000  0.135230  0.970642  1
  B  B10  1  0.500000  0.364770  0.470642  1
  B  B11  1  0.500000  0.635230  0.529358  1
  B  B12  1  0.500000  0.886698  0.452664  1
  B  B13  1  0.500000  0.113302  0.547336  1
  B  B14  1  0.500000  0.386698  0.047336  1
  B  B15  1  0.500000  0.613302  0.952664  1
  B  B16  1  0.500000  0.976282  0.306469  1
  B  B17  1  0.500000  0.023718  0.693531  1
  B  B18  1  0.500000  0.476282  0.193531  1
  B  B19  1  0.500000  0.523718  0.806469  1
  Ir  Ir20  1  0.000000  0.645061  0.097478  1
  Ir  Ir21  1  0.000000  0.354939  0.902522  1
  Ir  Ir22  1  0.000000  0.145061  0.402522  1
  Ir  Ir23  1  0.000000  0.854939  0.597478  1
