# generated using pymatgen
data_Ca2Y4Si5GeRh12
_symmetry_space_group_name_H-M   'P 1'
_cell_length_a   5.60422400
_cell_length_b   5.60422369
_cell_length_c   15.09505100
_cell_angle_alpha   90.00000000
_cell_angle_beta   90.00000000
_cell_angle_gamma   120.00000180
_symmetry_Int_Tables_number   1
_chemical_formula_structural   Ca2Y4Si5GeRh12
_chemical_formula_sum   'Ca2 Y4 Si5 Ge1 Rh12'
_cell_volume   410.57845497
_cell_formula_units_Z   1
loop_
 _symmetry_equiv_pos_site_id
 _symmetry_equiv_pos_as_xyz
  1  'x, y, z'
loop_
 _atom_site_type_symbol
 _atom_site_label
 _atom_site_symmetry_multiplicity
 _atom_site_fract_x
 _atom_site_fract_y
 _atom_site_fract_z
 _atom_site_occupancy
  Ca  Ca0  1  0.666667  0.333333  0.751069  1
  Ca  Ca1  1  0.333333  0.666667  0.248931  1
  Y  Y2  1  0.666667  0.333333  0.959595  1
  Y  Y3  1  0.666667  0.333333  0.541448  1
  Y  Y4  1  0.333333  0.666667  0.040405  1
  Y  Y5  1  0.333333  0.666667  0.458552  1
  Si  Si6  1  0.666667  0.333333  0.247878  1
  Si  Si7  1  0.000000  0.000000  0.248455  1
  Si  Si8  1  0.000000  0.000000  0.751545  1
  Si  Si9  1  0.333333  0.666667  0.752122  1
  Si  Si10  1  0.000000  0.000000  0.000000  1
  Ge  Ge11  1  0.000000  0.000000  0.500000  1
  Rh  Rh12  1  0.166706  0.333411  0.871209  1
  Rh  Rh13  1  0.167712  0.335424  0.633460  1
  Rh  Rh14  1  0.666589  0.833294  0.871209  1
  Rh  Rh15  1  0.335424  0.167712  0.366540  1
  Rh  Rh16  1  0.832288  0.664576  0.366540  1
  Rh  Rh17  1  0.832288  0.167712  0.366540  1
  Rh  Rh18  1  0.833294  0.166706  0.128791  1
  Rh  Rh19  1  0.333411  0.166706  0.128791  1
  Rh  Rh20  1  0.664576  0.832288  0.633460  1
  Rh  Rh21  1  0.167712  0.832288  0.633460  1
  Rh  Rh22  1  0.833294  0.666589  0.128791  1
  Rh  Rh23  1  0.166706  0.833294  0.871209  1
