# generated using pymatgen
data_Y2Co9P7W3
_symmetry_space_group_name_H-M   'P 1'
_cell_length_a   3.74132700
_cell_length_b   9.09479344
_cell_length_c   9.09479400
_cell_angle_alpha   120.00000204
_cell_angle_beta   90.00000000
_cell_angle_gamma   90.00000000
_symmetry_Int_Tables_number   1
_chemical_formula_structural   Y2Co9P7W3
_chemical_formula_sum   'Y2 Co9 P7 W3'
_cell_volume   268.00444518
_cell_formula_units_Z   1
loop_
 _symmetry_equiv_pos_site_id
 _symmetry_equiv_pos_as_xyz
  1  'x, y, z'
loop_
 _atom_site_type_symbol
 _atom_site_label
 _atom_site_symmetry_multiplicity
 _atom_site_fract_x
 _atom_site_fract_y
 _atom_site_fract_z
 _atom_site_occupancy
  Y  Y0  1  0.000000  0.666667  0.333333  1
  Y  Y1  1  0.500000  0.333333  0.666667  1
  Co  Co2  1  0.000000  0.568613  0.937219  1
  Co  Co3  1  0.000000  0.368606  0.431387  1
  Co  Co4  1  0.000000  0.062781  0.631394  1
  Co  Co5  1  0.000000  0.879963  0.158953  1
  Co  Co6  1  0.000000  0.278991  0.120037  1
  Co  Co7  1  0.000000  0.841047  0.721009  1
  Co  Co8  1  0.500000  0.948845  0.384903  1
  Co  Co9  1  0.500000  0.436057  0.051155  1
  Co  Co10  1  0.500000  0.615097  0.563943  1
  P  P11  1  0.000000  0.000000  0.000000  1
  P  P12  1  0.500000  0.708152  0.119414  1
  P  P13  1  0.500000  0.411261  0.291848  1
  P  P14  1  0.500000  0.880586  0.588739  1
  P  P15  1  0.000000  0.585907  0.696660  1
  P  P16  1  0.000000  0.110754  0.414093  1
  P  P17  1  0.000000  0.303340  0.889246  1
  W  W18  1  0.500000  0.779948  0.903210  1
  W  W19  1  0.500000  0.123262  0.220052  1
  W  W20  1  0.500000  0.096790  0.876738  1
