# generated using pymatgen
data_Zr10Tl3Ga2Bi2Pb
_symmetry_space_group_name_H-M   'P 1'
_cell_length_a   8.85129507
_cell_length_b   8.85845509
_cell_length_c   5.95343300
_cell_angle_alpha   90.00000000
_cell_angle_beta   90.00000000
_cell_angle_gamma   120.02675885
_symmetry_Int_Tables_number   1
_chemical_formula_structural   Zr10Tl3Ga2Bi2Pb
_chemical_formula_sum   'Zr10 Tl3 Ga2 Bi2 Pb1'
_cell_volume   404.15293986
_cell_formula_units_Z   1
loop_
 _symmetry_equiv_pos_site_id
 _symmetry_equiv_pos_as_xyz
  1  'x, y, z'
loop_
 _atom_site_type_symbol
 _atom_site_label
 _atom_site_symmetry_multiplicity
 _atom_site_fract_x
 _atom_site_fract_y
 _atom_site_fract_z
 _atom_site_occupancy
  Zr  Zr0  1  0.667397  0.333792  0.002574  1
  Zr  Zr1  1  0.332603  0.666396  0.002574  1
  Zr  Zr2  1  0.332603  0.666396  0.497426  1
  Zr  Zr3  1  0.667397  0.333792  0.497426  1
  Zr  Zr4  1  0.737554  0.736804  0.750000  1
  Zr  Zr5  1  0.262446  0.999250  0.750000  1
  Zr  Zr6  1  0.000000  0.262416  0.750000  1
  Zr  Zr7  1  0.263290  0.262902  0.250000  1
  Zr  Zr8  1  0.736710  0.999611  0.250000  1
  Zr  Zr9  1  0.000000  0.737859  0.250000  1
  Tl  Tl10  1  0.613428  0.613726  0.250000  1
  Tl  Tl11  1  0.386572  0.000299  0.250000  1
  Tl  Tl12  1  0.000000  0.386898  0.250000  1
  Ga  Ga13  1  0.000000  0.999478  0.001310  1
  Ga  Ga14  1  0.000000  0.999478  0.498690  1
  Bi  Bi15  1  0.389382  0.389058  0.750000  1
  Bi  Bi16  1  0.610618  0.999677  0.750000  1
  Pb  Pb17  1  0.000000  0.612169  0.750000  1
