# generated using pymatgen
data_TbEr(Al2Co)2
_symmetry_space_group_name_H-M   'P 1'
_cell_length_a   5.41574247
_cell_length_b   5.41574194
_cell_length_c   7.07326700
_cell_angle_alpha   90.00000000
_cell_angle_beta   90.00000000
_cell_angle_gamma   136.89711804
_symmetry_Int_Tables_number   1
_chemical_formula_structural   TbEr(Al2Co)2
_chemical_formula_sum   'Tb1 Er1 Al4 Co2'
_cell_volume   141.76013338
_cell_formula_units_Z   1
loop_
 _symmetry_equiv_pos_site_id
 _symmetry_equiv_pos_as_xyz
  1  'x, y, z'
loop_
 _atom_site_type_symbol
 _atom_site_label
 _atom_site_symmetry_multiplicity
 _atom_site_fract_x
 _atom_site_fract_y
 _atom_site_fract_z
 _atom_site_occupancy
  Tb  Tb0  1  0.941308  0.058692  0.750000  1
  Er  Er1  1  0.058981  0.941019  0.250000  1
  Al  Al2  1  0.660468  0.339532  0.946258  1
  Al  Al3  1  0.339232  0.660768  0.056588  1
  Al  Al4  1  0.339232  0.660768  0.443412  1
  Al  Al5  1  0.660468  0.339532  0.553742  1
  Co  Co6  1  0.218061  0.781939  0.750000  1
  Co  Co7  1  0.782250  0.217750  0.250000  1
