# generated using pymatgen
data_Sc3AlSi2Ag3
_symmetry_space_group_name_H-M   'P 1'
_cell_length_a   6.84597100
_cell_length_b   6.84597056
_cell_length_c   4.02549900
_cell_angle_alpha   90.00000000
_cell_angle_beta   90.00000000
_cell_angle_gamma   120.00000697
_symmetry_Int_Tables_number   1
_chemical_formula_structural   Sc3AlSi2Ag3
_chemical_formula_sum   'Sc3 Al1 Si2 Ag3'
_cell_volume   163.38809395
_cell_formula_units_Z   1
loop_
 _symmetry_equiv_pos_site_id
 _symmetry_equiv_pos_as_xyz
  1  'x, y, z'
loop_
 _atom_site_type_symbol
 _atom_site_label
 _atom_site_symmetry_multiplicity
 _atom_site_fract_x
 _atom_site_fract_y
 _atom_site_fract_z
 _atom_site_occupancy
  Sc  Sc0  1  0.428675  0.428675  0.500000  1
  Sc  Sc1  1  0.571325  0.000000  0.500000  1
  Sc  Sc2  1  0.000000  0.571325  0.500000  1
  Al  Al3  1  0.000000  0.000000  0.500000  1
  Si  Si4  1  0.666667  0.333333  0.000000  1
  Si  Si5  1  0.333333  0.666667  0.000000  1
  Ag  Ag6  1  0.746215  0.746215  0.000000  1
  Ag  Ag7  1  0.253785  0.000000  0.000000  1
  Ag  Ag8  1  0.000000  0.253785  0.000000  1
