# generated using pymatgen
data_Tm7Sc3(RuPt2)2
_symmetry_space_group_name_H-M   'P 1'
_cell_length_a   10.77165798
_cell_length_b   10.78946400
_cell_length_c   6.16692600
_cell_angle_alpha   90.00000000
_cell_angle_beta   89.88963876
_cell_angle_gamma   90.00000000
_symmetry_Int_Tables_number   1
_chemical_formula_structural   Tm7Sc3(RuPt2)2
_chemical_formula_sum   'Tm14 Sc6 Ru4 Pt8'
_cell_volume   716.72137571
_cell_formula_units_Z   2
loop_
 _symmetry_equiv_pos_site_id
 _symmetry_equiv_pos_as_xyz
  1  'x, y, z'
loop_
 _atom_site_type_symbol
 _atom_site_label
 _atom_site_symmetry_multiplicity
 _atom_site_fract_x
 _atom_site_fract_y
 _atom_site_fract_z
 _atom_site_occupancy
  Tm  Tm0  1  0.704561  0.084879  0.869476  1
  Tm  Tm1  1  0.704561  0.915121  0.369476  1
  Tm  Tm2  1  0.581375  0.793800  0.870394  1
  Tm  Tm3  1  0.581375  0.206200  0.370394  1
  Tm  Tm4  1  0.411320  0.795079  0.370222  1
  Tm  Tm5  1  0.411320  0.204921  0.870222  1
  Tm  Tm6  1  0.206374  0.415822  0.631334  1
  Tm  Tm7  1  0.206374  0.584178  0.131334  1
  Tm  Tm8  1  0.794518  0.414228  0.131514  1
  Tm  Tm9  1  0.794518  0.585772  0.631514  1
  Tm  Tm10  1  0.916013  0.707117  0.131610  1
  Tm  Tm11  1  0.916013  0.292883  0.631610  1
  Tm  Tm12  1  0.088032  0.710126  0.632063  1
  Tm  Tm13  1  0.088032  0.289874  0.132063  1
  Sc  Sc14  1  0.298093  0.080818  0.374480  1
  Sc  Sc15  1  0.298093  0.919182  0.874480  1
  Sc  Sc16  1  0.003370  0.000387  0.493852  1
  Sc  Sc17  1  0.003370  0.999613  0.993852  1
  Sc  Sc18  1  0.498872  0.498683  0.000020  1
  Sc  Sc19  1  0.498872  0.501317  0.500020  1
  Ru  Ru20  1  0.493791  0.000108  0.121428  1
  Ru  Ru21  1  0.493791  0.999892  0.621428  1
  Ru  Ru22  1  0.000715  0.500356  0.880320  1
  Ru  Ru23  1  0.000715  0.499644  0.380320  1
  Pt  Pt24  1  0.851255  0.148223  0.248037  1
  Pt  Pt25  1  0.851255  0.851777  0.748037  1
  Pt  Pt26  1  0.152301  0.146785  0.741863  1
  Pt  Pt27  1  0.152301  0.853215  0.241863  1
  Pt  Pt28  1  0.648704  0.350841  0.749542  1
  Pt  Pt29  1  0.648704  0.649159  0.249542  1
  Pt  Pt30  1  0.350704  0.347852  0.253844  1
  Pt  Pt31  1  0.350704  0.652148  0.753844  1
