# generated using pymatgen
data_Sm4Ho4Re(TcB8)3
_symmetry_space_group_name_H-M   'P 1'
_cell_length_a   3.71241800
_cell_length_b   9.19845806
_cell_length_c   11.62310101
_cell_angle_alpha   90.02540846
_cell_angle_beta   90.00000000
_cell_angle_gamma   90.00000000
_symmetry_Int_Tables_number   1
_chemical_formula_structural   Sm4Ho4Re(TcB8)3
_chemical_formula_sum   'Sm4 Ho4 Re1 Tc3 B24'
_cell_volume   396.91167321
_cell_formula_units_Z   1
loop_
 _symmetry_equiv_pos_site_id
 _symmetry_equiv_pos_as_xyz
  1  'x, y, z'
loop_
 _atom_site_type_symbol
 _atom_site_label
 _atom_site_symmetry_multiplicity
 _atom_site_fract_x
 _atom_site_fract_y
 _atom_site_fract_z
 _atom_site_occupancy
  Sm  Sm0  1  0.000000  0.323592  0.414219  1
  Sm  Sm1  1  0.000000  0.676613  0.585734  1
  Sm  Sm2  1  0.000000  0.823430  0.085934  1
  Sm  Sm3  1  0.000000  0.176862  0.914326  1
  Ho  Ho4  1  0.000000  0.942566  0.368710  1
  Ho  Ho5  1  0.000000  0.057940  0.630368  1
  Ho  Ho6  1  0.000000  0.442521  0.131279  1
  Ho  Ho7  1  0.000000  0.556473  0.869245  1
  Re  Re8  1  0.000000  0.860806  0.819869  1
  Tc  Tc9  1  0.000000  0.639311  0.319706  1
  Tc  Tc10  1  0.000000  0.360766  0.680250  1
  Tc  Tc11  1  0.000000  0.139331  0.180318  1
  B  B12  1  0.500000  0.554419  0.431536  1
  B  B13  1  0.500000  0.445776  0.568546  1
  B  B14  1  0.500000  0.054345  0.068534  1
  B  B15  1  0.500000  0.945819  0.931678  1
  B  B16  1  0.500000  0.749533  0.416920  1
  B  B17  1  0.500000  0.250756  0.583030  1
  B  B18  1  0.500000  0.249447  0.083100  1
  B  B19  1  0.500000  0.750199  0.917097  1
  B  B20  1  0.500000  0.791443  0.265643  1
  B  B21  1  0.500000  0.208528  0.734214  1
  B  B22  1  0.500000  0.291425  0.234414  1
  B  B23  1  0.500000  0.708226  0.765733  1
  B  B24  1  0.500000  0.629936  0.186012  1
  B  B25  1  0.500000  0.369832  0.813960  1
  B  B26  1  0.500000  0.129987  0.314043  1
  B  B27  1  0.500000  0.870166  0.685811  1
  B  B28  1  0.500000  0.983292  0.212431  1
  B  B29  1  0.500000  0.017034  0.787338  1
  B  B30  1  0.500000  0.483270  0.287589  1
  B  B31  1  0.500000  0.516666  0.712585  1
  B  B32  1  0.500000  0.597246  0.027178  1
  B  B33  1  0.500000  0.402273  0.973077  1
  B  B34  1  0.500000  0.097506  0.472604  1
  B  B35  1  0.500000  0.902665  0.526969  1
