# generated using pymatgen
data_Y17Ho3Ir5Rh7
_symmetry_space_group_name_H-M   'P 1'
_cell_length_a   10.92529818
_cell_length_b   10.92524293
_cell_length_c   6.38836902
_cell_angle_alpha   89.98316600
_cell_angle_beta   89.98964757
_cell_angle_gamma   90.06368542
_symmetry_Int_Tables_number   1
_chemical_formula_structural   Y17Ho3Ir5Rh7
_chemical_formula_sum   'Y17 Ho3 Ir5 Rh7'
_cell_volume   762.52502699
_cell_formula_units_Z   1
loop_
 _symmetry_equiv_pos_site_id
 _symmetry_equiv_pos_as_xyz
  1  'x, y, z'
loop_
 _atom_site_type_symbol
 _atom_site_label
 _atom_site_symmetry_multiplicity
 _atom_site_fract_x
 _atom_site_fract_y
 _atom_site_fract_z
 _atom_site_occupancy
  Y  Y0  1  0.290655  0.088350  0.377903  1
  Y  Y1  1  0.290412  0.909782  0.879413  1
  Y  Y2  1  0.708981  0.089855  0.878794  1
  Y  Y3  1  0.708542  0.909954  0.378089  1
  Y  Y4  1  0.587478  0.789597  0.879309  1
  Y  Y5  1  0.587332  0.210342  0.379198  1
  Y  Y6  1  0.410899  0.789921  0.379286  1
  Y  Y7  1  0.412399  0.210238  0.879002  1
  Y  Y8  1  0.210429  0.412471  0.620643  1
  Y  Y9  1  0.210082  0.589048  0.120732  1
  Y  Y10  1  0.789665  0.412711  0.120800  1
  Y  Y11  1  0.789737  0.587664  0.620959  1
  Y  Y12  1  0.911769  0.709538  0.122004  1
  Y  Y13  1  0.910010  0.291204  0.621297  1
  Y  Y14  1  0.090358  0.709445  0.620600  1
  Y  Y15  1  0.089932  0.291265  0.121799  1
  Y  Y16  1  0.000061  0.999767  0.500075  1
  Ho  Ho17  1  0.000334  0.999823  0.000089  1
  Ho  Ho18  1  0.499904  0.499756  0.000098  1
  Ho  Ho19  1  0.500243  0.500095  0.499898  1
  Ir  Ir20  1  0.152870  0.847082  0.249052  1
  Ir  Ir21  1  0.653714  0.346284  0.750036  1
  Ir  Ir22  1  0.653900  0.653565  0.249762  1
  Ir  Ir23  1  0.346424  0.346102  0.250180  1
  Ir  Ir24  1  0.347015  0.652993  0.750034  1
  Rh  Rh25  1  0.846997  0.153025  0.249128  1
  Rh  Rh26  1  0.846217  0.846925  0.750778  1
  Rh  Rh27  1  0.153076  0.153761  0.751010  1
  Rh  Rh28  1  0.500581  0.000242  0.122802  1
  Rh  Rh29  1  0.500437  0.000209  0.623468  1
  Rh  Rh30  1  0.999793  0.499574  0.876580  1
  Rh  Rh31  1  0.999755  0.499414  0.377182  1
