# generated using pymatgen
data_Dy6AlTcNi
_symmetry_space_group_name_H-M   'P 1'
_cell_length_a   8.40014761
_cell_length_b   8.40014848
_cell_length_c   8.40014800
_cell_angle_alpha   112.87385797
_cell_angle_beta   111.38874900
_cell_angle_gamma   104.27655300
_symmetry_Int_Tables_number   1
_chemical_formula_structural   Dy6AlTcNi
_chemical_formula_sum   'Dy12 Al2 Tc2 Ni2'
_cell_volume   453.42486501
_cell_formula_units_Z   2
loop_
 _symmetry_equiv_pos_site_id
 _symmetry_equiv_pos_as_xyz
  1  'x, y, z'
loop_
 _atom_site_type_symbol
 _atom_site_label
 _atom_site_symmetry_multiplicity
 _atom_site_fract_x
 _atom_site_fract_y
 _atom_site_fract_z
 _atom_site_occupancy
  Dy  Dy0  1  0.051922  0.743174  0.308749  1
  Dy  Dy1  1  0.948078  0.256826  0.691251  1
  Dy  Dy2  1  0.565574  0.256826  0.308749  1
  Dy  Dy3  1  0.434426  0.743174  0.691251  1
  Dy  Dy4  1  0.669508  0.853513  0.184006  1
  Dy  Dy5  1  0.330492  0.514498  0.184006  1
  Dy  Dy6  1  0.330492  0.146487  0.815994  1
  Dy  Dy7  1  0.669508  0.485502  0.815994  1
  Dy  Dy8  1  0.181987  0.219175  0.401162  1
  Dy  Dy9  1  0.818013  0.219175  0.037189  1
  Dy  Dy10  1  0.181987  0.780825  0.962811  1
  Dy  Dy11  1  0.818013  0.780825  0.598838  1
  Al  Al12  1  0.000000  0.500000  0.500000  1
  Al  Al13  1  0.500000  0.000000  0.500000  1
  Tc  Tc14  1  0.683119  0.500000  0.183119  1
  Tc  Tc15  1  0.316881  0.500000  0.816881  1
  Ni  Ni16  1  0.884581  0.884581  0.000000  1
  Ni  Ni17  1  0.115419  0.115419  0.000000  1
