# generated using pymatgen
data_Cs3K4PaAs4
_symmetry_space_group_name_H-M   'P 1'
_cell_length_a   9.13292800
_cell_length_b   9.60727000
_cell_length_c   10.84306400
_cell_angle_alpha   90.00000000
_cell_angle_beta   90.00000000
_cell_angle_gamma   90.00000000
_symmetry_Int_Tables_number   1
_chemical_formula_structural   Cs3K4PaAs4
_chemical_formula_sum   'Cs6 K8 Pa2 As8'
_cell_volume   951.39759926
_cell_formula_units_Z   2
loop_
 _symmetry_equiv_pos_site_id
 _symmetry_equiv_pos_as_xyz
  1  'x, y, z'
loop_
 _atom_site_type_symbol
 _atom_site_label
 _atom_site_symmetry_multiplicity
 _atom_site_fract_x
 _atom_site_fract_y
 _atom_site_fract_z
 _atom_site_occupancy
  Cs  Cs0  1  0.025324  0.649994  0.500000  1
  Cs  Cs1  1  0.525324  0.350006  0.000000  1
  Cs  Cs2  1  0.880924  0.083840  0.000000  1
  Cs  Cs3  1  0.380924  0.916160  0.500000  1
  Cs  Cs4  1  0.423022  0.914575  0.000000  1
  Cs  Cs5  1  0.923022  0.085425  0.500000  1
  K  K6  1  0.725642  0.827903  0.731440  1
  K  K7  1  0.225642  0.172097  0.768560  1
  K  K8  1  0.225642  0.172097  0.231440  1
  K  K9  1  0.725642  0.827903  0.268560  1
  K  K10  1  0.845682  0.437057  0.759469  1
  K  K11  1  0.345682  0.562943  0.740531  1
  K  K12  1  0.345682  0.562943  0.259469  1
  K  K13  1  0.845682  0.437057  0.240531  1
  Pa  Pa14  1  0.024858  0.684592  0.000000  1
  Pa  Pa15  1  0.524858  0.315408  0.500000  1
  As  As16  1  0.724654  0.665859  0.000000  1
  As  As17  1  0.224654  0.334141  0.500000  1
  As  As18  1  0.101289  0.832316  0.789257  1
  As  As19  1  0.601289  0.167684  0.710743  1
  As  As20  1  0.601289  0.167684  0.289257  1
  As  As21  1  0.101289  0.832316  0.210743  1
  As  As22  1  0.628604  0.587150  0.500000  1
  As  As23  1  0.128604  0.412850  0.000000  1
