# generated using pymatgen
data_Zr2Sc(ZnPt2)3
_symmetry_space_group_name_H-M   'P 1'
_cell_length_a   4.10430100
_cell_length_b   7.81662600
_cell_length_c   12.29431400
_cell_angle_alpha   90.00000000
_cell_angle_beta   89.99994416
_cell_angle_gamma   90.00000000
_symmetry_Int_Tables_number   1
_chemical_formula_structural   Zr2Sc(ZnPt2)3
_chemical_formula_sum   'Zr4 Sc2 Zn6 Pt12'
_cell_volume   394.42354964
_cell_formula_units_Z   2
loop_
 _symmetry_equiv_pos_site_id
 _symmetry_equiv_pos_as_xyz
  1  'x, y, z'
loop_
 _atom_site_type_symbol
 _atom_site_label
 _atom_site_symmetry_multiplicity
 _atom_site_fract_x
 _atom_site_fract_y
 _atom_site_fract_z
 _atom_site_occupancy
  Zr  Zr0  1  0.999995  0.500000  0.998150  1
  Zr  Zr1  1  0.499998  0.000000  0.165826  1
  Zr  Zr2  1  0.000005  0.500000  0.334173  1
  Zr  Zr3  1  0.499999  0.000000  0.501910  1
  Sc  Sc4  1  0.999993  0.500000  0.667231  1
  Sc  Sc5  1  0.500017  0.000000  0.832695  1
  Zn  Zn6  1  0.000000  0.000000  0.997585  1
  Zn  Zn7  1  0.500006  0.500000  0.166317  1
  Zn  Zn8  1  0.000003  0.000000  0.333703  1
  Zn  Zn9  1  0.499998  0.500000  0.502509  1
  Zn  Zn10  1  0.999996  0.000000  0.668695  1
  Zn  Zn11  1  0.499991  0.500000  0.831114  1
  Pt  Pt12  1  0.499998  0.249840  0.999173  1
  Pt  Pt13  1  0.499998  0.750160  0.999173  1
  Pt  Pt14  1  0.000004  0.249955  0.166275  1
  Pt  Pt15  1  0.000004  0.750045  0.166275  1
  Pt  Pt16  1  0.500005  0.250071  0.333648  1
  Pt  Pt17  1  0.500005  0.749929  0.333648  1
  Pt  Pt18  1  0.000000  0.250230  0.500815  1
  Pt  Pt19  1  0.000000  0.749770  0.500815  1
  Pt  Pt20  1  0.499997  0.250659  0.667505  1
  Pt  Pt21  1  0.499997  0.749341  0.667505  1
  Pt  Pt22  1  0.999993  0.249184  0.832630  1
  Pt  Pt23  1  0.999993  0.750816  0.832630  1
