# generated using pymatgen
data_Hf3Ti3ZnSn4
_symmetry_space_group_name_H-M   'P 1'
_cell_length_a   9.37390300
_cell_length_b   9.37390264
_cell_length_c   5.78759800
_cell_angle_alpha   90.00000000
_cell_angle_beta   90.00000000
_cell_angle_gamma   119.99999775
_symmetry_Int_Tables_number   1
_chemical_formula_structural   Hf3Ti3ZnSn4
_chemical_formula_sum   'Hf6 Ti6 Zn2 Sn8'
_cell_volume   440.42290074
_cell_formula_units_Z   2
loop_
 _symmetry_equiv_pos_site_id
 _symmetry_equiv_pos_as_xyz
  1  'x, y, z'
loop_
 _atom_site_type_symbol
 _atom_site_label
 _atom_site_symmetry_multiplicity
 _atom_site_fract_x
 _atom_site_fract_y
 _atom_site_fract_z
 _atom_site_occupancy
  Hf  Hf0  1  0.851032  0.702063  0.750000  1
  Hf  Hf1  1  0.148968  0.851032  0.250000  1
  Hf  Hf2  1  0.702063  0.851032  0.250000  1
  Hf  Hf3  1  0.297937  0.148968  0.750000  1
  Hf  Hf4  1  0.851032  0.148968  0.750000  1
  Hf  Hf5  1  0.148968  0.297937  0.250000  1
  Ti  Ti6  1  0.500000  0.000000  0.500000  1
  Ti  Ti7  1  0.500000  0.500000  0.000000  1
  Ti  Ti8  1  0.000000  0.500000  0.000000  1
  Ti  Ti9  1  0.000000  0.500000  0.500000  1
  Ti  Ti10  1  0.500000  0.000000  0.000000  1
  Ti  Ti11  1  0.500000  0.500000  0.500000  1
  Zn  Zn12  1  0.000000  0.000000  0.500000  1
  Zn  Zn13  1  0.000000  0.000000  0.000000  1
  Sn  Sn14  1  0.204817  0.409635  0.750000  1
  Sn  Sn15  1  0.795183  0.204817  0.250000  1
  Sn  Sn16  1  0.409635  0.204817  0.250000  1
  Sn  Sn17  1  0.590365  0.795183  0.750000  1
  Sn  Sn18  1  0.204817  0.795183  0.750000  1
  Sn  Sn19  1  0.795183  0.590365  0.250000  1
  Sn  Sn20  1  0.666667  0.333333  0.750000  1
  Sn  Sn21  1  0.333333  0.666667  0.250000  1
