# generated using pymatgen
data_Zn12Mo12C3N
_symmetry_space_group_name_H-M   'P 1'
_cell_length_a   8.04678856
_cell_length_b   8.04678856
_cell_length_c   8.04678713
_cell_angle_alpha   60.16240579
_cell_angle_beta   60.16240558
_cell_angle_gamma   60.16240488
_symmetry_Int_Tables_number   1
_chemical_formula_structural   Zn12Mo12C3N
_chemical_formula_sum   'Zn12 Mo12 C3 N1'
_cell_volume   369.78326253
_cell_formula_units_Z   1
loop_
 _symmetry_equiv_pos_site_id
 _symmetry_equiv_pos_as_xyz
  1  'x, y, z'
loop_
 _atom_site_type_symbol
 _atom_site_label
 _atom_site_symmetry_multiplicity
 _atom_site_fract_x
 _atom_site_fract_y
 _atom_site_fract_z
 _atom_site_occupancy
  Zn  Zn0  1  0.415060  0.415060  0.755167  1
  Zn  Zn1  1  0.414900  0.414900  0.414900  1
  Zn  Zn2  1  0.755167  0.415060  0.415060  1
  Zn  Zn3  1  0.415060  0.755167  0.415060  1
  Zn  Zn4  1  0.834940  0.834940  0.494833  1
  Zn  Zn5  1  0.835100  0.835100  0.835100  1
  Zn  Zn6  1  0.494833  0.834940  0.834940  1
  Zn  Zn7  1  0.834940  0.494833  0.834940  1
  Zn  Zn8  1  0.625000  0.625000  0.125000  1
  Zn  Zn9  1  0.625000  0.625000  0.625000  1
  Zn  Zn10  1  0.125000  0.625000  0.625000  1
  Zn  Zn11  1  0.625000  0.125000  0.625000  1
  Mo  Mo12  1  0.810991  0.188970  0.188970  1
  Mo  Mo13  1  0.188970  0.810991  0.188970  1
  Mo  Mo14  1  0.810579  0.810579  0.189137  1
  Mo  Mo15  1  0.189137  0.810579  0.810579  1
  Mo  Mo16  1  0.810579  0.189137  0.810579  1
  Mo  Mo17  1  0.188970  0.188970  0.810991  1
  Mo  Mo18  1  0.439009  0.061030  0.061030  1
  Mo  Mo19  1  0.061030  0.439009  0.061030  1
  Mo  Mo20  1  0.439421  0.439421  0.060863  1
  Mo  Mo21  1  0.060863  0.439421  0.439421  1
  Mo  Mo22  1  0.439421  0.060863  0.439421  1
  Mo  Mo23  1  0.061030  0.061030  0.439009  1
  C  C24  1  0.125000  0.125000  0.625000  1
  C  C25  1  0.625000  0.125000  0.125000  1
  C  C26  1  0.125000  0.625000  0.125000  1
  N  N27  1  0.125000  0.125000  0.125000  1
