# generated using pymatgen
data_Ba4SrBiSb3
_symmetry_space_group_name_H-M   'P 1'
_cell_length_a   10.02299891
_cell_length_b   10.02299895
_cell_length_c   9.16670700
_cell_angle_alpha   90.00000000
_cell_angle_beta   90.00000000
_cell_angle_gamma   125.77182898
_symmetry_Int_Tables_number   1
_chemical_formula_structural   Ba4SrBiSb3
_chemical_formula_sum   'Ba8 Sr2 Bi2 Sb6'
_cell_volume   747.16698058
_cell_formula_units_Z   2
loop_
 _symmetry_equiv_pos_site_id
 _symmetry_equiv_pos_as_xyz
  1  'x, y, z'
loop_
 _atom_site_type_symbol
 _atom_site_label
 _atom_site_symmetry_multiplicity
 _atom_site_fract_x
 _atom_site_fract_y
 _atom_site_fract_z
 _atom_site_occupancy
  Ba  Ba0  1  0.315316  0.022795  0.662895  1
  Ba  Ba1  1  0.522795  0.815316  0.837105  1
  Ba  Ba2  1  0.185594  0.476129  0.165905  1
  Ba  Ba3  1  0.976129  0.685594  0.334095  1
  Ba  Ba4  1  0.685594  0.976129  0.334095  1
  Ba  Ba5  1  0.476129  0.185594  0.165905  1
  Ba  Ba6  1  0.815316  0.522795  0.837105  1
  Ba  Ba7  1  0.022795  0.315316  0.662895  1
  Sr  Sr8  1  0.497858  0.497858  0.493978  1
  Sr  Sr9  1  0.997858  0.997858  0.006022  1
  Bi  Bi10  1  0.881246  0.881246  0.618057  1
  Bi  Bi11  1  0.381246  0.381246  0.881943  1
  Sb  Sb12  1  0.619460  0.619460  0.117609  1
  Sb  Sb13  1  0.119460  0.119460  0.382391  1
  Sb  Sb14  1  0.195105  0.806496  0.999999  1
  Sb  Sb15  1  0.306496  0.695105  0.500001  1
  Sb  Sb16  1  0.806496  0.195105  0.999999  1
  Sb  Sb17  1  0.695105  0.306496  0.500001  1
