# generated using pymatgen
data_Tm2Zn(BIr2)3
_symmetry_space_group_name_H-M   'P 1'
_cell_length_a   5.52022900
_cell_length_b   5.52022877
_cell_length_c   13.21187500
_cell_angle_alpha   90.00000000
_cell_angle_beta   90.00000000
_cell_angle_gamma   120.00000734
_symmetry_Int_Tables_number   1
_chemical_formula_structural   Tm2Zn(BIr2)3
_chemical_formula_sum   'Tm4 Zn2 B6 Ir12'
_cell_volume   348.66570062
_cell_formula_units_Z   2
loop_
 _symmetry_equiv_pos_site_id
 _symmetry_equiv_pos_as_xyz
  1  'x, y, z'
loop_
 _atom_site_type_symbol
 _atom_site_label
 _atom_site_symmetry_multiplicity
 _atom_site_fract_x
 _atom_site_fract_y
 _atom_site_fract_z
 _atom_site_occupancy
  Tm  Tm0  1  0.000000  0.000000  0.000000  1
  Tm  Tm1  1  0.000000  0.000000  0.500000  1
  Tm  Tm2  1  0.000000  0.000000  0.741030  1
  Tm  Tm3  1  0.000000  0.000000  0.258970  1
  Zn  Zn4  1  0.666667  0.333333  0.000000  1
  Zn  Zn5  1  0.333333  0.666667  0.000000  1
  B  B6  1  0.666667  0.333333  0.500000  1
  B  B7  1  0.333333  0.666667  0.500000  1
  B  B8  1  0.666667  0.333333  0.733927  1
  B  B9  1  0.333333  0.666667  0.733927  1
  B  B10  1  0.333333  0.666667  0.266073  1
  B  B11  1  0.666667  0.333333  0.266073  1
  Ir  Ir12  1  0.500000  0.500000  0.840062  1
  Ir  Ir13  1  0.500000  0.000000  0.840062  1
  Ir  Ir14  1  0.000000  0.500000  0.840062  1
  Ir  Ir15  1  0.500000  0.500000  0.159938  1
  Ir  Ir16  1  0.500000  0.000000  0.159938  1
  Ir  Ir17  1  0.000000  0.500000  0.159938  1
  Ir  Ir18  1  0.500000  0.500000  0.613827  1
  Ir  Ir19  1  0.500000  0.000000  0.613827  1
  Ir  Ir20  1  0.000000  0.500000  0.613827  1
  Ir  Ir21  1  0.500000  0.500000  0.386173  1
  Ir  Ir22  1  0.500000  0.000000  0.386173  1
  Ir  Ir23  1  0.000000  0.500000  0.386173  1
