# generated using pymatgen
data_Rb8NdY3F20
_symmetry_space_group_name_H-M   'P 1'
_cell_length_a   6.97909981
_cell_length_b   7.53504100
_cell_length_c   11.53067625
_cell_angle_alpha   90.00000000
_cell_angle_beta   90.40599267
_cell_angle_gamma   90.00000000
_symmetry_Int_Tables_number   1
_chemical_formula_structural   Rb8NdY3F20
_chemical_formula_sum   'Rb8 Nd1 Y3 F20'
_cell_volume   606.35771039
_cell_formula_units_Z   1
loop_
 _symmetry_equiv_pos_site_id
 _symmetry_equiv_pos_as_xyz
  1  'x, y, z'
loop_
 _atom_site_type_symbol
 _atom_site_label
 _atom_site_symmetry_multiplicity
 _atom_site_fract_x
 _atom_site_fract_y
 _atom_site_fract_z
 _atom_site_occupancy
  Rb  Rb0  1  0.965876  0.503379  0.669520  1
  Rb  Rb1  1  0.034400  0.001673  0.330625  1
  Rb  Rb2  1  0.533625  0.503612  0.172597  1
  Rb  Rb3  1  0.464709  0.000764  0.827120  1
  Rb  Rb4  1  0.965876  0.996621  0.669520  1
  Rb  Rb5  1  0.034400  0.498327  0.330625  1
  Rb  Rb6  1  0.533625  0.996388  0.172597  1
  Rb  Rb7  1  0.464709  0.499236  0.827120  1
  Nd  Nd8  1  0.938775  0.250000  0.997267  1
  Y  Y9  1  0.061384  0.750000  0.001811  1
  Y  Y10  1  0.558861  0.250000  0.498605  1
  Y  Y11  1  0.442336  0.750000  0.501460  1
  F  F12  1  0.856976  0.540678  0.926589  1
  F  F13  1  0.144107  0.027465  0.073879  1
  F  F14  1  0.642208  0.535080  0.430635  1
  F  F15  1  0.359272  0.034674  0.569291  1
  F  F16  1  0.856976  0.959322  0.926589  1
  F  F17  1  0.144107  0.472535  0.073879  1
  F  F18  1  0.642208  0.964920  0.430635  1
  F  F19  1  0.359272  0.465326  0.569291  1
  F  F20  1  0.621234  0.750000  0.659753  1
  F  F21  1  0.379335  0.250000  0.340318  1
  F  F22  1  0.880127  0.750000  0.158854  1
  F  F23  1  0.127534  0.250000  0.833833  1
  F  F24  1  0.127205  0.750000  0.516441  1
  F  F25  1  0.873795  0.250000  0.484313  1
  F  F26  1  0.377715  0.750000  0.014647  1
  F  F27  1  0.611199  0.250000  0.985352  1
  F  F28  1  0.151277  0.750000  0.817370  1
  F  F29  1  0.845793  0.250000  0.188747  1
  F  F30  1  0.349053  0.750000  0.317593  1
  F  F31  1  0.652034  0.250000  0.683123  1
