# generated using pymatgen
data_Dy6Ho5Tm5(CdIr)4
_symmetry_space_group_name_H-M   'P 1'
_cell_length_a   9.58635305
_cell_length_b   9.57719449
_cell_length_c   9.57719448
_cell_angle_alpha   59.97191266
_cell_angle_beta   59.96835524
_cell_angle_gamma   59.96836351
_symmetry_Int_Tables_number   1
_chemical_formula_structural   Dy6Ho5Tm5(CdIr)4
_chemical_formula_sum   'Dy6 Ho5 Tm5 Cd4 Ir4'
_cell_volume   621.31950104
_cell_formula_units_Z   1
loop_
 _symmetry_equiv_pos_site_id
 _symmetry_equiv_pos_as_xyz
  1  'x, y, z'
loop_
 _atom_site_type_symbol
 _atom_site_label
 _atom_site_symmetry_multiplicity
 _atom_site_fract_x
 _atom_site_fract_y
 _atom_site_fract_z
 _atom_site_occupancy
  Dy  Dy0  1  0.188629  0.811371  0.811371  1
  Dy  Dy1  1  0.811244  0.188756  0.188756  1
  Dy  Dy2  1  0.811135  0.188779  0.811516  1
  Dy  Dy3  1  0.188570  0.811516  0.188779  1
  Dy  Dy4  1  0.811135  0.811516  0.188779  1
  Dy  Dy5  1  0.188570  0.188779  0.811516  1
  Ho  Ho6  1  0.598352  0.599254  0.599254  1
  Ho  Ho7  1  0.599072  0.599540  0.202318  1
  Ho  Ho8  1  0.599072  0.202318  0.599540  1
  Ho  Ho9  1  0.203141  0.599254  0.599254  1
  Ho  Ho10  1  0.061532  0.438468  0.438468  1
  Tm  Tm11  1  0.438248  0.061752  0.061752  1
  Tm  Tm12  1  0.439007  0.060967  0.437938  1
  Tm  Tm13  1  0.062089  0.437938  0.060967  1
  Tm  Tm14  1  0.439007  0.437938  0.060967  1
  Tm  Tm15  1  0.062089  0.060967  0.437938  1
  Cd  Cd16  1  0.830736  0.830629  0.830629  1
  Cd  Cd17  1  0.830785  0.830883  0.507546  1
  Cd  Cd18  1  0.830785  0.507546  0.830883  1
  Cd  Cd19  1  0.508007  0.830629  0.830629  1
  Ir  Ir20  1  0.391408  0.391538  0.391538  1
  Ir  Ir21  1  0.390937  0.391849  0.826279  1
  Ir  Ir22  1  0.390937  0.826279  0.391849  1
  Ir  Ir23  1  0.825517  0.391538  0.391538  1
