# generated using pymatgen
data_ErTm10Lu9(CoSb2)4
_symmetry_space_group_name_H-M   'P 1'
_cell_length_a   7.69710120
_cell_length_b   8.68890900
_cell_length_c   11.98475432
_cell_angle_alpha   90.00000000
_cell_angle_beta   90.02623853
_cell_angle_gamma   90.00000000
_symmetry_Int_Tables_number   1
_chemical_formula_structural   ErTm10Lu9(CoSb2)4
_chemical_formula_sum   'Er1 Tm10 Lu9 Co4 Sb8'
_cell_volume   801.53323632
_cell_formula_units_Z   1
loop_
 _symmetry_equiv_pos_site_id
 _symmetry_equiv_pos_as_xyz
  1  'x, y, z'
loop_
 _atom_site_type_symbol
 _atom_site_label
 _atom_site_symmetry_multiplicity
 _atom_site_fract_x
 _atom_site_fract_y
 _atom_site_fract_z
 _atom_site_occupancy
  Er  Er0  1  0.877404  0.750000  0.808442  1
  Tm  Tm1  1  0.157058  0.750000  0.204438  1
  Tm  Tm2  1  0.842967  0.250000  0.795611  1
  Tm  Tm3  1  0.343092  0.750000  0.704313  1
  Tm  Tm4  1  0.449702  0.750000  0.998035  1
  Tm  Tm5  1  0.949439  0.250000  0.501779  1
  Tm  Tm6  1  0.550146  0.250000  0.002133  1
  Tm  Tm7  1  0.050170  0.750000  0.498015  1
  Tm  Tm8  1  0.622165  0.750000  0.308881  1
  Tm  Tm9  1  0.121975  0.250000  0.191154  1
  Tm  Tm10  1  0.377832  0.250000  0.691151  1
  Lu  Lu11  1  0.657019  0.250000  0.295911  1
  Lu  Lu12  1  0.824714  0.962870  0.065654  1
  Lu  Lu13  1  0.324884  0.037554  0.434486  1
  Lu  Lu14  1  0.175445  0.462128  0.934682  1
  Lu  Lu15  1  0.675257  0.537413  0.565303  1
  Lu  Lu16  1  0.175445  0.037872  0.934682  1
  Lu  Lu17  1  0.675257  0.962587  0.565303  1
  Lu  Lu18  1  0.824714  0.537130  0.065654  1
  Lu  Lu19  1  0.324884  0.462446  0.434486  1
  Co  Co20  1  0.431634  0.750000  0.490832  1
  Co  Co21  1  0.931632  0.250000  0.009200  1
  Co  Co22  1  0.568515  0.250000  0.508822  1
  Co  Co23  1  0.068593  0.750000  0.991069  1
  Sb  Sb24  1  0.931230  0.991726  0.327430  1
  Sb  Sb25  1  0.431757  0.008707  0.172647  1
  Sb  Sb26  1  0.068845  0.491283  0.672405  1
  Sb  Sb27  1  0.568195  0.508305  0.827500  1
  Sb  Sb28  1  0.068845  0.008717  0.672405  1
  Sb  Sb29  1  0.568195  0.991695  0.827500  1
  Sb  Sb30  1  0.931230  0.508274  0.327430  1
  Sb  Sb31  1  0.431757  0.491293  0.172647  1
