# generated using pymatgen
data_Dy8Ti9Nb2Si16Au
_symmetry_space_group_name_H-M   'P 1'
_cell_length_a   7.07915344
_cell_length_b   7.07132328
_cell_length_c   12.91827621
_cell_angle_alpha   89.80340892
_cell_angle_beta   90.22323446
_cell_angle_gamma   89.62521211
_symmetry_Int_Tables_number   1
_chemical_formula_structural   Dy8Ti9Nb2Si16Au
_chemical_formula_sum   'Dy8 Ti9 Nb2 Si16 Au1'
_cell_volume   646.65315639
_cell_formula_units_Z   1
loop_
 _symmetry_equiv_pos_site_id
 _symmetry_equiv_pos_as_xyz
  1  'x, y, z'
loop_
 _atom_site_type_symbol
 _atom_site_label
 _atom_site_symmetry_multiplicity
 _atom_site_fract_x
 _atom_site_fract_y
 _atom_site_fract_z
 _atom_site_occupancy
  Dy  Dy0  1  0.998533  0.658333  0.032605  1
  Dy  Dy1  1  0.999461  0.343234  0.531423  1
  Dy  Dy2  1  0.658528  0.998407  0.967332  1
  Dy  Dy3  1  0.158913  0.502411  0.783241  1
  Dy  Dy4  1  0.842781  0.498361  0.285724  1
  Dy  Dy5  1  0.502526  0.159309  0.216634  1
  Dy  Dy6  1  0.499024  0.842124  0.714286  1
  Dy  Dy7  1  0.343843  0.998065  0.468612  1
  Ti  Ti8  1  0.851927  0.993483  0.377018  1
  Ti  Ti9  1  0.008775  0.151660  0.125275  1
  Ti  Ti10  1  0.992569  0.851717  0.622685  1
  Ti  Ti11  1  0.505224  0.348917  0.623116  1
  Ti  Ti12  1  0.151866  0.009170  0.874966  1
  Ti  Ti13  1  0.825224  0.174153  0.749463  1
  Ti  Ti14  1  0.174503  0.825076  0.250652  1
  Ti  Ti15  1  0.492233  0.648376  0.124794  1
  Ti  Ti16  1  0.648413  0.491718  0.874660  1
  Nb  Nb17  1  0.349049  0.506104  0.376627  1
  Nb  Nb18  1  0.327769  0.327458  0.000007  1
  Si  Si19  1  0.059354  0.716103  0.435106  1
  Si  Si20  1  0.951465  0.290285  0.935462  1
  Si  Si21  1  0.713751  0.062326  0.566163  1
  Si  Si22  1  0.206866  0.453670  0.186221  1
  Si  Si23  1  0.791824  0.545111  0.690195  1
  Si  Si24  1  0.453696  0.207930  0.813225  1
  Si  Si25  1  0.545926  0.793612  0.309722  1
  Si  Si26  1  0.290402  0.951111  0.064392  1
  Si  Si27  1  0.798385  0.867409  0.184645  1
  Si  Si28  1  0.279527  0.626197  0.570916  1
  Si  Si29  1  0.705579  0.369316  0.066335  1
  Si  Si30  1  0.627601  0.279845  0.429216  1
  Si  Si31  1  0.369277  0.705853  0.933364  1
  Si  Si32  1  0.131826  0.201214  0.316940  1
  Si  Si33  1  0.201199  0.132141  0.683148  1
  Si  Si34  1  0.867964  0.798447  0.814972  1
  Au  Au35  1  0.674199  0.671355  0.500856  1
