# generated using pymatgen
data_Pa4Ta3NbN8
_symmetry_space_group_name_H-M   'P 1'
_cell_length_a   3.29721200
_cell_length_b   5.70859311
_cell_length_c   11.08288101
_cell_angle_alpha   90.01362960
_cell_angle_beta   90.00000000
_cell_angle_gamma   90.00000000
_symmetry_Int_Tables_number   1
_chemical_formula_structural   Pa4Ta3NbN8
_chemical_formula_sum   'Pa4 Ta3 Nb1 N8'
_cell_volume   208.60687582
_cell_formula_units_Z   1
loop_
 _symmetry_equiv_pos_site_id
 _symmetry_equiv_pos_as_xyz
  1  'x, y, z'
loop_
 _atom_site_type_symbol
 _atom_site_label
 _atom_site_symmetry_multiplicity
 _atom_site_fract_x
 _atom_site_fract_y
 _atom_site_fract_z
 _atom_site_occupancy
  Pa  Pa0  1  0.250000  0.576706  0.856025  1
  Pa  Pa1  1  0.750000  0.422351  0.144652  1
  Pa  Pa2  1  0.750000  0.924645  0.355739  1
  Pa  Pa3  1  0.250000  0.077917  0.644703  1
  Ta  Ta4  1  0.250000  0.924898  0.098883  1
  Ta  Ta5  1  0.750000  0.073925  0.899847  1
  Ta  Ta6  1  0.750000  0.574123  0.599410  1
  Nb  Nb7  1  0.250000  0.426347  0.400753  1
  N  N8  1  0.250000  0.664512  0.243974  1
  N  N9  1  0.750000  0.337623  0.754602  1
  N  N10  1  0.750000  0.836379  0.745376  1
  N  N11  1  0.250000  0.160380  0.252371  1
  N  N12  1  0.250000  0.762148  0.506356  1
  N  N13  1  0.750000  0.238943  0.497946  1
  N  N14  1  0.750000  0.740707  0.004577  1
  N  N15  1  0.250000  0.258396  0.994786  1
