# generated using pymatgen
data_Sr7Cr6CuF34
_symmetry_space_group_name_H-M   'P 1'
_cell_length_a   7.46626010
_cell_length_b   10.02249731
_cell_length_c   10.02249700
_cell_angle_alpha   67.46614693
_cell_angle_beta   99.34138598
_cell_angle_gamma   99.34138908
_symmetry_Int_Tables_number   1
_chemical_formula_structural   Sr7Cr6CuF34
_chemical_formula_sum   'Sr7 Cr6 Cu1 F34'
_cell_volume   679.40725350
_cell_formula_units_Z   1
loop_
 _symmetry_equiv_pos_site_id
 _symmetry_equiv_pos_as_xyz
  1  'x, y, z'
loop_
 _atom_site_type_symbol
 _atom_site_label
 _atom_site_symmetry_multiplicity
 _atom_site_fract_x
 _atom_site_fract_y
 _atom_site_fract_z
 _atom_site_occupancy
  Sr  Sr0  1  0.000000  0.000000  0.000000  1
  Sr  Sr1  1  0.701274  0.554834  0.160551  1
  Sr  Sr2  1  0.113837  0.260765  0.260765  1
  Sr  Sr3  1  0.298726  0.839448  0.445166  1
  Sr  Sr4  1  0.701274  0.160551  0.554834  1
  Sr  Sr5  1  0.886163  0.739236  0.739236  1
  Sr  Sr6  1  0.298726  0.445166  0.839448  1
  Cr  Cr7  1  0.198947  0.645918  0.135354  1
  Cr  Cr8  1  0.539987  0.172453  0.172453  1
  Cr  Cr9  1  0.801054  0.864645  0.354081  1
  Cr  Cr10  1  0.198947  0.135354  0.645918  1
  Cr  Cr11  1  0.460012  0.827547  0.827547  1
  Cr  Cr12  1  0.801054  0.354081  0.864645  1
  Cu  Cu13  1  0.499999  0.500000  0.500000  1
  F  F14  1  0.994930  0.256606  0.006708  1
  F  F15  1  0.393139  0.774640  0.022480  1
  F  F16  1  0.191307  0.509831  0.039804  1
  F  F17  1  0.295377  0.109630  0.109630  1
  F  F18  1  0.459700  0.361133  0.116677  1
  F  F19  1  0.799732  0.780440  0.208776  1
  F  F20  1  0.200269  0.791224  0.219560  1
  F  F21  1  0.606862  0.977520  0.225360  1
  F  F22  1  0.771585  0.251730  0.251730  1
  F  F23  1  0.020044  0.506156  0.249553  1
  F  F24  1  0.994930  0.006708  0.256606  1
  F  F25  1  0.393734  0.546375  0.274909  1
  F  F26  1  0.459700  0.116677  0.361133  1
  F  F27  1  0.686787  0.437037  0.437037  1
  F  F28  1  0.606265  0.725091  0.453625  1
  F  F29  1  0.808692  0.960196  0.490169  1
  F  F30  1  0.979956  0.750446  0.493844  1
  F  F31  1  0.020044  0.249553  0.506156  1
  F  F32  1  0.191307  0.039804  0.509831  1
  F  F33  1  0.393734  0.274909  0.546375  1
  F  F34  1  0.313214  0.562963  0.562963  1
  F  F35  1  0.540301  0.883323  0.638866  1
  F  F36  1  0.606265  0.453625  0.725091  1
  F  F37  1  0.005070  0.993292  0.743394  1
  F  F38  1  0.979956  0.493844  0.750446  1
  F  F39  1  0.228414  0.748270  0.748270  1
  F  F40  1  0.393139  0.022480  0.774640  1
  F  F41  1  0.799732  0.208776  0.780440  1
  F  F42  1  0.200269  0.219560  0.791224  1
  F  F43  1  0.540301  0.638866  0.883323  1
  F  F44  1  0.704624  0.890371  0.890371  1
  F  F45  1  0.808692  0.490169  0.960196  1
  F  F46  1  0.606862  0.225360  0.977520  1
  F  F47  1  0.005070  0.743394  0.993292  1
