# generated using pymatgen
data_Ca4YbIrPd
_symmetry_space_group_name_H-M   'P 1'
_cell_length_a   8.72575985
_cell_length_b   8.72575936
_cell_length_c   7.61376116
_cell_angle_alpha   82.82876359
_cell_angle_beta   82.82876749
_cell_angle_gamma   44.29097036
_symmetry_Int_Tables_number   1
_chemical_formula_structural   Ca4YbIrPd
_chemical_formula_sum   'Ca8 Yb2 Ir2 Pd2'
_cell_volume   401.11469470
_cell_formula_units_Z   2
loop_
 _symmetry_equiv_pos_site_id
 _symmetry_equiv_pos_as_xyz
  1  'x, y, z'
loop_
 _atom_site_type_symbol
 _atom_site_label
 _atom_site_symmetry_multiplicity
 _atom_site_fract_x
 _atom_site_fract_y
 _atom_site_fract_z
 _atom_site_occupancy
  Ca  Ca0  1  0.034647  0.791456  0.916233  1
  Ca  Ca1  1  0.208544  0.965353  0.583767  1
  Ca  Ca2  1  0.982035  0.198907  0.075539  1
  Ca  Ca3  1  0.801093  0.017965  0.424461  1
  Ca  Ca4  1  0.358274  0.202404  0.813941  1
  Ca  Ca5  1  0.797596  0.641726  0.686059  1
  Ca  Ca6  1  0.629912  0.801352  0.173572  1
  Ca  Ca7  1  0.198648  0.370088  0.326428  1
  Yb  Yb8  1  0.568103  0.431897  0.750000  1
  Yb  Yb9  1  0.421327  0.578673  0.250000  1
  Ir  Ir10  1  0.184524  0.599766  0.579531  1
  Ir  Ir11  1  0.400234  0.815476  0.920469  1
  Pd  Pd12  1  0.816685  0.401621  0.420897  1
  Pd  Pd13  1  0.598379  0.183316  0.079103  1
