# generated using pymatgen
data_TbHoReB6
_symmetry_space_group_name_H-M   'P 1'
_cell_length_a   3.68416600
_cell_length_b   9.17744700
_cell_length_c   11.56930000
_cell_angle_alpha   90.00000000
_cell_angle_beta   90.00000000
_cell_angle_gamma   90.00000000
_symmetry_Int_Tables_number   1
_chemical_formula_structural   TbHoReB6
_chemical_formula_sum   'Tb4 Ho4 Re4 B24'
_cell_volume   391.17235816
_cell_formula_units_Z   4
loop_
 _symmetry_equiv_pos_site_id
 _symmetry_equiv_pos_as_xyz
  1  'x, y, z'
loop_
 _atom_site_type_symbol
 _atom_site_label
 _atom_site_symmetry_multiplicity
 _atom_site_fract_x
 _atom_site_fract_y
 _atom_site_fract_z
 _atom_site_occupancy
  Tb  Tb0  1  0.000000  0.323559  0.413903  1
  Tb  Tb1  1  0.000000  0.676441  0.586097  1
  Tb  Tb2  1  0.000000  0.823559  0.086097  1
  Tb  Tb3  1  0.000000  0.176441  0.913903  1
  Ho  Ho4  1  0.000000  0.943438  0.370164  1
  Ho  Ho5  1  0.000000  0.056562  0.629836  1
  Ho  Ho6  1  0.000000  0.443438  0.129836  1
  Ho  Ho7  1  0.000000  0.556562  0.870164  1
  Re  Re8  1  0.000000  0.638986  0.320616  1
  Re  Re9  1  0.000000  0.361014  0.679384  1
  Re  Re10  1  0.000000  0.138986  0.179384  1
  Re  Re11  1  0.000000  0.861014  0.820616  1
  B  B12  1  0.500000  0.553829  0.432550  1
  B  B13  1  0.500000  0.446171  0.567450  1
  B  B14  1  0.500000  0.053829  0.067450  1
  B  B15  1  0.500000  0.946171  0.932550  1
  B  B16  1  0.500000  0.749370  0.418333  1
  B  B17  1  0.500000  0.250630  0.581667  1
  B  B18  1  0.500000  0.249370  0.081667  1
  B  B19  1  0.500000  0.750630  0.918333  1
  B  B20  1  0.500000  0.792259  0.265936  1
  B  B21  1  0.500000  0.207741  0.734064  1
  B  B22  1  0.500000  0.292259  0.234064  1
  B  B23  1  0.500000  0.707741  0.765936  1
  B  B24  1  0.500000  0.630892  0.185874  1
  B  B25  1  0.500000  0.369108  0.814126  1
  B  B26  1  0.500000  0.130892  0.314126  1
  B  B27  1  0.500000  0.869108  0.685874  1
  B  B28  1  0.500000  0.982890  0.212182  1
  B  B29  1  0.500000  0.017110  0.787818  1
  B  B30  1  0.500000  0.482890  0.287818  1
  B  B31  1  0.500000  0.517110  0.712182  1
  B  B32  1  0.500000  0.599665  0.027842  1
  B  B33  1  0.500000  0.400335  0.972158  1
  B  B34  1  0.500000  0.099665  0.472158  1
  B  B35  1  0.500000  0.900335  0.527842  1
