# generated using pymatgen
data_Tb2Be24CuNi
_symmetry_space_group_name_H-M   'P 1'
_cell_length_a   7.29094121
_cell_length_b   7.27281290
_cell_length_c   7.30104629
_cell_angle_alpha   59.64357091
_cell_angle_beta   59.97927814
_cell_angle_gamma   59.78081464
_symmetry_Int_Tables_number   1
_chemical_formula_structural   Tb2Be24CuNi
_chemical_formula_sum   'Tb2 Be24 Cu1 Ni1'
_cell_volume   272.51121239
_cell_formula_units_Z   1
loop_
 _symmetry_equiv_pos_site_id
 _symmetry_equiv_pos_as_xyz
  1  'x, y, z'
loop_
 _atom_site_type_symbol
 _atom_site_label
 _atom_site_symmetry_multiplicity
 _atom_site_fract_x
 _atom_site_fract_y
 _atom_site_fract_z
 _atom_site_occupancy
  Tb  Tb0  1  0.252354  0.247129  0.250052  1
  Tb  Tb1  1  0.749880  0.750329  0.752877  1
  Be  Be2  1  0.499486  0.501937  0.500008  1
  Be  Be3  1  0.999510  0.998119  0.003606  1
  Be  Be4  1  0.708650  0.935619  0.065538  1
  Be  Be5  1  0.065707  0.936498  0.287215  1
  Be  Be6  1  0.929240  0.063135  0.716289  1
  Be  Be7  1  0.933405  0.290321  0.068157  1
  Be  Be8  1  0.709386  0.063291  0.290950  1
  Be  Be9  1  0.564910  0.790425  0.434671  1
  Be  Be10  1  0.437960  0.790316  0.206777  1
  Be  Be11  1  0.784556  0.438016  0.564225  1
  Be  Be12  1  0.442732  0.207194  0.562335  1
  Be  Be13  1  0.791440  0.562022  0.210250  1
  Be  Be14  1  0.562678  0.208534  0.793650  1
  Be  Be15  1  0.211430  0.437058  0.791870  1
  Be  Be16  1  0.217355  0.567905  0.427894  1
  Be  Be17  1  0.704013  0.289933  0.939377  1
  Be  Be18  1  0.291334  0.064922  0.932263  1
  Be  Be19  1  0.292748  0.932729  0.710363  1
  Be  Be20  1  0.063518  0.709152  0.937981  1
  Be  Be21  1  0.938337  0.704486  0.292540  1
  Be  Be22  1  0.293322  0.709089  0.062820  1
  Be  Be23  1  0.565995  0.435032  0.208154  1
  Be  Be24  1  0.794070  0.204219  0.439586  1
  Be  Be25  1  0.432360  0.566077  0.789225  1
  Cu  Cu26  1  0.060775  0.299839  0.699977  1
  Ni  Ni27  1  0.202847  0.796682  0.561349  1
