# generated using pymatgen
data_Tb2Ho3CoRu
_symmetry_space_group_name_H-M   'P 1'
_cell_length_a   6.30707306
_cell_length_b   7.09958898
_cell_length_c   8.54267805
_cell_angle_alpha   96.45018521
_cell_angle_beta   111.66325432
_cell_angle_gamma   90.00000698
_symmetry_Int_Tables_number   1
_chemical_formula_structural   Tb2Ho3CoRu
_chemical_formula_sum   'Tb4 Ho6 Co2 Ru2'
_cell_volume   352.89648271
_cell_formula_units_Z   2
loop_
 _symmetry_equiv_pos_site_id
 _symmetry_equiv_pos_as_xyz
  1  'x, y, z'
loop_
 _atom_site_type_symbol
 _atom_site_label
 _atom_site_symmetry_multiplicity
 _atom_site_fract_x
 _atom_site_fract_y
 _atom_site_fract_z
 _atom_site_occupancy
  Tb  Tb0  1  0.976662  0.911534  0.190374  1
  Tb  Tb1  1  0.786287  0.588466  0.809626  1
  Tb  Tb2  1  0.013159  0.082941  0.813592  1
  Tb  Tb3  1  0.199569  0.417059  0.186408  1
  Ho  Ho4  1  0.648070  0.811785  0.432423  1
  Ho  Ho5  1  0.215647  0.688215  0.567577  1
  Ho  Ho6  1  0.358681  0.180936  0.565962  1
  Ho  Ho7  1  0.792719  0.319064  0.434038  1
  Ho  Ho8  1  0.428597  0.750000  0.000000  1
  Ho  Ho9  1  0.576544  0.250000  0.000000  1
  Co  Co10  1  0.824927  0.575912  0.222624  1
  Co  Co11  1  0.602303  0.924088  0.777376  1
  Ru  Ru12  1  0.177432  0.428282  0.778028  1
  Ru  Ru13  1  0.399403  0.071718  0.221972  1
