# generated using pymatgen
data_NaLaHo5IrBr12
_symmetry_space_group_name_H-M   'P 1'
_cell_length_a   9.34316044
_cell_length_b   9.21110982
_cell_length_c   9.40348089
_cell_angle_alpha   106.52004937
_cell_angle_beta   106.42315964
_cell_angle_gamma   107.92103465
_symmetry_Int_Tables_number   1
_chemical_formula_structural   NaLaHo5IrBr12
_chemical_formula_sum   'Na1 La1 Ho5 Ir1 Br12'
_cell_volume   674.68726577
_cell_formula_units_Z   1
loop_
 _symmetry_equiv_pos_site_id
 _symmetry_equiv_pos_as_xyz
  1  'x, y, z'
loop_
 _atom_site_type_symbol
 _atom_site_label
 _atom_site_symmetry_multiplicity
 _atom_site_fract_x
 _atom_site_fract_y
 _atom_site_fract_z
 _atom_site_occupancy
  Na  Na0  1  0.500227  0.501487  0.498147  1
  La  La1  1  0.889097  0.688222  0.972171  1
  Ho  Ho2  1  0.107397  0.297079  0.028110  1
  Ho  Ho3  1  0.324013  0.029791  0.113941  1
  Ho  Ho4  1  0.030370  0.116053  0.322592  1
  Ho  Ho5  1  0.971861  0.890834  0.681381  1
  Ho  Ho6  1  0.674677  0.966200  0.885927  1
  Ir  Ir7  1  0.997232  0.991852  0.001819  1
  Br  Br8  1  0.229420  0.685563  0.077270  1
  Br  Br9  1  0.449695  0.368008  0.147897  1
  Br  Br10  1  0.679112  0.072720  0.212410  1
  Br  Br11  1  0.929443  0.794914  0.333492  1
  Br  Br12  1  0.147173  0.450252  0.360471  1
  Br  Br13  1  0.365613  0.149337  0.448335  1
  Br  Br14  1  0.636047  0.856068  0.553822  1
  Br  Br15  1  0.850805  0.549223  0.617959  1
  Br  Br16  1  0.077295  0.220281  0.689193  1
  Br  Br17  1  0.322239  0.932986  0.789320  1
  Br  Br18  1  0.528402  0.629601  0.839037  1
  Br  Br19  1  0.789887  0.309532  0.926710  1
