# generated using pymatgen
data_CeNd5(Ni3As2)6
_symmetry_space_group_name_H-M   'P 1'
_cell_length_a   3.97607500
_cell_length_b   10.89335619
_cell_length_c   12.85656210
_cell_angle_alpha   89.98233889
_cell_angle_beta   90.00000000
_cell_angle_gamma   90.00000000
_symmetry_Int_Tables_number   1
_chemical_formula_structural   CeNd5(Ni3As2)6
_chemical_formula_sum   'Ce1 Nd5 Ni18 As12'
_cell_volume   556.85369178
_cell_formula_units_Z   1
loop_
 _symmetry_equiv_pos_site_id
 _symmetry_equiv_pos_as_xyz
  1  'x, y, z'
loop_
 _atom_site_type_symbol
 _atom_site_label
 _atom_site_symmetry_multiplicity
 _atom_site_fract_x
 _atom_site_fract_y
 _atom_site_fract_z
 _atom_site_occupancy
  Ce  Ce0  1  0.500000  0.813439  0.207163  1
  Nd  Nd1  1  0.000000  0.500270  0.519552  1
  Nd  Nd2  1  0.500000  0.999756  0.480351  1
  Nd  Nd3  1  0.500000  0.186401  0.206370  1
  Nd  Nd4  1  0.000000  0.687407  0.793749  1
  Nd  Nd5  1  0.000000  0.313314  0.793606  1
  Ni  Ni6  1  0.500000  0.500127  0.152271  1
  Ni  Ni7  1  0.000000  0.000553  0.847607  1
  Ni  Ni8  1  0.500000  0.499994  0.697978  1
  Ni  Ni9  1  0.000000  0.997897  0.301100  1
  Ni  Ni10  1  0.000000  0.500306  0.979681  1
  Ni  Ni11  1  0.500000  0.999634  0.022082  1
  Ni  Ni12  1  0.500000  0.333934  0.996944  1
  Ni  Ni13  1  0.500000  0.666815  0.998269  1
  Ni  Ni14  1  0.000000  0.165794  0.003261  1
  Ni  Ni15  1  0.000000  0.833371  0.002564  1
  Ni  Ni16  1  0.500000  0.303362  0.423331  1
  Ni  Ni17  1  0.500000  0.696475  0.421401  1
  Ni  Ni18  1  0.000000  0.196014  0.576386  1
  Ni  Ni19  1  0.000000  0.804017  0.576662  1
  Ni  Ni20  1  0.500000  0.881673  0.710075  1
  Ni  Ni21  1  0.500000  0.118456  0.709798  1
  Ni  Ni22  1  0.000000  0.620017  0.289757  1
  Ni  Ni23  1  0.000000  0.382227  0.289890  1
  As  As24  1  0.500000  0.500825  0.876564  1
  As  As25  1  0.000000  0.997901  0.123283  1
  As  As26  1  0.500000  0.499379  0.338149  1
  As  As27  1  0.000000  0.000035  0.661739  1
  As  As28  1  0.500000  0.311076  0.610987  1
  As  As29  1  0.500000  0.689186  0.610694  1
  As  As30  1  0.000000  0.188361  0.388750  1
  As  As31  1  0.000000  0.810443  0.389443  1
  As  As32  1  0.500000  0.850687  0.894522  1
  As  As33  1  0.500000  0.149553  0.894395  1
  As  As34  1  0.000000  0.651422  0.105896  1
  As  As35  1  0.000000  0.349881  0.105729  1
