# generated using pymatgen
data_Tb4Lu8Co5Sb
_symmetry_space_group_name_H-M   'P 1'
_cell_length_a   8.16676390
_cell_length_b   8.16676450
_cell_length_c   8.16676447
_cell_angle_alpha   111.45354487
_cell_angle_beta   110.49690654
_cell_angle_gamma   106.50485553
_symmetry_Int_Tables_number   1
_chemical_formula_structural   Tb4Lu8Co5Sb
_chemical_formula_sum   'Tb4 Lu8 Co5 Sb1'
_cell_volume   418.43491788
_cell_formula_units_Z   1
loop_
 _symmetry_equiv_pos_site_id
 _symmetry_equiv_pos_as_xyz
  1  'x, y, z'
loop_
 _atom_site_type_symbol
 _atom_site_label
 _atom_site_symmetry_multiplicity
 _atom_site_fract_x
 _atom_site_fract_y
 _atom_site_fract_z
 _atom_site_occupancy
  Tb  Tb0  1  0.594617  0.789669  0.804950  1
  Tb  Tb1  1  0.405383  0.210331  0.195050  1
  Tb  Tb2  1  0.984720  0.789669  0.195050  1
  Tb  Tb3  1  0.015280  0.210331  0.804950  1
  Lu  Lu4  1  0.816874  0.709688  0.526562  1
  Lu  Lu5  1  0.183126  0.290312  0.473438  1
  Lu  Lu6  1  0.183126  0.709688  0.892815  1
  Lu  Lu7  1  0.816874  0.290312  0.107185  1
  Lu  Lu8  1  0.686188  0.377597  0.691409  1
  Lu  Lu9  1  0.313812  0.622403  0.308591  1
  Lu  Lu10  1  0.686188  0.994780  0.308591  1
  Lu  Lu11  1  0.313812  0.005220  0.691409  1
  Co  Co12  1  0.624157  0.000000  0.624157  1
  Co  Co13  1  0.375843  0.000000  0.375843  1
  Co  Co14  1  0.112308  0.612308  0.500000  1
  Co  Co15  1  0.887692  0.387692  0.500000  1
  Co  Co16  1  0.000000  0.000000  0.000000  1
  Sb  Sb17  1  0.500000  0.500000  0.000000  1
