# generated using pymatgen
data_Tb7Dy9CdHg3Ir4
_symmetry_space_group_name_H-M   'P 1'
_cell_length_a   9.62987122
_cell_length_b   9.63569206
_cell_length_c   9.63308700
_cell_angle_alpha   60.00893945
_cell_angle_beta   59.98894936
_cell_angle_gamma   60.01890319
_symmetry_Int_Tables_number   1
_chemical_formula_structural   Tb7Dy9CdHg3Ir4
_chemical_formula_sum   'Tb7 Dy9 Cd1 Hg3 Ir4'
_cell_volume   632.13367060
_cell_formula_units_Z   1
loop_
 _symmetry_equiv_pos_site_id
 _symmetry_equiv_pos_as_xyz
  1  'x, y, z'
loop_
 _atom_site_type_symbol
 _atom_site_label
 _atom_site_symmetry_multiplicity
 _atom_site_fract_x
 _atom_site_fract_y
 _atom_site_fract_z
 _atom_site_occupancy
  Tb  Tb0  1  0.059507  0.059709  0.440391  1
  Tb  Tb1  1  0.187962  0.811332  0.811803  1
  Tb  Tb2  1  0.810792  0.188993  0.188385  1
  Tb  Tb3  1  0.810792  0.188993  0.811831  1
  Tb  Tb4  1  0.187962  0.811332  0.188904  1
  Tb  Tb5  1  0.811050  0.811676  0.188638  1
  Tb  Tb6  1  0.187707  0.189268  0.811513  1
  Dy  Dy7  1  0.600220  0.599766  0.599317  1
  Dy  Dy8  1  0.600220  0.599766  0.200697  1
  Dy  Dy9  1  0.600352  0.200074  0.599787  1
  Dy  Dy10  1  0.197612  0.600825  0.600783  1
  Dy  Dy11  1  0.059367  0.440133  0.440664  1
  Dy  Dy12  1  0.438994  0.060231  0.060525  1
  Dy  Dy13  1  0.438994  0.060231  0.440250  1
  Dy  Dy14  1  0.059367  0.440133  0.059835  1
  Dy  Dy15  1  0.439207  0.439885  0.060454  1
  Cd  Cd16  1  0.509126  0.830241  0.830317  1
  Hg  Hg17  1  0.833559  0.835460  0.835563  1
  Hg  Hg18  1  0.833559  0.835460  0.495418  1
  Hg  Hg19  1  0.833740  0.495000  0.835630  1
  Ir  Ir20  1  0.391656  0.392278  0.391554  1
  Ir  Ir21  1  0.391656  0.392278  0.824511  1
  Ir  Ir22  1  0.392356  0.824197  0.391723  1
  Ir  Ir23  1  0.824243  0.392741  0.391508  1
