# generated using pymatgen
data_ErAl5Pt3
_symmetry_space_group_name_H-M   'P 1'
_cell_length_a   4.06449600
_cell_length_b   7.41462100
_cell_length_c   20.57903500
_cell_angle_alpha   90.00000000
_cell_angle_beta   90.00000000
_cell_angle_gamma   90.00000000
_symmetry_Int_Tables_number   1
_chemical_formula_structural   ErAl5Pt3
_chemical_formula_sum   'Er4 Al20 Pt12'
_cell_volume   620.18415050
_cell_formula_units_Z   4
loop_
 _symmetry_equiv_pos_site_id
 _symmetry_equiv_pos_as_xyz
  1  'x, y, z'
loop_
 _atom_site_type_symbol
 _atom_site_label
 _atom_site_symmetry_multiplicity
 _atom_site_fract_x
 _atom_site_fract_y
 _atom_site_fract_z
 _atom_site_occupancy
  Er  Er0  1  0.250000  0.116158  0.639915  1
  Er  Er1  1  0.750000  0.883842  0.360085  1
  Er  Er2  1  0.250000  0.383842  0.139915  1
  Er  Er3  1  0.750000  0.616158  0.860085  1
  Al  Al4  1  0.750000  0.354875  0.381784  1
  Al  Al5  1  0.750000  0.883277  0.984132  1
  Al  Al6  1  0.750000  0.685057  0.200330  1
  Al  Al7  1  0.250000  0.869742  0.491248  1
  Al  Al8  1  0.250000  0.630258  0.991248  1
  Al  Al9  1  0.250000  0.314943  0.799670  1
  Al  Al10  1  0.750000  0.073553  0.209114  1
  Al  Al11  1  0.250000  0.645125  0.618216  1
  Al  Al12  1  0.250000  0.573553  0.290886  1
  Al  Al13  1  0.250000  0.185057  0.299670  1
  Al  Al14  1  0.750000  0.145125  0.881784  1
  Al  Al15  1  0.250000  0.926447  0.790886  1
  Al  Al16  1  0.750000  0.369742  0.008752  1
  Al  Al17  1  0.750000  0.616723  0.484132  1
  Al  Al18  1  0.750000  0.130258  0.508752  1
  Al  Al19  1  0.250000  0.116723  0.015868  1
  Al  Al20  1  0.250000  0.854875  0.118216  1
  Al  Al21  1  0.250000  0.383277  0.515868  1
  Al  Al22  1  0.750000  0.426447  0.709114  1
  Al  Al23  1  0.750000  0.814943  0.700330  1
  Pt  Pt24  1  0.750000  0.381626  0.258599  1
  Pt  Pt25  1  0.250000  0.881626  0.241401  1
  Pt  Pt26  1  0.250000  0.618374  0.741401  1
  Pt  Pt27  1  0.750000  0.118374  0.758599  1
  Pt  Pt28  1  0.250000  0.158697  0.425627  1
  Pt  Pt29  1  0.750000  0.416652  0.585861  1
  Pt  Pt30  1  0.750000  0.083348  0.085861  1
  Pt  Pt31  1  0.250000  0.916652  0.914139  1
  Pt  Pt32  1  0.750000  0.841303  0.574373  1
  Pt  Pt33  1  0.250000  0.341303  0.925627  1
  Pt  Pt34  1  0.750000  0.658697  0.074373  1
  Pt  Pt35  1  0.250000  0.583348  0.414139  1
