# generated using pymatgen
data_TiVSiB2Mo3
_symmetry_space_group_name_H-M   'P 1'
_cell_length_a   6.99438138
_cell_length_b   6.97849226
_cell_length_c   6.97849290
_cell_angle_alpha   129.32818182
_cell_angle_beta   129.42708433
_cell_angle_gamma   74.35423672
_symmetry_Int_Tables_number   1
_chemical_formula_structural   TiVSiB2Mo3
_chemical_formula_sum   'Ti2 V2 Si2 B4 Mo6'
_cell_volume   198.42999097
_cell_formula_units_Z   2
loop_
 _symmetry_equiv_pos_site_id
 _symmetry_equiv_pos_as_xyz
  1  'x, y, z'
loop_
 _atom_site_type_symbol
 _atom_site_label
 _atom_site_symmetry_multiplicity
 _atom_site_fract_x
 _atom_site_fract_y
 _atom_site_fract_z
 _atom_site_occupancy
  Ti  Ti0  1  0.804880  0.974398  0.499835  1
  Ti  Ti1  1  0.304880  0.805045  0.830482  1
  V  V2  1  0.999710  0.998664  0.000494  1
  V  V3  1  0.499710  0.499216  0.001047  1
  Si  Si4  1  0.749233  0.748451  0.999699  1
  Si  Si5  1  0.249233  0.249534  0.000782  1
  B  B6  1  0.380827  0.880086  0.260012  1
  B  B7  1  0.880827  0.620815  0.500741  1
  B  B8  1  0.620384  0.118740  0.740160  1
  B  B9  1  0.120384  0.380224  0.501644  1
  Mo  Mo10  1  0.195381  0.031033  0.500645  1
  Mo  Mo11  1  0.532986  0.693461  0.499292  1
  Mo  Mo12  1  0.032986  0.533694  0.839525  1
  Mo  Mo13  1  0.695381  0.194736  0.164348  1
  Mo  Mo14  1  0.966599  0.466366  0.161061  1
  Mo  Mo15  1  0.466599  0.305537  0.500233  1
