# generated using pymatgen
data_Ba8Zn(Si4Au)3
_symmetry_space_group_name_H-M   'P 1'
_cell_length_a   12.48366999
_cell_length_b   10.91887323
_cell_length_c   8.52581177
_cell_angle_alpha   78.82954367
_cell_angle_beta   59.18650027
_cell_angle_gamma   42.06850541
_symmetry_Int_Tables_number   1
_chemical_formula_structural   Ba8Zn(Si4Au)3
_chemical_formula_sum   'Ba8 Zn1 Si12 Au3'
_cell_volume   632.62576497
_cell_formula_units_Z   1
loop_
 _symmetry_equiv_pos_site_id
 _symmetry_equiv_pos_as_xyz
  1  'x, y, z'
loop_
 _atom_site_type_symbol
 _atom_site_label
 _atom_site_symmetry_multiplicity
 _atom_site_fract_x
 _atom_site_fract_y
 _atom_site_fract_z
 _atom_site_occupancy
  Ba  Ba0  1  0.127940  0.125968  0.371018  1
  Ba  Ba1  1  0.875154  0.873548  0.126357  1
  Ba  Ba2  1  0.126357  0.124941  0.875154  1
  Ba  Ba3  1  0.371018  0.375074  0.127940  1
  Ba  Ba4  1  0.623688  0.624170  0.375900  1
  Ba  Ba5  1  0.375900  0.376241  0.623688  1
  Ba  Ba6  1  0.626044  0.628891  0.873734  1
  Ba  Ba7  1  0.873734  0.871331  0.626044  1
  Zn  Zn8  1  0.832473  0.167527  0.832473  1
  Si  Si9  1  0.335192  0.660375  0.828262  1
  Si  Si10  1  0.178329  0.825278  0.659822  1
  Si  Si11  1  0.828262  0.176169  0.335192  1
  Si  Si12  1  0.659822  0.336570  0.178329  1
  Si  Si13  1  0.913632  0.590431  0.425592  1
  Si  Si14  1  0.069370  0.423606  0.591841  1
  Si  Si15  1  0.425592  0.070345  0.913632  1
  Si  Si16  1  0.912060  0.587940  0.912060  1
  Si  Si17  1  0.662664  0.337336  0.662664  1
  Si  Si18  1  0.336259  0.663741  0.336259  1
  Si  Si19  1  0.587992  0.912008  0.587992  1
  Si  Si20  1  0.591841  0.915184  0.069370  1
  Au  Au21  1  0.083101  0.416899  0.083101  1
  Au  Au22  1  0.166607  0.833393  0.166607  1
  Au  Au23  1  0.416966  0.083034  0.416966  1
