# generated using pymatgen
data_YbPa2TaPd12
_symmetry_space_group_name_H-M   'P 1'
_cell_length_a   5.77192500
_cell_length_b   5.77192503
_cell_length_c   9.54055700
_cell_angle_alpha   90.00000000
_cell_angle_beta   90.00000000
_cell_angle_gamma   119.99999411
_symmetry_Int_Tables_number   1
_chemical_formula_structural   YbPa2TaPd12
_chemical_formula_sum   'Yb1 Pa2 Ta1 Pd12'
_cell_volume   275.26167527
_cell_formula_units_Z   1
loop_
 _symmetry_equiv_pos_site_id
 _symmetry_equiv_pos_as_xyz
  1  'x, y, z'
loop_
 _atom_site_type_symbol
 _atom_site_label
 _atom_site_symmetry_multiplicity
 _atom_site_fract_x
 _atom_site_fract_y
 _atom_site_fract_z
 _atom_site_occupancy
  Yb  Yb0  1  0.000000  0.000000  0.500000  1
  Pa  Pa1  1  0.666667  0.333333  0.746434  1
  Pa  Pa2  1  0.333333  0.666667  0.253566  1
  Ta  Ta3  1  0.000000  0.000000  0.000000  1
  Pd  Pd4  1  0.167786  0.335570  0.758207  1
  Pd  Pd5  1  0.832214  0.167786  0.241793  1
  Pd  Pd6  1  0.335570  0.167786  0.241793  1
  Pd  Pd7  1  0.664430  0.832214  0.758207  1
  Pd  Pd8  1  0.500000  0.000000  0.000000  1
  Pd  Pd9  1  0.500000  0.500000  0.500000  1
  Pd  Pd10  1  0.000000  0.500000  0.500000  1
  Pd  Pd11  1  0.000000  0.500000  0.000000  1
  Pd  Pd12  1  0.500000  0.500000  0.000000  1
  Pd  Pd13  1  0.500000  0.000000  0.500000  1
  Pd  Pd14  1  0.832214  0.664430  0.241793  1
  Pd  Pd15  1  0.167786  0.832214  0.758207  1
