# generated using pymatgen
data_Tm4Re6TcMo
_symmetry_space_group_name_H-M   'P 1'
_cell_length_a   5.39530900
_cell_length_b   5.39530955
_cell_length_c   8.85939900
_cell_angle_alpha   90.00000000
_cell_angle_beta   90.00000000
_cell_angle_gamma   120.00000277
_symmetry_Int_Tables_number   1
_chemical_formula_structural   Tm4Re6TcMo
_chemical_formula_sum   'Tm4 Re6 Tc1 Mo1'
_cell_volume   223.34054440
_cell_formula_units_Z   1
loop_
 _symmetry_equiv_pos_site_id
 _symmetry_equiv_pos_as_xyz
  1  'x, y, z'
loop_
 _atom_site_type_symbol
 _atom_site_label
 _atom_site_symmetry_multiplicity
 _atom_site_fract_x
 _atom_site_fract_y
 _atom_site_fract_z
 _atom_site_occupancy
  Tm  Tm0  1  0.333333  0.666667  0.435788  1
  Tm  Tm1  1  0.666667  0.333333  0.564212  1
  Tm  Tm2  1  0.666667  0.333333  0.937648  1
  Tm  Tm3  1  0.333333  0.666667  0.062352  1
  Re  Re4  1  0.828286  0.171714  0.249381  1
  Re  Re5  1  0.828286  0.656570  0.249381  1
  Re  Re6  1  0.343430  0.171714  0.249381  1
  Re  Re7  1  0.171714  0.828286  0.750619  1
  Re  Re8  1  0.171714  0.343430  0.750619  1
  Re  Re9  1  0.656570  0.828286  0.750619  1
  Tc  Tc10  1  0.000000  0.000000  0.000000  1
  Mo  Mo11  1  0.000000  0.000000  0.500000  1
