# generated using pymatgen
data_Tb8FeHg3
_symmetry_space_group_name_H-M   'P 1'
_cell_length_a   10.17945700
_cell_length_b   10.17945644
_cell_length_c   7.12119700
_cell_angle_alpha   90.00000000
_cell_angle_beta   90.00000000
_cell_angle_gamma   119.99999857
_symmetry_Int_Tables_number   1
_chemical_formula_structural   Tb8FeHg3
_chemical_formula_sum   'Tb16 Fe2 Hg6'
_cell_volume   639.04705617
_cell_formula_units_Z   2
loop_
 _symmetry_equiv_pos_site_id
 _symmetry_equiv_pos_as_xyz
  1  'x, y, z'
loop_
 _atom_site_type_symbol
 _atom_site_label
 _atom_site_symmetry_multiplicity
 _atom_site_fract_x
 _atom_site_fract_y
 _atom_site_fract_z
 _atom_site_occupancy
  Tb  Tb0  1  0.825872  0.651745  0.483642  1
  Tb  Tb1  1  0.348255  0.174128  0.483642  1
  Tb  Tb2  1  0.825872  0.174128  0.483642  1
  Tb  Tb3  1  0.174128  0.348255  0.983642  1
  Tb  Tb4  1  0.651745  0.825872  0.983642  1
  Tb  Tb5  1  0.174128  0.825872  0.983642  1
  Tb  Tb6  1  0.666667  0.333333  0.187260  1
  Tb  Tb7  1  0.333333  0.666667  0.687260  1
  Tb  Tb8  1  0.539546  0.079091  0.789827  1
  Tb  Tb9  1  0.920909  0.460454  0.789827  1
  Tb  Tb10  1  0.539546  0.460454  0.789827  1
  Tb  Tb11  1  0.460454  0.920909  0.289827  1
  Tb  Tb12  1  0.079091  0.539546  0.289827  1
  Tb  Tb13  1  0.460454  0.539546  0.289827  1
  Tb  Tb14  1  0.000000  0.000000  0.774813  1
  Tb  Tb15  1  0.000000  0.000000  0.274813  1
  Fe  Fe16  1  0.666667  0.333333  0.552887  1
  Fe  Fe17  1  0.333333  0.666667  0.052887  1
  Hg  Hg18  1  0.832595  0.665190  0.042558  1
  Hg  Hg19  1  0.334810  0.167405  0.042558  1
  Hg  Hg20  1  0.832595  0.167405  0.042558  1
  Hg  Hg21  1  0.167405  0.334810  0.542558  1
  Hg  Hg22  1  0.665190  0.832595  0.542558  1
  Hg  Hg23  1  0.167405  0.832595  0.542558  1
