# generated using pymatgen
data_Er3Zr(SnRh5)2
_symmetry_space_group_name_H-M   'P 1'
_cell_length_a   5.68784512
_cell_length_b   5.68784489
_cell_length_c   8.49395504
_cell_angle_alpha   89.99242524
_cell_angle_beta   89.99242642
_cell_angle_gamma   97.24515972
_symmetry_Int_Tables_number   1
_chemical_formula_structural   Er3Zr(SnRh5)2
_chemical_formula_sum   'Er3 Zr1 Sn2 Rh10'
_cell_volume   272.59881289
_cell_formula_units_Z   1
loop_
 _symmetry_equiv_pos_site_id
 _symmetry_equiv_pos_as_xyz
  1  'x, y, z'
loop_
 _atom_site_type_symbol
 _atom_site_label
 _atom_site_symmetry_multiplicity
 _atom_site_fract_x
 _atom_site_fract_y
 _atom_site_fract_z
 _atom_site_occupancy
  Er  Er0  1  0.779640  0.220360  0.500000  1
  Er  Er1  1  0.220622  0.779378  0.000000  1
  Er  Er2  1  0.220749  0.779251  0.500000  1
  Zr  Zr3  1  0.783787  0.216213  0.000000  1
  Sn  Sn4  1  0.502976  0.500681  0.750990  1
  Sn  Sn5  1  0.499319  0.497024  0.249010  1
  Rh  Rh6  1  0.725836  0.727616  0.000750  1
  Rh  Rh7  1  0.726940  0.727237  0.499062  1
  Rh  Rh8  1  0.272384  0.274164  0.999250  1
  Rh  Rh9  1  0.272763  0.273060  0.500938  1
  Rh  Rh10  1  0.502732  0.003869  0.754874  1
  Rh  Rh11  1  0.502931  0.002834  0.245173  1
  Rh  Rh12  1  0.998301  0.002277  0.245636  1
  Rh  Rh13  1  0.997723  0.001699  0.754364  1
  Rh  Rh14  1  0.997166  0.497069  0.754827  1
  Rh  Rh15  1  0.996131  0.497268  0.245126  1
