# generated using pymatgen
data_Nb2SiAsRh2
_symmetry_space_group_name_H-M   'P 1'
_cell_length_a   3.82916400
_cell_length_b   6.47802500
_cell_length_c   7.43415600
_cell_angle_alpha   90.00000000
_cell_angle_beta   90.00000000
_cell_angle_gamma   90.00000000
_symmetry_Int_Tables_number   1
_chemical_formula_structural   Nb2SiAsRh2
_chemical_formula_sum   'Nb4 Si2 As2 Rh4'
_cell_volume   184.40736283
_cell_formula_units_Z   2
loop_
 _symmetry_equiv_pos_site_id
 _symmetry_equiv_pos_as_xyz
  1  'x, y, z'
loop_
 _atom_site_type_symbol
 _atom_site_label
 _atom_site_symmetry_multiplicity
 _atom_site_fract_x
 _atom_site_fract_y
 _atom_site_fract_z
 _atom_site_occupancy
  Nb  Nb0  1  0.750000  0.470601  0.329693  1
  Nb  Nb1  1  0.250000  0.026791  0.829211  1
  Nb  Nb2  1  0.750000  0.970601  0.170307  1
  Nb  Nb3  1  0.250000  0.526791  0.670789  1
  Si  Si4  1  0.750000  0.733504  0.874736  1
  Si  Si5  1  0.750000  0.233504  0.625264  1
  As  As6  1  0.250000  0.264230  0.127674  1
  As  As7  1  0.250000  0.764230  0.372326  1
  Rh  Rh8  1  0.250000  0.648325  0.052053  1
  Rh  Rh9  1  0.250000  0.148325  0.447947  1
  Rh  Rh10  1  0.750000  0.856550  0.570990  1
  Rh  Rh11  1  0.750000  0.356550  0.929010  1
