# generated using pymatgen
data_Tb8Hf10Zr2Si15Au
_symmetry_space_group_name_H-M   'P 1'
_cell_length_a   7.30582195
_cell_length_b   7.34616709
_cell_length_c   13.45864601
_cell_angle_alpha   89.93892165
_cell_angle_beta   89.97055853
_cell_angle_gamma   89.93133779
_symmetry_Int_Tables_number   1
_chemical_formula_structural   Tb8Hf10Zr2Si15Au
_chemical_formula_sum   'Tb8 Hf10 Zr2 Si15 Au1'
_cell_volume   722.32166456
_cell_formula_units_Z   1
loop_
 _symmetry_equiv_pos_site_id
 _symmetry_equiv_pos_as_xyz
  1  'x, y, z'
loop_
 _atom_site_type_symbol
 _atom_site_label
 _atom_site_symmetry_multiplicity
 _atom_site_fract_x
 _atom_site_fract_y
 _atom_site_fract_z
 _atom_site_occupancy
  Tb  Tb0  1  0.991563  0.346799  0.214042  1
  Tb  Tb1  1  0.004094  0.655366  0.715309  1
  Tb  Tb2  1  0.154465  0.498749  0.466751  1
  Tb  Tb3  1  0.504228  0.842884  0.033507  1
  Tb  Tb4  1  0.843962  0.502688  0.964793  1
  Tb  Tb5  1  0.497370  0.153947  0.537699  1
  Tb  Tb6  1  0.343272  0.997662  0.784922  1
  Tb  Tb7  1  0.662027  0.997076  0.283714  1
  Hf  Hf8  1  0.325402  0.680693  0.249204  1
  Hf  Hf9  1  0.675635  0.324468  0.750209  1
  Hf  Hf10  1  0.146642  0.996319  0.374790  1
  Hf  Hf11  1  0.850967  0.004210  0.874582  1
  Hf  Hf12  1  0.504844  0.650246  0.624949  1
  Hf  Hf13  1  0.350958  0.495103  0.874924  1
  Hf  Hf14  1  0.494978  0.350343  0.121676  1
  Hf  Hf15  1  0.652556  0.510266  0.380094  1
  Hf  Hf16  1  0.995634  0.148493  0.626469  1
  Hf  Hf17  1  0.001818  0.849385  0.123569  1
  Zr  Zr18  1  0.175044  0.176378  0.998817  1
  Zr  Zr19  1  0.826264  0.824941  0.500598  1
  Si  Si20  1  0.637231  0.705852  0.817898  1
  Si  Si21  1  0.205798  0.863397  0.567897  1
  Si  Si22  1  0.137295  0.794595  0.932172  1
  Si  Si23  1  0.794409  0.137113  0.066276  1
  Si  Si24  1  0.860727  0.202142  0.435067  1
  Si  Si25  1  0.295670  0.363271  0.683018  1
  Si  Si26  1  0.704411  0.638011  0.181893  1
  Si  Si27  1  0.292524  0.044442  0.182666  1
  Si  Si28  1  0.705286  0.951171  0.686552  1
  Si  Si29  1  0.447803  0.794568  0.435765  1
  Si  Si30  1  0.205159  0.551003  0.063840  1
  Si  Si31  1  0.549772  0.205122  0.934544  1
  Si  Si32  1  0.794194  0.448739  0.566704  1
  Si  Si33  1  0.047663  0.295709  0.814218  1
  Si  Si34  1  0.951974  0.704561  0.312857  1
  Au  Au35  1  0.368362  0.294289  0.318013  1
