# generated using pymatgen
data_Tm8In2IrPt
_symmetry_space_group_name_H-M   'P 1'
_cell_length_a   9.56854322
_cell_length_b   9.56854245
_cell_length_c   9.55945800
_cell_angle_alpha   60.03140119
_cell_angle_beta   60.03140386
_cell_angle_gamma   60.23974349
_symmetry_Int_Tables_number   1
_chemical_formula_structural   Tm8In2IrPt
_chemical_formula_sum   'Tm16 In4 Ir2 Pt2'
_cell_volume   620.29361996
_cell_formula_units_Z   2
loop_
 _symmetry_equiv_pos_site_id
 _symmetry_equiv_pos_as_xyz
  1  'x, y, z'
loop_
 _atom_site_type_symbol
 _atom_site_label
 _atom_site_symmetry_multiplicity
 _atom_site_fract_x
 _atom_site_fract_y
 _atom_site_fract_z
 _atom_site_occupancy
  Tm  Tm0  1  0.600577  0.600577  0.596087  1
  Tm  Tm1  1  0.600577  0.600577  0.202758  1
  Tm  Tm2  1  0.605745  0.195543  0.599356  1
  Tm  Tm3  1  0.195543  0.605745  0.599356  1
  Tm  Tm4  1  0.056305  0.441371  0.439990  1
  Tm  Tm5  1  0.441371  0.056305  0.062334  1
  Tm  Tm6  1  0.441371  0.056305  0.439990  1
  Tm  Tm7  1  0.056305  0.441371  0.062334  1
  Tm  Tm8  1  0.440920  0.440920  0.059080  1
  Tm  Tm9  1  0.060275  0.060275  0.439725  1
  Tm  Tm10  1  0.188605  0.813893  0.809174  1
  Tm  Tm11  1  0.813893  0.188605  0.188326  1
  Tm  Tm12  1  0.813893  0.188605  0.809174  1
  Tm  Tm13  1  0.188605  0.813893  0.188326  1
  Tm  Tm14  1  0.811920  0.811920  0.188080  1
  Tm  Tm15  1  0.189230  0.189230  0.810770  1
  In  In16  1  0.832991  0.832991  0.834266  1
  In  In17  1  0.832991  0.832991  0.499752  1
  In  In18  1  0.832250  0.499838  0.833956  1
  In  In19  1  0.499838  0.832250  0.833956  1
  Ir  Ir20  1  0.389643  0.824934  0.392711  1
  Ir  Ir21  1  0.824934  0.389643  0.392711  1
  Pt  Pt22  1  0.391107  0.391107  0.394863  1
  Pt  Pt23  1  0.391107  0.391107  0.822922  1
