# generated using pymatgen
data_NaInSnO4
_symmetry_space_group_name_H-M   'P 1'
_cell_length_a   3.22482600
_cell_length_b   9.71054400
_cell_length_c   11.50782700
_cell_angle_alpha   90.00000000
_cell_angle_beta   90.00000000
_cell_angle_gamma   90.00000000
_symmetry_Int_Tables_number   1
_chemical_formula_structural   NaInSnO4
_chemical_formula_sum   'Na4 In4 Sn4 O16'
_cell_volume   360.36547086
_cell_formula_units_Z   4
loop_
 _symmetry_equiv_pos_site_id
 _symmetry_equiv_pos_as_xyz
  1  'x, y, z'
loop_
 _atom_site_type_symbol
 _atom_site_label
 _atom_site_symmetry_multiplicity
 _atom_site_fract_x
 _atom_site_fract_y
 _atom_site_fract_z
 _atom_site_occupancy
  Na  Na0  1  0.500000  0.253806  0.894942  1
  Na  Na1  1  0.500000  0.753806  0.105058  1
  Na  Na2  1  0.000000  0.739731  0.600972  1
  Na  Na3  1  0.000000  0.239731  0.399028  1
  In  In4  1  0.500000  0.428597  0.136410  1
  In  In5  1  0.500000  0.928597  0.863590  1
  In  In6  1  0.500000  0.419821  0.644145  1
  In  In7  1  0.500000  0.919821  0.355855  1
  Sn  Sn8  1  0.000000  0.560498  0.363268  1
  Sn  Sn9  1  0.000000  0.060498  0.636732  1
  Sn  Sn10  1  0.000000  0.583620  0.855139  1
  Sn  Sn11  1  0.000000  0.083620  0.144861  1
  O  O12  1  0.500000  0.198206  0.595880  1
  O  O13  1  0.500000  0.698206  0.404120  1
  O  O14  1  0.000000  0.787969  0.913880  1
  O  O15  1  0.000000  0.287969  0.086120  1
  O  O16  1  0.500000  0.126877  0.261909  1
  O  O17  1  0.500000  0.626877  0.738091  1
  O  O18  1  0.000000  0.889223  0.227326  1
  O  O19  1  0.000000  0.389223  0.772674  1
  O  O20  1  0.500000  0.420281  0.331058  1
  O  O21  1  0.500000  0.920281  0.668942  1
  O  O22  1  0.000000  0.577376  0.182664  1
  O  O23  1  0.000000  0.077376  0.817336  1
  O  O24  1  0.500000  0.027652  0.036918  1
  O  O25  1  0.500000  0.527652  0.963082  1
  O  O26  1  0.000000  0.986342  0.467421  1
  O  O27  1  0.000000  0.486342  0.532579  1
