# generated using pymatgen
data_NaU2(TlS2)3
_symmetry_space_group_name_H-M   'P 1'
_cell_length_a   6.96405005
_cell_length_b   6.96404972
_cell_length_c   8.07159100
_cell_angle_alpha   81.81552704
_cell_angle_beta   81.81551913
_cell_angle_gamma   120.11299290
_symmetry_Int_Tables_number   1
_chemical_formula_structural   NaU2(TlS2)3
_chemical_formula_sum   'Na1 U2 Tl3 S6'
_cell_volume   324.55952670
_cell_formula_units_Z   1
loop_
 _symmetry_equiv_pos_site_id
 _symmetry_equiv_pos_as_xyz
  1  'x, y, z'
loop_
 _atom_site_type_symbol
 _atom_site_label
 _atom_site_symmetry_multiplicity
 _atom_site_fract_x
 _atom_site_fract_y
 _atom_site_fract_z
 _atom_site_occupancy
  Na  Na0  1  0.500000  0.500000  0.000000  1
  U  U1  1  0.832473  0.167527  0.000000  1
  U  U2  1  0.167527  0.832473  0.000000  1
  Tl  Tl3  1  0.658883  0.341117  0.500000  1
  Tl  Tl4  1  0.341117  0.658883  0.500000  1
  Tl  Tl5  1  0.000000  0.000000  0.500000  1
  S  S6  1  0.795423  0.795423  0.192274  1
  S  S7  1  0.204577  0.204577  0.807726  1
  S  S8  1  0.432551  0.071489  0.200446  1
  S  S9  1  0.567449  0.928511  0.799554  1
  S  S10  1  0.928511  0.567449  0.799554  1
  S  S11  1  0.071489  0.432551  0.200446  1
