# generated using pymatgen
data_Tm8Be4Si11Ge
_symmetry_space_group_name_H-M   'P 1'
_cell_length_a   7.84092300
_cell_length_b   7.84088877
_cell_length_c   7.97823300
_cell_angle_alpha   89.99867738
_cell_angle_beta   90.00130069
_cell_angle_gamma   119.97372510
_symmetry_Int_Tables_number   1
_chemical_formula_structural   Tm8Be4Si11Ge
_chemical_formula_sum   'Tm8 Be4 Si11 Ge1'
_cell_volume   424.89806527
_cell_formula_units_Z   1
loop_
 _symmetry_equiv_pos_site_id
 _symmetry_equiv_pos_as_xyz
  1  'x, y, z'
loop_
 _atom_site_type_symbol
 _atom_site_label
 _atom_site_symmetry_multiplicity
 _atom_site_fract_x
 _atom_site_fract_y
 _atom_site_fract_z
 _atom_site_occupancy
  Tm  Tm0  1  0.998428  0.497906  0.248724  1
  Tm  Tm1  1  0.499934  0.500067  0.249390  1
  Tm  Tm2  1  0.501954  0.001386  0.751233  1
  Tm  Tm3  1  0.998615  0.498045  0.751234  1
  Tm  Tm4  1  0.499836  0.500164  0.750711  1
  Tm  Tm5  1  0.502091  0.001570  0.248725  1
  Tm  Tm6  1  0.999170  0.000831  0.751007  1
  Tm  Tm7  1  0.999110  0.000891  0.249009  1
  Be  Be8  1  0.333282  0.666721  0.000859  1
  Be  Be9  1  0.666505  0.333496  0.999046  1
  Be  Be10  1  0.667243  0.332759  0.499598  1
  Be  Be11  1  0.335909  0.664091  0.500272  1
  Si  Si12  1  0.171861  0.344757  0.499594  1
  Si  Si13  1  0.655243  0.828142  0.499594  1
  Si  Si14  1  0.345010  0.172345  0.000442  1
  Si  Si15  1  0.821570  0.651659  0.500546  1
  Si  Si16  1  0.827208  0.172795  0.000308  1
  Si  Si17  1  0.827659  0.654993  0.000441  1
  Si  Si18  1  0.172132  0.344823  0.999657  1
  Si  Si19  1  0.655178  0.827869  0.999658  1
  Si  Si20  1  0.348336  0.178420  0.500547  1
  Si  Si21  1  0.827461  0.172543  0.500357  1
  Si  Si22  1  0.172681  0.827320  0.999623  1
  Ge  Ge23  1  0.173583  0.826408  0.499427  1
