# generated using pymatgen
data_Tb9Pr8Ho3Sb16
_symmetry_space_group_name_H-M   'P 1'
_cell_length_a   8.12149700
_cell_length_b   8.20699518
_cell_length_c   15.53117600
_cell_angle_alpha   90.00000000
_cell_angle_beta   90.00000000
_cell_angle_gamma   90.01188921
_symmetry_Int_Tables_number   1
_chemical_formula_structural   Tb9Pr8Ho3Sb16
_chemical_formula_sum   'Tb9 Pr8 Ho3 Sb16'
_cell_volume   1035.20079829
_cell_formula_units_Z   1
loop_
 _symmetry_equiv_pos_site_id
 _symmetry_equiv_pos_as_xyz
  1  'x, y, z'
loop_
 _atom_site_type_symbol
 _atom_site_label
 _atom_site_symmetry_multiplicity
 _atom_site_fract_x
 _atom_site_fract_y
 _atom_site_fract_z
 _atom_site_occupancy
  Tb  Tb0  1  0.644791  0.150647  0.622417  1
  Tb  Tb1  1  0.144337  0.349338  0.877415  1
  Tb  Tb2  1  0.355236  0.849543  0.122706  1
  Tb  Tb3  1  0.855343  0.650661  0.377045  1
  Tb  Tb4  1  0.355236  0.849543  0.377294  1
  Tb  Tb5  1  0.855343  0.650661  0.122955  1
  Tb  Tb6  1  0.644791  0.150647  0.877583  1
  Tb  Tb7  1  0.144337  0.349338  0.622585  1
  Tb  Tb8  1  0.805615  0.501495  0.750000  1
  Pr  Pr9  1  0.475876  0.677906  0.595431  1
  Pr  Pr10  1  0.975486  0.822025  0.904640  1
  Pr  Pr11  1  0.524439  0.322467  0.095717  1
  Pr  Pr12  1  0.024517  0.177690  0.404498  1
  Pr  Pr13  1  0.524439  0.322467  0.404283  1
  Pr  Pr14  1  0.024517  0.177690  0.095502  1
  Pr  Pr15  1  0.475876  0.677906  0.904569  1
  Pr  Pr16  1  0.975486  0.822025  0.595360  1
  Ho  Ho17  1  0.304841  0.998553  0.750000  1
  Ho  Ho18  1  0.195119  0.498534  0.250000  1
  Ho  Ho19  1  0.695125  0.001402  0.250000  1
  Sb  Sb20  1  0.705884  0.961134  0.452237  1
  Sb  Sb21  1  0.205827  0.538857  0.047659  1
  Sb  Sb22  1  0.293986  0.038856  0.952489  1
  Sb  Sb23  1  0.793907  0.460845  0.546710  1
  Sb  Sb24  1  0.293986  0.038856  0.547511  1
  Sb  Sb25  1  0.793907  0.460845  0.953290  1
  Sb  Sb26  1  0.705884  0.961134  0.047763  1
  Sb  Sb27  1  0.205827  0.538857  0.452341  1
  Sb  Sb28  1  0.444990  0.364437  0.750000  1
  Sb  Sb29  1  0.945834  0.133815  0.750000  1
  Sb  Sb30  1  0.554039  0.634942  0.250000  1
  Sb  Sb31  1  0.054309  0.865220  0.250000  1
  Sb  Sb32  1  0.657848  0.849742  0.750000  1
  Sb  Sb33  1  0.159845  0.651970  0.750000  1
  Sb  Sb34  1  0.341475  0.151336  0.250000  1
  Sb  Sb35  1  0.841705  0.348617  0.250000  1
