# generated using pymatgen
data_Hf16Tc3Pt5
_symmetry_space_group_name_H-M   'P 1'
_cell_length_a   8.80092595
_cell_length_b   8.83053929
_cell_length_c   8.83053900
_cell_angle_alpha   59.99999733
_cell_angle_beta   59.88862816
_cell_angle_gamma   59.88863495
_symmetry_Int_Tables_number   1
_chemical_formula_structural   Hf16Tc3Pt5
_chemical_formula_sum   'Hf16 Tc3 Pt5'
_cell_volume   484.45638408
_cell_formula_units_Z   1
loop_
 _symmetry_equiv_pos_site_id
 _symmetry_equiv_pos_as_xyz
  1  'x, y, z'
loop_
 _atom_site_type_symbol
 _atom_site_label
 _atom_site_symmetry_multiplicity
 _atom_site_fract_x
 _atom_site_fract_y
 _atom_site_fract_z
 _atom_site_occupancy
  Hf  Hf0  1  0.152444  0.615852  0.615852  1
  Hf  Hf1  1  0.617565  0.145286  0.618574  1
  Hf  Hf2  1  0.617565  0.618574  0.145286  1
  Hf  Hf3  1  0.617565  0.618574  0.618574  1
  Hf  Hf4  1  0.816663  0.816943  0.183197  1
  Hf  Hf5  1  0.175224  0.189121  0.817828  1
  Hf  Hf6  1  0.816663  0.183197  0.816943  1
  Hf  Hf7  1  0.175224  0.817828  0.189121  1
  Hf  Hf8  1  0.175224  0.817828  0.817828  1
  Hf  Hf9  1  0.816663  0.183197  0.183197  1
  Hf  Hf10  1  0.450132  0.444095  0.052887  1
  Hf  Hf11  1  0.047521  0.048439  0.452019  1
  Hf  Hf12  1  0.450132  0.052887  0.444095  1
  Hf  Hf13  1  0.047521  0.452019  0.048439  1
  Hf  Hf14  1  0.047521  0.452019  0.452019  1
  Hf  Hf15  1  0.450132  0.052887  0.052887  1
  Tc  Tc16  1  0.841458  0.488050  0.835246  1
  Tc  Tc17  1  0.841458  0.835246  0.488050  1
  Tc  Tc18  1  0.841458  0.835246  0.835246  1
  Pt  Pt19  1  0.804089  0.398637  0.398637  1
  Pt  Pt20  1  0.400508  0.807832  0.395831  1
  Pt  Pt21  1  0.400508  0.395831  0.807832  1
  Pt  Pt22  1  0.400508  0.395831  0.395831  1
  Pt  Pt23  1  0.496257  0.834581  0.834581  1
