# generated using pymatgen
data_HoLu7(AlPt)2
_symmetry_space_group_name_H-M   'P 1'
_cell_length_a   9.40577799
_cell_length_b   9.40577799
_cell_length_c   9.39503100
_cell_angle_alpha   60.03779303
_cell_angle_beta   60.03779304
_cell_angle_gamma   59.92441601
_symmetry_Int_Tables_number   1
_chemical_formula_structural   HoLu7(AlPt)2
_chemical_formula_sum   'Ho2 Lu14 Al4 Pt4'
_cell_volume   587.72144885
_cell_formula_units_Z   2
loop_
 _symmetry_equiv_pos_site_id
 _symmetry_equiv_pos_as_xyz
  1  'x, y, z'
loop_
 _atom_site_type_symbol
 _atom_site_label
 _atom_site_symmetry_multiplicity
 _atom_site_fract_x
 _atom_site_fract_y
 _atom_site_fract_z
 _atom_site_occupancy
  Ho  Ho0  1  0.815778  0.815778  0.184222  1
  Ho  Ho1  1  0.184222  0.184222  0.815778  1
  Lu  Lu2  1  0.604476  0.604476  0.604117  1
  Lu  Lu3  1  0.604476  0.604476  0.186930  1
  Lu  Lu4  1  0.604117  0.186930  0.604476  1
  Lu  Lu5  1  0.186930  0.604117  0.604476  1
  Lu  Lu6  1  0.057654  0.442346  0.442346  1
  Lu  Lu7  1  0.442346  0.057654  0.057654  1
  Lu  Lu8  1  0.442346  0.057654  0.442346  1
  Lu  Lu9  1  0.057654  0.442346  0.057654  1
  Lu  Lu10  1  0.442366  0.442366  0.057634  1
  Lu  Lu11  1  0.057634  0.057634  0.442366  1
  Lu  Lu12  1  0.186916  0.813084  0.813084  1
  Lu  Lu13  1  0.813084  0.186916  0.186916  1
  Lu  Lu14  1  0.813084  0.186916  0.813084  1
  Lu  Lu15  1  0.186916  0.813084  0.186916  1
  Al  Al16  1  0.828519  0.828519  0.828096  1
  Al  Al17  1  0.828519  0.828519  0.514867  1
  Al  Al18  1  0.828096  0.514867  0.828519  1
  Al  Al19  1  0.514867  0.828096  0.828519  1
  Pt  Pt20  1  0.393591  0.393591  0.392575  1
  Pt  Pt21  1  0.393591  0.393591  0.820243  1
  Pt  Pt22  1  0.392575  0.820243  0.393591  1
  Pt  Pt23  1  0.820243  0.392575  0.393591  1
