# generated using pymatgen
data_La8Ga(Si4Pt)3
_symmetry_space_group_name_H-M   'P 1'
_cell_length_a   8.28836200
_cell_length_b   8.28836146
_cell_length_c   8.86829500
_cell_angle_alpha   90.00000000
_cell_angle_beta   90.00000000
_cell_angle_gamma   119.99999418
_symmetry_Int_Tables_number   1
_chemical_formula_structural   La8Ga(Si4Pt)3
_chemical_formula_sum   'La8 Ga1 Si12 Pt3'
_cell_volume   527.60412452
_cell_formula_units_Z   1
loop_
 _symmetry_equiv_pos_site_id
 _symmetry_equiv_pos_as_xyz
  1  'x, y, z'
loop_
 _atom_site_type_symbol
 _atom_site_label
 _atom_site_symmetry_multiplicity
 _atom_site_fract_x
 _atom_site_fract_y
 _atom_site_fract_z
 _atom_site_occupancy
  La  La0  1  0.000000  0.000000  0.247688  1
  La  La1  1  0.000000  0.000000  0.752746  1
  La  La2  1  0.500408  0.499592  0.247862  1
  La  La3  1  0.500408  0.000818  0.247862  1
  La  La4  1  0.999182  0.499592  0.247862  1
  La  La5  1  0.499524  0.500476  0.751924  1
  La  La6  1  0.499524  0.999047  0.751924  1
  La  La7  1  0.000953  0.500476  0.751924  1
  Ga  Ga8  1  0.333333  0.666667  0.497117  1
  Si  Si9  1  0.161917  0.838083  0.500571  1
  Si  Si10  1  0.161917  0.323836  0.500571  1
  Si  Si11  1  0.676164  0.838083  0.500571  1
  Si  Si12  1  0.832218  0.167782  0.499446  1
  Si  Si13  1  0.832218  0.664434  0.499446  1
  Si  Si14  1  0.335566  0.167782  0.499446  1
  Si  Si15  1  0.834755  0.165245  0.000282  1
  Si  Si16  1  0.834755  0.669509  0.000282  1
  Si  Si17  1  0.330491  0.165245  0.000282  1
  Si  Si18  1  0.166179  0.833821  0.999682  1
  Si  Si19  1  0.166179  0.332359  0.999682  1
  Si  Si20  1  0.667641  0.833821  0.999682  1
  Pt  Pt21  1  0.666667  0.333333  0.502151  1
  Pt  Pt22  1  0.666667  0.333333  0.998817  1
  Pt  Pt23  1  0.333333  0.666667  0.002176  1
