# generated using pymatgen
data_BH2Br7
_symmetry_space_group_name_H-M   'P 1'
_cell_length_a   6.53508335
_cell_length_b   8.08115128
_cell_length_c   10.02367501
_cell_angle_alpha   86.23712616
_cell_angle_beta   68.43069640
_cell_angle_gamma   56.74406479
_symmetry_Int_Tables_number   1
_chemical_formula_structural   BH2Br7
_chemical_formula_sum   'B1 H2 Br7'
_cell_volume   405.32692490
_cell_formula_units_Z   1
loop_
 _symmetry_equiv_pos_site_id
 _symmetry_equiv_pos_as_xyz
  1  'x, y, z'
loop_
 _atom_site_type_symbol
 _atom_site_label
 _atom_site_symmetry_multiplicity
 _atom_site_fract_x
 _atom_site_fract_y
 _atom_site_fract_z
 _atom_site_occupancy
  B  B0  1  0.373446  0.304465  0.934833  1
  H  H1  1  0.393670  0.254101  0.332459  1
  H  H2  1  0.026551  0.550149  0.551273  1
  Br  Br3  1  0.741824  0.125329  0.813007  1
  Br  Br4  1  0.752786  0.641372  0.664865  1
  Br  Br5  1  0.520852  0.842356  0.462313  1
  Br  Br6  1  0.341374  0.009399  0.286442  1
  Br  Br7  1  0.432496  0.403087  0.374791  1
  Br  Br8  1  0.145740  0.210648  0.993471  1
  Br  Br9  1  0.226779  0.578058  0.000114  1
