# generated using pymatgen
data_La4EuCo4I
_symmetry_space_group_name_H-M   'P 1'
_cell_length_a   4.03924500
_cell_length_b   4.03924407
_cell_length_c   19.04444100
_cell_angle_alpha   90.00000000
_cell_angle_beta   90.00000000
_cell_angle_gamma   119.99999940
_symmetry_Int_Tables_number   1
_chemical_formula_structural   La4EuCo4I
_chemical_formula_sum   'La4 Eu1 Co4 I1'
_cell_volume   269.09098989
_cell_formula_units_Z   1
loop_
 _symmetry_equiv_pos_site_id
 _symmetry_equiv_pos_as_xyz
  1  'x, y, z'
loop_
 _atom_site_type_symbol
 _atom_site_label
 _atom_site_symmetry_multiplicity
 _atom_site_fract_x
 _atom_site_fract_y
 _atom_site_fract_z
 _atom_site_occupancy
  La  La0  1  0.000000  0.000000  0.086346  1
  La  La1  1  0.000000  0.000000  0.890482  1
  La  La2  1  0.000000  0.000000  0.609518  1
  La  La3  1  0.000000  0.000000  0.413654  1
  Eu  Eu4  1  0.333333  0.666667  0.250000  1
  Co  Co5  1  0.333333  0.666667  0.510743  1
  Co  Co6  1  0.666667  0.333333  0.512261  1
  Co  Co7  1  0.666667  0.333333  0.987739  1
  Co  Co8  1  0.333333  0.666667  0.989257  1
  I  I9  1  0.666667  0.333333  0.750000  1
