# generated using pymatgen
data_Nd20Ir3Ru5Rh4
_symmetry_space_group_name_H-M   'P 1'
_cell_length_a   11.22737851
_cell_length_b   11.22737852
_cell_length_c   6.61896910
_cell_angle_alpha   90.03116763
_cell_angle_beta   90.03116747
_cell_angle_gamma   90.00354158
_symmetry_Int_Tables_number   1
_chemical_formula_structural   Nd20Ir3Ru5Rh4
_chemical_formula_sum   'Nd20 Ir3 Ru5 Rh4'
_cell_volume   834.34746955
_cell_formula_units_Z   1
loop_
 _symmetry_equiv_pos_site_id
 _symmetry_equiv_pos_as_xyz
  1  'x, y, z'
loop_
 _atom_site_type_symbol
 _atom_site_label
 _atom_site_symmetry_multiplicity
 _atom_site_fract_x
 _atom_site_fract_y
 _atom_site_fract_z
 _atom_site_occupancy
  Nd  Nd0  1  0.087103  0.293927  0.117133  1
  Nd  Nd1  1  0.793900  0.410497  0.114974  1
  Nd  Nd2  1  0.206164  0.590299  0.115008  1
  Nd  Nd3  1  0.913284  0.706002  0.117411  1
  Nd  Nd4  1  0.409701  0.793836  0.384992  1
  Nd  Nd5  1  0.589503  0.206100  0.385026  1
  Nd  Nd6  1  0.293998  0.086716  0.382589  1
  Nd  Nd7  1  0.706073  0.912897  0.382867  1
  Nd  Nd8  1  0.413206  0.205831  0.883358  1
  Nd  Nd9  1  0.706962  0.089439  0.884831  1
  Nd  Nd10  1  0.292740  0.910069  0.885033  1
  Nd  Nd11  1  0.586761  0.794494  0.882980  1
  Nd  Nd12  1  0.089931  0.707260  0.614967  1
  Nd  Nd13  1  0.910561  0.293038  0.615169  1
  Nd  Nd14  1  0.205506  0.413239  0.617020  1
  Nd  Nd15  1  0.794169  0.586794  0.616642  1
  Nd  Nd16  1  0.001279  0.999047  0.000371  1
  Nd  Nd17  1  0.500145  0.500325  0.000547  1
  Nd  Nd18  1  0.499675  0.499855  0.499453  1
  Nd  Nd19  1  0.000953  0.998721  0.499629  1
  Ir  Ir20  1  0.847912  0.152088  0.250000  1
  Ir  Ir21  1  0.348712  0.651288  0.750000  1
  Ir  Ir22  1  0.651829  0.348171  0.750000  1
  Ru  Ru23  1  0.150161  0.849839  0.250000  1
  Ru  Ru24  1  0.000127  0.500313  0.378714  1
  Ru  Ru25  1  0.499687  0.999873  0.121286  1
  Ru  Ru26  1  0.500131  0.999655  0.621838  1
  Ru  Ru27  1  0.000345  0.499869  0.878162  1
  Rh  Rh28  1  0.346848  0.347056  0.249663  1
  Rh  Rh29  1  0.652944  0.653152  0.250337  1
  Rh  Rh30  1  0.153344  0.153652  0.749622  1
  Rh  Rh31  1  0.846348  0.846656  0.750378  1
