# generated using pymatgen
data_BaIn2AgPb
_symmetry_space_group_name_H-M   'P 1'
_cell_length_a   7.13748081
_cell_length_b   7.13748127
_cell_length_c   7.13748156
_cell_angle_alpha   139.31240380
_cell_angle_beta   139.31240313
_cell_angle_gamma   58.89881792
_symmetry_Int_Tables_number   1
_chemical_formula_structural   BaIn2AgPb
_chemical_formula_sum   'Ba1 In2 Ag1 Pb1'
_cell_volume   153.07319192
_cell_formula_units_Z   1
loop_
 _symmetry_equiv_pos_site_id
 _symmetry_equiv_pos_as_xyz
  1  'x, y, z'
loop_
 _atom_site_type_symbol
 _atom_site_label
 _atom_site_symmetry_multiplicity
 _atom_site_fract_x
 _atom_site_fract_y
 _atom_site_fract_z
 _atom_site_occupancy
  Ba  Ba0  1  0.987248  0.987248  0.000000  1
  In  In1  1  0.748352  0.248352  0.500000  1
  In  In2  1  0.248352  0.748352  0.500000  1
  Ag  Ag3  1  0.360505  0.360505  0.000000  1
  Pb  Pb4  1  0.593594  0.593594  0.000000  1
