# generated using pymatgen
data_Hf18Re2Mo6AsSe
_symmetry_space_group_name_H-M   'P 1'
_cell_length_a   8.69795900
_cell_length_b   8.69795886
_cell_length_c   8.65236000
_cell_angle_alpha   90.00000000
_cell_angle_beta   90.00000000
_cell_angle_gamma   120.00000435
_symmetry_Int_Tables_number   1
_chemical_formula_structural   Hf18Re2Mo6AsSe
_chemical_formula_sum   'Hf18 Re2 Mo6 As1 Se1'
_cell_volume   566.89143931
_cell_formula_units_Z   1
loop_
 _symmetry_equiv_pos_site_id
 _symmetry_equiv_pos_as_xyz
  1  'x, y, z'
loop_
 _atom_site_type_symbol
 _atom_site_label
 _atom_site_symmetry_multiplicity
 _atom_site_fract_x
 _atom_site_fract_y
 _atom_site_fract_z
 _atom_site_occupancy
  Hf  Hf0  1  0.612259  0.806130  0.046541  1
  Hf  Hf1  1  0.806292  0.612585  0.546170  1
  Hf  Hf2  1  0.193870  0.387741  0.046541  1
  Hf  Hf3  1  0.193870  0.806130  0.046541  1
  Hf  Hf4  1  0.806292  0.193708  0.546170  1
  Hf  Hf5  1  0.387415  0.193708  0.546170  1
  Hf  Hf6  1  0.806292  0.612585  0.953830  1
  Hf  Hf7  1  0.806292  0.193708  0.953830  1
  Hf  Hf8  1  0.387415  0.193708  0.953830  1
  Hf  Hf9  1  0.612259  0.806130  0.453459  1
  Hf  Hf10  1  0.193870  0.806130  0.453459  1
  Hf  Hf11  1  0.193870  0.387741  0.453459  1
  Hf  Hf12  1  0.539575  0.079149  0.250000  1
  Hf  Hf13  1  0.457848  0.915696  0.750000  1
  Hf  Hf14  1  0.920851  0.460425  0.250000  1
  Hf  Hf15  1  0.539575  0.460425  0.250000  1
  Hf  Hf16  1  0.457848  0.542152  0.750000  1
  Hf  Hf17  1  0.084304  0.542152  0.750000  1
  Re  Re18  1  0.000000  0.000000  0.000787  1
  Re  Re19  1  0.000000  0.000000  0.499213  1
  Mo  Mo20  1  0.890332  0.780664  0.250000  1
  Mo  Mo21  1  0.109475  0.218950  0.750000  1
  Mo  Mo22  1  0.219336  0.109668  0.250000  1
  Mo  Mo23  1  0.890332  0.109668  0.250000  1
  Mo  Mo24  1  0.109475  0.890525  0.750000  1
  Mo  Mo25  1  0.781050  0.890525  0.750000  1
  As  As26  1  0.333333  0.666667  0.250000  1
  Se  Se27  1  0.666667  0.333333  0.750000  1
