# generated using pymatgen
data_Tb4Al18GaOs5
_symmetry_space_group_name_H-M   'P 1'
_cell_length_a   7.59976005
_cell_length_b   7.59975891
_cell_length_c   9.59891358
_cell_angle_alpha   89.90451752
_cell_angle_beta   89.90451684
_cell_angle_gamma   119.49678200
_symmetry_Int_Tables_number   1
_chemical_formula_structural   Tb4Al18GaOs5
_chemical_formula_sum   'Tb4 Al18 Ga1 Os5'
_cell_volume   482.53628567
_cell_formula_units_Z   1
loop_
 _symmetry_equiv_pos_site_id
 _symmetry_equiv_pos_as_xyz
  1  'x, y, z'
loop_
 _atom_site_type_symbol
 _atom_site_label
 _atom_site_symmetry_multiplicity
 _atom_site_fract_x
 _atom_site_fract_y
 _atom_site_fract_z
 _atom_site_occupancy
  Tb  Tb0  1  0.997234  0.674739  0.249715  1
  Tb  Tb1  1  0.002766  0.325261  0.750285  1
  Tb  Tb2  1  0.674739  0.997234  0.249715  1
  Tb  Tb3  1  0.325261  0.002766  0.750285  1
  Al  Al4  1  0.139113  0.139113  0.240120  1
  Al  Al5  1  0.860887  0.860887  0.759880  1
  Al  Al6  1  0.001100  0.336432  0.068919  1
  Al  Al7  1  0.998900  0.663568  0.931081  1
  Al  Al8  1  0.996823  0.651919  0.577014  1
  Al  Al9  1  0.348081  0.003177  0.422986  1
  Al  Al10  1  0.003177  0.348081  0.422986  1
  Al  Al11  1  0.651919  0.996823  0.577014  1
  Al  Al12  1  0.663568  0.998900  0.931081  1
  Al  Al13  1  0.336432  0.001100  0.068919  1
  Al  Al14  1  0.347021  0.347021  0.555575  1
  Al  Al15  1  0.652979  0.652979  0.444425  1
  Al  Al16  1  0.665020  0.665020  0.047598  1
  Al  Al17  1  0.334980  0.334980  0.952402  1
  Al  Al18  1  0.336631  0.550542  0.249625  1
  Al  Al19  1  0.663369  0.449458  0.750375  1
  Al  Al20  1  0.550542  0.336631  0.249625  1
  Al  Al21  1  0.449458  0.663369  0.750375  1
  Ga  Ga22  1  0.000000  0.000000  0.500000  1
  Os  Os23  1  0.671454  0.328546  0.000000  1
  Os  Os24  1  0.328546  0.671454  0.000000  1
  Os  Os25  1  0.328369  0.671631  0.500000  1
  Os  Os26  1  0.671631  0.328369  0.500000  1
  Os  Os27  1  0.000000  0.000000  0.000000  1
