# generated using pymatgen
data_Ba2Ca3(SnSb3)2
_symmetry_space_group_name_H-M   'P 1'
_cell_length_a   4.68324500
_cell_length_b   12.86711400
_cell_length_c   14.80651500
_cell_angle_alpha   90.00000000
_cell_angle_beta   90.00000000
_cell_angle_gamma   90.00000000
_symmetry_Int_Tables_number   1
_chemical_formula_structural   Ba2Ca3(SnSb3)2
_chemical_formula_sum   'Ba4 Ca6 Sn4 Sb12'
_cell_volume   892.23833302
_cell_formula_units_Z   2
loop_
 _symmetry_equiv_pos_site_id
 _symmetry_equiv_pos_as_xyz
  1  'x, y, z'
loop_
 _atom_site_type_symbol
 _atom_site_label
 _atom_site_symmetry_multiplicity
 _atom_site_fract_x
 _atom_site_fract_y
 _atom_site_fract_z
 _atom_site_occupancy
  Ba  Ba0  1  0.000000  0.862127  0.443204  1
  Ba  Ba1  1  0.000000  0.137873  0.556796  1
  Ba  Ba2  1  0.000000  0.362127  0.056796  1
  Ba  Ba3  1  0.000000  0.637873  0.943204  1
  Ca  Ca4  1  0.000000  0.626360  0.261383  1
  Ca  Ca5  1  0.000000  0.373640  0.738617  1
  Ca  Ca6  1  0.000000  0.126360  0.238617  1
  Ca  Ca7  1  0.000000  0.873640  0.761383  1
  Ca  Ca8  1  0.000000  0.500000  0.500000  1
  Ca  Ca9  1  0.000000  0.000000  0.000000  1
  Sn  Sn10  1  0.500000  0.792740  0.103540  1
  Sn  Sn11  1  0.500000  0.207260  0.896460  1
  Sn  Sn12  1  0.500000  0.292740  0.396460  1
  Sn  Sn13  1  0.500000  0.707260  0.603540  1
  Sb  Sb14  1  0.500000  0.568168  0.126264  1
  Sb  Sb15  1  0.500000  0.431832  0.873736  1
  Sb  Sb16  1  0.500000  0.068168  0.373736  1
  Sb  Sb17  1  0.500000  0.931832  0.626264  1
  Sb  Sb18  1  0.500000  0.650471  0.412655  1
  Sb  Sb19  1  0.500000  0.349529  0.587345  1
  Sb  Sb20  1  0.500000  0.150471  0.087345  1
  Sb  Sb21  1  0.500000  0.849529  0.912655  1
  Sb  Sb22  1  0.000000  0.876588  0.196128  1
  Sb  Sb23  1  0.000000  0.123412  0.803872  1
  Sb  Sb24  1  0.000000  0.376588  0.303872  1
  Sb  Sb25  1  0.000000  0.623412  0.696128  1
