# generated using pymatgen
data_Nd10IrOsI15
_symmetry_space_group_name_H-M   'P 1'
_cell_length_a   10.05936186
_cell_length_b   10.97659399
_cell_length_c   11.86298588
_cell_angle_alpha   92.48278030
_cell_angle_beta   114.02543653
_cell_angle_gamma   110.38858429
_symmetry_Int_Tables_number   1
_chemical_formula_structural   Nd10IrOsI15
_chemical_formula_sum   'Nd10 Ir1 Os1 I15'
_cell_volume   1094.90543925
_cell_formula_units_Z   1
loop_
 _symmetry_equiv_pos_site_id
 _symmetry_equiv_pos_as_xyz
  1  'x, y, z'
loop_
 _atom_site_type_symbol
 _atom_site_label
 _atom_site_symmetry_multiplicity
 _atom_site_fract_x
 _atom_site_fract_y
 _atom_site_fract_z
 _atom_site_occupancy
  Nd  Nd0  1  0.220962  0.574985  0.048015  1
  Nd  Nd1  1  0.777574  0.422174  0.949491  1
  Nd  Nd2  1  0.297368  0.901082  0.273131  1
  Nd  Nd3  1  0.707380  0.101403  0.729251  1
  Nd  Nd4  1  0.088185  0.544625  0.330778  1
  Nd  Nd5  1  0.911074  0.454988  0.667570  1
  Nd  Nd6  1  0.832156  0.749885  0.176926  1
  Nd  Nd7  1  0.164259  0.250797  0.823747  1
  Nd  Nd8  1  0.973903  0.792611  0.901535  1
  Nd  Nd9  1  0.025918  0.206025  0.098668  1
  Ir  Ir10  1  0.032277  0.672656  0.118977  1
  Os  Os11  1  0.968064  0.328906  0.881966  1
  I  I12  1  0.340825  0.443802  0.302623  1
  I  I13  1  0.659089  0.556310  0.697425  1
  I  I14  1  0.212776  0.739247  0.816149  1
  I  I15  1  0.787352  0.261264  0.183568  1
  I  I16  1  0.143244  0.385986  0.583963  1
  I  I17  1  0.856480  0.614751  0.415051  1
  I  I18  1  0.387925  0.800927  0.530534  1
  I  I19  1  0.610697  0.198139  0.468539  1
  I  I20  1  0.263817  0.087698  0.055176  1
  I  I21  1  0.736069  0.911586  0.944879  1
  I  I22  1  0.565095  0.845082  0.227858  1
  I  I23  1  0.437576  0.155971  0.772966  1
  I  I24  1  0.092843  0.037953  0.338558  1
  I  I25  1  0.907902  0.960841  0.662445  1
  I  I26  1  0.499194  0.500308  0.000211  1
