# generated using pymatgen
data_Tb8LuSc11Si15Tc
_symmetry_space_group_name_H-M   'P 1'
_cell_length_a   7.11525995
_cell_length_b   7.48317988
_cell_length_c   14.01417197
_cell_angle_alpha   89.95290163
_cell_angle_beta   90.05799434
_cell_angle_gamma   90.25737340
_symmetry_Int_Tables_number   1
_chemical_formula_structural   Tb8LuSc11Si15Tc
_chemical_formula_sum   'Tb8 Lu1 Sc11 Si15 Tc1'
_cell_volume   746.17320412
_cell_formula_units_Z   1
loop_
 _symmetry_equiv_pos_site_id
 _symmetry_equiv_pos_as_xyz
  1  'x, y, z'
loop_
 _atom_site_type_symbol
 _atom_site_label
 _atom_site_symmetry_multiplicity
 _atom_site_fract_x
 _atom_site_fract_y
 _atom_site_fract_z
 _atom_site_occupancy
  Tb  Tb0  1  0.011583  0.178451  0.096135  1
  Tb  Tb1  1  0.990527  0.827377  0.903906  1
  Tb  Tb2  1  0.489189  0.675435  0.904366  1
  Tb  Tb3  1  0.989830  0.826189  0.596534  1
  Tb  Tb4  1  0.511049  0.323313  0.096246  1
  Tb  Tb5  1  0.011391  0.178324  0.403611  1
  Tb  Tb6  1  0.511565  0.323360  0.402886  1
  Tb  Tb7  1  0.489113  0.675691  0.596286  1
  Lu  Lu8  1  0.317274  0.172135  0.626744  1
  Sc  Sc9  1  0.155390  0.499417  0.750900  1
  Sc  Sc10  1  0.838677  0.495351  0.249951  1
  Sc  Sc11  1  0.338731  0.005126  0.249805  1
  Sc  Sc12  1  0.668910  0.998790  0.750732  1
  Sc  Sc13  1  0.672307  0.826034  0.373452  1
  Sc  Sc14  1  0.171813  0.677773  0.373208  1
  Sc  Sc15  1  0.671963  0.826204  0.126154  1
  Sc  Sc16  1  0.837107  0.319559  0.627514  1
  Sc  Sc17  1  0.316068  0.171499  0.872390  1
  Sc  Sc18  1  0.837657  0.319246  0.872977  1
  Sc  Sc19  1  0.171781  0.677974  0.126128  1
  Si  Si20  1  0.968474  0.883240  0.249851  1
  Si  Si21  1  0.470261  0.614916  0.249863  1
  Si  Si22  1  0.531325  0.390045  0.751429  1
  Si  Si23  1  0.285841  0.866352  0.751203  1
  Si  Si24  1  0.712802  0.128112  0.249960  1
  Si  Si25  1  0.213993  0.371319  0.249891  1
  Si  Si26  1  0.780313  0.627382  0.750306  1
  Si  Si27  1  0.156321  0.472621  0.535849  1
  Si  Si28  1  0.845028  0.537026  0.461095  1
  Si  Si29  1  0.345910  0.962918  0.457482  1
  Si  Si30  1  0.845415  0.536611  0.038659  1
  Si  Si31  1  0.658256  0.032958  0.537695  1
  Si  Si32  1  0.159418  0.468578  0.963302  1
  Si  Si33  1  0.654122  0.034098  0.961309  1
  Si  Si34  1  0.345121  0.965267  0.040240  1
  Tc  Tc35  1  0.025472  0.111308  0.751943  1
