# generated using pymatgen
data_EuSc2(H6Ir)2
_symmetry_space_group_name_H-M   'P 1'
_cell_length_a   4.70525100
_cell_length_b   4.70525221
_cell_length_c   8.18432900
_cell_angle_alpha   90.00000000
_cell_angle_beta   90.00000000
_cell_angle_gamma   119.99999856
_symmetry_Int_Tables_number   1
_chemical_formula_structural   EuSc2(H6Ir)2
_chemical_formula_sum   'Eu1 Sc2 H12 Ir2'
_cell_volume   156.92040478
_cell_formula_units_Z   1
loop_
 _symmetry_equiv_pos_site_id
 _symmetry_equiv_pos_as_xyz
  1  'x, y, z'
loop_
 _atom_site_type_symbol
 _atom_site_label
 _atom_site_symmetry_multiplicity
 _atom_site_fract_x
 _atom_site_fract_y
 _atom_site_fract_z
 _atom_site_occupancy
  Eu  Eu0  1  0.000000  0.000000  0.000000  1
  Sc  Sc1  1  0.666667  0.333333  0.369744  1
  Sc  Sc2  1  0.333333  0.666667  0.630256  1
  H  H3  1  0.164132  0.835868  0.389218  1
  H  H4  1  0.671738  0.835868  0.389218  1
  H  H5  1  0.164132  0.328262  0.389218  1
  H  H6  1  0.835868  0.164132  0.610782  1
  H  H7  1  0.328262  0.164132  0.610782  1
  H  H8  1  0.835868  0.671738  0.610782  1
  H  H9  1  0.495259  0.990517  0.852180  1
  H  H10  1  0.495259  0.504741  0.852180  1
  H  H11  1  0.009483  0.504741  0.852180  1
  H  H12  1  0.504741  0.009483  0.147820  1
  H  H13  1  0.504741  0.495259  0.147820  1
  H  H14  1  0.990517  0.495259  0.147820  1
  Ir  Ir15  1  0.666667  0.333333  0.734081  1
  Ir  Ir16  1  0.333333  0.666667  0.265919  1
