# generated using pymatgen
data_K3(RhO2)2
_symmetry_space_group_name_H-M   'P 1'
_cell_length_a   5.80989630
_cell_length_b   5.80993096
_cell_length_c   10.63981949
_cell_angle_alpha   89.97212012
_cell_angle_beta   90.02723091
_cell_angle_gamma   114.67020000
_symmetry_Int_Tables_number   1
_chemical_formula_structural   K3(RhO2)2
_chemical_formula_sum   'K6 Rh4 O8'
_cell_volume   326.36697415
_cell_formula_units_Z   2
loop_
 _symmetry_equiv_pos_site_id
 _symmetry_equiv_pos_as_xyz
  1  'x, y, z'
loop_
 _atom_site_type_symbol
 _atom_site_label
 _atom_site_symmetry_multiplicity
 _atom_site_fract_x
 _atom_site_fract_y
 _atom_site_fract_z
 _atom_site_occupancy
  K  K0  1  0.354527  0.645431  0.573874  1
  K  K1  1  0.645392  0.354627  0.072406  1
  K  K2  1  0.282365  0.717680  0.249934  1
  K  K3  1  0.645244  0.354744  0.427554  1
  K  K4  1  0.718895  0.281077  0.749985  1
  K  K5  1  0.354557  0.645404  0.926181  1
  Rh  Rh6  1  0.067921  0.932124  0.749980  1
  Rh  Rh7  1  0.998936  0.001065  0.998251  1
  Rh  Rh8  1  0.929833  0.070117  0.250126  1
  Rh  Rh9  1  0.998851  0.001160  0.501681  1
  O  O10  1  0.115764  0.306875  0.391704  1
  O  O11  1  0.693115  0.884272  0.391706  1
  O  O12  1  0.307916  0.115425  0.609216  1
  O  O13  1  0.693555  0.883701  0.108386  1
  O  O14  1  0.884558  0.692099  0.609213  1
  O  O15  1  0.307964  0.115711  0.890708  1
  O  O16  1  0.116260  0.306474  0.108394  1
  O  O17  1  0.884347  0.692015  0.890700  1
