# generated using pymatgen
data_Er15Th(InNi)4
_symmetry_space_group_name_H-M   'P 1'
_cell_length_a   9.54262904
_cell_length_b   9.54262790
_cell_length_c   9.54262969
_cell_angle_alpha   59.77049158
_cell_angle_beta   59.77049164
_cell_angle_gamma   59.77049684
_symmetry_Int_Tables_number   1
_chemical_formula_structural   Er15Th(InNi)4
_chemical_formula_sum   'Er15 Th1 In4 Ni4'
_cell_volume   611.25172799
_cell_formula_units_Z   1
loop_
 _symmetry_equiv_pos_site_id
 _symmetry_equiv_pos_as_xyz
  1  'x, y, z'
loop_
 _atom_site_type_symbol
 _atom_site_label
 _atom_site_symmetry_multiplicity
 _atom_site_fract_x
 _atom_site_fract_y
 _atom_site_fract_z
 _atom_site_occupancy
  Er  Er0  1  0.346979  0.346979  0.954237  1
  Er  Er1  1  0.346979  0.954237  0.346979  1
  Er  Er2  1  0.954237  0.346979  0.346979  1
  Er  Er3  1  0.814806  0.187308  0.187308  1
  Er  Er4  1  0.189469  0.811982  0.811982  1
  Er  Er5  1  0.187308  0.814806  0.187308  1
  Er  Er6  1  0.811982  0.189469  0.811982  1
  Er  Er7  1  0.187308  0.187308  0.814806  1
  Er  Er8  1  0.811982  0.811982  0.189469  1
  Er  Er9  1  0.935855  0.563047  0.563047  1
  Er  Er10  1  0.562913  0.937433  0.937433  1
  Er  Er11  1  0.563047  0.935855  0.563047  1
  Er  Er12  1  0.937433  0.562913  0.937433  1
  Er  Er13  1  0.563047  0.563047  0.935855  1
  Er  Er14  1  0.937433  0.937433  0.562913  1
  Th  Th15  1  0.344596  0.344596  0.344596  1
  In  In16  1  0.584174  0.584174  0.584174  1
  In  In17  1  0.583956  0.583956  0.251563  1
  In  In18  1  0.583956  0.251563  0.583956  1
  In  In19  1  0.251563  0.583956  0.583956  1
  Ni  Ni20  1  0.142732  0.142732  0.142732  1
  Ni  Ni21  1  0.142702  0.142702  0.572841  1
  Ni  Ni22  1  0.142702  0.572841  0.142702  1
  Ni  Ni23  1  0.572841  0.142702  0.142702  1
