# generated using pymatgen
data_Ta6Nb4Al4Au
_symmetry_space_group_name_H-M   'P 1'
_cell_length_a   9.95232400
_cell_length_b   9.95232400
_cell_length_c   5.23697100
_cell_angle_alpha   90.00000000
_cell_angle_beta   90.00000000
_cell_angle_gamma   90.00000000
_symmetry_Int_Tables_number   1
_chemical_formula_structural   Ta6Nb4Al4Au
_chemical_formula_sum   'Ta12 Nb8 Al8 Au2'
_cell_volume   518.71544705
_cell_formula_units_Z   2
loop_
 _symmetry_equiv_pos_site_id
 _symmetry_equiv_pos_as_xyz
  1  'x, y, z'
loop_
 _atom_site_type_symbol
 _atom_site_label
 _atom_site_symmetry_multiplicity
 _atom_site_fract_x
 _atom_site_fract_y
 _atom_site_fract_z
 _atom_site_occupancy
  Ta  Ta0  1  0.130440  0.464451  0.999919  1
  Ta  Ta1  1  0.964451  0.369560  0.499919  1
  Ta  Ta2  1  0.035549  0.630440  0.499919  1
  Ta  Ta3  1  0.869560  0.535549  0.999919  1
  Ta  Ta4  1  0.369560  0.964451  0.499919  1
  Ta  Ta5  1  0.630440  0.035549  0.499919  1
  Ta  Ta6  1  0.464451  0.130440  0.999919  1
  Ta  Ta7  1  0.535549  0.869560  0.999919  1
  Ta  Ta8  1  0.184411  0.184411  0.252399  1
  Ta  Ta9  1  0.684411  0.315589  0.752399  1
  Ta  Ta10  1  0.315589  0.684411  0.752399  1
  Ta  Ta11  1  0.815589  0.815589  0.252399  1
  Nb  Nb12  1  0.397792  0.397792  0.999860  1
  Nb  Nb13  1  0.897792  0.102208  0.499860  1
  Nb  Nb14  1  0.102208  0.897792  0.499860  1
  Nb  Nb15  1  0.602208  0.602208  0.999860  1
  Nb  Nb16  1  0.315472  0.684528  0.247621  1
  Nb  Nb17  1  0.684528  0.315472  0.247621  1
  Nb  Nb18  1  0.184528  0.184528  0.747621  1
  Nb  Nb19  1  0.815472  0.815472  0.747621  1
  Al  Al20  1  0.260417  0.934498  0.999943  1
  Al  Al21  1  0.434498  0.239583  0.499943  1
  Al  Al22  1  0.565502  0.760417  0.499943  1
  Al  Al23  1  0.739583  0.065502  0.999943  1
  Al  Al24  1  0.239583  0.434498  0.499943  1
  Al  Al25  1  0.760417  0.565502  0.499943  1
  Al  Al26  1  0.934498  0.260417  0.999943  1
  Al  Al27  1  0.065502  0.739583  0.999943  1
  Au  Au28  1  0.000000  0.000000  0.000793  1
  Au  Au29  1  0.500000  0.500000  0.500793  1
