# generated using pymatgen
data_Nd3(In2Ir)2
_symmetry_space_group_name_H-M   'P 1'
_cell_length_a   7.89113800
_cell_length_b   7.89113889
_cell_length_c   4.06567100
_cell_angle_alpha   90.00000000
_cell_angle_beta   90.00000000
_cell_angle_gamma   119.99999627
_symmetry_Int_Tables_number   1
_chemical_formula_structural   Nd3(In2Ir)2
_chemical_formula_sum   'Nd3 In4 Ir2'
_cell_volume   219.25131445
_cell_formula_units_Z   1
loop_
 _symmetry_equiv_pos_site_id
 _symmetry_equiv_pos_as_xyz
  1  'x, y, z'
loop_
 _atom_site_type_symbol
 _atom_site_label
 _atom_site_symmetry_multiplicity
 _atom_site_fract_x
 _atom_site_fract_y
 _atom_site_fract_z
 _atom_site_occupancy
  Nd  Nd0  1  0.387127  0.416771  0.500000  1
  Nd  Nd1  1  0.583229  0.970356  0.500000  1
  Nd  Nd2  1  0.029644  0.612873  0.500000  1
  In  In3  1  0.750722  0.753468  0.000000  1
  In  In4  1  0.246532  0.997254  0.000000  1
  In  In5  1  0.002746  0.249278  0.000000  1
  In  In6  1  0.666667  0.333333  0.000000  1
  Ir  Ir7  1  0.000000  0.000000  0.500000  1
  Ir  Ir8  1  0.333333  0.666667  0.000000  1
