# generated using pymatgen
data_Nd10Al4Ru5Rh
_symmetry_space_group_name_H-M   'P 1'
_cell_length_a   8.57056778
_cell_length_b   8.58289066
_cell_length_c   8.58289035
_cell_angle_alpha   109.47679634
_cell_angle_beta   109.52782665
_cell_angle_gamma   109.46729268
_symmetry_Int_Tables_number   1
_chemical_formula_structural   Nd10Al4Ru5Rh
_chemical_formula_sum   'Nd10 Al4 Ru5 Rh1'
_cell_volume   485.67094350
_cell_formula_units_Z   1
loop_
 _symmetry_equiv_pos_site_id
 _symmetry_equiv_pos_as_xyz
  1  'x, y, z'
loop_
 _atom_site_type_symbol
 _atom_site_label
 _atom_site_symmetry_multiplicity
 _atom_site_fract_x
 _atom_site_fract_y
 _atom_site_fract_z
 _atom_site_occupancy
  Nd  Nd0  1  0.250000  0.683905  0.433905  1
  Nd  Nd1  1  0.750000  0.815070  0.065070  1
  Nd  Nd2  1  0.436676  0.251129  0.683651  1
  Nd  Nd3  1  0.685923  0.435441  0.251267  1
  Nd  Nd4  1  0.063324  0.746975  0.814453  1
  Nd  Nd5  1  0.814077  0.065344  0.749518  1
  Nd  Nd6  1  0.213871  0.215275  0.216597  1
  Nd  Nd7  1  0.500359  0.000294  0.286192  1
  Nd  Nd8  1  0.286129  0.502726  0.001402  1
  Nd  Nd9  1  0.999641  0.285834  0.499935  1
  Al  Al10  1  0.590875  0.590743  0.590476  1
  Al  Al11  1  0.500953  0.999068  0.909065  1
  Al  Al12  1  0.909125  0.499601  0.999868  1
  Al  Al13  1  0.999047  0.908112  0.498115  1
  Ru  Ru14  1  0.750000  0.381248  0.631248  1
  Ru  Ru15  1  0.868198  0.250181  0.118611  1
  Ru  Ru16  1  0.119635  0.870274  0.250404  1
  Ru  Ru17  1  0.631801  0.750412  0.381981  1
  Ru  Ru18  1  0.380365  0.630770  0.750641  1
  Rh  Rh19  1  0.250000  0.117602  0.867602  1
