# generated using pymatgen
data_La4CdHgPdAu3
_symmetry_space_group_name_H-M   'P 1'
_cell_length_a   8.20401889
_cell_length_b   8.20553243
_cell_length_c   3.96150600
_cell_angle_alpha   90.00000000
_cell_angle_beta   90.00000000
_cell_angle_gamma   89.39894591
_symmetry_Int_Tables_number   1
_chemical_formula_structural   La4CdHgPdAu3
_chemical_formula_sum   'La4 Cd1 Hg1 Pd1 Au3'
_cell_volume   266.66734621
_cell_formula_units_Z   1
loop_
 _symmetry_equiv_pos_site_id
 _symmetry_equiv_pos_as_xyz
  1  'x, y, z'
loop_
 _atom_site_type_symbol
 _atom_site_label
 _atom_site_symmetry_multiplicity
 _atom_site_fract_x
 _atom_site_fract_y
 _atom_site_fract_z
 _atom_site_occupancy
  La  La0  1  0.667496  0.175707  0.500000  1
  La  La1  1  0.322850  0.833885  0.500000  1
  La  La2  1  0.180705  0.317707  0.500000  1
  La  La3  1  0.827198  0.673931  0.500000  1
  Cd  Cd4  1  0.498959  0.497449  0.000000  1
  Hg  Hg5  1  0.003173  0.001053  0.000000  1
  Pd  Pd6  1  0.374595  0.127182  0.000000  1
  Au  Au7  1  0.128399  0.623330  0.000000  1
  Au  Au8  1  0.874369  0.374069  0.000000  1
  Au  Au9  1  0.622256  0.875686  0.000000  1
