# generated using pymatgen
data_Tb3GdC2Br3
_symmetry_space_group_name_H-M   'P 1'
_cell_length_a   3.72647600
_cell_length_b   10.83841100
_cell_length_c   20.71099000
_cell_angle_alpha   90.00000000
_cell_angle_beta   90.00000000
_cell_angle_gamma   90.00000000
_symmetry_Int_Tables_number   1
_chemical_formula_structural   Tb3GdC2Br3
_chemical_formula_sum   'Tb12 Gd4 C8 Br12'
_cell_volume   836.49780029
_cell_formula_units_Z   4
loop_
 _symmetry_equiv_pos_site_id
 _symmetry_equiv_pos_as_xyz
  1  'x, y, z'
loop_
 _atom_site_type_symbol
 _atom_site_label
 _atom_site_symmetry_multiplicity
 _atom_site_fract_x
 _atom_site_fract_y
 _atom_site_fract_z
 _atom_site_occupancy
  Tb  Tb0  1  0.250000  0.863735  0.744519  1
  Tb  Tb1  1  0.750000  0.136265  0.255481  1
  Tb  Tb2  1  0.750000  0.636265  0.244519  1
  Tb  Tb3  1  0.250000  0.363735  0.755481  1
  Tb  Tb4  1  0.250000  0.870664  0.168979  1
  Tb  Tb5  1  0.750000  0.129336  0.831021  1
  Tb  Tb6  1  0.750000  0.629336  0.668979  1
  Tb  Tb7  1  0.250000  0.370664  0.331021  1
  Tb  Tb8  1  0.250000  0.901624  0.328406  1
  Tb  Tb9  1  0.750000  0.098376  0.671594  1
  Tb  Tb10  1  0.750000  0.598376  0.828406  1
  Tb  Tb11  1  0.250000  0.401624  0.171594  1
  Gd  Gd12  1  0.250000  0.864228  0.579949  1
  Gd  Gd13  1  0.750000  0.135772  0.420051  1
  Gd  Gd14  1  0.750000  0.635772  0.079949  1
  Gd  Gd15  1  0.250000  0.364228  0.920051  1
  C  C16  1  0.250000  0.612643  0.750307  1
  C  C17  1  0.750000  0.387357  0.249693  1
  C  C18  1  0.750000  0.887357  0.250307  1
  C  C19  1  0.250000  0.112643  0.749693  1
  C  C20  1  0.250000  0.634994  0.156460  1
  C  C21  1  0.750000  0.365006  0.843540  1
  C  C22  1  0.750000  0.865006  0.656460  1
  C  C23  1  0.250000  0.134994  0.343540  1
  Br  Br24  1  0.250000  0.608933  0.556322  1
  Br  Br25  1  0.750000  0.391067  0.443678  1
  Br  Br26  1  0.750000  0.891067  0.056322  1
  Br  Br27  1  0.250000  0.108933  0.943678  1
  Br  Br28  1  0.250000  0.628081  0.951430  1
  Br  Br29  1  0.750000  0.371919  0.048570  1
  Br  Br30  1  0.750000  0.871919  0.451430  1
  Br  Br31  1  0.250000  0.128081  0.548570  1
  Br  Br32  1  0.250000  0.637692  0.355879  1
  Br  Br33  1  0.750000  0.362308  0.644121  1
  Br  Br34  1  0.750000  0.862308  0.855879  1
  Br  Br35  1  0.250000  0.137692  0.144121  1
