# generated using pymatgen
data_Y12TlCo6
_symmetry_space_group_name_H-M   'P 1'
_cell_length_a   8.41717878
_cell_length_b   8.41718016
_cell_length_c   8.41717900
_cell_angle_alpha   109.47122266
_cell_angle_beta   109.47122597
_cell_angle_gamma   109.47122560
_symmetry_Int_Tables_number   1
_chemical_formula_structural   Y12TlCo6
_chemical_formula_sum   'Y12 Tl1 Co6'
_cell_volume   459.06880332
_cell_formula_units_Z   1
loop_
 _symmetry_equiv_pos_site_id
 _symmetry_equiv_pos_as_xyz
  1  'x, y, z'
loop_
 _atom_site_type_symbol
 _atom_site_label
 _atom_site_symmetry_multiplicity
 _atom_site_fract_x
 _atom_site_fract_y
 _atom_site_fract_z
 _atom_site_occupancy
  Y  Y0  1  0.806593  0.697560  0.504153  1
  Y  Y1  1  0.193407  0.302440  0.495847  1
  Y  Y2  1  0.193407  0.697560  0.890967  1
  Y  Y3  1  0.806593  0.302440  0.109033  1
  Y  Y4  1  0.697560  0.504153  0.806593  1
  Y  Y5  1  0.302440  0.495847  0.193407  1
  Y  Y6  1  0.697560  0.890967  0.193407  1
  Y  Y7  1  0.302440  0.109033  0.806593  1
  Y  Y8  1  0.504153  0.806593  0.697560  1
  Y  Y9  1  0.495847  0.193407  0.302440  1
  Y  Y10  1  0.109033  0.806593  0.302440  1
  Y  Y11  1  0.890967  0.193407  0.697560  1
  Tl  Tl12  1  0.000000  0.000000  0.000000  1
  Co  Co13  1  0.888066  0.388066  0.500000  1
  Co  Co14  1  0.111934  0.611934  0.500000  1
  Co  Co15  1  0.388066  0.500000  0.888066  1
  Co  Co16  1  0.611934  0.500000  0.111934  1
  Co  Co17  1  0.500000  0.888066  0.388066  1
  Co  Co18  1  0.500000  0.111934  0.611934  1
