# generated using pymatgen
data_Sr6Cd3In5Sn2
_symmetry_space_group_name_H-M   'P 1'
_cell_length_a   6.53556554
_cell_length_b   6.53556563
_cell_length_c   16.58748842
_cell_angle_alpha   89.99731565
_cell_angle_beta   90.00268452
_cell_angle_gamma   134.48092523
_symmetry_Int_Tables_number   1
_chemical_formula_structural   Sr6Cd3In5Sn2
_chemical_formula_sum   'Sr6 Cd3 In5 Sn2'
_cell_volume   505.51154149
_cell_formula_units_Z   1
loop_
 _symmetry_equiv_pos_site_id
 _symmetry_equiv_pos_as_xyz
  1  'x, y, z'
loop_
 _atom_site_type_symbol
 _atom_site_label
 _atom_site_symmetry_multiplicity
 _atom_site_fract_x
 _atom_site_fract_y
 _atom_site_fract_z
 _atom_site_occupancy
  Sr  Sr0  1  0.091182  0.908818  0.390050  1
  Sr  Sr1  1  0.636963  0.363037  0.749520  1
  Sr  Sr2  1  0.363039  0.636961  0.251224  1
  Sr  Sr3  1  0.910838  0.089162  0.609276  1
  Sr  Sr4  1  0.910017  0.089983  0.889311  1
  Sr  Sr5  1  0.088580  0.911420  0.110788  1
  Cd  Cd6  1  0.207276  0.792724  0.901715  1
  Cd  Cd7  1  0.796282  0.203718  0.402713  1
  Cd  Cd8  1  0.386492  0.613508  0.460501  1
  In  In9  1  0.614185  0.385815  0.962446  1
  In  In10  1  0.207364  0.792636  0.598964  1
  In  In11  1  0.611102  0.388898  0.536679  1
  In  In12  1  0.386392  0.613608  0.035461  1
  In  In13  1  0.790509  0.209491  0.099016  1
  Sn  Sn14  1  0.345764  0.654236  0.751503  1
  Sn  Sn15  1  0.654016  0.345984  0.250829  1
