# generated using pymatgen
data_Y12CuNi4Hg
_symmetry_space_group_name_H-M   'P 1'
_cell_length_a   8.39867433
_cell_length_b   8.39867326
_cell_length_c   8.39867500
_cell_angle_alpha   111.81028599
_cell_angle_beta   109.94170135
_cell_angle_gamma   106.70246639
_symmetry_Int_Tables_number   1
_chemical_formula_structural   Y12CuNi4Hg
_chemical_formula_sum   'Y12 Cu1 Ni4 Hg1'
_cell_volume   455.12633613
_cell_formula_units_Z   1
loop_
 _symmetry_equiv_pos_site_id
 _symmetry_equiv_pos_as_xyz
  1  'x, y, z'
loop_
 _atom_site_type_symbol
 _atom_site_label
 _atom_site_symmetry_multiplicity
 _atom_site_fract_x
 _atom_site_fract_y
 _atom_site_fract_z
 _atom_site_occupancy
  Y  Y0  1  0.325521  0.132672  0.807150  1
  Y  Y1  1  0.674479  0.481629  0.807150  1
  Y  Y2  1  0.419572  0.728290  0.691283  1
  Y  Y3  1  0.580428  0.271710  0.308717  1
  Y  Y4  1  0.962994  0.271710  0.691283  1
  Y  Y5  1  0.037006  0.728290  0.308717  1
  Y  Y6  1  0.325521  0.518371  0.192850  1
  Y  Y7  1  0.674479  0.867328  0.192850  1
  Y  Y8  1  0.179295  0.786526  0.965821  1
  Y  Y9  1  0.820705  0.786526  0.607230  1
  Y  Y10  1  0.179295  0.213474  0.392770  1
  Y  Y11  1  0.820705  0.213474  0.034179  1
  Cu  Cu12  1  0.000000  0.500000  0.500000  1
  Ni  Ni13  1  0.878457  0.878457  0.000000  1
  Ni  Ni14  1  0.121543  0.121543  0.000000  1
  Ni  Ni15  1  0.647491  0.500000  0.147491  1
  Ni  Ni16  1  0.352509  0.500000  0.852509  1
  Hg  Hg17  1  0.500000  0.000000  0.500000  1
