# generated using pymatgen
data_Tm10Tl4In4PtRh3
_symmetry_space_group_name_H-M   'P 1'
_cell_length_a   3.57877500
_cell_length_b   8.06102481
_cell_length_c   18.17125956
_cell_angle_alpha   90.09822421
_cell_angle_beta   90.00000000
_cell_angle_gamma   90.00000000
_symmetry_Int_Tables_number   1
_chemical_formula_structural   Tm10Tl4In4PtRh3
_chemical_formula_sum   'Tm10 Tl4 In4 Pt1 Rh3'
_cell_volume   524.21452038
_cell_formula_units_Z   1
loop_
 _symmetry_equiv_pos_site_id
 _symmetry_equiv_pos_as_xyz
  1  'x, y, z'
loop_
 _atom_site_type_symbol
 _atom_site_label
 _atom_site_symmetry_multiplicity
 _atom_site_fract_x
 _atom_site_fract_y
 _atom_site_fract_z
 _atom_site_occupancy
  Tm  Tm0  1  0.000000  0.114896  0.413005  1
  Tm  Tm1  1  0.000000  0.883476  0.587931  1
  Tm  Tm2  1  0.000000  0.384187  0.912092  1
  Tm  Tm3  1  0.000000  0.617002  0.086071  1
  Tm  Tm4  1  0.000000  0.241104  0.221460  1
  Tm  Tm5  1  0.000000  0.754772  0.778946  1
  Tm  Tm6  1  0.000000  0.254792  0.721347  1
  Tm  Tm7  1  0.000000  0.749038  0.278784  1
  Tm  Tm8  1  0.000000  0.999351  0.999898  1
  Tm  Tm9  1  0.000000  0.500526  0.500328  1
  Tl  Tl10  1  0.500000  0.422700  0.353546  1
  Tl  Tl11  1  0.500000  0.572837  0.649119  1
  Tl  Tl12  1  0.500000  0.074050  0.851093  1
  Tl  Tl13  1  0.500000  0.929494  0.147938  1
  In  In14  1  0.500000  0.293945  0.064644  1
  In  In15  1  0.500000  0.705239  0.933040  1
  In  In16  1  0.500000  0.204699  0.566420  1
  In  In17  1  0.500000  0.794995  0.433344  1
  Pt  Pt18  1  0.500000  0.521450  0.195244  1
  Rh  Rh19  1  0.500000  0.021538  0.305822  1
  Rh  Rh20  1  0.500000  0.980343  0.694094  1
  Rh  Rh21  1  0.500000  0.479566  0.805836  1
