# generated using pymatgen
data_SrYb3(ReN3)4
_symmetry_space_group_name_H-M   'P 1'
_cell_length_a   7.35222126
_cell_length_b   7.35222210
_cell_length_c   6.21497238
_cell_angle_alpha   76.17102647
_cell_angle_beta   76.17103014
_cell_angle_gamma   85.29578555
_symmetry_Int_Tables_number   1
_chemical_formula_structural   SrYb3(ReN3)4
_chemical_formula_sum   'Sr1 Yb3 Re4 N12'
_cell_volume   316.64724915
_cell_formula_units_Z   1
loop_
 _symmetry_equiv_pos_site_id
 _symmetry_equiv_pos_as_xyz
  1  'x, y, z'
loop_
 _atom_site_type_symbol
 _atom_site_label
 _atom_site_symmetry_multiplicity
 _atom_site_fract_x
 _atom_site_fract_y
 _atom_site_fract_z
 _atom_site_occupancy
  Sr  Sr0  1  0.689777  0.310223  0.750000  1
  Yb  Yb1  1  0.302457  0.697543  0.250000  1
  Yb  Yb2  1  0.916423  0.083577  0.250000  1
  Yb  Yb3  1  0.088028  0.911972  0.750000  1
  Re  Re4  1  0.800554  0.623698  0.247943  1
  Re  Re5  1  0.376302  0.199446  0.252057  1
  Re  Re6  1  0.620127  0.798847  0.751899  1
  Re  Re7  1  0.201153  0.379873  0.748101  1
  N  N8  1  0.780098  0.986126  0.652507  1
  N  N9  1  0.117345  0.610589  0.662762  1
  N  N10  1  0.333221  0.363413  0.982815  1
  N  N11  1  0.607595  0.116408  0.177216  1
  N  N12  1  0.883592  0.392405  0.322784  1
  N  N13  1  0.224072  0.004365  0.346684  1
  N  N14  1  0.995635  0.775928  0.153316  1
  N  N15  1  0.363137  0.339387  0.477756  1
  N  N16  1  0.636587  0.666779  0.517185  1
  N  N17  1  0.013874  0.219902  0.847493  1
  N  N18  1  0.389411  0.882655  0.837238  1
  N  N19  1  0.660613  0.636863  0.022244  1
