# generated using pymatgen
data_YHo2Zn(Ga4Pd)2
_symmetry_space_group_name_H-M   'P 1'
_cell_length_a   8.13631054
_cell_length_b   8.13631024
_cell_length_c   8.13631037
_cell_angle_alpha   149.19285764
_cell_angle_beta   108.94634270
_cell_angle_gamma   79.42172349
_symmetry_Int_Tables_number   1
_chemical_formula_structural   YHo2Zn(Ga4Pd)2
_chemical_formula_sum   'Y1 Ho2 Zn1 Ga8 Pd2'
_cell_volume   255.81125249
_cell_formula_units_Z   1
loop_
 _symmetry_equiv_pos_site_id
 _symmetry_equiv_pos_as_xyz
  1  'x, y, z'
loop_
 _atom_site_type_symbol
 _atom_site_label
 _atom_site_symmetry_multiplicity
 _atom_site_fract_x
 _atom_site_fract_y
 _atom_site_fract_z
 _atom_site_occupancy
  Y  Y0  1  0.500000  0.500000  0.000000  1
  Ho  Ho1  1  0.200714  0.200714  0.000000  1
  Ho  Ho2  1  0.799286  0.799286  0.000000  1
  Zn  Zn3  1  0.000000  0.500000  0.500000  1
  Ga  Ga4  1  0.647829  0.363457  0.284372  1
  Ga  Ga5  1  0.352171  0.636543  0.715628  1
  Ga  Ga6  1  0.079086  0.363457  0.715628  1
  Ga  Ga7  1  0.920914  0.636543  0.284372  1
  Ga  Ga8  1  0.521880  0.156258  0.365622  1
  Ga  Ga9  1  0.478120  0.843742  0.634378  1
  Ga  Ga10  1  0.790637  0.156258  0.634378  1
  Ga  Ga11  1  0.209363  0.843742  0.365622  1
  Pd  Pd12  1  0.182982  0.000000  0.182982  1
  Pd  Pd13  1  0.817018  0.000000  0.817018  1
