# generated using pymatgen
data_Y5Lu3(ReB6)4
_symmetry_space_group_name_H-M   'P 1'
_cell_length_a   3.65673800
_cell_length_b   9.13294602
_cell_length_c   11.52124703
_cell_angle_alpha   90.00835683
_cell_angle_beta   90.00000000
_cell_angle_gamma   90.00000000
_symmetry_Int_Tables_number   1
_chemical_formula_structural   Y5Lu3(ReB6)4
_chemical_formula_sum   'Y5 Lu3 Re4 B24'
_cell_volume   384.77267250
_cell_formula_units_Z   1
loop_
 _symmetry_equiv_pos_site_id
 _symmetry_equiv_pos_as_xyz
  1  'x, y, z'
loop_
 _atom_site_type_symbol
 _atom_site_label
 _atom_site_symmetry_multiplicity
 _atom_site_fract_x
 _atom_site_fract_y
 _atom_site_fract_z
 _atom_site_occupancy
  Y  Y0  1  0.000000  0.323365  0.414116  1
  Y  Y1  1  0.000000  0.676464  0.586338  1
  Y  Y2  1  0.000000  0.822903  0.085546  1
  Y  Y3  1  0.000000  0.177050  0.913828  1
  Y  Y4  1  0.000000  0.943924  0.370904  1
  Lu  Lu5  1  0.000000  0.056755  0.631059  1
  Lu  Lu6  1  0.000000  0.443650  0.129387  1
  Lu  Lu7  1  0.000000  0.556449  0.870052  1
  Re  Re8  1  0.000000  0.637943  0.319688  1
  Re  Re9  1  0.000000  0.360555  0.680501  1
  Re  Re10  1  0.000000  0.140671  0.178808  1
  Re  Re11  1  0.000000  0.860244  0.820251  1
  B  B12  1  0.500000  0.552697  0.432534  1
  B  B13  1  0.500000  0.445899  0.567760  1
  B  B14  1  0.500000  0.054320  0.066753  1
  B  B15  1  0.500000  0.946088  0.932434  1
  B  B16  1  0.500000  0.748813  0.418336  1
  B  B17  1  0.500000  0.249231  0.582225  1
  B  B18  1  0.500000  0.251684  0.081210  1
  B  B19  1  0.500000  0.748773  0.918265  1
  B  B20  1  0.500000  0.791706  0.264774  1
  B  B21  1  0.500000  0.206921  0.734847  1
  B  B22  1  0.500000  0.294029  0.233935  1
  B  B23  1  0.500000  0.706621  0.765659  1
  B  B24  1  0.500000  0.629525  0.184378  1
  B  B25  1  0.500000  0.369985  0.815259  1
  B  B26  1  0.500000  0.132030  0.314233  1
  B  B27  1  0.500000  0.869646  0.685367  1
  B  B28  1  0.500000  0.982920  0.211507  1
  B  B29  1  0.500000  0.017842  0.787460  1
  B  B30  1  0.500000  0.481551  0.286861  1
  B  B31  1  0.500000  0.518007  0.712882  1
  B  B32  1  0.500000  0.597439  0.026862  1
  B  B33  1  0.500000  0.402654  0.972607  1
  B  B34  1  0.500000  0.100044  0.474174  1
  B  B35  1  0.500000  0.901602  0.529196  1
