# generated using pymatgen
data_YEr3(B6Rh)2
_symmetry_space_group_name_H-M   'P 1'
_cell_length_a   3.64378500
_cell_length_b   9.15450500
_cell_length_c   11.48604101
_cell_angle_alpha   89.99635797
_cell_angle_beta   90.00000000
_cell_angle_gamma   90.00000000
_symmetry_Int_Tables_number   1
_chemical_formula_structural   YEr3(B6Rh)2
_chemical_formula_sum   'Y2 Er6 B24 Rh4'
_cell_volume   383.14042060
_cell_formula_units_Z   2
loop_
 _symmetry_equiv_pos_site_id
 _symmetry_equiv_pos_as_xyz
  1  'x, y, z'
loop_
 _atom_site_type_symbol
 _atom_site_label
 _atom_site_symmetry_multiplicity
 _atom_site_fract_x
 _atom_site_fract_y
 _atom_site_fract_z
 _atom_site_occupancy
  Y  Y0  1  0.500000  0.322295  0.413450  1
  Y  Y1  1  0.500000  0.677705  0.586550  1
  Er  Er2  1  0.500000  0.177752  0.913589  1
  Er  Er3  1  0.500000  0.822248  0.086411  1
  Er  Er4  1  0.500000  0.444540  0.126415  1
  Er  Er5  1  0.500000  0.555460  0.873585  1
  Er  Er6  1  0.500000  0.055430  0.626911  1
  Er  Er7  1  0.500000  0.944570  0.373089  1
  B  B8  1  0.000000  0.109180  0.470308  1
  B  B9  1  0.000000  0.890820  0.529692  1
  B  B10  1  0.000000  0.389296  0.969933  1
  B  B11  1  0.000000  0.610704  0.030067  1
  B  B12  1  0.000000  0.132972  0.315601  1
  B  B13  1  0.000000  0.867028  0.684399  1
  B  B14  1  0.000000  0.366423  0.816274  1
  B  B15  1  0.000000  0.633577  0.183726  1
  B  B16  1  0.000000  0.053884  0.065100  1
  B  B17  1  0.000000  0.946116  0.934900  1
  B  B18  1  0.000000  0.445750  0.565763  1
  B  B19  1  0.000000  0.554250  0.434237  1
  B  B20  1  0.000000  0.483361  0.286196  1
  B  B21  1  0.000000  0.516639  0.713804  1
  B  B22  1  0.000000  0.017300  0.787000  1
  B  B23  1  0.000000  0.982700  0.213000  1
  B  B24  1  0.000000  0.249452  0.078891  1
  B  B25  1  0.000000  0.750548  0.921109  1
  B  B26  1  0.000000  0.250089  0.579723  1
  B  B27  1  0.000000  0.749911  0.420277  1
  B  B28  1  0.000000  0.294350  0.235109  1
  B  B29  1  0.000000  0.705650  0.764891  1
  B  B30  1  0.000000  0.205225  0.736131  1
  B  B31  1  0.000000  0.794775  0.263869  1
  Rh  Rh32  1  0.500000  0.139395  0.178230  1
  Rh  Rh33  1  0.500000  0.860605  0.821770  1
  Rh  Rh34  1  0.500000  0.359578  0.679368  1
  Rh  Rh35  1  0.500000  0.640422  0.320632  1
