# generated using pymatgen
data_La2Tb8Pr5Nd(CdPd)4
_symmetry_space_group_name_H-M   'P 1'
_cell_length_a   9.91567916
_cell_length_b   9.91567969
_cell_length_c   9.90622700
_cell_angle_alpha   60.03153349
_cell_angle_beta   60.03153171
_cell_angle_gamma   60.02348628
_symmetry_Int_Tables_number   1
_chemical_formula_structural   La2Tb8Pr5Nd(CdPd)4
_chemical_formula_sum   'La2 Tb8 Pr5 Nd1 Cd4 Pd4'
_cell_volume   689.16332884
_cell_formula_units_Z   1
loop_
 _symmetry_equiv_pos_site_id
 _symmetry_equiv_pos_as_xyz
  1  'x, y, z'
loop_
 _atom_site_type_symbol
 _atom_site_label
 _atom_site_symmetry_multiplicity
 _atom_site_fract_x
 _atom_site_fract_y
 _atom_site_fract_z
 _atom_site_occupancy
  La  La0  1  0.350924  0.350924  0.353906  1
  La  La1  1  0.350924  0.350924  0.944245  1
  Tb  Tb2  1  0.351925  0.939978  0.354048  1
  Tb  Tb3  1  0.939978  0.351925  0.354048  1
  Tb  Tb4  1  0.814801  0.186932  0.186695  1
  Tb  Tb5  1  0.186932  0.814801  0.811572  1
  Tb  Tb6  1  0.186932  0.814801  0.186695  1
  Tb  Tb7  1  0.814801  0.186932  0.811572  1
  Tb  Tb8  1  0.186530  0.186530  0.813470  1
  Tb  Tb9  1  0.811099  0.811099  0.188901  1
  Pr  Pr10  1  0.937194  0.563751  0.563981  1
  Pr  Pr11  1  0.563751  0.937194  0.935074  1
  Pr  Pr12  1  0.563751  0.937194  0.563981  1
  Pr  Pr13  1  0.937194  0.563751  0.935074  1
  Pr  Pr14  1  0.563068  0.563068  0.936932  1
  Nd  Nd15  1  0.937758  0.937758  0.562242  1
  Cd  Cd16  1  0.582700  0.582700  0.575287  1
  Cd  Cd17  1  0.582700  0.582700  0.259315  1
  Cd  Cd18  1  0.585711  0.259372  0.577459  1
  Cd  Cd19  1  0.259372  0.585711  0.577459  1
  Pd  Pd20  1  0.140332  0.140332  0.149279  1
  Pd  Pd21  1  0.140332  0.140332  0.570057  1
  Pd  Pd22  1  0.137546  0.573746  0.144354  1
  Pd  Pd23  1  0.573746  0.137546  0.144354  1
