# generated using pymatgen
data_V3Si2GeRh10
_symmetry_space_group_name_H-M   'P 1'
_cell_length_a   3.94892600
_cell_length_b   5.37030795
_cell_length_c   10.39944575
_cell_angle_alpha   88.77817816
_cell_angle_beta   90.00000000
_cell_angle_gamma   90.00000000
_symmetry_Int_Tables_number   1
_chemical_formula_structural   V3Si2GeRh10
_chemical_formula_sum   'V3 Si2 Ge1 Rh10'
_cell_volume   220.49036924
_cell_formula_units_Z   1
loop_
 _symmetry_equiv_pos_site_id
 _symmetry_equiv_pos_as_xyz
  1  'x, y, z'
loop_
 _atom_site_type_symbol
 _atom_site_label
 _atom_site_symmetry_multiplicity
 _atom_site_fract_x
 _atom_site_fract_y
 _atom_site_fract_z
 _atom_site_occupancy
  V  V0  1  0.500000  0.170542  0.644314  1
  V  V1  1  0.500000  0.844682  0.356164  1
  V  V2  1  0.500000  0.659065  0.857390  1
  Si  Si3  1  0.000000  0.494309  0.505025  1
  Si  Si4  1  0.000000  0.958648  0.989853  1
  Ge  Ge5  1  0.500000  0.352679  0.149096  1
  Rh  Rh6  1  0.500000  0.318584  0.401137  1
  Rh  Rh7  1  0.500000  0.690099  0.604821  1
  Rh  Rh8  1  0.500000  0.812904  0.104375  1
  Rh  Rh9  1  0.500000  0.174001  0.893140  1
  Rh  Rh10  1  0.000000  0.423084  0.741081  1
  Rh  Rh11  1  0.000000  0.608449  0.274963  1
  Rh  Rh12  1  0.000000  0.923693  0.755784  1
  Rh  Rh13  1  0.000000  0.094870  0.224785  1
  Rh  Rh14  1  0.000000  0.478372  0.003941  1
  Rh  Rh15  1  0.000000  0.996018  0.494132  1
