# generated using pymatgen
data_ScI9
_symmetry_space_group_name_H-M   'P 1'
_cell_length_a   10.25031664
_cell_length_b   10.25411289
_cell_length_c   10.24376534
_cell_angle_alpha   89.35639807
_cell_angle_beta   89.27665846
_cell_angle_gamma   89.37421999
_symmetry_Int_Tables_number   1
_chemical_formula_structural   ScI9
_chemical_formula_sum   'Sc2 I18'
_cell_volume   1076.48440735
_cell_formula_units_Z   2
loop_
 _symmetry_equiv_pos_site_id
 _symmetry_equiv_pos_as_xyz
  1  'x, y, z'
loop_
 _atom_site_type_symbol
 _atom_site_label
 _atom_site_symmetry_multiplicity
 _atom_site_fract_x
 _atom_site_fract_y
 _atom_site_fract_z
 _atom_site_occupancy
  Sc  Sc0  1  0.500000  0.500000  0.500000  1
  Sc  Sc1  1  0.000000  0.000000  0.000000  1
  I  I2  1  0.781453  0.468487  0.502745  1
  I  I3  1  0.503159  0.781247  0.468509  1
  I  I4  1  0.468701  0.503443  0.781898  1
  I  I5  1  0.218547  0.531513  0.497255  1
  I  I6  1  0.496841  0.218753  0.531491  1
  I  I7  1  0.531299  0.496557  0.218102  1
  I  I8  1  0.893289  0.372509  0.749506  1
  I  I9  1  0.749971  0.893230  0.372989  1
  I  I10  1  0.372676  0.750281  0.893152  1
  I  I11  1  0.106711  0.627491  0.250494  1
  I  I12  1  0.250029  0.106770  0.627011  1
  I  I13  1  0.627324  0.249719  0.106848  1
  I  I14  1  0.010952  0.974897  0.717665  1
  I  I15  1  0.718055  0.010442  0.975519  1
  I  I16  1  0.975056  0.718134  0.011442  1
  I  I17  1  0.989048  0.025103  0.282335  1
  I  I18  1  0.281945  0.989558  0.024481  1
  I  I19  1  0.024944  0.281866  0.988558  1
