# generated using pymatgen
data_Cs6Lu3Sb7S18
_symmetry_space_group_name_H-M   'P 1'
_cell_length_a   13.58618563
_cell_length_b   13.58618560
_cell_length_c   9.40700300
_cell_angle_alpha   84.32675753
_cell_angle_beta   84.32676299
_cell_angle_gamma   140.13362647
_symmetry_Int_Tables_number   1
_chemical_formula_structural   Cs6Lu3Sb7S18
_chemical_formula_sum   'Cs6 Lu3 Sb7 S18'
_cell_volume   1065.20496914
_cell_formula_units_Z   1
loop_
 _symmetry_equiv_pos_site_id
 _symmetry_equiv_pos_as_xyz
  1  'x, y, z'
loop_
 _atom_site_type_symbol
 _atom_site_label
 _atom_site_symmetry_multiplicity
 _atom_site_fract_x
 _atom_site_fract_y
 _atom_site_fract_z
 _atom_site_occupancy
  Cs  Cs0  1  0.420953  0.579047  0.500000  1
  Cs  Cs1  1  0.580776  0.419224  0.500000  1
  Cs  Cs2  1  0.016095  0.452090  0.238677  1
  Cs  Cs3  1  0.446975  0.015200  0.241725  1
  Cs  Cs4  1  0.984800  0.553025  0.758275  1
  Cs  Cs5  1  0.547910  0.983905  0.761323  1
  Lu  Lu6  1  0.423408  0.576592  0.000000  1
  Lu  Lu7  1  0.576628  0.423372  0.000000  1
  Lu  Lu8  1  0.923939  0.076061  0.500000  1
  Sb  Sb9  1  0.071115  0.928885  0.500000  1
  Sb  Sb10  1  0.035520  0.276703  0.839195  1
  Sb  Sb11  1  0.279622  0.034755  0.838292  1
  Sb  Sb12  1  0.965245  0.720378  0.161708  1
  Sb  Sb13  1  0.723297  0.964480  0.160805  1
  Sb  Sb14  1  0.869552  0.871149  0.881418  1
  Sb  Sb15  1  0.128851  0.130448  0.118582  1
  S  S16  1  0.124595  0.126656  0.617205  1
  S  S17  1  0.873344  0.875405  0.382795  1
  S  S18  1  0.808938  0.191062  0.000000  1
  S  S19  1  0.192524  0.807476  0.000000  1
  S  S20  1  0.250099  0.555403  0.845871  1
  S  S21  1  0.557599  0.251510  0.849891  1
  S  S22  1  0.748490  0.442401  0.150109  1
  S  S23  1  0.444597  0.749901  0.154129  1
  S  S24  1  0.995173  0.304892  0.598485  1
  S  S25  1  0.318430  0.999805  0.601820  1
  S  S26  1  0.000195  0.681570  0.398180  1
  S  S27  1  0.695108  0.004827  0.401515  1
  S  S28  1  0.370484  0.371293  0.886660  1
  S  S29  1  0.628707  0.629516  0.113340  1
  S  S30  1  0.694440  0.845890  0.770725  1
  S  S31  1  0.841562  0.693079  0.775567  1
  S  S32  1  0.306921  0.158438  0.224433  1
  S  S33  1  0.154110  0.305560  0.229275  1
