# generated using pymatgen
data_PrHgRh2O7
_symmetry_space_group_name_H-M   'P 1'
_cell_length_a   7.22634749
_cell_length_b   7.33551183
_cell_length_c   7.33551058
_cell_angle_alpha   62.08508717
_cell_angle_beta   60.49106385
_cell_angle_gamma   60.49106098
_symmetry_Int_Tables_number   1
_chemical_formula_structural   PrHgRh2O7
_chemical_formula_sum   'Pr2 Hg2 Rh4 O14'
_cell_volume   281.14578539
_cell_formula_units_Z   2
loop_
 _symmetry_equiv_pos_site_id
 _symmetry_equiv_pos_as_xyz
  1  'x, y, z'
loop_
 _atom_site_type_symbol
 _atom_site_label
 _atom_site_symmetry_multiplicity
 _atom_site_fract_x
 _atom_site_fract_y
 _atom_site_fract_z
 _atom_site_occupancy
  Pr  Pr0  1  0.125000  0.625000  0.125000  1
  Pr  Pr1  1  0.125000  0.125000  0.625000  1
  Hg  Hg2  1  0.125000  0.125000  0.125000  1
  Hg  Hg3  1  0.625000  0.125000  0.125000  1
  Rh  Rh4  1  0.625000  0.625000  0.125000  1
  Rh  Rh5  1  0.625000  0.625000  0.625000  1
  Rh  Rh6  1  0.625000  0.125000  0.625000  1
  Rh  Rh7  1  0.125000  0.625000  0.625000  1
  O  O8  1  0.698434  0.301566  0.301566  1
  O  O9  1  0.704733  0.302975  0.693619  1
  O  O10  1  0.986828  0.013172  0.013172  1
  O  O11  1  0.298673  0.693619  0.302975  1
  O  O12  1  0.704733  0.693619  0.302975  1
  O  O13  1  0.960866  0.539134  0.539134  1
  O  O14  1  0.289134  0.710866  0.710866  1
  O  O15  1  0.263172  0.236828  0.236828  1
  O  O16  1  0.951327  0.556381  0.947025  1
  O  O17  1  0.545267  0.947025  0.556381  1
  O  O18  1  0.545267  0.556381  0.947025  1
  O  O19  1  0.951327  0.947025  0.556381  1
  O  O20  1  0.551566  0.948434  0.948434  1
  O  O21  1  0.298673  0.302975  0.693619  1
