# generated using pymatgen
data_Mn5AlPd7Pt3
_symmetry_space_group_name_H-M   'P 1'
_cell_length_a   4.13746200
_cell_length_b   5.45887883
_cell_length_c   10.71141947
_cell_angle_alpha   89.67631175
_cell_angle_beta   90.00000000
_cell_angle_gamma   90.00000000
_symmetry_Int_Tables_number   1
_chemical_formula_structural   Mn5AlPd7Pt3
_chemical_formula_sum   'Mn5 Al1 Pd7 Pt3'
_cell_volume   241.92322797
_cell_formula_units_Z   1
loop_
 _symmetry_equiv_pos_site_id
 _symmetry_equiv_pos_as_xyz
  1  'x, y, z'
loop_
 _atom_site_type_symbol
 _atom_site_label
 _atom_site_symmetry_multiplicity
 _atom_site_fract_x
 _atom_site_fract_y
 _atom_site_fract_z
 _atom_site_occupancy
  Mn  Mn0  1  0.000000  0.999739  0.999853  1
  Mn  Mn1  1  0.500000  0.176804  0.362310  1
  Mn  Mn2  1  0.500000  0.823007  0.637443  1
  Mn  Mn3  1  0.500000  0.682470  0.136738  1
  Mn  Mn4  1  0.500000  0.317439  0.863826  1
  Al  Al5  1  0.000000  0.500791  0.499774  1
  Pd  Pd6  1  0.500000  0.314486  0.608239  1
  Pd  Pd7  1  0.000000  0.001525  0.500028  1
  Pd  Pd8  1  0.000000  0.499959  0.999813  1
  Pd  Pd9  1  0.000000  0.918049  0.243314  1
  Pd  Pd10  1  0.000000  0.082152  0.756660  1
  Pd  Pd11  1  0.000000  0.418981  0.260514  1
  Pd  Pd12  1  0.000000  0.580762  0.738844  1
  Pt  Pt13  1  0.500000  0.191752  0.112346  1
  Pt  Pt14  1  0.500000  0.807870  0.887444  1
  Pt  Pt15  1  0.500000  0.684214  0.392853  1
