# generated using pymatgen
data_Dy2Hf2CN3
_symmetry_space_group_name_H-M   'P 1'
_cell_length_a   11.18598528
_cell_length_b   11.18598533
_cell_length_c   11.18598572
_cell_angle_alpha   17.17765473
_cell_angle_beta   17.17765426
_cell_angle_gamma   17.17765216
_symmetry_Int_Tables_number   1
_chemical_formula_structural   Dy2Hf2CN3
_chemical_formula_sum   'Dy2 Hf2 C1 N3'
_cell_volume   106.51847921
_cell_formula_units_Z   1
loop_
 _symmetry_equiv_pos_site_id
 _symmetry_equiv_pos_as_xyz
  1  'x, y, z'
loop_
 _atom_site_type_symbol
 _atom_site_label
 _atom_site_symmetry_multiplicity
 _atom_site_fract_x
 _atom_site_fract_y
 _atom_site_fract_z
 _atom_site_occupancy
  Dy  Dy0  1  0.876461  0.876461  0.876461  1
  Dy  Dy1  1  0.123539  0.123539  0.123539  1
  Hf  Hf2  1  0.372799  0.372799  0.372799  1
  Hf  Hf3  1  0.627201  0.627201  0.627201  1
  C  C4  1  0.000000  0.000000  0.000000  1
  N  N5  1  0.255037  0.255037  0.255037  1
  N  N6  1  0.500000  0.500000  0.500000  1
  N  N7  1  0.744963  0.744963  0.744963  1
