# generated using pymatgen
data_Dy13Y3Tl2(In2Co)2
_symmetry_space_group_name_H-M   'P 1'
_cell_length_a   10.36624800
_cell_length_b   10.36274477
_cell_length_c   7.03491201
_cell_angle_alpha   89.99576358
_cell_angle_beta   89.99996684
_cell_angle_gamma   120.01115803
_symmetry_Int_Tables_number   1
_chemical_formula_structural   Dy13Y3Tl2(In2Co)2
_chemical_formula_sum   'Dy13 Y3 Tl2 In4 Co2'
_cell_volume   654.39030243
_cell_formula_units_Z   1
loop_
 _symmetry_equiv_pos_site_id
 _symmetry_equiv_pos_as_xyz
  1  'x, y, z'
loop_
 _atom_site_type_symbol
 _atom_site_label
 _atom_site_symmetry_multiplicity
 _atom_site_fract_x
 _atom_site_fract_y
 _atom_site_fract_z
 _atom_site_occupancy
  Dy  Dy0  1  0.463973  0.535947  0.482909  1
  Dy  Dy1  1  0.071974  0.535947  0.482909  1
  Dy  Dy2  1  0.463980  0.927961  0.483074  1
  Dy  Dy3  1  0.535525  0.463913  0.982782  1
  Dy  Dy4  1  0.928388  0.463913  0.982782  1
  Dy  Dy5  1  0.535990  0.071978  0.982448  1
  Dy  Dy6  1  0.821848  0.178062  0.276035  1
  Dy  Dy7  1  0.356214  0.178062  0.276035  1
  Dy  Dy8  1  0.821931  0.643863  0.276156  1
  Dy  Dy9  1  0.178107  0.821798  0.776533  1
  Dy  Dy10  1  0.643691  0.821798  0.776533  1
  Dy  Dy11  1  0.178130  0.356260  0.775876  1
  Dy  Dy12  1  0.333241  0.666483  0.091558  1
  Y  Y13  1  0.666681  0.333362  0.592768  1
  Y  Y14  1  0.000221  0.000442  0.495791  1
  Y  Y15  1  0.000200  0.000400  0.994658  1
  Tl  Tl16  1  0.163069  0.836897  0.233883  1
  Tl  Tl17  1  0.673829  0.836897  0.233883  1
  In  In18  1  0.162968  0.325937  0.234206  1
  In  In19  1  0.837073  0.162927  0.734080  1
  In  In20  1  0.325853  0.162927  0.734080  1
  In  In21  1  0.837041  0.674083  0.733974  1
  Co  Co22  1  0.333401  0.666803  0.707229  1
  Co  Co23  1  0.666673  0.333344  0.204369  1
