# generated using pymatgen
data_Pm5Rh3
_symmetry_space_group_name_H-M   'P 1'
_cell_length_a   4.01073051
_cell_length_b   6.76648099
_cell_length_c   8.97902744
_cell_angle_alpha   112.63031841
_cell_angle_beta   90.00429041
_cell_angle_gamma   107.24317408
_symmetry_Int_Tables_number   1
_chemical_formula_structural   Pm5Rh3
_chemical_formula_sum   'Pm5 Rh3'
_cell_volume   212.99918006
_cell_formula_units_Z   1
loop_
 _symmetry_equiv_pos_site_id
 _symmetry_equiv_pos_as_xyz
  1  'x, y, z'
loop_
 _atom_site_type_symbol
 _atom_site_label
 _atom_site_symmetry_multiplicity
 _atom_site_fract_x
 _atom_site_fract_y
 _atom_site_fract_z
 _atom_site_occupancy
  Pm  Pm0  1  0.665911  0.513674  0.920640  1
  Pm  Pm1  1  0.864516  0.918274  0.676853  1
  Pm  Pm2  1  0.115329  0.417042  0.536087  1
  Pm  Pm3  1  0.989903  0.162130  0.105130  1
  Pm  Pm4  1  0.313036  0.810006  0.288643  1
  Rh  Rh5  1  0.488047  0.164800  0.603517  1
  Rh  Rh6  1  0.317638  0.819379  0.898482  1
  Rh  Rh7  1  0.659564  0.502936  0.307488  1
