# generated using pymatgen
data_Au2SF18
_symmetry_space_group_name_H-M   'P 1'
_cell_length_a   5.12793083
_cell_length_b   8.77731151
_cell_length_c   8.78482684
_cell_angle_alpha   61.57742964
_cell_angle_beta   86.17994266
_cell_angle_gamma   86.69171682
_symmetry_Int_Tables_number   1
_chemical_formula_structural   Au2SF18
_chemical_formula_sum   'Au2 S1 F18'
_cell_volume   346.81419337
_cell_formula_units_Z   1
loop_
 _symmetry_equiv_pos_site_id
 _symmetry_equiv_pos_as_xyz
  1  'x, y, z'
loop_
 _atom_site_type_symbol
 _atom_site_label
 _atom_site_symmetry_multiplicity
 _atom_site_fract_x
 _atom_site_fract_y
 _atom_site_fract_z
 _atom_site_occupancy
  Au  Au0  1  0.412592  0.668141  0.667418  1
  Au  Au1  1  0.587408  0.331859  0.332582  1
  S  S2  1  0.000000  0.000000  0.000000  1
  F  F3  1  0.115115  0.910722  0.188728  1
  F  F4  1  0.884885  0.089278  0.811272  1
  F  F5  1  0.880744  0.820005  0.039854  1
  F  F6  1  0.119256  0.179995  0.960146  1
  F  F7  1  0.735293  0.049663  0.075083  1
  F  F8  1  0.264707  0.950337  0.924917  1
  F  F9  1  0.209048  0.577884  0.883685  1
  F  F10  1  0.790952  0.422116  0.116315  1
  F  F11  1  0.616294  0.758514  0.451298  1
  F  F12  1  0.383706  0.241486  0.548702  1
  F  F13  1  0.159803  0.584957  0.573100  1
  F  F14  1  0.840197  0.415043  0.426900  1
  F  F15  1  0.665033  0.750847  0.762035  1
  F  F16  1  0.334967  0.249153  0.237965  1
  F  F17  1  0.218946  0.886036  0.585231  1
  F  F18  1  0.781054  0.113964  0.414769  1
  F  F19  1  0.606087  0.450362  0.749506  1
  F  F20  1  0.393913  0.549638  0.250494  1
