# generated using pymatgen
data_Hf8Ni2MoRu
_symmetry_space_group_name_H-M   'P 1'
_cell_length_a   8.65985247
_cell_length_b   8.65704373
_cell_length_c   8.62598601
_cell_angle_alpha   60.11475023
_cell_angle_beta   60.12527502
_cell_angle_gamma   60.08102260
_symmetry_Int_Tables_number   1
_chemical_formula_structural   Hf8Ni2MoRu
_chemical_formula_sum   'Hf16 Ni4 Mo2 Ru2'
_cell_volume   458.37979353
_cell_formula_units_Z   2
loop_
 _symmetry_equiv_pos_site_id
 _symmetry_equiv_pos_as_xyz
  1  'x, y, z'
loop_
 _atom_site_type_symbol
 _atom_site_label
 _atom_site_symmetry_multiplicity
 _atom_site_fract_x
 _atom_site_fract_y
 _atom_site_fract_z
 _atom_site_occupancy
  Hf  Hf0  1  0.682449  0.106729  0.105406  1
  Hf  Hf1  1  0.106868  0.682422  0.105350  1
  Hf  Hf2  1  0.104441  0.104309  0.687800  1
  Hf  Hf3  1  0.104438  0.104308  0.103440  1
  Hf  Hf4  1  0.315836  0.315808  0.684170  1
  Hf  Hf5  1  0.684985  0.685034  0.314994  1
  Hf  Hf6  1  0.316380  0.685786  0.315364  1
  Hf  Hf7  1  0.685894  0.316356  0.682412  1
  Hf  Hf8  1  0.685914  0.316357  0.315332  1
  Hf  Hf9  1  0.316383  0.685768  0.682484  1
  Hf  Hf10  1  0.951823  0.951632  0.548278  1
  Hf  Hf11  1  0.549138  0.549216  0.950816  1
  Hf  Hf12  1  0.949833  0.549641  0.950477  1
  Hf  Hf13  1  0.549543  0.949800  0.550057  1
  Hf  Hf14  1  0.549549  0.949810  0.950588  1
  Hf  Hf15  1  0.949823  0.549635  0.550053  1
  Ni  Ni16  1  0.321856  0.890335  0.893923  1
  Ni  Ni17  1  0.890175  0.321765  0.894049  1
  Ni  Ni18  1  0.892115  0.892329  0.320602  1
  Ni  Ni19  1  0.892097  0.892309  0.894968  1
  Mo  Mo20  1  0.999896  0.332785  0.333651  1
  Mo  Mo21  1  0.332771  0.000069  0.333571  1
  Ru  Ru22  1  0.333893  0.333897  0.995816  1
  Ru  Ru23  1  0.333897  0.333897  0.336396  1
