# generated using pymatgen
data_ThCu3NiRh
_symmetry_space_group_name_H-M   'P 1'
_cell_length_a   5.23773998
_cell_length_b   5.23774042
_cell_length_c   4.08643000
_cell_angle_alpha   90.00000000
_cell_angle_beta   90.00000000
_cell_angle_gamma   124.82135083
_symmetry_Int_Tables_number   1
_chemical_formula_structural   ThCu3NiRh
_chemical_formula_sum   'Th1 Cu3 Ni1 Rh1'
_cell_volume   92.03256478
_cell_formula_units_Z   1
loop_
 _symmetry_equiv_pos_site_id
 _symmetry_equiv_pos_as_xyz
  1  'x, y, z'
loop_
 _atom_site_type_symbol
 _atom_site_label
 _atom_site_symmetry_multiplicity
 _atom_site_fract_x
 _atom_site_fract_y
 _atom_site_fract_z
 _atom_site_occupancy
  Th  Th0  1  0.001724  0.998276  0.000000  1
  Cu  Cu1  1  0.680030  0.319970  0.000000  1
  Cu  Cu2  1  0.498947  0.999268  0.500000  1
  Cu  Cu3  1  0.000732  0.501053  0.500000  1
  Ni  Ni4  1  0.320469  0.679531  0.000000  1
  Rh  Rh5  1  0.498097  0.501903  0.500000  1
