# generated using pymatgen
data_Sc4Bi2Ir
_symmetry_space_group_name_H-M   'P 1'
_cell_length_a   8.34589425
_cell_length_b   8.34567225
_cell_length_c   8.34589423
_cell_angle_alpha   96.39368465
_cell_angle_beta   96.40210003
_cell_angle_gamma   141.00119636
_symmetry_Int_Tables_number   1
_chemical_formula_structural   Sc4Bi2Ir
_chemical_formula_sum   'Sc8 Bi4 Ir2'
_cell_volume   344.83394486
_cell_formula_units_Z   2
loop_
 _symmetry_equiv_pos_site_id
 _symmetry_equiv_pos_as_xyz
  1  'x, y, z'
loop_
 _atom_site_type_symbol
 _atom_site_label
 _atom_site_symmetry_multiplicity
 _atom_site_fract_x
 _atom_site_fract_y
 _atom_site_fract_z
 _atom_site_occupancy
  Sc  Sc0  1  0.697192  0.581090  0.278266  1
  Sc  Sc1  1  0.302808  0.418910  0.721734  1
  Sc  Sc2  1  0.581073  0.302804  0.883914  1
  Sc  Sc3  1  0.081110  0.197196  0.278271  1
  Sc  Sc4  1  0.802824  0.081090  0.883897  1
  Sc  Sc5  1  0.418927  0.697196  0.116086  1
  Sc  Sc6  1  0.918890  0.802804  0.721729  1
  Sc  Sc7  1  0.197176  0.918910  0.116103  1
  Bi  Bi8  1  0.140684  0.640697  0.781379  1
  Bi  Bi9  1  0.359319  0.140697  0.500014  1
  Bi  Bi10  1  0.859316  0.359303  0.218621  1
  Bi  Bi11  1  0.640681  0.859303  0.499986  1
  Ir  Ir12  1  0.249923  0.250000  0.999923  1
  Ir  Ir13  1  0.750077  0.750000  0.000077  1
