# generated using pymatgen
data_Hf5ZrCoBi2
_symmetry_space_group_name_H-M   'P 1'
_cell_length_a   3.64563700
_cell_length_b   7.87189781
_cell_length_c   7.86224698
_cell_angle_alpha   120.04060540
_cell_angle_beta   90.00000000
_cell_angle_gamma   90.00000000
_symmetry_Int_Tables_number   1
_chemical_formula_structural   Hf5ZrCoBi2
_chemical_formula_sum   'Hf5 Zr1 Co1 Bi2'
_cell_volume   195.32252964
_cell_formula_units_Z   1
loop_
 _symmetry_equiv_pos_site_id
 _symmetry_equiv_pos_as_xyz
  1  'x, y, z'
loop_
 _atom_site_type_symbol
 _atom_site_label
 _atom_site_symmetry_multiplicity
 _atom_site_fract_x
 _atom_site_fract_y
 _atom_site_fract_z
 _atom_site_occupancy
  Hf  Hf0  1  0.500000  0.767184  0.766338  1
  Hf  Hf1  1  0.500000  0.000847  0.233662  1
  Hf  Hf2  1  0.500000  0.233562  0.000000  1
  Hf  Hf3  1  0.000000  0.386876  0.386714  1
  Hf  Hf4  1  0.000000  0.000162  0.613286  1
  Zr  Zr5  1  0.000000  0.608614  0.000000  1
  Co  Co6  1  0.000000  0.002874  0.000000  1
  Bi  Bi7  1  0.500000  0.667130  0.334377  1
  Bi  Bi8  1  0.500000  0.332752  0.665623  1
