# generated using pymatgen
data_Cd3Rh4PbO14
_symmetry_space_group_name_H-M   'P 1'
_cell_length_a   7.25345622
_cell_length_b   7.23205063
_cell_length_c   7.23205000
_cell_angle_alpha   59.99999374
_cell_angle_beta   60.09756707
_cell_angle_gamma   60.09755763
_symmetry_Int_Tables_number   1
_chemical_formula_structural   Cd3Rh4PbO14
_chemical_formula_sum   'Cd3 Rh4 Pb1 O14'
_cell_volume   268.65301365
_cell_formula_units_Z   1
loop_
 _symmetry_equiv_pos_site_id
 _symmetry_equiv_pos_as_xyz
  1  'x, y, z'
loop_
 _atom_site_type_symbol
 _atom_site_label
 _atom_site_symmetry_multiplicity
 _atom_site_fract_x
 _atom_site_fract_y
 _atom_site_fract_z
 _atom_site_occupancy
  Cd  Cd0  1  0.125000  0.125000  0.125000  1
  Cd  Cd1  1  0.125000  0.625000  0.125000  1
  Cd  Cd2  1  0.125000  0.125000  0.625000  1
  Rh  Rh3  1  0.625000  0.625000  0.125000  1
  Rh  Rh4  1  0.625000  0.625000  0.625000  1
  Rh  Rh5  1  0.625000  0.125000  0.625000  1
  Rh  Rh6  1  0.125000  0.625000  0.625000  1
  Pb  Pb7  1  0.625000  0.125000  0.125000  1
  O  O8  1  0.695671  0.295726  0.295726  1
  O  O9  1  0.695671  0.295726  0.712878  1
  O  O10  1  0.004067  0.998645  0.998645  1
  O  O11  1  0.301367  0.700550  0.297532  1
  O  O12  1  0.695671  0.712878  0.295726  1
  O  O13  1  0.948633  0.549450  0.549450  1
  O  O14  1  0.301367  0.700550  0.700550  1
  O  O15  1  0.245933  0.251355  0.251355  1
  O  O16  1  0.948633  0.549450  0.952468  1
  O  O17  1  0.554329  0.954274  0.537122  1
  O  O18  1  0.554329  0.537122  0.954274  1
  O  O19  1  0.948633  0.952468  0.549450  1
  O  O20  1  0.554329  0.954274  0.954274  1
  O  O21  1  0.301367  0.297532  0.700550  1
