# generated using pymatgen
data_Lu5Mg3(Co4P3)4
_symmetry_space_group_name_H-M   'P 1'
_cell_length_a   12.07679300
_cell_length_b   12.07679265
_cell_length_c   3.70129700
_cell_angle_alpha   90.00000000
_cell_angle_beta   90.00000000
_cell_angle_gamma   119.99999273
_symmetry_Int_Tables_number   1
_chemical_formula_structural   Lu5Mg3(Co4P3)4
_chemical_formula_sum   'Lu5 Mg3 Co16 P12'
_cell_volume   467.50669119
_cell_formula_units_Z   1
loop_
 _symmetry_equiv_pos_site_id
 _symmetry_equiv_pos_as_xyz
  1  'x, y, z'
loop_
 _atom_site_type_symbol
 _atom_site_label
 _atom_site_symmetry_multiplicity
 _atom_site_fract_x
 _atom_site_fract_y
 _atom_site_fract_z
 _atom_site_occupancy
  Lu  Lu0  1  0.666667  0.333333  0.000000  1
  Lu  Lu1  1  0.333333  0.666667  0.000000  1
  Lu  Lu2  1  0.815388  0.815388  0.500000  1
  Lu  Lu3  1  0.184612  0.000000  0.500000  1
  Lu  Lu4  1  0.000000  0.184612  0.500000  1
  Mg  Mg5  1  0.441989  0.441989  0.000000  1
  Mg  Mg6  1  0.558011  0.000000  0.000000  1
  Mg  Mg7  1  0.000000  0.558011  0.000000  1
  Co  Co8  1  0.197021  0.374749  0.000000  1
  Co  Co9  1  0.177727  0.802979  0.000000  1
  Co  Co10  1  0.822273  0.625251  0.000000  1
  Co  Co11  1  0.802979  0.177727  0.000000  1
  Co  Co12  1  0.374749  0.197021  0.000000  1
  Co  Co13  1  0.125867  0.482477  0.500000  1
  Co  Co14  1  0.356610  0.874133  0.500000  1
  Co  Co15  1  0.517523  0.643390  0.500000  1
  Co  Co16  1  0.643390  0.517523  0.500000  1
  Co  Co17  1  0.874133  0.356610  0.500000  1
  Co  Co18  1  0.482477  0.125867  0.500000  1
  Co  Co19  1  0.000000  0.000000  0.000000  1
  Co  Co20  1  0.719805  0.000000  0.500000  1
  Co  Co21  1  0.000000  0.719805  0.500000  1
  Co  Co22  1  0.625251  0.822273  0.000000  1
  Co  Co23  1  0.280195  0.280195  0.500000  1
  P  P24  1  0.643212  0.643212  0.000000  1
  P  P25  1  0.356788  0.000000  0.000000  1
  P  P26  1  0.000000  0.356788  0.000000  1
  P  P27  1  0.481327  0.308473  0.500000  1
  P  P28  1  0.691527  0.172854  0.500000  1
  P  P29  1  0.827146  0.518673  0.500000  1
  P  P30  1  0.518673  0.827146  0.500000  1
  P  P31  1  0.172854  0.691527  0.500000  1
  P  P32  1  0.821193  0.000000  0.000000  1
  P  P33  1  0.000000  0.821193  0.000000  1
  P  P34  1  0.308473  0.481327  0.500000  1
  P  P35  1  0.178807  0.178807  0.000000  1
