# generated using pymatgen
data_Er12AlCo4Pd
_symmetry_space_group_name_H-M   'P 1'
_cell_length_a   8.19025028
_cell_length_b   8.19025049
_cell_length_c   8.19025001
_cell_angle_alpha   111.61532605
_cell_angle_beta   110.67988894
_cell_angle_gamma   106.16952160
_symmetry_Int_Tables_number   1
_chemical_formula_structural   Er12AlCo4Pd
_chemical_formula_sum   'Er12 Al1 Co4 Pd1'
_cell_volume   421.85564227
_cell_formula_units_Z   1
loop_
 _symmetry_equiv_pos_site_id
 _symmetry_equiv_pos_as_xyz
  1  'x, y, z'
loop_
 _atom_site_type_symbol
 _atom_site_label
 _atom_site_symmetry_multiplicity
 _atom_site_fract_x
 _atom_site_fract_y
 _atom_site_fract_z
 _atom_site_occupancy
  Er  Er0  1  0.579805  0.271953  0.307851  1
  Er  Er1  1  0.184102  0.213315  0.397418  1
  Er  Er2  1  0.184102  0.786685  0.970787  1
  Er  Er3  1  0.674766  0.485962  0.811196  1
  Er  Er4  1  0.674766  0.863569  0.188804  1
  Er  Er5  1  0.964102  0.271953  0.692149  1
  Er  Er6  1  0.035898  0.728047  0.307851  1
  Er  Er7  1  0.325234  0.514038  0.188804  1
  Er  Er8  1  0.325234  0.136431  0.811196  1
  Er  Er9  1  0.815898  0.213315  0.029213  1
  Er  Er10  1  0.815898  0.786685  0.602582  1
  Er  Er11  1  0.420195  0.728047  0.692149  1
  Al  Al12  1  0.500000  0.000000  0.500000  1
  Co  Co13  1  0.885358  0.885358  0.000000  1
  Co  Co14  1  0.344879  0.500000  0.844879  1
  Co  Co15  1  0.655121  0.500000  0.155121  1
  Co  Co16  1  0.114642  0.114642  0.000000  1
  Pd  Pd17  1  0.000000  0.500000  0.500000  1
