# generated using pymatgen
data_Rb8TiMnSe8
_symmetry_space_group_name_H-M   'P 1'
_cell_length_a   8.76948900
_cell_length_b   10.32384600
_cell_length_c   15.35013100
_cell_angle_alpha   90.00000000
_cell_angle_beta   89.68325905
_cell_angle_gamma   90.00000000
_symmetry_Int_Tables_number   1
_chemical_formula_structural   Rb8TiMnSe8
_chemical_formula_sum   'Rb16 Ti2 Mn2 Se16'
_cell_volume   1389.70063266
_cell_formula_units_Z   2
loop_
 _symmetry_equiv_pos_site_id
 _symmetry_equiv_pos_as_xyz
  1  'x, y, z'
loop_
 _atom_site_type_symbol
 _atom_site_label
 _atom_site_symmetry_multiplicity
 _atom_site_fract_x
 _atom_site_fract_y
 _atom_site_fract_z
 _atom_site_occupancy
  Rb  Rb0  1  0.000000  0.000000  0.000000  1
  Rb  Rb1  1  0.500000  0.000000  0.500000  1
  Rb  Rb2  1  0.000000  0.500000  0.000000  1
  Rb  Rb3  1  0.500000  0.500000  0.500000  1
  Rb  Rb4  1  0.986333  0.750000  0.425047  1
  Rb  Rb5  1  0.486981  0.250000  0.073748  1
  Rb  Rb6  1  0.013667  0.250000  0.574953  1
  Rb  Rb7  1  0.513019  0.750000  0.926252  1
  Rb  Rb8  1  0.838664  0.055257  0.279224  1
  Rb  Rb9  1  0.339380  0.950031  0.223743  1
  Rb  Rb10  1  0.161336  0.555257  0.720776  1
  Rb  Rb11  1  0.660620  0.450031  0.776257  1
  Rb  Rb12  1  0.161336  0.944743  0.720776  1
  Rb  Rb13  1  0.660620  0.049969  0.776257  1
  Rb  Rb14  1  0.838664  0.444743  0.279224  1
  Rb  Rb15  1  0.339380  0.549969  0.223743  1
  Ti  Ti16  1  0.741213  0.750000  0.166793  1
  Ti  Ti17  1  0.258787  0.250000  0.833207  1
  Mn  Mn18  1  0.760858  0.750000  0.662091  1
  Mn  Mn19  1  0.239142  0.250000  0.337909  1
  Se  Se20  1  0.983053  0.250000  0.825408  1
  Se  Se21  1  0.507457  0.250000  0.323757  1
  Se  Se22  1  0.492543  0.750000  0.676243  1
  Se  Se23  1  0.016947  0.750000  0.174592  1
  Se  Se24  1  0.656888  0.558862  0.091584  1
  Se  Se25  1  0.151630  0.436836  0.409959  1
  Se  Se26  1  0.343112  0.058862  0.908416  1
  Se  Se27  1  0.848370  0.936836  0.590041  1
  Se  Se28  1  0.343112  0.441138  0.908416  1
  Se  Se29  1  0.848370  0.563164  0.590041  1
  Se  Se30  1  0.656888  0.941138  0.091584  1
  Se  Se31  1  0.151630  0.063164  0.409959  1
  Se  Se32  1  0.631768  0.750000  0.312595  1
  Se  Se33  1  0.138749  0.250000  0.195432  1
  Se  Se34  1  0.368232  0.250000  0.687405  1
  Se  Se35  1  0.861251  0.750000  0.804568  1
