# generated using pymatgen
data_Yb11Ho(TmSn2)8
_symmetry_space_group_name_H-M   'P 1'
_cell_length_a   7.78962795
_cell_length_b   8.39777989
_cell_length_c   15.88725102
_cell_angle_alpha   90.02437506
_cell_angle_beta   90.03525349
_cell_angle_gamma   89.92854739
_symmetry_Int_Tables_number   1
_chemical_formula_structural   Yb11Ho(TmSn2)8
_chemical_formula_sum   'Yb11 Ho1 Tm8 Sn16'
_cell_volume   1039.27265586
_cell_formula_units_Z   1
loop_
 _symmetry_equiv_pos_site_id
 _symmetry_equiv_pos_as_xyz
  1  'x, y, z'
loop_
 _atom_site_type_symbol
 _atom_site_label
 _atom_site_symmetry_multiplicity
 _atom_site_fract_x
 _atom_site_fract_y
 _atom_site_fract_z
 _atom_site_occupancy
  Yb  Yb0  1  0.503027  0.686655  0.593801  1
  Yb  Yb1  1  0.002358  0.814960  0.908466  1
  Yb  Yb2  1  0.494988  0.312305  0.091683  1
  Yb  Yb3  1  0.997410  0.187615  0.407572  1
  Yb  Yb4  1  0.495852  0.312240  0.408027  1
  Yb  Yb5  1  0.996486  0.187362  0.091740  1
  Yb  Yb6  1  0.502605  0.686946  0.907041  1
  Yb  Yb7  1  0.003501  0.814643  0.592185  1
  Yb  Yb8  1  0.335105  0.989044  0.750239  1
  Yb  Yb9  1  0.164336  0.488514  0.249448  1
  Yb  Yb10  1  0.664948  0.010552  0.250026  1
  Ho  Ho11  1  0.175699  0.334585  0.622669  1
  Tm  Tm12  1  0.673870  0.163641  0.622889  1
  Tm  Tm13  1  0.173995  0.334634  0.877618  1
  Tm  Tm14  1  0.326440  0.833950  0.121645  1
  Tm  Tm15  1  0.826875  0.664520  0.377687  1
  Tm  Tm16  1  0.327058  0.834356  0.377471  1
  Tm  Tm17  1  0.826370  0.664524  0.121299  1
  Tm  Tm18  1  0.673423  0.163225  0.878067  1
  Tm  Tm19  1  0.837542  0.509125  0.749833  1
  Sn  Sn20  1  0.674956  0.962459  0.459434  1
  Sn  Sn21  1  0.171787  0.536712  0.040137  1
  Sn  Sn22  1  0.327265  0.037644  0.959479  1
  Sn  Sn23  1  0.826232  0.465275  0.543541  1
  Sn  Sn24  1  0.330983  0.036476  0.540367  1
  Sn  Sn25  1  0.826853  0.465400  0.955948  1
  Sn  Sn26  1  0.672578  0.963105  0.040765  1
  Sn  Sn27  1  0.171494  0.537111  0.458845  1
  Sn  Sn28  1  0.475659  0.377207  0.751671  1
  Sn  Sn29  1  0.970308  0.132958  0.750573  1
  Sn  Sn30  1  0.528249  0.628454  0.249513  1
  Sn  Sn31  1  0.028313  0.870805  0.249150  1
  Sn  Sn32  1  0.720126  0.864114  0.750722  1
  Sn  Sn33  1  0.209760  0.630001  0.751326  1
  Sn  Sn34  1  0.282167  0.126101  0.249621  1
  Sn  Sn35  1  0.781383  0.372784  0.249505  1
