# generated using pymatgen
data_Ho3Mg2CdGe2Au
_symmetry_space_group_name_H-M   'P 1'
_cell_length_a   7.22411640
_cell_length_b   7.22411536
_cell_length_c   4.33930100
_cell_angle_alpha   90.00000000
_cell_angle_beta   90.00000000
_cell_angle_gamma   119.49054026
_symmetry_Int_Tables_number   1
_chemical_formula_structural   Ho3Mg2CdGe2Au
_chemical_formula_sum   'Ho3 Mg2 Cd1 Ge2 Au1'
_cell_volume   197.11810688
_cell_formula_units_Z   1
loop_
 _symmetry_equiv_pos_site_id
 _symmetry_equiv_pos_as_xyz
  1  'x, y, z'
loop_
 _atom_site_type_symbol
 _atom_site_label
 _atom_site_symmetry_multiplicity
 _atom_site_fract_x
 _atom_site_fract_y
 _atom_site_fract_z
 _atom_site_occupancy
  Ho  Ho0  1  0.583634  0.997990  0.000000  1
  Ho  Ho1  1  0.997990  0.583634  0.000000  1
  Ho  Ho2  1  0.419577  0.419577  0.000000  1
  Mg  Mg3  1  0.242081  0.999472  0.500000  1
  Mg  Mg4  1  0.999472  0.242081  0.500000  1
  Cd  Cd5  1  0.751034  0.751034  0.500000  1
  Ge  Ge6  1  0.326531  0.665315  0.500000  1
  Ge  Ge7  1  0.665315  0.326531  0.500000  1
  Au  Au8  1  0.014366  0.014366  0.000000  1
