# generated using pymatgen
data_TbDy3OsRu7
_symmetry_space_group_name_H-M   'P 1'
_cell_length_a   5.34970114
_cell_length_b   5.21000546
_cell_length_c   8.98425703
_cell_angle_alpha   89.99413392
_cell_angle_beta   89.99747254
_cell_angle_gamma   120.40597676
_symmetry_Int_Tables_number   1
_chemical_formula_structural   TbDy3OsRu7
_chemical_formula_sum   'Tb1 Dy3 Os1 Ru7'
_cell_volume   215.96793067
_cell_formula_units_Z   1
loop_
 _symmetry_equiv_pos_site_id
 _symmetry_equiv_pos_as_xyz
  1  'x, y, z'
loop_
 _atom_site_type_symbol
 _atom_site_label
 _atom_site_symmetry_multiplicity
 _atom_site_fract_x
 _atom_site_fract_y
 _atom_site_fract_z
 _atom_site_occupancy
  Tb  Tb0  1  0.669248  0.336524  0.566009  1
  Dy  Dy1  1  0.332792  0.667018  0.432326  1
  Dy  Dy2  1  0.332773  0.667018  0.067519  1
  Dy  Dy3  1  0.669353  0.336727  0.933925  1
  Os  Os4  1  0.163778  0.327533  0.750427  1
  Ru  Ru5  1  0.004940  0.008713  0.499741  1
  Ru  Ru6  1  0.004809  0.008573  0.000213  1
  Ru  Ru7  1  0.168799  0.822005  0.750476  1
  Ru  Ru8  1  0.649438  0.819918  0.750355  1
  Ru  Ru9  1  0.831113  0.662143  0.249637  1
  Ru  Ru10  1  0.828801  0.170478  0.249661  1
  Ru  Ru11  1  0.344154  0.173351  0.249710  1
