# generated using pymatgen
data_La3(AlPt)4
_symmetry_space_group_name_H-M   'P 1'
_cell_length_a   8.40280652
_cell_length_b   8.40280679
_cell_length_c   8.40280642
_cell_angle_alpha   150.61999952
_cell_angle_beta   127.60701555
_cell_angle_gamma   61.20825666
_symmetry_Int_Tables_number   1
_chemical_formula_structural   La3(AlPt)4
_chemical_formula_sum   'La3 Al4 Pt4'
_cell_volume   228.66549900
_cell_formula_units_Z   1
loop_
 _symmetry_equiv_pos_site_id
 _symmetry_equiv_pos_as_xyz
  1  'x, y, z'
loop_
 _atom_site_type_symbol
 _atom_site_label
 _atom_site_symmetry_multiplicity
 _atom_site_fract_x
 _atom_site_fract_y
 _atom_site_fract_z
 _atom_site_occupancy
  La  La0  1  0.500000  0.000000  0.500000  1
  La  La1  1  0.878868  0.878868  0.000000  1
  La  La2  1  0.121132  0.121132  0.000000  1
  Al  Al3  1  0.486366  0.678374  0.807992  1
  Al  Al4  1  0.870381  0.678374  0.192008  1
  Al  Al5  1  0.129619  0.321626  0.807992  1
  Al  Al6  1  0.513634  0.321626  0.192008  1
  Pt  Pt7  1  0.281283  0.781283  0.500000  1
  Pt  Pt8  1  0.718717  0.218717  0.500000  1
  Pt  Pt9  1  0.787869  0.500000  0.287869  1
  Pt  Pt10  1  0.212131  0.500000  0.712131  1
