# generated using pymatgen
data_NaAsPRu2
_symmetry_space_group_name_H-M   'P 1'
_cell_length_a   4.10416486
_cell_length_b   4.10416523
_cell_length_c   5.88646591
_cell_angle_alpha   69.59766073
_cell_angle_beta   69.59767206
_cell_angle_gamma   89.99999187
_symmetry_Int_Tables_number   1
_chemical_formula_structural   NaAsPRu2
_chemical_formula_sum   'Na1 As1 P1 Ru2'
_cell_volume   86.26517949
_cell_formula_units_Z   1
loop_
 _symmetry_equiv_pos_site_id
 _symmetry_equiv_pos_as_xyz
  1  'x, y, z'
loop_
 _atom_site_type_symbol
 _atom_site_label
 _atom_site_symmetry_multiplicity
 _atom_site_fract_x
 _atom_site_fract_y
 _atom_site_fract_z
 _atom_site_occupancy
  Na  Na0  1  0.000986  0.000986  0.998029  1
  As  As1  1  0.372787  0.372787  0.254426  1
  P  P2  1  0.638710  0.638710  0.722580  1
  Ru  Ru3  1  0.243758  0.743759  0.512482  1
  Ru  Ru4  1  0.743759  0.243758  0.512482  1
