# generated using pymatgen
data_Rb2Ho4Cu4S9
_symmetry_space_group_name_H-M   'P 1'
_cell_length_a   3.96573281
_cell_length_b   7.21606086
_cell_length_c   15.26347486
_cell_angle_alpha   93.99084255
_cell_angle_beta   97.46435482
_cell_angle_gamma   105.94921904
_symmetry_Int_Tables_number   1
_chemical_formula_structural   Rb2Ho4Cu4S9
_chemical_formula_sum   'Rb2 Ho4 Cu4 S9'
_cell_volume   413.87369714
_cell_formula_units_Z   1
loop_
 _symmetry_equiv_pos_site_id
 _symmetry_equiv_pos_as_xyz
  1  'x, y, z'
loop_
 _atom_site_type_symbol
 _atom_site_label
 _atom_site_symmetry_multiplicity
 _atom_site_fract_x
 _atom_site_fract_y
 _atom_site_fract_z
 _atom_site_occupancy
  Rb  Rb0  1  0.258106  0.286626  0.229585  1
  Rb  Rb1  1  0.741894  0.713374  0.770415  1
  Ho  Ho2  1  0.400339  0.746144  0.054534  1
  Ho  Ho3  1  0.628593  0.860754  0.396431  1
  Ho  Ho4  1  0.371408  0.139247  0.603569  1
  Ho  Ho5  1  0.599661  0.253855  0.945466  1
  Cu  Cu6  1  0.982062  0.734267  0.229860  1
  Cu  Cu7  1  0.891303  0.321432  0.461178  1
  Cu  Cu8  1  0.108697  0.678568  0.538822  1
  Cu  Cu9  1  0.017939  0.265734  0.770140  1
  S  S10  1  0.000000  0.000000  0.000000  1
  S  S11  1  0.805101  0.510286  0.099918  1
  S  S12  1  0.566576  0.910283  0.222871  1
  S  S13  1  0.984539  0.593224  0.375857  1
  S  S14  1  0.284849  0.144400  0.425297  1
  S  S15  1  0.715151  0.855599  0.574703  1
  S  S16  1  0.015462  0.406777  0.624143  1
  S  S17  1  0.433424  0.089717  0.777129  1
  S  S18  1  0.194899  0.489713  0.900082  1
