# generated using pymatgen
data_Ho16In4Co2IrRu
_symmetry_space_group_name_H-M   'P 1'
_cell_length_a   9.54912579
_cell_length_b   9.54979471
_cell_length_c   9.55712804
_cell_angle_alpha   60.02537859
_cell_angle_beta   60.07626368
_cell_angle_gamma   59.99768215
_symmetry_Int_Tables_number   1
_chemical_formula_structural   Ho16In4Co2IrRu
_chemical_formula_sum   'Ho16 In4 Co2 Ir1 Ru1'
_cell_volume   616.73052822
_cell_formula_units_Z   1
loop_
 _symmetry_equiv_pos_site_id
 _symmetry_equiv_pos_as_xyz
  1  'x, y, z'
loop_
 _atom_site_type_symbol
 _atom_site_label
 _atom_site_symmetry_multiplicity
 _atom_site_fract_x
 _atom_site_fract_y
 _atom_site_fract_z
 _atom_site_occupancy
  Ho  Ho0  1  0.438181  0.441820  0.060288  1
  Ho  Ho1  1  0.655379  0.651801  0.041019  1
  Ho  Ho2  1  0.192430  0.809286  0.188997  1
  Ho  Ho3  1  0.061664  0.438089  0.062160  1
  Ho  Ho4  1  0.187993  0.809404  0.810237  1
  Ho  Ho5  1  0.060277  0.440591  0.438809  1
  Ho  Ho6  1  0.810330  0.194381  0.186353  1
  Ho  Ho7  1  0.653020  0.648511  0.654577  1
  Ho  Ho8  1  0.811526  0.188656  0.811163  1
  Ho  Ho9  1  0.187993  0.192365  0.810237  1
  Ho  Ho10  1  0.041754  0.650993  0.656261  1
  Ho  Ho11  1  0.438181  0.059712  0.060288  1
  Ho  Ho12  1  0.060277  0.060324  0.438809  1
  Ho  Ho13  1  0.653020  0.043892  0.654577  1
  Ho  Ho14  1  0.810330  0.808937  0.186353  1
  Ho  Ho15  1  0.440354  0.058693  0.442261  1
  In  In16  1  0.416975  0.418788  0.416903  1
  In  In17  1  0.415859  0.417935  0.748272  1
  In  In18  1  0.416975  0.747336  0.416903  1
  In  In19  1  0.746636  0.418092  0.417181  1
  Co  Co20  1  0.859904  0.860181  0.859235  1
  Co  Co21  1  0.859904  0.420680  0.859235  1
  Ir  Ir22  1  0.858855  0.859700  0.421745  1
  Ru  Ru23  1  0.422185  0.859835  0.858144  1
