# generated using pymatgen
data_LaNd2In3HgIr2
_symmetry_space_group_name_H-M   'P 1'
_cell_length_a   7.91800224
_cell_length_b   7.91751899
_cell_length_c   4.05485300
_cell_angle_alpha   90.00000000
_cell_angle_beta   90.00000000
_cell_angle_gamma   120.03006447
_symmetry_Int_Tables_number   1
_chemical_formula_structural   LaNd2In3HgIr2
_chemical_formula_sum   'La1 Nd2 In3 Hg1 Ir2'
_cell_volume   220.07911507
_cell_formula_units_Z   1
loop_
 _symmetry_equiv_pos_site_id
 _symmetry_equiv_pos_as_xyz
  1  'x, y, z'
loop_
 _atom_site_type_symbol
 _atom_site_label
 _atom_site_symmetry_multiplicity
 _atom_site_fract_x
 _atom_site_fract_y
 _atom_site_fract_z
 _atom_site_occupancy
  La  La0  1  0.390139  0.419080  0.500000  1
  Nd  Nd1  1  0.583237  0.972268  0.500000  1
  Nd  Nd2  1  0.026280  0.610846  0.500000  1
  In  In3  1  0.753501  0.755345  0.000000  1
  In  In4  1  0.246524  0.995769  0.000000  1
  In  In5  1  0.997959  0.247839  0.000000  1
  Hg  Hg6  1  0.668576  0.332919  0.000000  1
  Ir  Ir7  1  0.999990  0.000087  0.500000  1
  Ir  Ir8  1  0.333794  0.665847  0.000000  1
