# generated using pymatgen
data_Er2Tm8Zn3Bi2Au
_symmetry_space_group_name_H-M   'P 1'
_cell_length_a   8.58122528
_cell_length_b   8.58234424
_cell_length_c   8.57797467
_cell_angle_alpha   124.09947599
_cell_angle_beta   124.09550626
_cell_angle_gamma   83.06706217
_symmetry_Int_Tables_number   1
_chemical_formula_structural   Er2Tm8Zn3Bi2Au
_chemical_formula_sum   'Er2 Tm8 Zn3 Bi2 Au1'
_cell_volume   415.58356127
_cell_formula_units_Z   1
loop_
 _symmetry_equiv_pos_site_id
 _symmetry_equiv_pos_as_xyz
  1  'x, y, z'
loop_
 _atom_site_type_symbol
 _atom_site_label
 _atom_site_symmetry_multiplicity
 _atom_site_fract_x
 _atom_site_fract_y
 _atom_site_fract_z
 _atom_site_occupancy
  Er  Er0  1  0.988837  0.794596  0.500000  1
  Er  Er1  1  0.294968  0.488595  0.500000  1
  Tm  Tm2  1  0.499479  0.499254  0.998986  1
  Tm  Tm3  1  0.000493  0.000268  0.001014  1
  Tm  Tm4  1  0.510061  0.011457  0.805063  1
  Tm  Tm5  1  0.204996  0.706393  0.194937  1
  Tm  Tm6  1  0.011572  0.205630  0.500000  1
  Tm  Tm7  1  0.706093  0.511128  0.500000  1
  Tm  Tm8  1  0.488737  0.990080  0.195072  1
  Tm  Tm9  1  0.793667  0.295011  0.804928  1
  Zn  Zn10  1  0.137772  0.639509  0.777689  1
  Zn  Zn11  1  0.860082  0.361819  0.222311  1
  Zn  Zn12  1  0.639693  0.860121  0.500000  1
  Bi  Bi13  1  0.249331  0.250669  0.000007  1
  Bi  Bi14  1  0.749324  0.750662  0.999993  1
  Au  Au15  1  0.364896  0.134809  0.500000  1
