# generated using pymatgen
data_Tb7S8
_symmetry_space_group_name_H-M   'P 1'
_cell_length_a   7.83715300
_cell_length_b   7.83715348
_cell_length_c   7.83715300
_cell_angle_alpha   120.00000220
_cell_angle_beta   90.00000000
_cell_angle_gamma   120.00000220
_symmetry_Int_Tables_number   1
_chemical_formula_structural   Tb7S8
_chemical_formula_sum   'Tb7 S8'
_cell_volume   340.37681931
_cell_formula_units_Z   1
loop_
 _symmetry_equiv_pos_site_id
 _symmetry_equiv_pos_as_xyz
  1  'x, y, z'
loop_
 _atom_site_type_symbol
 _atom_site_label
 _atom_site_symmetry_multiplicity
 _atom_site_fract_x
 _atom_site_fract_y
 _atom_site_fract_z
 _atom_site_occupancy
  Tb  Tb0  1  0.249984  0.000000  0.249984  1
  Tb  Tb1  1  0.249984  0.499967  0.249984  1
  Tb  Tb2  1  0.750016  0.000000  0.249985  1
  Tb  Tb3  1  0.250001  0.500001  0.750002  1
  Tb  Tb4  1  0.249985  0.000000  0.750016  1
  Tb  Tb5  1  0.750016  0.000000  0.750016  1
  Tb  Tb6  1  0.750016  0.500032  0.750016  1
  S  S7  1  0.000000  0.000000  0.000000  1
  S  S8  1  0.500000  0.000000  0.500000  1
  S  S9  1  0.999336  0.998673  0.499338  1
  S  S10  1  0.999336  0.500001  0.499338  1
  S  S11  1  0.500665  0.500001  0.499338  1
  S  S12  1  0.999338  0.500001  0.000664  1
  S  S13  1  0.500663  0.500001  0.000664  1
  S  S14  1  0.500663  0.001326  0.000664  1
