# generated using pymatgen
data_Nd2Ho8Cd3In5Pd4
_symmetry_space_group_name_H-M   'P 1'
_cell_length_a   3.62008300
_cell_length_b   8.12639046
_cell_length_c   18.50050198
_cell_angle_alpha   90.04578925
_cell_angle_beta   90.00000000
_cell_angle_gamma   90.00000000
_symmetry_Int_Tables_number   1
_chemical_formula_structural   Nd2Ho8Cd3In5Pd4
_chemical_formula_sum   'Nd2 Ho8 Cd3 In5 Pd4'
_cell_volume   544.25144078
_cell_formula_units_Z   1
loop_
 _symmetry_equiv_pos_site_id
 _symmetry_equiv_pos_as_xyz
  1  'x, y, z'
loop_
 _atom_site_type_symbol
 _atom_site_label
 _atom_site_symmetry_multiplicity
 _atom_site_fract_x
 _atom_site_fract_y
 _atom_site_fract_z
 _atom_site_occupancy
  Nd  Nd0  1  0.000000  0.499131  0.499655  1
  Nd  Nd1  1  0.000000  0.999329  0.999960  1
  Ho  Ho2  1  0.000000  0.742636  0.281954  1
  Ho  Ho3  1  0.000000  0.260104  0.719210  1
  Ho  Ho4  1  0.000000  0.756972  0.781314  1
  Ho  Ho5  1  0.000000  0.242485  0.218703  1
  Ho  Ho6  1  0.000000  0.615057  0.085268  1
  Ho  Ho7  1  0.000000  0.385408  0.915693  1
  Ho  Ho8  1  0.000000  0.881370  0.584865  1
  Ho  Ho9  1  0.000000  0.115784  0.414796  1
  Cd  Cd10  1  0.500000  0.705263  0.930193  1
  Cd  Cd11  1  0.500000  0.295131  0.069596  1
  Cd  Cd12  1  0.500000  0.795433  0.430629  1
  In  In13  1  0.500000  0.202094  0.568738  1
  In  In14  1  0.500000  0.579754  0.651395  1
  In  In15  1  0.500000  0.423808  0.348488  1
  In  In16  1  0.500000  0.923192  0.151398  1
  In  In17  1  0.500000  0.076549  0.848688  1
  Pd  Pd18  1  0.500000  0.524858  0.196835  1
  Pd  Pd19  1  0.500000  0.474516  0.803164  1
  Pd  Pd20  1  0.500000  0.975244  0.696478  1
  Pd  Pd21  1  0.500000  0.025883  0.302977  1
