# generated using pymatgen
data_Lu12In2Fe2Ru
_symmetry_space_group_name_H-M   'P 1'
_cell_length_a   8.19735211
_cell_length_b   8.19735249
_cell_length_c   8.19735253
_cell_angle_alpha   108.56412015
_cell_angle_beta   108.56412484
_cell_angle_gamma   111.30105571
_symmetry_Int_Tables_number   1
_chemical_formula_structural   Lu12In2Fe2Ru
_chemical_formula_sum   'Lu12 In2 Fe2 Ru1'
_cell_volume   423.70677029
_cell_formula_units_Z   1
loop_
 _symmetry_equiv_pos_site_id
 _symmetry_equiv_pos_as_xyz
  1  'x, y, z'
loop_
 _atom_site_type_symbol
 _atom_site_label
 _atom_site_symmetry_multiplicity
 _atom_site_fract_x
 _atom_site_fract_y
 _atom_site_fract_z
 _atom_site_occupancy
  Lu  Lu0  1  0.307850  0.307850  0.615700  1
  Lu  Lu1  1  0.692150  0.692150  0.384300  1
  Lu  Lu2  1  0.692150  0.307850  0.000000  1
  Lu  Lu3  1  0.307850  0.692150  0.000000  1
  Lu  Lu4  1  0.192887  0.430461  0.237573  1
  Lu  Lu5  1  0.807113  0.569539  0.762427  1
  Lu  Lu6  1  0.192887  0.955313  0.762427  1
  Lu  Lu7  1  0.955313  0.192887  0.762427  1
  Lu  Lu8  1  0.807113  0.044687  0.237573  1
  Lu  Lu9  1  0.044687  0.807113  0.237573  1
  Lu  Lu10  1  0.430461  0.192887  0.237573  1
  Lu  Lu11  1  0.569539  0.807113  0.762427  1
  In  In12  1  0.000000  0.500000  0.500000  1
  In  In13  1  0.500000  0.000000  0.500000  1
  Fe  Fe14  1  0.383435  0.383435  0.000000  1
  Fe  Fe15  1  0.616565  0.616565  0.000000  1
  Ru  Ru16  1  0.000000  0.000000  0.000000  1
