# generated using pymatgen
data_Zn11FeCu2
_symmetry_space_group_name_H-M   'P 1'
_cell_length_a   6.51609669
_cell_length_b   6.51609694
_cell_length_c   5.03641913
_cell_angle_alpha   80.54590099
_cell_angle_beta   80.54590111
_cell_angle_gamma   70.37981791
_symmetry_Int_Tables_number   1
_chemical_formula_structural   Zn11FeCu2
_chemical_formula_sum   'Zn11 Fe1 Cu2'
_cell_volume   197.31755045
_cell_formula_units_Z   1
loop_
 _symmetry_equiv_pos_site_id
 _symmetry_equiv_pos_as_xyz
  1  'x, y, z'
loop_
 _atom_site_type_symbol
 _atom_site_label
 _atom_site_symmetry_multiplicity
 _atom_site_fract_x
 _atom_site_fract_y
 _atom_site_fract_z
 _atom_site_occupancy
  Zn  Zn0  1  0.000000  0.000000  0.000000  1
  Zn  Zn1  1  0.774204  0.774204  0.370754  1
  Zn  Zn2  1  0.225796  0.225796  0.629246  1
  Zn  Zn3  1  0.227003  0.630164  0.307894  1
  Zn  Zn4  1  0.369836  0.772997  0.692106  1
  Zn  Zn5  1  0.772997  0.369836  0.692106  1
  Zn  Zn6  1  0.630164  0.227003  0.307894  1
  Zn  Zn7  1  0.004628  0.642688  0.800324  1
  Zn  Zn8  1  0.357312  0.995372  0.199676  1
  Zn  Zn9  1  0.995372  0.357312  0.199676  1
  Zn  Zn10  1  0.642688  0.004628  0.800324  1
  Fe  Fe11  1  0.000000  0.000000  0.500000  1
  Cu  Cu12  1  0.384324  0.384324  0.941053  1
  Cu  Cu13  1  0.615676  0.615676  0.058947  1
