# generated using pymatgen
data_Tb4Yb3Lu(Si3Pd)4
_symmetry_space_group_name_H-M   'P 1'
_cell_length_a   8.21750200
_cell_length_b   8.22213092
_cell_length_c   8.03817800
_cell_angle_alpha   90.00000000
_cell_angle_beta   90.00000000
_cell_angle_gamma   119.98137843
_symmetry_Int_Tables_number   1
_chemical_formula_structural   Tb4Yb3Lu(Si3Pd)4
_chemical_formula_sum   'Tb4 Yb3 Lu1 Si12 Pd4'
_cell_volume   470.42881845
_cell_formula_units_Z   1
loop_
 _symmetry_equiv_pos_site_id
 _symmetry_equiv_pos_as_xyz
  1  'x, y, z'
loop_
 _atom_site_type_symbol
 _atom_site_label
 _atom_site_symmetry_multiplicity
 _atom_site_fract_x
 _atom_site_fract_y
 _atom_site_fract_z
 _atom_site_occupancy
  Tb  Tb0  1  0.987248  0.493421  0.250000  1
  Tb  Tb1  1  0.506174  0.493421  0.250000  1
  Tb  Tb2  1  0.000050  0.000100  0.250000  1
  Tb  Tb3  1  0.000329  0.000659  0.750000  1
  Yb  Yb4  1  0.493146  0.986294  0.750000  1
  Yb  Yb5  1  0.013513  0.506748  0.750000  1
  Yb  Yb6  1  0.493233  0.506748  0.750000  1
  Lu  Lu7  1  0.505236  0.010470  0.250000  1
  Si  Si8  1  0.165343  0.330686  0.003322  1
  Si  Si9  1  0.835079  0.670158  0.003109  1
  Si  Si10  1  0.670483  0.835455  0.003571  1
  Si  Si11  1  0.835079  0.670158  0.496891  1
  Si  Si12  1  0.329655  0.164446  0.006501  1
  Si  Si13  1  0.165343  0.330686  0.496678  1
  Si  Si14  1  0.164971  0.835455  0.003571  1
  Si  Si15  1  0.329655  0.164446  0.493499  1
  Si  Si16  1  0.834791  0.164446  0.006501  1
  Si  Si17  1  0.670483  0.835455  0.496429  1
  Si  Si18  1  0.834791  0.164446  0.493499  1
  Si  Si19  1  0.164971  0.835455  0.496429  1
  Pd  Pd20  1  0.334344  0.668690  0.029586  1
  Pd  Pd21  1  0.665868  0.331735  0.983483  1
  Pd  Pd22  1  0.665868  0.331735  0.516517  1
  Pd  Pd23  1  0.334344  0.668690  0.470414  1
