# generated using pymatgen
data_Ho12InNi4Pt
_symmetry_space_group_name_H-M   'P 1'
_cell_length_a   8.30950017
_cell_length_b   8.30957395
_cell_length_c   8.30950000
_cell_angle_alpha   111.75340431
_cell_angle_beta   109.81098718
_cell_angle_gamma   106.88569991
_symmetry_Int_Tables_number   1
_chemical_formula_structural   Ho12InNi4Pt
_chemical_formula_sum   'Ho12 In1 Ni4 Pt1'
_cell_volume   440.87708259
_cell_formula_units_Z   1
loop_
 _symmetry_equiv_pos_site_id
 _symmetry_equiv_pos_as_xyz
  1  'x, y, z'
loop_
 _atom_site_type_symbol
 _atom_site_label
 _atom_site_symmetry_multiplicity
 _atom_site_fract_x
 _atom_site_fract_y
 _atom_site_fract_z
 _atom_site_occupancy
  Ho  Ho0  1  0.409937  0.215603  0.194316  1
  Ho  Ho1  1  0.590063  0.784397  0.805684  1
  Ho  Ho2  1  0.021288  0.215603  0.805667  1
  Ho  Ho3  1  0.978712  0.784397  0.194333  1
  Ho  Ho4  1  0.183346  0.295894  0.479227  1
  Ho  Ho5  1  0.816654  0.704106  0.520773  1
  Ho  Ho6  1  0.183334  0.704106  0.887454  1
  Ho  Ho7  1  0.816666  0.295894  0.112546  1
  Ho  Ho8  1  0.322805  0.628828  0.306022  1
  Ho  Ho9  1  0.677195  0.371172  0.693978  1
  Ho  Ho10  1  0.322747  0.016729  0.693981  1
  Ho  Ho11  1  0.677253  0.983271  0.306019  1
  In  In12  1  0.500000  0.500000  0.000000  1
  Ni  Ni13  1  0.364879  0.000000  0.364879  1
  Ni  Ni14  1  0.635121  0.000000  0.635121  1
  Ni  Ni15  1  0.124653  0.624628  0.499975  1
  Ni  Ni16  1  0.875347  0.375372  0.500025  1
  Pt  Pt17  1  0.000000  0.000000  0.000000  1
