# generated using pymatgen
data_KRbSbSO4F3
_symmetry_space_group_name_H-M   'P 1'
_cell_length_a   5.72812000
_cell_length_b   9.29199100
_cell_length_c   14.35654900
_cell_angle_alpha   90.00000000
_cell_angle_beta   90.00000000
_cell_angle_gamma   90.00000000
_symmetry_Int_Tables_number   1
_chemical_formula_structural   KRbSbSO4F3
_chemical_formula_sum   'K4 Rb4 Sb4 S4 O16 F12'
_cell_volume   764.13650135
_cell_formula_units_Z   4
loop_
 _symmetry_equiv_pos_site_id
 _symmetry_equiv_pos_as_xyz
  1  'x, y, z'
loop_
 _atom_site_type_symbol
 _atom_site_label
 _atom_site_symmetry_multiplicity
 _atom_site_fract_x
 _atom_site_fract_y
 _atom_site_fract_z
 _atom_site_occupancy
  K  K0  1  0.004722  0.503721  0.690351  1
  K  K1  1  0.482809  0.683471  0.885231  1
  K  K2  1  0.995278  0.003721  0.809649  1
  K  K3  1  0.517191  0.183471  0.614769  1
  Rb  Rb4  1  0.975881  0.817657  0.113911  1
  Rb  Rb5  1  0.024119  0.317657  0.386089  1
  Rb  Rb6  1  0.494461  0.497018  0.189424  1
  Rb  Rb7  1  0.505539  0.997018  0.310576  1
  Sb  Sb8  1  0.471239  0.057133  0.014657  1
  Sb  Sb9  1  0.970191  0.442099  0.970607  1
  Sb  Sb10  1  0.029809  0.942099  0.529393  1
  Sb  Sb11  1  0.528761  0.557133  0.485343  1
  S  S12  1  0.964008  0.707526  0.349616  1
  S  S13  1  0.525818  0.293247  0.838049  1
  S  S14  1  0.474182  0.793247  0.661951  1
  S  S15  1  0.035992  0.207526  0.150384  1
  O  O16  1  0.358991  0.377251  0.782458  1
  O  O17  1  0.587703  0.651181  0.634818  1
  O  O18  1  0.082341  0.128917  0.059657  1
  O  O19  1  0.917659  0.628917  0.440343  1
  O  O20  1  0.940334  0.355039  0.125516  1
  O  O21  1  0.744360  0.264478  0.786369  1
  O  O22  1  0.641009  0.877251  0.717542  1
  O  O23  1  0.579778  0.372591  0.927807  1
  O  O24  1  0.139876  0.628339  0.295349  1
  O  O25  1  0.420222  0.872591  0.572193  1
  O  O26  1  0.743480  0.724591  0.297092  1
  O  O27  1  0.255640  0.764478  0.713631  1
  O  O28  1  0.412297  0.151181  0.865182  1
  O  O29  1  0.860124  0.128339  0.204651  1
  O  O30  1  0.256520  0.224591  0.202908  1
  O  O31  1  0.059666  0.855039  0.374484  1
  F  F32  1  0.537669  0.405556  0.380749  1
  F  F33  1  0.743486  0.417782  0.545851  1
  F  F34  1  0.714950  0.927207  0.954786  1
  F  F35  1  0.053831  0.090849  0.633660  1
  F  F36  1  0.256514  0.917782  0.954149  1
  F  F37  1  0.784629  0.075578  0.474145  1
  F  F38  1  0.946169  0.590849  0.866340  1
  F  F39  1  0.285050  0.427207  0.545214  1
  F  F40  1  0.244609  0.078770  0.466544  1
  F  F41  1  0.755391  0.578770  0.033456  1
  F  F42  1  0.462331  0.905556  0.119251  1
  F  F43  1  0.215371  0.575578  0.025855  1
