# generated using pymatgen
data_Ba4Te2IrWO16
_symmetry_space_group_name_H-M   'P 1'
_cell_length_a   5.19776638
_cell_length_b   6.01752528
_cell_length_c   13.64156000
_cell_angle_alpha   90.00000000
_cell_angle_beta   90.00000000
_cell_angle_gamma   90.04755029
_symmetry_Int_Tables_number   1
_chemical_formula_structural   Ba4Te2IrWO16
_chemical_formula_sum   'Ba4 Te2 Ir1 W1 O16'
_cell_volume   426.67634601
_cell_formula_units_Z   1
loop_
 _symmetry_equiv_pos_site_id
 _symmetry_equiv_pos_as_xyz
  1  'x, y, z'
loop_
 _atom_site_type_symbol
 _atom_site_label
 _atom_site_symmetry_multiplicity
 _atom_site_fract_x
 _atom_site_fract_y
 _atom_site_fract_z
 _atom_site_occupancy
  Ba  Ba0  1  0.250000  0.000000  0.160144  1
  Ba  Ba1  1  0.750000  0.000000  0.837375  1
  Ba  Ba2  1  0.250000  0.500000  0.657665  1
  Ba  Ba3  1  0.750000  0.500000  0.338299  1
  Te  Te4  1  0.750000  0.000000  0.566064  1
  Te  Te5  1  0.750000  0.500000  0.069477  1
  Ir  Ir6  1  0.250000  0.000000  0.434978  1
  W  W7  1  0.250000  0.500000  0.930117  1
  O  O8  1  0.361870  0.201636  0.339464  1
  O  O9  1  0.859236  0.206814  0.661568  1
  O  O10  1  0.930366  0.174571  0.455918  1
  O  O11  1  0.434054  0.177213  0.541168  1
  O  O12  1  0.439285  0.324510  0.041863  1
  O  O13  1  0.932958  0.326787  0.959373  1
  O  O14  1  0.865024  0.295523  0.164477  1
  O  O15  1  0.342582  0.289775  0.839110  1
  O  O16  1  0.634976  0.704477  0.164477  1
  O  O17  1  0.157418  0.710225  0.839110  1
  O  O18  1  0.060715  0.675490  0.041863  1
  O  O19  1  0.567042  0.673213  0.959373  1
  O  O20  1  0.569634  0.825429  0.455918  1
  O  O21  1  0.065946  0.822787  0.541168  1
  O  O22  1  0.138130  0.798364  0.339464  1
  O  O23  1  0.640764  0.793186  0.661568  1
