# generated using pymatgen
data_Lu8Hf11Si16W
_symmetry_space_group_name_H-M   'P 1'
_cell_length_a   7.18940559
_cell_length_b   7.18940610
_cell_length_c   13.18530203
_cell_angle_alpha   89.94337936
_cell_angle_beta   90.05662286
_cell_angle_gamma   90.10193493
_symmetry_Int_Tables_number   1
_chemical_formula_structural   Lu8Hf11Si16W
_chemical_formula_sum   'Lu8 Hf11 Si16 W1'
_cell_volume   681.51429932
_cell_formula_units_Z   1
loop_
 _symmetry_equiv_pos_site_id
 _symmetry_equiv_pos_as_xyz
  1  'x, y, z'
loop_
 _atom_site_type_symbol
 _atom_site_label
 _atom_site_symmetry_multiplicity
 _atom_site_fract_x
 _atom_site_fract_y
 _atom_site_fract_z
 _atom_site_occupancy
  Lu  Lu0  1  0.998287  0.343863  0.212763  1
  Lu  Lu1  1  0.004287  0.656421  0.717124  1
  Lu  Lu2  1  0.155981  0.495683  0.465321  1
  Lu  Lu3  1  0.501664  0.845873  0.034036  1
  Lu  Lu4  1  0.845873  0.501664  0.965964  1
  Lu  Lu5  1  0.495683  0.155981  0.534679  1
  Lu  Lu6  1  0.343863  0.998287  0.787237  1
  Lu  Lu7  1  0.656421  0.004287  0.282876  1
  Hf  Hf8  1  0.825612  0.825612  0.500000  1
  Hf  Hf9  1  0.324654  0.674672  0.248618  1
  Hf  Hf10  1  0.674672  0.324654  0.751382  1
  Hf  Hf11  1  0.146764  0.997934  0.373514  1
  Hf  Hf12  1  0.854039  0.004113  0.877685  1
  Hf  Hf13  1  0.502961  0.647479  0.625047  1
  Hf  Hf14  1  0.350199  0.494685  0.876850  1
  Hf  Hf15  1  0.494685  0.350199  0.123150  1
  Hf  Hf16  1  0.647479  0.502961  0.374953  1
  Hf  Hf17  1  0.997934  0.146764  0.626486  1
  Hf  Hf18  1  0.004113  0.854039  0.122315  1
  Si  Si19  1  0.359525  0.295229  0.317301  1
  Si  Si20  1  0.640238  0.704601  0.819085  1
  Si  Si21  1  0.204951  0.859942  0.568266  1
  Si  Si22  1  0.141079  0.797277  0.932088  1
  Si  Si23  1  0.797277  0.141079  0.067912  1
  Si  Si24  1  0.859942  0.204951  0.431734  1
  Si  Si25  1  0.295229  0.359525  0.682699  1
  Si  Si26  1  0.704601  0.640238  0.180915  1
  Si  Si27  1  0.296995  0.050254  0.182048  1
  Si  Si28  1  0.701005  0.952345  0.686206  1
  Si  Si29  1  0.451328  0.798854  0.434787  1
  Si  Si30  1  0.200533  0.545229  0.064124  1
  Si  Si31  1  0.545229  0.200533  0.935876  1
  Si  Si32  1  0.798854  0.451328  0.565213  1
  Si  Si33  1  0.050254  0.296995  0.817952  1
  Si  Si34  1  0.952345  0.701005  0.313794  1
  W  W35  1  0.175441  0.175441  0.000000  1
