# generated using pymatgen
data_Rb4(PdO2)3
_symmetry_space_group_name_H-M   'P 1'
_cell_length_a   6.08626542
_cell_length_b   6.08626545
_cell_length_c   8.34887800
_cell_angle_alpha   88.84648765
_cell_angle_beta   88.84647823
_cell_angle_gamma   67.04115214
_symmetry_Int_Tables_number   1
_chemical_formula_structural   Rb4(PdO2)3
_chemical_formula_sum   'Rb4 Pd3 O6'
_cell_volume   284.68304047
_cell_formula_units_Z   1
loop_
 _symmetry_equiv_pos_site_id
 _symmetry_equiv_pos_as_xyz
  1  'x, y, z'
loop_
 _atom_site_type_symbol
 _atom_site_label
 _atom_site_symmetry_multiplicity
 _atom_site_fract_x
 _atom_site_fract_y
 _atom_site_fract_z
 _atom_site_occupancy
  Rb  Rb0  1  0.671917  0.671917  0.624771  1
  Rb  Rb1  1  0.328083  0.328083  0.375229  1
  Rb  Rb2  1  0.652457  0.652457  0.106721  1
  Rb  Rb3  1  0.347543  0.347543  0.893279  1
  Pd  Pd4  1  0.000000  0.000000  0.000000  1
  Pd  Pd5  1  0.958670  0.958670  0.325167  1
  Pd  Pd6  1  0.041330  0.041330  0.674833  1
  O  O7  1  0.114231  0.714895  0.152452  1
  O  O8  1  0.714895  0.114231  0.152452  1
  O  O9  1  0.885769  0.285105  0.847548  1
  O  O10  1  0.285105  0.885769  0.847548  1
  O  O11  1  0.196735  0.803265  0.500000  1
  O  O12  1  0.803265  0.196735  0.500000  1
