# generated using pymatgen
data_RbNd(ZnSb)2
_symmetry_space_group_name_H-M   'P 1'
_cell_length_a   4.57321800
_cell_length_b   4.57321766
_cell_length_c   19.76434400
_cell_angle_alpha   90.00000000
_cell_angle_beta   90.00000000
_cell_angle_gamma   120.00001690
_symmetry_Int_Tables_number   1
_chemical_formula_structural   RbNd(ZnSb)2
_chemical_formula_sum   'Rb2 Nd2 Zn4 Sb4'
_cell_volume   357.97833064
_cell_formula_units_Z   2
loop_
 _symmetry_equiv_pos_site_id
 _symmetry_equiv_pos_as_xyz
  1  'x, y, z'
loop_
 _atom_site_type_symbol
 _atom_site_label
 _atom_site_symmetry_multiplicity
 _atom_site_fract_x
 _atom_site_fract_y
 _atom_site_fract_z
 _atom_site_occupancy
  Rb  Rb0  1  0.000000  0.000000  0.500000  1
  Rb  Rb1  1  0.000000  0.000000  0.000000  1
  Nd  Nd2  1  0.000000  0.000000  0.250000  1
  Nd  Nd3  1  0.000000  0.000000  0.750000  1
  Zn  Zn4  1  0.666667  0.333333  0.323141  1
  Zn  Zn5  1  0.333333  0.666667  0.676859  1
  Zn  Zn6  1  0.333333  0.666667  0.823141  1
  Zn  Zn7  1  0.666667  0.333333  0.176859  1
  Sb  Sb8  1  0.333333  0.666667  0.364696  1
  Sb  Sb9  1  0.666667  0.333333  0.635304  1
  Sb  Sb10  1  0.666667  0.333333  0.864696  1
  Sb  Sb11  1  0.333333  0.666667  0.135304  1
