# generated using pymatgen
data_AgSe2I
_symmetry_space_group_name_H-M   'P 1'
_cell_length_a   5.13081000
_cell_length_b   8.73657957
_cell_length_c   13.75333605
_cell_angle_alpha   64.12802536
_cell_angle_beta   90.00000000
_cell_angle_gamma   90.00000000
_symmetry_Int_Tables_number   1
_chemical_formula_structural   AgSe2I
_chemical_formula_sum   'Ag4 Se8 I4'
_cell_volume   554.71201554
_cell_formula_units_Z   4
loop_
 _symmetry_equiv_pos_site_id
 _symmetry_equiv_pos_as_xyz
  1  'x, y, z'
loop_
 _atom_site_type_symbol
 _atom_site_label
 _atom_site_symmetry_multiplicity
 _atom_site_fract_x
 _atom_site_fract_y
 _atom_site_fract_z
 _atom_site_occupancy
  Ag  Ag0  1  0.370412  0.174523  0.759274  1
  Ag  Ag1  1  0.870412  0.825477  0.740726  1
  Ag  Ag2  1  0.629588  0.825477  0.240726  1
  Ag  Ag3  1  0.129588  0.174523  0.259274  1
  Se  Se4  1  0.975004  0.670165  0.161640  1
  Se  Se5  1  0.475004  0.329835  0.338360  1
  Se  Se6  1  0.024996  0.329835  0.838360  1
  Se  Se7  1  0.524996  0.670165  0.661640  1
  Se  Se8  1  0.233687  0.576849  0.822091  1
  Se  Se9  1  0.733687  0.423151  0.677909  1
  Se  Se10  1  0.766313  0.423151  0.177909  1
  Se  Se11  1  0.266313  0.576849  0.322091  1
  I  I12  1  0.372708  0.120289  0.093984  1
  I  I13  1  0.872708  0.879711  0.406016  1
  I  I14  1  0.627292  0.879711  0.906016  1
  I  I15  1  0.127292  0.120289  0.593984  1
