# generated using pymatgen
data_YbPrY5FeI12
_symmetry_space_group_name_H-M   'P 1'
_cell_length_a   9.82520039
_cell_length_b   9.80338305
_cell_length_c   9.85751706
_cell_angle_alpha   106.73233971
_cell_angle_beta   107.29308417
_cell_angle_gamma   106.67232102
_symmetry_Int_Tables_number   1
_chemical_formula_structural   YbPrY5FeI12
_chemical_formula_sum   'Yb1 Pr1 Y5 Fe1 I12'
_cell_volume   792.87563973
_cell_formula_units_Z   1
loop_
 _symmetry_equiv_pos_site_id
 _symmetry_equiv_pos_as_xyz
  1  'x, y, z'
loop_
 _atom_site_type_symbol
 _atom_site_label
 _atom_site_symmetry_multiplicity
 _atom_site_fract_x
 _atom_site_fract_y
 _atom_site_fract_z
 _atom_site_occupancy
  Yb  Yb0  1  0.500436  0.498689  0.499541  1
  Pr  Pr1  1  0.704839  0.976034  0.904167  1
  Y  Y2  1  0.973791  0.902235  0.698775  1
  Y  Y3  1  0.094973  0.286320  0.024547  1
  Y  Y4  1  0.284875  0.024075  0.093184  1
  Y  Y5  1  0.908349  0.713783  0.976500  1
  Y  Y6  1  0.026128  0.097935  0.302128  1
  Fe  Fe7  1  0.997335  0.000429  0.999467  1
  I  I8  1  0.073189  0.223918  0.682468  1
  I  I9  1  0.378562  0.150153  0.454432  1
  I  I10  1  0.620487  0.843021  0.533830  1
  I  I11  1  0.224634  0.685533  0.073271  1
  I  I12  1  0.784754  0.328686  0.930318  1
  I  I13  1  0.684703  0.076508  0.234112  1
  I  I14  1  0.544833  0.612521  0.846807  1
  I  I15  1  0.850443  0.545568  0.623942  1
  I  I16  1  0.928741  0.776769  0.318321  1
  I  I17  1  0.313358  0.926883  0.777134  1
  I  I18  1  0.454228  0.375850  0.150956  1
  I  I19  1  0.151341  0.455090  0.376099  1
