# generated using pymatgen
data_Li3TbY2AgSn4
_symmetry_space_group_name_H-M   'P 1'
_cell_length_a   4.59921775
_cell_length_b   7.19118539
_cell_length_c   8.65266448
_cell_angle_alpha   114.51049256
_cell_angle_beta   105.41265004
_cell_angle_gamma   89.99998997
_symmetry_Int_Tables_number   1
_chemical_formula_structural   Li3TbY2AgSn4
_chemical_formula_sum   'Li3 Tb1 Y2 Ag1 Sn4'
_cell_volume   249.03265931
_cell_formula_units_Z   1
loop_
 _symmetry_equiv_pos_site_id
 _symmetry_equiv_pos_as_xyz
  1  'x, y, z'
loop_
 _atom_site_type_symbol
 _atom_site_label
 _atom_site_symmetry_multiplicity
 _atom_site_fract_x
 _atom_site_fract_y
 _atom_site_fract_z
 _atom_site_occupancy
  Li  Li0  1  0.327105  0.013645  0.654210  1
  Li  Li1  1  0.670857  0.981515  0.341714  1
  Li  Li2  1  0.324912  0.634482  0.649825  1
  Tb  Tb3  1  0.871981  0.375078  0.743960  1
  Y  Y4  1  0.128393  0.629304  0.256785  1
  Y  Y5  1  0.002186  0.002591  0.004374  1
  Ag  Ag6  1  0.674699  0.366591  0.349398  1
  Sn  Sn7  1  0.216064  0.203219  0.432130  1
  Sn  Sn8  1  0.787768  0.795078  0.575535  1
  Sn  Sn9  1  0.497314  0.298748  0.994627  1
  Sn  Sn10  1  0.498721  0.699750  0.997442  1
