# generated using pymatgen
data_Nd12Ir3PtI12
_symmetry_space_group_name_H-M   'P 1'
_cell_length_a   10.88607573
_cell_length_b   10.88607496
_cell_length_c   10.88607497
_cell_angle_alpha   109.65102396
_cell_angle_beta   109.65102536
_cell_angle_gamma   109.65102680
_symmetry_Int_Tables_number   1
_chemical_formula_structural   Nd12Ir3PtI12
_chemical_formula_sum   'Nd12 Ir3 Pt1 I12'
_cell_volume   986.43146357
_cell_formula_units_Z   1
loop_
 _symmetry_equiv_pos_site_id
 _symmetry_equiv_pos_as_xyz
  1  'x, y, z'
loop_
 _atom_site_type_symbol
 _atom_site_label
 _atom_site_symmetry_multiplicity
 _atom_site_fract_x
 _atom_site_fract_y
 _atom_site_fract_z
 _atom_site_occupancy
  Nd  Nd0  1  0.457658  0.481941  0.226147  1
  Nd  Nd1  1  0.750000  0.228155  0.271845  1
  Nd  Nd2  1  0.750000  0.021890  0.478110  1
  Nd  Nd3  1  0.226147  0.457658  0.481941  1
  Nd  Nd4  1  0.271845  0.750000  0.228155  1
  Nd  Nd5  1  0.042342  0.273853  0.018059  1
  Nd  Nd6  1  0.018059  0.042342  0.273853  1
  Nd  Nd7  1  0.478110  0.750000  0.021890  1
  Nd  Nd8  1  0.481941  0.226147  0.457658  1
  Nd  Nd9  1  0.021890  0.478110  0.750000  1
  Nd  Nd10  1  0.273853  0.018059  0.042342  1
  Nd  Nd11  1  0.228155  0.271845  0.750000  1
  Ir  Ir12  1  0.499791  0.000209  0.250000  1
  Ir  Ir13  1  0.000209  0.250000  0.499791  1
  Ir  Ir14  1  0.250000  0.499791  0.000209  1
  Pt  Pt15  1  0.250000  0.250000  0.250000  1
  I  I16  1  0.250000  0.758988  0.741012  1
  I  I17  1  0.517418  0.508498  0.758276  1
  I  I18  1  0.982582  0.741724  0.991502  1
  I  I19  1  0.741012  0.250000  0.758988  1
  I  I20  1  0.991502  0.982582  0.741724  1
  I  I21  1  0.250000  0.991435  0.508565  1
  I  I22  1  0.758276  0.517418  0.508498  1
  I  I23  1  0.508565  0.250000  0.991435  1
  I  I24  1  0.758988  0.741012  0.250000  1
  I  I25  1  0.741724  0.991502  0.982582  1
  I  I26  1  0.991435  0.508565  0.250000  1
  I  I27  1  0.508498  0.758276  0.517418  1
