# generated using pymatgen
data_K4Ba(SiSe3)2
_symmetry_space_group_name_H-M   'P 1'
_cell_length_a   7.65257670
_cell_length_b   7.65257699
_cell_length_c   8.73876100
_cell_angle_alpha   81.41945581
_cell_angle_beta   81.41945629
_cell_angle_gamma   119.64113844
_symmetry_Int_Tables_number   1
_chemical_formula_structural   K4Ba(SiSe3)2
_chemical_formula_sum   'K4 Ba1 Si2 Se6'
_cell_volume   424.74889948
_cell_formula_units_Z   1
loop_
 _symmetry_equiv_pos_site_id
 _symmetry_equiv_pos_as_xyz
  1  'x, y, z'
loop_
 _atom_site_type_symbol
 _atom_site_label
 _atom_site_symmetry_multiplicity
 _atom_site_fract_x
 _atom_site_fract_y
 _atom_site_fract_z
 _atom_site_occupancy
  K  K0  1  0.502483  0.497517  0.000000  1
  K  K1  1  0.823495  0.176505  0.000000  1
  K  K2  1  0.174321  0.825679  0.000000  1
  K  K3  1  0.665772  0.334228  0.500000  1
  Ba  Ba4  1  0.334870  0.665130  0.500000  1
  Si  Si5  1  0.047027  0.047367  0.356827  1
  Si  Si6  1  0.952633  0.952973  0.643173  1
  Se  Se7  1  0.789666  0.796790  0.267825  1
  Se  Se8  1  0.203210  0.210334  0.732175  1
  Se  Se9  1  0.082671  0.367329  0.269087  1
  Se  Se10  1  0.360485  0.069304  0.269540  1
  Se  Se11  1  0.930696  0.639515  0.730460  1
  Se  Se12  1  0.632671  0.917329  0.730913  1
