# generated using pymatgen
data_Ce7Th3(RuPb3)2
_symmetry_space_group_name_H-M   'P 1'
_cell_length_a   9.71115719
_cell_length_b   9.71312518
_cell_length_c   6.40852800
_cell_angle_alpha   90.00000000
_cell_angle_beta   90.00000000
_cell_angle_gamma   119.97051241
_symmetry_Int_Tables_number   1
_chemical_formula_structural   Ce7Th3(RuPb3)2
_chemical_formula_sum   'Ce7 Th3 Ru2 Pb6'
_cell_volume   523.65813647
_cell_formula_units_Z   1
loop_
 _symmetry_equiv_pos_site_id
 _symmetry_equiv_pos_as_xyz
  1  'x, y, z'
loop_
 _atom_site_type_symbol
 _atom_site_label
 _atom_site_symmetry_multiplicity
 _atom_site_fract_x
 _atom_site_fract_y
 _atom_site_fract_z
 _atom_site_occupancy
  Ce  Ce0  1  0.759122  0.000639  0.750000  1
  Ce  Ce1  1  0.332631  0.666656  0.501296  1
  Ce  Ce2  1  0.667027  0.333305  0.500231  1
  Ce  Ce3  1  0.999408  0.239807  0.250000  1
  Ce  Ce4  1  0.000599  0.759653  0.750000  1
  Ce  Ce5  1  0.332631  0.666656  0.998704  1
  Ce  Ce6  1  0.667027  0.333305  0.999769  1
  Th  Th7  1  0.243283  0.243625  0.750000  1
  Th  Th8  1  0.757628  0.757141  0.250000  1
  Th  Th9  1  0.241287  0.998908  0.250000  1
  Ru  Ru10  1  0.998317  0.000029  0.998462  1
  Ru  Ru11  1  0.998317  0.000029  0.501538  1
  Pb  Pb12  1  0.397136  0.398312  0.250000  1
  Pb  Pb13  1  0.604129  0.603976  0.750000  1
  Pb  Pb14  1  0.999533  0.398991  0.750000  1
  Pb  Pb15  1  0.602798  0.000578  0.250000  1
  Pb  Pb16  1  0.398589  0.998946  0.750000  1
  Pb  Pb17  1  0.000537  0.599444  0.250000  1
