# generated using pymatgen
data_Dy5Si3P9Rh19
_symmetry_space_group_name_H-M   'P 1'
_cell_length_a   12.81541900
_cell_length_b   12.81541876
_cell_length_c   3.89275000
_cell_angle_alpha   90.00000000
_cell_angle_beta   90.00000000
_cell_angle_gamma   119.99999288
_symmetry_Int_Tables_number   1
_chemical_formula_structural   Dy5Si3P9Rh19
_chemical_formula_sum   'Dy5 Si3 P9 Rh19'
_cell_volume   553.67228920
_cell_formula_units_Z   1
loop_
 _symmetry_equiv_pos_site_id
 _symmetry_equiv_pos_as_xyz
  1  'x, y, z'
loop_
 _atom_site_type_symbol
 _atom_site_label
 _atom_site_symmetry_multiplicity
 _atom_site_fract_x
 _atom_site_fract_y
 _atom_site_fract_z
 _atom_site_occupancy
  Dy  Dy0  1  0.997743  0.185999  0.500000  1
  Dy  Dy1  1  0.814001  0.811742  0.500000  1
  Dy  Dy2  1  0.188258  0.002257  0.500000  1
  Dy  Dy3  1  0.666667  0.333333  0.000000  1
  Dy  Dy4  1  0.333333  0.666667  0.000000  1
  Si  Si5  1  0.479410  0.321437  0.500000  1
  Si  Si6  1  0.678563  0.157973  0.500000  1
  Si  Si7  1  0.842027  0.520590  0.500000  1
  P  P8  1  0.818307  0.994625  0.000000  1
  P  P9  1  0.176317  0.181693  0.000000  1
  P  P10  1  0.005375  0.823683  0.000000  1
  P  P11  1  0.365140  0.001642  0.000000  1
  P  P12  1  0.516655  0.826536  0.500000  1
  P  P13  1  0.173464  0.690118  0.500000  1
  P  P14  1  0.309882  0.483345  0.500000  1
  P  P15  1  0.998358  0.363497  0.000000  1
  P  P16  1  0.636503  0.634860  0.000000  1
  Rh  Rh17  1  0.808469  0.176004  0.000000  1
  Rh  Rh18  1  0.367535  0.191531  0.000000  1
  Rh  Rh19  1  0.649789  0.517611  0.500000  1
  Rh  Rh20  1  0.867820  0.350211  0.500000  1
  Rh  Rh21  1  0.365190  0.873658  0.500000  1
  Rh  Rh22  1  0.508468  0.634810  0.500000  1
  Rh  Rh23  1  0.126342  0.491532  0.500000  1
  Rh  Rh24  1  0.823996  0.632465  0.000000  1
  Rh  Rh25  1  0.619557  0.815575  0.000000  1
  Rh  Rh26  1  0.184425  0.803982  0.000000  1
  Rh  Rh27  1  0.196018  0.380443  0.000000  1
  Rh  Rh28  1  0.006707  0.723486  0.500000  1
  Rh  Rh29  1  0.276514  0.283221  0.500000  1
  Rh  Rh30  1  0.716779  0.993293  0.500000  1
  Rh  Rh31  1  0.981731  0.536171  0.000000  1
  Rh  Rh32  1  0.463829  0.445560  0.000000  1
  Rh  Rh33  1  0.554440  0.018269  0.000000  1
  Rh  Rh34  1  0.000000  0.000000  0.000000  1
  Rh  Rh35  1  0.482389  0.132180  0.500000  1
