# generated using pymatgen
data_Tb4TmIr2
_symmetry_space_group_name_H-M   'P 1'
_cell_length_a   6.51362474
_cell_length_b   7.21557431
_cell_length_c   8.55252601
_cell_angle_alpha   96.66134965
_cell_angle_beta   112.38332253
_cell_angle_gamma   89.99999708
_symmetry_Int_Tables_number   1
_chemical_formula_structural   Tb4TmIr2
_chemical_formula_sum   'Tb8 Tm2 Ir4'
_cell_volume   368.74313062
_cell_formula_units_Z   2
loop_
 _symmetry_equiv_pos_site_id
 _symmetry_equiv_pos_as_xyz
  1  'x, y, z'
loop_
 _atom_site_type_symbol
 _atom_site_label
 _atom_site_symmetry_multiplicity
 _atom_site_fract_x
 _atom_site_fract_y
 _atom_site_fract_z
 _atom_site_occupancy
  Tb  Tb0  1  0.969982  0.919009  0.181170  1
  Tb  Tb1  1  0.788811  0.580991  0.818830  1
  Tb  Tb2  1  0.030018  0.080991  0.818830  1
  Tb  Tb3  1  0.211189  0.419009  0.181170  1
  Tb  Tb4  1  0.652951  0.816953  0.440019  1
  Tb  Tb5  1  0.212933  0.683047  0.559981  1
  Tb  Tb6  1  0.347049  0.183047  0.559981  1
  Tb  Tb7  1  0.787067  0.316953  0.440019  1
  Tm  Tm8  1  0.429786  0.750000  0.000000  1
  Tm  Tm9  1  0.570214  0.250000  0.000000  1
  Ir  Ir10  1  0.821841  0.572385  0.216509  1
  Ir  Ir11  1  0.605332  0.927615  0.783491  1
  Ir  Ir12  1  0.178160  0.427615  0.783491  1
  Ir  Ir13  1  0.394668  0.072385  0.216509  1
