# generated using pymatgen
data_La2PrZn3Pd2Ru
_symmetry_space_group_name_H-M   'P 1'
_cell_length_a   7.45397573
_cell_length_b   7.39441773
_cell_length_c   4.06161800
_cell_angle_alpha   90.00000000
_cell_angle_beta   90.00000000
_cell_angle_gamma   119.83364285
_symmetry_Int_Tables_number   1
_chemical_formula_structural   La2PrZn3Pd2Ru
_chemical_formula_sum   'La2 Pr1 Zn3 Pd2 Ru1'
_cell_volume   194.19911370
_cell_formula_units_Z   1
loop_
 _symmetry_equiv_pos_site_id
 _symmetry_equiv_pos_as_xyz
  1  'x, y, z'
loop_
 _atom_site_type_symbol
 _atom_site_label
 _atom_site_symmetry_multiplicity
 _atom_site_fract_x
 _atom_site_fract_y
 _atom_site_fract_z
 _atom_site_occupancy
  La  La0  1  0.577499  0.986380  0.500000  1
  La  La1  1  0.407351  0.422112  0.500000  1
  Pr  Pr2  1  0.009817  0.592383  0.500000  1
  Zn  Zn3  1  0.758616  0.758888  0.000000  1
  Zn  Zn4  1  0.002589  0.246594  0.000000  1
  Zn  Zn5  1  0.239033  0.995171  0.000000  1
  Pd  Pd6  1  0.999649  0.000342  0.500000  1
  Pd  Pd7  1  0.665941  0.331671  0.000000  1
  Ru  Ru8  1  0.339506  0.666457  0.000000  1
