# generated using pymatgen
data_Dy9TmAl4(SnC4)2
_symmetry_space_group_name_H-M   'P 1'
_cell_length_a   10.94691802
_cell_length_b   10.95777699
_cell_length_c   3.54352900
_cell_angle_alpha   90.00000000
_cell_angle_beta   90.00000000
_cell_angle_gamma   90.08375249
_symmetry_Int_Tables_number   1
_chemical_formula_structural   Dy9TmAl4(SnC4)2
_chemical_formula_sum   'Dy9 Tm1 Al4 Sn2 C8'
_cell_volume   425.05962123
_cell_formula_units_Z   1
loop_
 _symmetry_equiv_pos_site_id
 _symmetry_equiv_pos_as_xyz
  1  'x, y, z'
loop_
 _atom_site_type_symbol
 _atom_site_label
 _atom_site_symmetry_multiplicity
 _atom_site_fract_x
 _atom_site_fract_y
 _atom_site_fract_z
 _atom_site_occupancy
  Dy  Dy0  1  0.551124  0.733518  0.500000  1
  Dy  Dy1  1  0.450117  0.266911  0.500000  1
  Dy  Dy2  1  0.050152  0.767032  0.500000  1
  Dy  Dy3  1  0.949389  0.232806  0.500000  1
  Dy  Dy4  1  0.267355  0.550422  0.500000  1
  Dy  Dy5  1  0.732730  0.449639  0.500000  1
  Dy  Dy6  1  0.232478  0.049938  0.500000  1
  Dy  Dy7  1  0.500198  0.000213  0.000000  1
  Dy  Dy8  1  0.999974  0.500085  0.000000  1
  Tm  Tm9  1  0.764743  0.950137  0.500000  1
  Al  Al10  1  0.704437  0.203414  0.000000  1
  Al  Al11  1  0.296487  0.795615  0.000000  1
  Al  Al12  1  0.204498  0.296418  0.000000  1
  Al  Al13  1  0.796273  0.704552  0.000000  1
  Sn  Sn14  1  0.500005  0.500114  0.000000  1
  Sn  Sn15  1  0.996674  0.999293  0.000000  1
  C  C16  1  0.634722  0.131562  0.500000  1
  C  C17  1  0.366971  0.867026  0.500000  1
  C  C18  1  0.133232  0.366442  0.500000  1
  C  C19  1  0.866867  0.633198  0.500000  1
  C  C20  1  0.162387  0.662512  0.000000  1
  C  C21  1  0.837586  0.337244  0.000000  1
  C  C22  1  0.664313  0.839684  0.000000  1
  C  C23  1  0.337287  0.162223  0.000000  1
