# generated using pymatgen
data_Dy9Y2(Lu3Bi4)3
_symmetry_space_group_name_H-M   'P 1'
_cell_length_a   8.19907885
_cell_length_b   9.44245457
_cell_length_c   11.98499220
_cell_angle_alpha   89.98562449
_cell_angle_beta   90.11067443
_cell_angle_gamma   89.97435271
_symmetry_Int_Tables_number   1
_chemical_formula_structural   Dy9Y2(Lu3Bi4)3
_chemical_formula_sum   'Dy9 Y2 Lu9 Bi12'
_cell_volume   927.86940593
_cell_formula_units_Z   1
loop_
 _symmetry_equiv_pos_site_id
 _symmetry_equiv_pos_as_xyz
  1  'x, y, z'
loop_
 _atom_site_type_symbol
 _atom_site_label
 _atom_site_symmetry_multiplicity
 _atom_site_fract_x
 _atom_site_fract_y
 _atom_site_fract_z
 _atom_site_occupancy
  Dy  Dy0  1  0.185283  0.749636  0.718729  1
  Dy  Dy1  1  0.685762  0.749433  0.781863  1
  Dy  Dy2  1  0.814251  0.249669  0.281771  1
  Dy  Dy3  1  0.314102  0.249625  0.218734  1
  Dy  Dy4  1  0.192567  0.938741  0.439783  1
  Dy  Dy5  1  0.309039  0.062147  0.941442  1
  Dy  Dy6  1  0.806878  0.438963  0.559915  1
  Dy  Dy7  1  0.355014  0.749811  0.216066  1
  Dy  Dy8  1  0.851901  0.748136  0.282729  1
  Y  Y9  1  0.645887  0.249408  0.783912  1
  Y  Y10  1  0.146732  0.248652  0.716921  1
  Lu  Lu11  1  0.022038  0.749402  0.989333  1
  Lu  Lu12  1  0.523310  0.750244  0.510660  1
  Lu  Lu13  1  0.976723  0.248928  0.010604  1
  Lu  Lu14  1  0.476950  0.249683  0.488895  1
  Lu  Lu15  1  0.308038  0.430464  0.941193  1
  Lu  Lu16  1  0.809212  0.069731  0.559055  1
  Lu  Lu17  1  0.690601  0.931216  0.058312  1
  Lu  Lu18  1  0.191056  0.569795  0.440736  1
  Lu  Lu19  1  0.692913  0.565656  0.059233  1
  Bi  Bi20  1  0.434417  0.002880  0.672083  1
  Bi  Bi21  1  0.934686  0.495644  0.828226  1
  Bi  Bi22  1  0.565817  0.503286  0.327649  1
  Bi  Bi23  1  0.065743  0.995396  0.171931  1
  Bi  Bi24  1  0.567118  0.995880  0.327998  1
  Bi  Bi25  1  0.066284  0.503496  0.171188  1
  Bi  Bi26  1  0.433225  0.495970  0.671734  1
  Bi  Bi27  1  0.933171  0.003069  0.828560  1
  Bi  Bi28  1  0.404062  0.743916  0.957036  1
  Bi  Bi29  1  0.904419  0.755712  0.542184  1
  Bi  Bi30  1  0.597280  0.249769  0.043968  1
  Bi  Bi31  1  0.095522  0.255645  0.457556  1
