# generated using pymatgen
data_Nd8SiAuBr12
_symmetry_space_group_name_H-M   'P 1'
_cell_length_a   4.23426500
_cell_length_b   13.82802691
_cell_length_c   14.66728713
_cell_angle_alpha   90.29128645
_cell_angle_beta   90.00000000
_cell_angle_gamma   90.00000000
_symmetry_Int_Tables_number   1
_chemical_formula_structural   Nd8SiAuBr12
_chemical_formula_sum   'Nd8 Si1 Au1 Br12'
_cell_volume   858.78101002
_cell_formula_units_Z   1
loop_
 _symmetry_equiv_pos_site_id
 _symmetry_equiv_pos_as_xyz
  1  'x, y, z'
loop_
 _atom_site_type_symbol
 _atom_site_label
 _atom_site_symmetry_multiplicity
 _atom_site_fract_x
 _atom_site_fract_y
 _atom_site_fract_z
 _atom_site_occupancy
  Nd  Nd0  1  0.500000  0.121796  0.336687  1
  Nd  Nd1  1  0.500000  0.878204  0.663313  1
  Nd  Nd2  1  0.500000  0.618206  0.158995  1
  Nd  Nd3  1  0.500000  0.381794  0.841005  1
  Nd  Nd4  1  0.000000  0.121695  0.580984  1
  Nd  Nd5  1  0.000000  0.878305  0.419016  1
  Nd  Nd6  1  0.000000  0.618448  0.921593  1
  Nd  Nd7  1  0.000000  0.381552  0.078407  1
  Si  Si8  1  0.500000  0.500000  0.000000  1
  Au  Au9  1  0.500000  0.000000  0.500000  1
  Br  Br10  1  0.500000  0.245434  0.161155  1
  Br  Br11  1  0.500000  0.754566  0.838845  1
  Br  Br12  1  0.500000  0.741514  0.335810  1
  Br  Br13  1  0.500000  0.258486  0.664190  1
  Br  Br14  1  0.000000  0.254323  0.410385  1
  Br  Br15  1  0.000000  0.745677  0.589615  1
  Br  Br16  1  0.000000  0.752474  0.089073  1
  Br  Br17  1  0.000000  0.247526  0.910927  1
  Br  Br18  1  0.000000  0.002430  0.244064  1
  Br  Br19  1  0.000000  0.997570  0.755936  1
  Br  Br20  1  0.000000  0.502231  0.253715  1
  Br  Br21  1  0.000000  0.497769  0.746285  1
