# generated using pymatgen
data_YbMg2WN4
_symmetry_space_group_name_H-M   'P 1'
_cell_length_a   7.19289500
_cell_length_b   5.89239600
_cell_length_c   5.36577800
_cell_angle_alpha   90.00000000
_cell_angle_beta   90.00000000
_cell_angle_gamma   90.00000000
_symmetry_Int_Tables_number   1
_chemical_formula_structural   YbMg2WN4
_chemical_formula_sum   'Yb2 Mg4 W2 N8'
_cell_volume   227.41983870
_cell_formula_units_Z   2
loop_
 _symmetry_equiv_pos_site_id
 _symmetry_equiv_pos_as_xyz
  1  'x, y, z'
loop_
 _atom_site_type_symbol
 _atom_site_label
 _atom_site_symmetry_multiplicity
 _atom_site_fract_x
 _atom_site_fract_y
 _atom_site_fract_z
 _atom_site_occupancy
  Yb  Yb0  1  0.000000  0.334174  0.707620  1
  Yb  Yb1  1  0.500000  0.665826  0.207620  1
  Mg  Mg2  1  0.253408  0.831001  0.721344  1
  Mg  Mg3  1  0.246592  0.168999  0.221344  1
  Mg  Mg4  1  0.746592  0.831001  0.721344  1
  Mg  Mg5  1  0.753408  0.168999  0.221344  1
  W  W6  1  0.000000  0.685352  0.230013  1
  W  W7  1  0.500000  0.314648  0.730013  1
  N  N8  1  0.785012  0.830675  0.110370  1
  N  N9  1  0.714988  0.169325  0.610370  1
  N  N10  1  0.214988  0.830675  0.110370  1
  N  N11  1  0.285012  0.169325  0.610370  1
  N  N12  1  0.000000  0.367382  0.159826  1
  N  N13  1  0.500000  0.632618  0.659826  1
  N  N14  1  0.000000  0.710942  0.578374  1
  N  N15  1  0.500000  0.289058  0.078374  1
