# generated using pymatgen
data_Nb12Al9Ga7(Cu3Ir)2
_symmetry_space_group_name_H-M   'P 1'
_cell_length_a   8.80607009
_cell_length_b   8.87569693
_cell_length_c   8.19533814
_cell_angle_alpha   89.97953777
_cell_angle_beta   90.01490155
_cell_angle_gamma   121.06148473
_symmetry_Int_Tables_number   1
_chemical_formula_structural   Nb12Al9Ga7(Cu3Ir)2
_chemical_formula_sum   'Nb12 Al9 Ga7 Cu6 Ir2'
_cell_volume   548.70216754
_cell_formula_units_Z   1
loop_
 _symmetry_equiv_pos_site_id
 _symmetry_equiv_pos_as_xyz
  1  'x, y, z'
loop_
 _atom_site_type_symbol
 _atom_site_label
 _atom_site_symmetry_multiplicity
 _atom_site_fract_x
 _atom_site_fract_y
 _atom_site_fract_z
 _atom_site_occupancy
  Nb  Nb0  1  0.329489  0.992543  0.068751  1
  Nb  Nb1  1  0.670544  0.007777  0.931417  1
  Nb  Nb2  1  0.997375  0.332799  0.069654  1
  Nb  Nb3  1  0.670539  0.007451  0.568674  1
  Nb  Nb4  1  0.997613  0.332348  0.430365  1
  Nb  Nb5  1  0.002838  0.667565  0.929973  1
  Nb  Nb6  1  0.329061  0.991819  0.431719  1
  Nb  Nb7  1  0.002593  0.667754  0.569720  1
  Nb  Nb8  1  0.667409  0.664789  0.068506  1
  Nb  Nb9  1  0.332764  0.334808  0.931547  1
  Nb  Nb10  1  0.332681  0.336030  0.568722  1
  Nb  Nb11  1  0.666709  0.664439  0.431327  1
  Al  Al12  1  0.659425  0.334115  0.495021  1
  Al  Al13  1  0.659747  0.334351  0.004978  1
  Al  Al14  1  0.340225  0.665692  0.995266  1
  Al  Al15  1  0.178334  0.008916  0.749781  1
  Al  Al16  1  0.822017  0.991649  0.250019  1
  Al  Al17  1  0.009236  0.179664  0.749997  1
  Al  Al18  1  0.990021  0.819891  0.250232  1
  Al  Al19  1  0.825270  0.834309  0.749969  1
  Al  Al20  1  0.175025  0.165478  0.250245  1
  Ga  Ga21  1  0.341705  0.848123  0.751268  1
  Ga  Ga22  1  0.654891  0.507308  0.749736  1
  Ga  Ga23  1  0.659229  0.153285  0.250112  1
  Ga  Ga24  1  0.345655  0.492030  0.248433  1
  Ga  Ga25  1  0.844217  0.338874  0.749781  1
  Ga  Ga26  1  0.154446  0.660350  0.248414  1
  Ga  Ga27  1  0.340830  0.665649  0.504685  1
  Cu  Cu28  1  0.168896  0.498892  0.751062  1
  Cu  Cu29  1  0.830101  0.500436  0.250270  1
  Cu  Cu30  1  0.506487  0.673749  0.751644  1
  Cu  Cu31  1  0.501456  0.171046  0.749745  1
  Cu  Cu32  1  0.494068  0.325907  0.250261  1
  Cu  Cu33  1  0.499023  0.830082  0.248708  1
  Ir  Ir34  1  0.999959  0.000065  0.499997  1
  Ir  Ir35  1  0.000122  0.000017  0.000002  1
