# generated using pymatgen
data_Pr3TlIn3IrRh
_symmetry_space_group_name_H-M   'P 1'
_cell_length_a   7.96924500
_cell_length_b   7.96924595
_cell_length_c   4.08257700
_cell_angle_alpha   90.00000000
_cell_angle_beta   90.00000000
_cell_angle_gamma   119.99999192
_symmetry_Int_Tables_number   1
_chemical_formula_structural   Pr3TlIn3IrRh
_chemical_formula_sum   'Pr3 Tl1 In3 Ir1 Rh1'
_cell_volume   224.54296881
_cell_formula_units_Z   1
loop_
 _symmetry_equiv_pos_site_id
 _symmetry_equiv_pos_as_xyz
  1  'x, y, z'
loop_
 _atom_site_type_symbol
 _atom_site_label
 _atom_site_symmetry_multiplicity
 _atom_site_fract_x
 _atom_site_fract_y
 _atom_site_fract_z
 _atom_site_occupancy
  Pr  Pr0  1  0.028800  0.607669  0.500000  1
  Pr  Pr1  1  0.392331  0.421131  0.500000  1
  Pr  Pr2  1  0.578869  0.971200  0.500000  1
  Tl  Tl3  1  0.666667  0.333333  0.000000  1
  In  In4  1  0.751736  0.759644  0.000000  1
  In  In5  1  0.007908  0.248264  0.000000  1
  In  In6  1  0.240356  0.992092  0.000000  1
  Ir  Ir7  1  0.333333  0.666667  0.000000  1
  Rh  Rh8  1  0.000000  0.000000  0.500000  1
