# generated using pymatgen
data_Hg2Pd3O8
_symmetry_space_group_name_H-M   'P 1'
_cell_length_a   6.41836226
_cell_length_b   6.41836135
_cell_length_c   6.41836138
_cell_angle_alpha   57.93267522
_cell_angle_beta   57.93268209
_cell_angle_gamma   57.93267738
_symmetry_Int_Tables_number   1
_chemical_formula_structural   Hg2Pd3O8
_chemical_formula_sum   'Hg2 Pd3 O8'
_cell_volume   178.09440775
_cell_formula_units_Z   1
loop_
 _symmetry_equiv_pos_site_id
 _symmetry_equiv_pos_as_xyz
  1  'x, y, z'
loop_
 _atom_site_type_symbol
 _atom_site_label
 _atom_site_symmetry_multiplicity
 _atom_site_fract_x
 _atom_site_fract_y
 _atom_site_fract_z
 _atom_site_occupancy
  Hg  Hg0  1  0.854576  0.854576  0.854576  1
  Hg  Hg1  1  0.145424  0.145424  0.145424  1
  Pd  Pd2  1  0.000000  0.500000  0.500000  1
  Pd  Pd3  1  0.500000  0.000000  0.500000  1
  Pd  Pd4  1  0.500000  0.500000  0.000000  1
  O  O5  1  0.604907  0.604907  0.604907  1
  O  O6  1  0.395093  0.395093  0.395093  1
  O  O7  1  0.114750  0.114750  0.560697  1
  O  O8  1  0.560697  0.114750  0.114750  1
  O  O9  1  0.114750  0.560697  0.114750  1
  O  O10  1  0.439303  0.885250  0.885250  1
  O  O11  1  0.885250  0.885250  0.439303  1
  O  O12  1  0.885250  0.439303  0.885250  1
