# generated using pymatgen
data_AsCNF14
_symmetry_space_group_name_H-M   'P 1'
_cell_length_a   7.03823230
_cell_length_b   7.03823236
_cell_length_c   7.03823274
_cell_angle_alpha   118.76519609
_cell_angle_beta   118.76519653
_cell_angle_gamma   92.15239027
_symmetry_Int_Tables_number   1
_chemical_formula_structural   AsCNF14
_chemical_formula_sum   'As1 C1 N1 F14'
_cell_volume   250.94316694
_cell_formula_units_Z   1
loop_
 _symmetry_equiv_pos_site_id
 _symmetry_equiv_pos_as_xyz
  1  'x, y, z'
loop_
 _atom_site_type_symbol
 _atom_site_label
 _atom_site_symmetry_multiplicity
 _atom_site_fract_x
 _atom_site_fract_y
 _atom_site_fract_z
 _atom_site_occupancy
  As  As0  1  0.000000  0.000000  0.000000  1
  C  C1  1  0.750000  0.250000  0.500000  1
  N  N2  1  0.250000  0.750000  0.500000  1
  F  F3  1  0.392394  0.967594  0.702434  1
  F  F4  1  0.215947  0.118131  0.336752  1
  F  F5  1  0.120804  0.784053  0.902183  1
  F  F6  1  0.881869  0.218621  0.097817  1
  F  F7  1  0.781379  0.879196  0.663248  1
  F  F8  1  0.181442  0.181442  0.000000  1
  F  F9  1  0.818558  0.818558  0.000000  1
  F  F10  1  0.732101  0.311646  0.701801  1
  F  F11  1  0.310041  0.607606  0.575201  1
  F  F12  1  0.032406  0.734840  0.424799  1
  F  F13  1  0.609845  0.030300  0.298199  1
  F  F14  1  0.265160  0.689959  0.297566  1
  F  F15  1  0.688354  0.390155  0.420455  1
  F  F16  1  0.969700  0.267899  0.579545  1
