# generated using pymatgen
data_NpScB6Rh
_symmetry_space_group_name_H-M   'P 1'
_cell_length_a   3.52715300
_cell_length_b   9.06089300
_cell_length_c   11.44536100
_cell_angle_alpha   90.00000000
_cell_angle_beta   90.00000000
_cell_angle_gamma   90.00000000
_symmetry_Int_Tables_number   1
_chemical_formula_structural   NpScB6Rh
_chemical_formula_sum   'Np4 Sc4 B24 Rh4'
_cell_volume   365.78407685
_cell_formula_units_Z   4
loop_
 _symmetry_equiv_pos_site_id
 _symmetry_equiv_pos_as_xyz
  1  'x, y, z'
loop_
 _atom_site_type_symbol
 _atom_site_label
 _atom_site_symmetry_multiplicity
 _atom_site_fract_x
 _atom_site_fract_y
 _atom_site_fract_z
 _atom_site_occupancy
  Np  Np0  1  0.000000  0.322306  0.414167  1
  Np  Np1  1  0.000000  0.677694  0.585833  1
  Np  Np2  1  0.000000  0.822306  0.085833  1
  Np  Np3  1  0.000000  0.177694  0.914167  1
  Sc  Sc4  1  0.000000  0.945013  0.374473  1
  Sc  Sc5  1  0.000000  0.054987  0.625527  1
  Sc  Sc6  1  0.000000  0.445013  0.125527  1
  Sc  Sc7  1  0.000000  0.554987  0.874473  1
  B  B8  1  0.500000  0.553876  0.434056  1
  B  B9  1  0.500000  0.446124  0.565944  1
  B  B10  1  0.500000  0.053876  0.065944  1
  B  B11  1  0.500000  0.946124  0.934056  1
  B  B12  1  0.500000  0.754213  0.420495  1
  B  B13  1  0.500000  0.245787  0.579505  1
  B  B14  1  0.500000  0.254213  0.079505  1
  B  B15  1  0.500000  0.745787  0.920495  1
  B  B16  1  0.500000  0.796463  0.264502  1
  B  B17  1  0.500000  0.203537  0.735498  1
  B  B18  1  0.500000  0.296463  0.235498  1
  B  B19  1  0.500000  0.703537  0.764502  1
  B  B20  1  0.500000  0.631067  0.180550  1
  B  B21  1  0.500000  0.368933  0.819450  1
  B  B22  1  0.500000  0.131067  0.319450  1
  B  B23  1  0.500000  0.868933  0.680550  1
  B  B24  1  0.500000  0.981043  0.214919  1
  B  B25  1  0.500000  0.018957  0.785081  1
  B  B26  1  0.500000  0.481043  0.285081  1
  B  B27  1  0.500000  0.518957  0.714919  1
  B  B28  1  0.500000  0.600248  0.027054  1
  B  B29  1  0.500000  0.399752  0.972946  1
  B  B30  1  0.500000  0.100248  0.472946  1
  B  B31  1  0.500000  0.899752  0.527054  1
  Rh  Rh32  1  0.000000  0.641785  0.317797  1
  Rh  Rh33  1  0.000000  0.358215  0.682203  1
  Rh  Rh34  1  0.000000  0.141785  0.182203  1
  Rh  Rh35  1  0.000000  0.858215  0.817797  1
