# generated using pymatgen
data_Y3TlIn2Pd2Rh
_symmetry_space_group_name_H-M   'P 1'
_cell_length_a   7.78077470
_cell_length_b   7.80866536
_cell_length_c   3.80961300
_cell_angle_alpha   90.00000000
_cell_angle_beta   90.00000000
_cell_angle_gamma   120.16406522
_symmetry_Int_Tables_number   1
_chemical_formula_structural   Y3TlIn2Pd2Rh
_chemical_formula_sum   'Y3 Tl1 In2 Pd2 Rh1'
_cell_volume   200.12013080
_cell_formula_units_Z   1
loop_
 _symmetry_equiv_pos_site_id
 _symmetry_equiv_pos_as_xyz
  1  'x, y, z'
loop_
 _atom_site_type_symbol
 _atom_site_label
 _atom_site_symmetry_multiplicity
 _atom_site_fract_x
 _atom_site_fract_y
 _atom_site_fract_z
 _atom_site_occupancy
  Y  Y0  1  0.985586  0.587066  0.500000  1
  Y  Y1  1  0.412606  0.397676  0.500000  1
  Y  Y2  1  0.600468  0.012850  0.500000  1
  Tl  Tl3  1  0.003274  0.267979  0.000000  1
  In  In4  1  0.262518  0.996409  0.000000  1
  In  In5  1  0.734722  0.736583  0.000000  1
  Pd  Pd6  1  0.339036  0.673872  0.000000  1
  Pd  Pd7  1  0.000085  0.992452  0.500000  1
  Rh  Rh8  1  0.661705  0.335113  0.000000  1
