# generated using pymatgen
data_Hf5Fe16Si7Mo
_symmetry_space_group_name_H-M   'P 1'
_cell_length_a   8.00802964
_cell_length_b   8.03085422
_cell_length_c   8.03085434
_cell_angle_alpha   59.81204686
_cell_angle_beta   60.09396961
_cell_angle_gamma   60.09396695
_symmetry_Int_Tables_number   1
_chemical_formula_structural   Hf5Fe16Si7Mo
_chemical_formula_sum   'Hf5 Fe16 Si7 Mo1'
_cell_volume   365.19692721
_cell_formula_units_Z   1
loop_
 _symmetry_equiv_pos_site_id
 _symmetry_equiv_pos_as_xyz
  1  'x, y, z'
loop_
 _atom_site_type_symbol
 _atom_site_label
 _atom_site_symmetry_multiplicity
 _atom_site_fract_x
 _atom_site_fract_y
 _atom_site_fract_z
 _atom_site_occupancy
  Hf  Hf0  1  0.704066  0.705822  0.295934  1
  Hf  Hf1  1  0.294178  0.295934  0.705822  1
  Hf  Hf2  1  0.710242  0.289758  0.289758  1
  Hf  Hf3  1  0.704066  0.295934  0.705822  1
  Hf  Hf4  1  0.294178  0.705822  0.295934  1
  Fe  Fe5  1  0.889107  0.876317  0.876317  1
  Fe  Fe6  1  0.025546  0.325795  0.325795  1
  Fe  Fe7  1  0.123683  0.110893  0.641741  1
  Fe  Fe8  1  0.323817  0.024183  0.328182  1
  Fe  Fe9  1  0.322863  0.325795  0.325795  1
  Fe  Fe10  1  0.674205  0.677137  0.974454  1
  Fe  Fe11  1  0.878861  0.875927  0.366352  1
  Fe  Fe12  1  0.671818  0.676183  0.676183  1
  Fe  Fe13  1  0.674205  0.974454  0.677137  1
  Fe  Fe14  1  0.323817  0.328182  0.024183  1
  Fe  Fe15  1  0.878861  0.366352  0.875927  1
  Fe  Fe16  1  0.633648  0.121139  0.121139  1
  Fe  Fe17  1  0.123683  0.641741  0.110893  1
  Fe  Fe18  1  0.124073  0.121139  0.121139  1
  Fe  Fe19  1  0.975817  0.676183  0.676183  1
  Fe  Fe20  1  0.358259  0.876317  0.876317  1
  Si  Si21  1  0.000244  0.999756  0.500145  1
  Si  Si22  1  0.000244  0.500145  0.999756  1
  Si  Si23  1  0.993523  0.006477  0.006477  1
  Si  Si24  1  0.499855  0.999756  0.500145  1
  Si  Si25  1  0.999281  0.500719  0.500719  1
  Si  Si26  1  0.499281  0.000719  0.000719  1
  Si  Si27  1  0.499855  0.500145  0.999756  1
  Mo  Mo28  1  0.298726  0.701274  0.701274  1
