# generated using pymatgen
data_Tb2Dy5Er(WO6)4
_symmetry_space_group_name_H-M   'P 1'
_cell_length_a   5.40294646
_cell_length_b   7.71914916
_cell_length_c   11.47633616
_cell_angle_alpha   75.45422629
_cell_angle_beta   89.98972641
_cell_angle_gamma   89.95268143
_symmetry_Int_Tables_number   1
_chemical_formula_structural   Tb2Dy5Er(WO6)4
_chemical_formula_sum   'Tb2 Dy5 Er1 W4 O24'
_cell_volume   463.29213103
_cell_formula_units_Z   1
loop_
 _symmetry_equiv_pos_site_id
 _symmetry_equiv_pos_as_xyz
  1  'x, y, z'
loop_
 _atom_site_type_symbol
 _atom_site_label
 _atom_site_symmetry_multiplicity
 _atom_site_fract_x
 _atom_site_fract_y
 _atom_site_fract_z
 _atom_site_occupancy
  Tb  Tb0  1  0.683931  0.499850  0.249760  1
  Tb  Tb1  1  0.316421  0.499541  0.750645  1
  Dy  Dy2  1  0.184380  0.205673  0.422236  1
  Dy  Dy3  1  0.183557  0.794547  0.077562  1
  Dy  Dy4  1  0.815864  0.794273  0.577751  1
  Dy  Dy5  1  0.740507  0.000211  0.249382  1
  Dy  Dy6  1  0.259607  0.000318  0.750757  1
  Er  Er7  1  0.816336  0.206492  0.921745  1
  W  W8  1  0.255810  0.275998  0.114290  1
  W  W9  1  0.255683  0.723881  0.385041  1
  W  W10  1  0.744259  0.723768  0.885071  1
  W  W11  1  0.744701  0.275868  0.615510  1
  O  O12  1  0.458080  0.208805  0.272177  1
  O  O13  1  0.457949  0.790851  0.227099  1
  O  O14  1  0.541826  0.790308  0.727443  1
  O  O15  1  0.543537  0.208743  0.774038  1
  O  O16  1  0.044101  0.061155  0.103499  1
  O  O17  1  0.044175  0.939384  0.395575  1
  O  O18  1  0.952938  0.940954  0.895762  1
  O  O19  1  0.956032  0.060678  0.604531  1
  O  O20  1  0.981833  0.288777  0.228281  1
  O  O21  1  0.981232  0.711117  0.271553  1
  O  O22  1  0.019311  0.711834  0.772003  1
  O  O23  1  0.018321  0.288421  0.729586  1
  O  O24  1  0.848226  0.364887  0.452407  1
  O  O25  1  0.848155  0.635009  0.047973  1
  O  O26  1  0.151836  0.634701  0.547989  1
  O  O27  1  0.149550  0.364484  0.951587  1
  O  O28  1  0.640019  0.509304  0.614640  1
  O  O29  1  0.642162  0.489545  0.885691  1
  O  O30  1  0.360117  0.490385  0.385487  1
  O  O31  1  0.359520  0.509308  0.113715  1
  O  O32  1  0.466214  0.153357  0.570304  1
  O  O33  1  0.465257  0.845917  0.930575  1
  O  O34  1  0.533355  0.847186  0.430447  1
  O  O35  1  0.535197  0.154470  0.067889  1
