# generated using pymatgen
data_Li2DyEr3(ZnPt2)2
_symmetry_space_group_name_H-M   'P 1'
_cell_length_a   4.02933300
_cell_length_b   6.96470033
_cell_length_c   8.30961639
_cell_angle_alpha   90.03523706
_cell_angle_beta   90.00000000
_cell_angle_gamma   90.00000000
_symmetry_Int_Tables_number   1
_chemical_formula_structural   Li2DyEr3(ZnPt2)2
_chemical_formula_sum   'Li2 Dy1 Er3 Zn2 Pt4'
_cell_volume   233.19352570
_cell_formula_units_Z   1
loop_
 _symmetry_equiv_pos_site_id
 _symmetry_equiv_pos_as_xyz
  1  'x, y, z'
loop_
 _atom_site_type_symbol
 _atom_site_label
 _atom_site_symmetry_multiplicity
 _atom_site_fract_x
 _atom_site_fract_y
 _atom_site_fract_z
 _atom_site_occupancy
  Li  Li0  1  0.250000  0.629341  0.559461  1
  Li  Li1  1  0.250000  0.129498  0.940463  1
  Dy  Dy2  1  0.250000  0.045670  0.318530  1
  Er  Er3  1  0.250000  0.545623  0.180980  1
  Er  Er4  1  0.750000  0.955085  0.685386  1
  Er  Er5  1  0.750000  0.455170  0.814998  1
  Zn  Zn6  1  0.750000  0.371057  0.437687  1
  Zn  Zn7  1  0.750000  0.870469  0.062163  1
  Pt  Pt8  1  0.250000  0.247060  0.622501  1
  Pt  Pt9  1  0.250000  0.746566  0.878251  1
  Pt  Pt10  1  0.750000  0.751093  0.377938  1
  Pt  Pt11  1  0.750000  0.253371  0.121643  1
