# generated using pymatgen
data_SrPr6FeBr12
_symmetry_space_group_name_H-M   'P 1'
_cell_length_a   9.55846658
_cell_length_b   9.55846638
_cell_length_c   9.55846539
_cell_angle_alpha   106.17585728
_cell_angle_beta   106.17585412
_cell_angle_gamma   106.17585130
_symmetry_Int_Tables_number   1
_chemical_formula_structural   SrPr6FeBr12
_chemical_formula_sum   'Sr1 Pr6 Fe1 Br12'
_cell_volume   743.03940485
_cell_formula_units_Z   1
loop_
 _symmetry_equiv_pos_site_id
 _symmetry_equiv_pos_as_xyz
  1  'x, y, z'
loop_
 _atom_site_type_symbol
 _atom_site_label
 _atom_site_symmetry_multiplicity
 _atom_site_fract_x
 _atom_site_fract_y
 _atom_site_fract_z
 _atom_site_occupancy
  Sr  Sr0  1  0.000000  0.000000  0.000000  1
  Pr  Pr1  1  0.808342  0.524549  0.601451  1
  Pr  Pr2  1  0.524549  0.601451  0.808342  1
  Pr  Pr3  1  0.191658  0.475451  0.398549  1
  Pr  Pr4  1  0.475451  0.398549  0.191658  1
  Pr  Pr5  1  0.601451  0.808342  0.524549  1
  Pr  Pr6  1  0.398549  0.191658  0.475451  1
  Fe  Fe7  1  0.500000  0.500000  0.500000  1
  Br  Br8  1  0.721717  0.184543  0.573014  1
  Br  Br9  1  0.950782  0.872197  0.650325  1
  Br  Br10  1  0.573014  0.721717  0.184543  1
  Br  Br11  1  0.127803  0.349675  0.049218  1
  Br  Br12  1  0.650325  0.950782  0.872197  1
  Br  Br13  1  0.872197  0.650325  0.950782  1
  Br  Br14  1  0.049218  0.127803  0.349675  1
  Br  Br15  1  0.815457  0.426986  0.278283  1
  Br  Br16  1  0.349675  0.049218  0.127803  1
  Br  Br17  1  0.278283  0.815457  0.426986  1
  Br  Br18  1  0.184543  0.573014  0.721717  1
  Br  Br19  1  0.426986  0.278283  0.815457  1
