# generated using pymatgen
data_Er2Tm8FeCoSb4
_symmetry_space_group_name_H-M   'P 1'
_cell_length_a   7.75294700
_cell_length_b   8.72341500
_cell_length_c   12.06603900
_cell_angle_alpha   90.00000000
_cell_angle_beta   90.00000000
_cell_angle_gamma   90.00000000
_symmetry_Int_Tables_number   1
_chemical_formula_structural   Er2Tm8FeCoSb4
_chemical_formula_sum   'Er4 Tm16 Fe2 Co2 Sb8'
_cell_volume   816.05245100
_cell_formula_units_Z   2
loop_
 _symmetry_equiv_pos_site_id
 _symmetry_equiv_pos_as_xyz
  1  'x, y, z'
loop_
 _atom_site_type_symbol
 _atom_site_label
 _atom_site_symmetry_multiplicity
 _atom_site_fract_x
 _atom_site_fract_y
 _atom_site_fract_z
 _atom_site_occupancy
  Er  Er0  1  0.624564  0.750000  0.308214  1
  Er  Er1  1  0.124564  0.250000  0.191786  1
  Er  Er2  1  0.378144  0.250000  0.691575  1
  Er  Er3  1  0.878144  0.750000  0.808425  1
  Tm  Tm4  1  0.158038  0.750000  0.207198  1
  Tm  Tm5  1  0.658038  0.250000  0.292802  1
  Tm  Tm6  1  0.844478  0.250000  0.798133  1
  Tm  Tm7  1  0.344478  0.750000  0.701867  1
  Tm  Tm8  1  0.444632  0.750000  0.996507  1
  Tm  Tm9  1  0.944632  0.250000  0.503493  1
  Tm  Tm10  1  0.548776  0.250000  0.002974  1
  Tm  Tm11  1  0.048776  0.750000  0.497026  1
  Tm  Tm12  1  0.826099  0.967166  0.064310  1
  Tm  Tm13  1  0.326099  0.032834  0.435690  1
  Tm  Tm14  1  0.177029  0.458740  0.934286  1
  Tm  Tm15  1  0.677029  0.541260  0.565714  1
  Tm  Tm16  1  0.177029  0.041260  0.934286  1
  Tm  Tm17  1  0.677029  0.958740  0.565714  1
  Tm  Tm18  1  0.826099  0.532834  0.064310  1
  Tm  Tm19  1  0.326099  0.467166  0.435690  1
  Fe  Fe20  1  0.428117  0.750000  0.488270  1
  Fe  Fe21  1  0.928117  0.250000  0.011730  1
  Co  Co22  1  0.566869  0.250000  0.506951  1
  Co  Co23  1  0.066869  0.750000  0.993049  1
  Sb  Sb24  1  0.931728  0.993231  0.328088  1
  Sb  Sb25  1  0.431728  0.006769  0.171912  1
  Sb  Sb26  1  0.068335  0.491568  0.672167  1
  Sb  Sb27  1  0.568335  0.508432  0.827833  1
  Sb  Sb28  1  0.068335  0.008432  0.672167  1
  Sb  Sb29  1  0.568335  0.991568  0.827833  1
  Sb  Sb30  1  0.931728  0.506769  0.328088  1
  Sb  Sb31  1  0.431728  0.493231  0.171912  1
