# generated using pymatgen
data_HoEr5(Zn3C)2
_symmetry_space_group_name_H-M   'P 1'
_cell_length_a   9.09096247
_cell_length_b   9.09451271
_cell_length_c   9.08817339
_cell_angle_alpha   59.99093211
_cell_angle_beta   59.98983890
_cell_angle_gamma   60.01291423
_symmetry_Int_Tables_number   1
_chemical_formula_structural   HoEr5(Zn3C)2
_chemical_formula_sum   'Ho2 Er10 Zn12 C4'
_cell_volume   531.28815510
_cell_formula_units_Z   2
loop_
 _symmetry_equiv_pos_site_id
 _symmetry_equiv_pos_as_xyz
  1  'x, y, z'
loop_
 _atom_site_type_symbol
 _atom_site_label
 _atom_site_symmetry_multiplicity
 _atom_site_fract_x
 _atom_site_fract_y
 _atom_site_fract_z
 _atom_site_occupancy
  Ho  Ho0  1  0.447089  0.447083  0.052967  1
  Ho  Ho1  1  0.052861  0.447083  0.052967  1
  Er  Er2  1  0.446928  0.052961  0.053183  1
  Er  Er3  1  0.053184  0.053065  0.446891  1
  Er  Er4  1  0.446860  0.053065  0.446891  1
  Er  Er5  1  0.053079  0.446903  0.446940  1
  Er  Er6  1  0.803006  0.803219  0.196965  1
  Er  Er7  1  0.196809  0.803219  0.196965  1
  Er  Er8  1  0.803238  0.196615  0.196908  1
  Er  Er9  1  0.196866  0.196721  0.803090  1
  Er  Er10  1  0.803323  0.196721  0.803090  1
  Er  Er11  1  0.196776  0.803439  0.803008  1
  Zn  Zn12  1  0.827127  0.827084  0.518660  1
  Zn  Zn13  1  0.827167  0.518720  0.826944  1
  Zn  Zn14  1  0.518676  0.827241  0.827037  1
  Zn  Zn15  1  0.827044  0.827241  0.827037  1
  Zn  Zn16  1  0.423020  0.422903  0.731059  1
  Zn  Zn17  1  0.422863  0.731330  0.422946  1
  Zn  Zn18  1  0.731201  0.422849  0.423051  1
  Zn  Zn19  1  0.422900  0.422849  0.423051  1
  Zn  Zn20  1  0.624911  0.625145  0.125033  1
  Zn  Zn21  1  0.625021  0.124979  0.624978  1
  Zn  Zn22  1  0.124994  0.625108  0.624841  1
  Zn  Zn23  1  0.625057  0.625108  0.624841  1
  C  C24  1  0.124987  0.124967  0.625058  1
  C  C25  1  0.124503  0.625703  0.125291  1
  C  C26  1  0.625372  0.124339  0.125153  1
  C  C27  1  0.125136  0.124339  0.125153  1
