# generated using pymatgen
data_Er5Sc15(Zn3Ru)2
_symmetry_space_group_name_H-M   'P 1'
_cell_length_a   8.89714701
_cell_length_b   8.89714575
_cell_length_c   9.10537700
_cell_angle_alpha   90.00000000
_cell_angle_beta   90.00000000
_cell_angle_gamma   119.99608759
_symmetry_Int_Tables_number   1
_chemical_formula_structural   Er5Sc15(Zn3Ru)2
_chemical_formula_sum   'Er5 Sc15 Zn6 Ru2'
_cell_volume   624.23362008
_cell_formula_units_Z   1
loop_
 _symmetry_equiv_pos_site_id
 _symmetry_equiv_pos_as_xyz
  1  'x, y, z'
loop_
 _atom_site_type_symbol
 _atom_site_label
 _atom_site_symmetry_multiplicity
 _atom_site_fract_x
 _atom_site_fract_y
 _atom_site_fract_z
 _atom_site_occupancy
  Er  Er0  1  0.538716  0.080465  0.250000  1
  Er  Er1  1  0.919535  0.461284  0.250000  1
  Er  Er2  1  0.460634  0.539366  0.750000  1
  Er  Er3  1  0.460900  0.921932  0.750000  1
  Er  Er4  1  0.078068  0.539100  0.750000  1
  Sc  Sc5  1  0.000239  0.999761  0.499901  1
  Sc  Sc6  1  0.000239  0.999761  0.000099  1
  Sc  Sc7  1  0.207087  0.792913  0.442795  1
  Sc  Sc8  1  0.209471  0.414195  0.441099  1
  Sc  Sc9  1  0.585805  0.790529  0.441099  1
  Sc  Sc10  1  0.793148  0.206852  0.556764  1
  Sc  Sc11  1  0.791098  0.584848  0.554894  1
  Sc  Sc12  1  0.415152  0.208902  0.554894  1
  Sc  Sc13  1  0.793148  0.206852  0.943236  1
  Sc  Sc14  1  0.791098  0.584848  0.945106  1
  Sc  Sc15  1  0.415152  0.208902  0.945106  1
  Sc  Sc16  1  0.207087  0.792913  0.057205  1
  Sc  Sc17  1  0.209471  0.414195  0.058901  1
  Sc  Sc18  1  0.585805  0.790529  0.058901  1
  Sc  Sc19  1  0.539329  0.460671  0.250000  1
  Zn  Zn20  1  0.889698  0.110302  0.250000  1
  Zn  Zn21  1  0.884691  0.776401  0.250000  1
  Zn  Zn22  1  0.223599  0.115309  0.250000  1
  Zn  Zn23  1  0.109775  0.890225  0.750000  1
  Zn  Zn24  1  0.110395  0.219362  0.750000  1
  Zn  Zn25  1  0.780638  0.889605  0.750000  1
  Ru  Ru26  1  0.333194  0.666806  0.250000  1
  Ru  Ru27  1  0.666827  0.333173  0.750000  1
