# generated using pymatgen
data_TaMnBe4
_symmetry_space_group_name_H-M   'P 1'
_cell_length_a   4.35357600
_cell_length_b   4.35357651
_cell_length_c   7.21004000
_cell_angle_alpha   90.00000000
_cell_angle_beta   90.00000000
_cell_angle_gamma   119.99999614
_symmetry_Int_Tables_number   1
_chemical_formula_structural   TaMnBe4
_chemical_formula_sum   'Ta2 Mn2 Be8'
_cell_volume   118.34792123
_cell_formula_units_Z   2
loop_
 _symmetry_equiv_pos_site_id
 _symmetry_equiv_pos_as_xyz
  1  'x, y, z'
loop_
 _atom_site_type_symbol
 _atom_site_label
 _atom_site_symmetry_multiplicity
 _atom_site_fract_x
 _atom_site_fract_y
 _atom_site_fract_z
 _atom_site_occupancy
  Ta  Ta0  1  0.333333  0.666667  0.062313  1
  Ta  Ta1  1  0.666667  0.333333  0.562313  1
  Mn  Mn2  1  0.666667  0.333333  0.931375  1
  Mn  Mn3  1  0.333333  0.666667  0.431375  1
  Be  Be4  1  0.000000  0.000000  0.000145  1
  Be  Be5  1  0.000000  0.000000  0.500145  1
  Be  Be6  1  0.831394  0.662787  0.252056  1
  Be  Be7  1  0.168606  0.831394  0.752056  1
  Be  Be8  1  0.662787  0.831394  0.752056  1
  Be  Be9  1  0.337213  0.168606  0.252056  1
  Be  Be10  1  0.831394  0.168606  0.252056  1
  Be  Be11  1  0.168606  0.337213  0.752056  1
