# generated using pymatgen
data_Lu5(TcO6)2
_symmetry_space_group_name_H-M   'P 1'
_cell_length_a   6.68657703
_cell_length_b   6.68657713
_cell_length_c   7.36796709
_cell_angle_alpha   73.77248657
_cell_angle_beta   73.77248753
_cell_angle_gamma   49.43677109
_symmetry_Int_Tables_number   1
_chemical_formula_structural   Lu5(TcO6)2
_chemical_formula_sum   'Lu5 Tc2 O12'
_cell_volume   238.12291782
_cell_formula_units_Z   1
loop_
 _symmetry_equiv_pos_site_id
 _symmetry_equiv_pos_as_xyz
  1  'x, y, z'
loop_
 _atom_site_type_symbol
 _atom_site_label
 _atom_site_symmetry_multiplicity
 _atom_site_fract_x
 _atom_site_fract_y
 _atom_site_fract_z
 _atom_site_occupancy
  Lu  Lu0  1  0.696848  0.696848  0.640396  1
  Lu  Lu1  1  0.303152  0.303152  0.359604  1
  Lu  Lu2  1  0.684221  0.684221  0.178629  1
  Lu  Lu3  1  0.315779  0.315779  0.821371  1
  Lu  Lu4  1  0.000000  0.000000  0.500000  1
  Tc  Tc5  1  0.785066  0.214934  0.000000  1
  Tc  Tc6  1  0.214934  0.785066  0.000000  1
  O  O7  1  0.001608  0.001608  0.208487  1
  O  O8  1  0.998392  0.998392  0.791513  1
  O  O9  1  0.577839  0.086517  0.087323  1
  O  O10  1  0.422161  0.913483  0.912677  1
  O  O11  1  0.913483  0.422161  0.912677  1
  O  O12  1  0.086517  0.577839  0.087323  1
  O  O13  1  0.498975  0.498975  0.184410  1
  O  O14  1  0.501025  0.501025  0.815590  1
  O  O15  1  0.405372  0.901442  0.427310  1
  O  O16  1  0.594628  0.098558  0.572690  1
  O  O17  1  0.098558  0.594628  0.572690  1
  O  O18  1  0.901442  0.405372  0.427310  1
