# generated using pymatgen
data_Yb3HoAl16(SiIr3)2
_symmetry_space_group_name_H-M   'P 1'
_cell_length_a   7.53975494
_cell_length_b   7.54490662
_cell_length_c   9.41953000
_cell_angle_alpha   90.00000000
_cell_angle_beta   90.00000000
_cell_angle_gamma   119.54958287
_symmetry_Int_Tables_number   1
_chemical_formula_structural   Yb3HoAl16(SiIr3)2
_chemical_formula_sum   'Yb3 Ho1 Al16 Si2 Ir6'
_cell_volume   466.14846609
_cell_formula_units_Z   1
loop_
 _symmetry_equiv_pos_site_id
 _symmetry_equiv_pos_as_xyz
  1  'x, y, z'
loop_
 _atom_site_type_symbol
 _atom_site_label
 _atom_site_symmetry_multiplicity
 _atom_site_fract_x
 _atom_site_fract_y
 _atom_site_fract_z
 _atom_site_occupancy
  Yb  Yb0  1  0.993886  0.676792  0.250000  1
  Yb  Yb1  1  0.003881  0.323823  0.750000  1
  Yb  Yb2  1  0.677876  0.994713  0.250000  1
  Ho  Ho3  1  0.323139  0.002080  0.750000  1
  Al  Al4  1  0.001361  0.336535  0.072581  1
  Al  Al5  1  0.998647  0.662356  0.925418  1
  Al  Al6  1  0.998647  0.662356  0.574582  1
  Al  Al7  1  0.336645  0.001441  0.425966  1
  Al  Al8  1  0.001361  0.336535  0.427419  1
  Al  Al9  1  0.664185  0.999898  0.574712  1
  Al  Al10  1  0.664185  0.999898  0.925288  1
  Al  Al11  1  0.336645  0.001441  0.074034  1
  Al  Al12  1  0.334578  0.335059  0.555442  1
  Al  Al13  1  0.664028  0.664114  0.451075  1
  Al  Al14  1  0.664028  0.664114  0.048925  1
  Al  Al15  1  0.334578  0.335059  0.944558  1
  Al  Al16  1  0.332822  0.545938  0.250000  1
  Al  Al17  1  0.664004  0.451952  0.750000  1
  Al  Al18  1  0.546476  0.333920  0.250000  1
  Al  Al19  1  0.454158  0.667693  0.750000  1
  Si  Si20  1  0.132767  0.134250  0.250000  1
  Si  Si21  1  0.870601  0.868771  0.750000  1
  Ir  Ir22  1  0.670222  0.328696  0.999410  1
  Ir  Ir23  1  0.329656  0.671829  0.999441  1
  Ir  Ir24  1  0.329656  0.671829  0.500559  1
  Ir  Ir25  1  0.670222  0.328696  0.500590  1
  Ir  Ir26  1  0.000873  0.000107  0.998969  1
  Ir  Ir27  1  0.000873  0.000107  0.501031  1
