# generated using pymatgen
data_Th2Al3Zn5
_symmetry_space_group_name_H-M   'P 1'
_cell_length_a   6.13130532
_cell_length_b   6.13130623
_cell_length_c   5.98540208
_cell_angle_alpha   89.89369908
_cell_angle_beta   90.10630018
_cell_angle_gamma   121.45108264
_symmetry_Int_Tables_number   1
_chemical_formula_structural   Th2Al3Zn5
_chemical_formula_sum   'Th2 Al3 Zn5'
_cell_volume   191.95131243
_cell_formula_units_Z   1
loop_
 _symmetry_equiv_pos_site_id
 _symmetry_equiv_pos_as_xyz
  1  'x, y, z'
loop_
 _atom_site_type_symbol
 _atom_site_label
 _atom_site_symmetry_multiplicity
 _atom_site_fract_x
 _atom_site_fract_y
 _atom_site_fract_z
 _atom_site_occupancy
  Th  Th0  1  0.749836  0.250134  0.248708  1
  Th  Th1  1  0.250134  0.749836  0.751293  1
  Al  Al2  1  0.249242  0.249242  0.000000  1
  Al  Al3  1  0.750728  0.750728  0.000000  1
  Al  Al4  1  0.247308  0.247308  0.500000  1
  Zn  Zn5  1  0.367301  0.637007  0.253677  1
  Zn  Zn6  1  0.134853  0.860953  0.251544  1
  Zn  Zn7  1  0.752642  0.752642  0.500000  1
  Zn  Zn8  1  0.860953  0.134853  0.748457  1
  Zn  Zn9  1  0.637007  0.367301  0.746324  1
