# generated using pymatgen
data_CrInGaF6
_symmetry_space_group_name_H-M   'P 1'
_cell_length_a   7.49407900
_cell_length_b   7.22325300
_cell_length_c   10.23828100
_cell_angle_alpha   90.00000000
_cell_angle_beta   90.00000000
_cell_angle_gamma   90.00000000
_symmetry_Int_Tables_number   1
_chemical_formula_structural   CrInGaF6
_chemical_formula_sum   'Cr4 In4 Ga4 F24'
_cell_volume   554.21482479
_cell_formula_units_Z   4
loop_
 _symmetry_equiv_pos_site_id
 _symmetry_equiv_pos_as_xyz
  1  'x, y, z'
loop_
 _atom_site_type_symbol
 _atom_site_label
 _atom_site_symmetry_multiplicity
 _atom_site_fract_x
 _atom_site_fract_y
 _atom_site_fract_z
 _atom_site_occupancy
  Cr  Cr0  1  0.250000  0.704477  0.756831  1
  Cr  Cr1  1  0.750000  0.295523  0.243169  1
  Cr  Cr2  1  0.750000  0.795523  0.256831  1
  Cr  Cr3  1  0.250000  0.204477  0.743169  1
  In  In4  1  0.250000  0.495545  0.105622  1
  In  In5  1  0.750000  0.504455  0.894378  1
  In  In6  1  0.750000  0.004455  0.605622  1
  In  In7  1  0.250000  0.995545  0.394378  1
  Ga  Ga8  1  0.000000  0.500000  0.500000  1
  Ga  Ga9  1  0.000000  0.000000  0.000000  1
  Ga  Ga10  1  0.500000  0.500000  0.500000  1
  Ga  Ga11  1  0.500000  0.000000  0.000000  1
  F  F12  1  0.056473  0.773370  0.914299  1
  F  F13  1  0.943527  0.226630  0.085701  1
  F  F14  1  0.943527  0.726630  0.414299  1
  F  F15  1  0.556473  0.226630  0.085701  1
  F  F16  1  0.056473  0.273370  0.585701  1
  F  F17  1  0.443527  0.773370  0.914299  1
  F  F18  1  0.443527  0.273370  0.585701  1
  F  F19  1  0.556473  0.726630  0.414299  1
  F  F20  1  0.250000  0.067240  0.024275  1
  F  F21  1  0.750000  0.932760  0.975725  1
  F  F22  1  0.750000  0.432760  0.524275  1
  F  F23  1  0.250000  0.567240  0.475725  1
  F  F24  1  0.500108  0.631013  0.661588  1
  F  F25  1  0.499892  0.368987  0.338412  1
  F  F26  1  0.499892  0.868987  0.161588  1
  F  F27  1  0.000108  0.368987  0.338412  1
  F  F28  1  0.500108  0.131013  0.838412  1
  F  F29  1  0.999892  0.631013  0.661588  1
  F  F30  1  0.999892  0.131013  0.838412  1
  F  F31  1  0.000108  0.868987  0.161588  1
  F  F32  1  0.250000  0.949332  0.662560  1
  F  F33  1  0.750000  0.050668  0.337440  1
  F  F34  1  0.750000  0.550668  0.162560  1
  F  F35  1  0.250000  0.449332  0.837440  1
