# generated using pymatgen
data_SrMnNi5P6PbO24
_symmetry_space_group_name_H-M   'P 1'
_cell_length_a   9.04859371
_cell_length_b   9.05483394
_cell_length_c   9.04855900
_cell_angle_alpha   137.30837376
_cell_angle_beta   109.69694635
_cell_angle_gamma   85.84047489
_symmetry_Int_Tables_number   1
_chemical_formula_structural   SrMnNi5P6PbO24
_chemical_formula_sum   'Sr1 Mn1 Ni5 P6 Pb1 O24'
_cell_volume   455.10860015
_cell_formula_units_Z   1
loop_
 _symmetry_equiv_pos_site_id
 _symmetry_equiv_pos_as_xyz
  1  'x, y, z'
loop_
 _atom_site_type_symbol
 _atom_site_label
 _atom_site_symmetry_multiplicity
 _atom_site_fract_x
 _atom_site_fract_y
 _atom_site_fract_z
 _atom_site_occupancy
  Sr  Sr0  1  0.251534  0.841192  0.589664  1
  Mn  Mn1  1  0.000236  0.999927  0.999693  1
  Ni  Ni2  1  0.617092  0.614438  0.497449  1
  Ni  Ni3  1  0.383281  0.385885  0.502938  1
  Ni  Ni4  1  0.116922  0.614420  0.997278  1
  Ni  Ni5  1  0.882931  0.385872  0.002629  1
  Ni  Ni6  1  0.499508  0.499526  0.000020  1
  P  P7  1  0.321423  0.823514  0.000546  1
  P  P8  1  0.753167  0.667307  0.914141  1
  P  P9  1  0.177211  0.175893  0.497367  1
  P  P10  1  0.678526  0.175919  0.998715  1
  P  P11  1  0.246960  0.332692  0.085720  1
  P  P12  1  0.822984  0.823550  0.502139  1
  Pb  Pb13  1  0.748164  0.155902  0.407741  1
  O  O14  1  0.576349  0.928430  0.779476  1
  O  O15  1  0.072219  0.298174  0.639420  1
  O  O16  1  0.852382  0.894625  0.042242  1
  O  O17  1  0.340285  0.702996  0.773607  1
  O  O18  1  0.140952  0.207959  0.335119  1
  O  O19  1  0.335803  0.274579  0.938772  1
  O  O20  1  0.635915  0.701441  0.350249  1
  O  O21  1  0.859011  0.791842  0.664707  1
  O  O22  1  0.367400  0.479808  0.349270  1
  O  O23  1  0.148979  0.928398  0.352044  1
  O  O24  1  0.648885  0.298702  0.934513  1
  O  O25  1  0.631522  0.522556  0.652013  1
  O  O26  1  0.872838  0.207980  0.067038  1
  O  O27  1  0.851870  0.072047  0.649838  1
  O  O28  1  0.351180  0.701409  0.065511  1
  O  O29  1  0.364187  0.298685  0.649797  1
  O  O30  1  0.663420  0.722819  0.059418  1
  O  O31  1  0.929413  0.703063  0.362763  1
  O  O32  1  0.148249  0.104020  0.955788  1
  O  O33  1  0.870543  0.522545  0.891020  1
  O  O34  1  0.130522  0.479807  0.112420  1
  O  O35  1  0.127139  0.791821  0.932806  1
  O  O36  1  0.658777  0.298247  0.226009  1
  O  O37  1  0.422221  0.072009  0.220120  1
