# generated using pymatgen
data_Al11Tc3Ru
_symmetry_space_group_name_H-M   'P 1'
_cell_length_a   5.17403569
_cell_length_b   5.15917857
_cell_length_c   9.00699207
_cell_angle_alpha   105.05768899
_cell_angle_beta   90.50750173
_cell_angle_gamma   100.15712440
_symmetry_Int_Tables_number   1
_chemical_formula_structural   Al11Tc3Ru
_chemical_formula_sum   'Al11 Tc3 Ru1'
_cell_volume   228.15834642
_cell_formula_units_Z   1
loop_
 _symmetry_equiv_pos_site_id
 _symmetry_equiv_pos_as_xyz
  1  'x, y, z'
loop_
 _atom_site_type_symbol
 _atom_site_label
 _atom_site_symmetry_multiplicity
 _atom_site_fract_x
 _atom_site_fract_y
 _atom_site_fract_z
 _atom_site_occupancy
  Al  Al0  1  0.998687  0.999593  0.000889  1
  Al  Al1  1  0.944377  0.806384  0.668828  1
  Al  Al2  1  0.052885  0.196506  0.329081  1
  Al  Al3  1  0.797255  0.259375  0.634523  1
  Al  Al4  1  0.851375  0.532558  0.129380  1
  Al  Al5  1  0.149354  0.467592  0.871823  1
  Al  Al6  1  0.498560  0.898605  0.126838  1
  Al  Al7  1  0.501709  0.100065  0.874595  1
  Al  Al8  1  0.566738  0.319654  0.375783  1
  Al  Al9  1  0.435063  0.678216  0.623023  1
  Al  Al10  1  0.202742  0.743018  0.364769  1
  Tc  Tc11  1  0.722290  0.847264  0.401333  1
  Tc  Tc12  1  0.662263  0.608566  0.864943  1
  Tc  Tc13  1  0.338144  0.387524  0.132987  1
  Ru  Ru14  1  0.278557  0.155081  0.601204  1
