# generated using pymatgen
data_Tb4Tm4Mn(B8Ru)3
_symmetry_space_group_name_H-M   'P 1'
_cell_length_a   3.62463300
_cell_length_b   9.10186701
_cell_length_c   11.49428302
_cell_angle_alpha   89.99358073
_cell_angle_beta   90.00000000
_cell_angle_gamma   90.00000000
_symmetry_Int_Tables_number   1
_chemical_formula_structural   Tb4Tm4Mn(B8Ru)3
_chemical_formula_sum   'Tb4 Tm4 Mn1 B24 Ru3'
_cell_volume   379.20705581
_cell_formula_units_Z   1
loop_
 _symmetry_equiv_pos_site_id
 _symmetry_equiv_pos_as_xyz
  1  'x, y, z'
loop_
 _atom_site_type_symbol
 _atom_site_label
 _atom_site_symmetry_multiplicity
 _atom_site_fract_x
 _atom_site_fract_y
 _atom_site_fract_z
 _atom_site_occupancy
  Tb  Tb0  1  0.000000  0.325448  0.412884  1
  Tb  Tb1  1  0.000000  0.676748  0.582220  1
  Tb  Tb2  1  0.000000  0.820447  0.088163  1
  Tb  Tb3  1  0.000000  0.177420  0.915137  1
  Tm  Tm4  1  0.000000  0.940634  0.371360  1
  Tm  Tm5  1  0.000000  0.056659  0.627797  1
  Tm  Tm6  1  0.000000  0.446015  0.130488  1
  Tm  Tm7  1  0.000000  0.556543  0.871662  1
  Mn  Mn8  1  0.000000  0.638670  0.320190  1
  B  B9  1  0.500000  0.554825  0.431038  1
  B  B10  1  0.500000  0.446052  0.567174  1
  B  B11  1  0.500000  0.054329  0.067790  1
  B  B12  1  0.500000  0.945615  0.932711  1
  B  B13  1  0.500000  0.747276  0.417097  1
  B  B14  1  0.500000  0.250940  0.580794  1
  B  B15  1  0.500000  0.249846  0.081460  1
  B  B16  1  0.500000  0.750754  0.919119  1
  B  B17  1  0.500000  0.789829  0.266537  1
  B  B18  1  0.500000  0.208455  0.734080  1
  B  B19  1  0.500000  0.291924  0.234113  1
  B  B20  1  0.500000  0.708600  0.765707  1
  B  B21  1  0.500000  0.631194  0.186513  1
  B  B22  1  0.500000  0.368935  0.815393  1
  B  B23  1  0.500000  0.130796  0.315038  1
  B  B24  1  0.500000  0.868868  0.684534  1
  B  B25  1  0.500000  0.982937  0.213324  1
  B  B26  1  0.500000  0.016576  0.787046  1
  B  B27  1  0.500000  0.485818  0.287738  1
  B  B28  1  0.500000  0.516625  0.712891  1
  B  B29  1  0.500000  0.604339  0.028886  1
  B  B30  1  0.500000  0.395882  0.971683  1
  B  B31  1  0.500000  0.104288  0.471048  1
  B  B32  1  0.500000  0.895531  0.528488  1
  Ru  Ru33  1  0.000000  0.361056  0.680188  1
  Ru  Ru34  1  0.000000  0.138757  0.179581  1
  Ru  Ru35  1  0.000000  0.861371  0.820131  1
