# generated using pymatgen
data_Ho2Er10Os3Pt
_symmetry_space_group_name_H-M   'P 1'
_cell_length_a   6.37002101
_cell_length_b   7.32094586
_cell_length_c   8.98714200
_cell_angle_alpha   90.00000000
_cell_angle_beta   90.00000000
_cell_angle_gamma   90.16557051
_symmetry_Int_Tables_number   1
_chemical_formula_structural   Ho2Er10Os3Pt
_chemical_formula_sum   'Ho2 Er10 Os3 Pt1'
_cell_volume   419.10983300
_cell_formula_units_Z   1
loop_
 _symmetry_equiv_pos_site_id
 _symmetry_equiv_pos_as_xyz
  1  'x, y, z'
loop_
 _atom_site_type_symbol
 _atom_site_label
 _atom_site_symmetry_multiplicity
 _atom_site_fract_x
 _atom_site_fract_y
 _atom_site_fract_z
 _atom_site_occupancy
  Ho  Ho0  1  0.873746  0.533506  0.250000  1
  Ho  Ho1  1  0.623661  0.038672  0.250000  1
  Er  Er2  1  0.335658  0.671435  0.058829  1
  Er  Er3  1  0.171343  0.181640  0.441414  1
  Er  Er4  1  0.670082  0.323912  0.562597  1
  Er  Er5  1  0.824934  0.823462  0.933493  1
  Er  Er6  1  0.670082  0.323912  0.937403  1
  Er  Er7  1  0.824934  0.823462  0.566507  1
  Er  Er8  1  0.335658  0.671435  0.441171  1
  Er  Er9  1  0.171343  0.181640  0.058586  1
  Er  Er10  1  0.124499  0.462695  0.750000  1
  Er  Er11  1  0.370397  0.962838  0.750000  1
  Os  Os12  1  0.461467  0.384290  0.250000  1
  Os  Os13  1  0.964385  0.114827  0.750000  1
  Os  Os14  1  0.533566  0.615502  0.750000  1
  Pt  Pt15  1  0.044243  0.886773  0.250000  1
