# generated using pymatgen
data_Gd2Th3IrOs2
_symmetry_space_group_name_H-M   'P 1'
_cell_length_a   8.38579500
_cell_length_b   8.38579609
_cell_length_c   6.31109600
_cell_angle_alpha   90.00000000
_cell_angle_beta   90.00000000
_cell_angle_gamma   119.89707174
_symmetry_Int_Tables_number   1
_chemical_formula_structural   Gd2Th3IrOs2
_chemical_formula_sum   'Gd4 Th6 Ir2 Os4'
_cell_volume   384.74542320
_cell_formula_units_Z   2
loop_
 _symmetry_equiv_pos_site_id
 _symmetry_equiv_pos_as_xyz
  1  'x, y, z'
loop_
 _atom_site_type_symbol
 _atom_site_label
 _atom_site_symmetry_multiplicity
 _atom_site_fract_x
 _atom_site_fract_y
 _atom_site_fract_z
 _atom_site_occupancy
  Gd  Gd0  1  0.332600  0.667400  0.000000  1
  Gd  Gd1  1  0.667400  0.332600  0.000000  1
  Gd  Gd2  1  0.667400  0.332600  0.500000  1
  Gd  Gd3  1  0.332600  0.667400  0.500000  1
  Th  Th4  1  0.251587  0.995800  0.250000  1
  Th  Th5  1  0.748413  0.004200  0.750000  1
  Th  Th6  1  0.995800  0.251587  0.250000  1
  Th  Th7  1  0.004200  0.748413  0.750000  1
  Th  Th8  1  0.748504  0.748504  0.250000  1
  Th  Th9  1  0.251496  0.251496  0.750000  1
  Ir  Ir10  1  0.380949  0.380949  0.250000  1
  Ir  Ir11  1  0.619051  0.619051  0.750000  1
  Os  Os12  1  0.617301  0.998212  0.250000  1
  Os  Os13  1  0.382699  0.001788  0.750000  1
  Os  Os14  1  0.998212  0.617301  0.250000  1
  Os  Os15  1  0.001788  0.382699  0.750000  1
