# generated using pymatgen
data_RbAlSb4
_symmetry_space_group_name_H-M   'P 1'
_cell_length_a   4.32094300
_cell_length_b   10.69628500
_cell_length_c   18.55444600
_cell_angle_alpha   90.00000000
_cell_angle_beta   90.00000000
_cell_angle_gamma   90.00000000
_symmetry_Int_Tables_number   1
_chemical_formula_structural   RbAlSb4
_chemical_formula_sum   'Rb4 Al4 Sb16'
_cell_volume   857.55008653
_cell_formula_units_Z   4
loop_
 _symmetry_equiv_pos_site_id
 _symmetry_equiv_pos_as_xyz
  1  'x, y, z'
loop_
 _atom_site_type_symbol
 _atom_site_label
 _atom_site_symmetry_multiplicity
 _atom_site_fract_x
 _atom_site_fract_y
 _atom_site_fract_z
 _atom_site_occupancy
  Rb  Rb0  1  0.750000  0.178840  0.433788  1
  Rb  Rb1  1  0.250000  0.821160  0.566212  1
  Rb  Rb2  1  0.750000  0.678840  0.066212  1
  Rb  Rb3  1  0.250000  0.321160  0.933788  1
  Al  Al4  1  0.750000  0.317854  0.631650  1
  Al  Al5  1  0.250000  0.682146  0.368350  1
  Al  Al6  1  0.750000  0.817854  0.868350  1
  Al  Al7  1  0.250000  0.182146  0.131650  1
  Sb  Sb8  1  0.750000  0.828423  0.395925  1
  Sb  Sb9  1  0.250000  0.171577  0.604075  1
  Sb  Sb10  1  0.750000  0.328423  0.104075  1
  Sb  Sb11  1  0.250000  0.671577  0.895925  1
  Sb  Sb12  1  0.750000  0.390422  0.771792  1
  Sb  Sb13  1  0.250000  0.609578  0.228208  1
  Sb  Sb14  1  0.750000  0.890422  0.728208  1
  Sb  Sb15  1  0.250000  0.109578  0.271792  1
  Sb  Sb16  1  0.750000  0.530823  0.549558  1
  Sb  Sb17  1  0.250000  0.469177  0.450442  1
  Sb  Sb18  1  0.750000  0.030823  0.950442  1
  Sb  Sb19  1  0.250000  0.969177  0.049558  1
  Sb  Sb20  1  0.750000  0.929820  0.251796  1
  Sb  Sb21  1  0.250000  0.070180  0.748204  1
  Sb  Sb22  1  0.750000  0.429820  0.248204  1
  Sb  Sb23  1  0.250000  0.570180  0.751796  1
