# generated using pymatgen
data_YHo3Al24Pd7Au2
_symmetry_space_group_name_H-M   'P 1'
_cell_length_a   7.57845335
_cell_length_b   7.59749327
_cell_length_c   13.16419800
_cell_angle_alpha   84.53527586
_cell_angle_beta   78.98653406
_cell_angle_gamma   59.92691576
_symmetry_Int_Tables_number   1
_chemical_formula_structural   YHo3Al24Pd7Au2
_chemical_formula_sum   'Y1 Ho3 Al24 Pd7 Au2'
_cell_volume   643.84642256
_cell_formula_units_Z   1
loop_
 _symmetry_equiv_pos_site_id
 _symmetry_equiv_pos_as_xyz
  1  'x, y, z'
loop_
 _atom_site_type_symbol
 _atom_site_label
 _atom_site_symmetry_multiplicity
 _atom_site_fract_x
 _atom_site_fract_y
 _atom_site_fract_z
 _atom_site_occupancy
  Y  Y0  1  0.392375  0.169553  0.809124  1
  Ho  Ho1  1  0.607611  0.830437  0.190934  1
  Ho  Ho2  1  0.733853  0.498592  0.809634  1
  Ho  Ho3  1  0.266144  0.501417  0.190366  1
  Al  Al4  1  0.682744  0.834495  0.944898  1
  Al  Al5  1  0.317313  0.165422  0.055195  1
  Al  Al6  1  0.145237  0.838771  0.562513  1
  Al  Al7  1  0.854765  0.161226  0.437486  1
  Al  Al8  1  0.486901  0.160198  0.560038  1
  Al  Al9  1  0.513116  0.839797  0.439919  1
  Al  Al10  1  0.223672  0.159923  0.325639  1
  Al  Al11  1  0.776421  0.839998  0.674320  1
  Al  Al12  1  0.439890  0.507081  0.674734  1
  Al  Al13  1  0.560121  0.492998  0.325226  1
  Al  Al14  1  0.108807  0.153909  0.673061  1
  Al  Al15  1  0.891135  0.846081  0.326898  1
  Al  Al16  1  0.353550  0.498954  0.944499  1
  Al  Al17  1  0.646435  0.501131  0.055545  1
  Al  Al18  1  0.015281  0.167419  0.954314  1
  Al  Al19  1  0.984631  0.832577  0.045728  1
  Al  Al20  1  0.195106  0.499712  0.437009  1
  Al  Al21  1  0.804896  0.500288  0.562988  1
  Al  Al22  1  0.731607  0.164190  0.183372  1
  Al  Al23  1  0.268367  0.835724  0.816628  1
  Al  Al24  1  0.060043  0.634642  0.818159  1
  Al  Al25  1  0.939879  0.365460  0.181842  1
  Al  Al26  1  0.853661  0.043401  0.816268  1
  Al  Al27  1  0.146444  0.956576  0.183733  1
  Pd  Pd28  1  0.656886  0.171757  0.999746  1
  Pd  Pd29  1  0.343114  0.828244  0.000259  1
  Pd  Pd30  1  0.537382  0.166993  0.362430  1
  Pd  Pd31  1  0.462624  0.832966  0.637550  1
  Pd  Pd32  1  0.779198  0.175633  0.636897  1
  Pd  Pd33  1  0.220846  0.824365  0.363076  1
  Pd  Pd34  1  0.999996  0.500005  0.000005  1
  Au  Au35  1  0.119669  0.491027  0.637939  1
  Au  Au36  1  0.880281  0.509037  0.362024  1
