# generated using pymatgen
data_Gd2(TeO3)3
_symmetry_space_group_name_H-M   'P 1'
_cell_length_a   5.54665000
_cell_length_b   8.22281000
_cell_length_c   18.57989900
_cell_angle_alpha   90.00000000
_cell_angle_beta   90.00000000
_cell_angle_gamma   90.00000000
_symmetry_Int_Tables_number   1
_chemical_formula_structural   Gd2(TeO3)3
_chemical_formula_sum   'Gd8 Te12 O36'
_cell_volume   847.41152551
_cell_formula_units_Z   4
loop_
 _symmetry_equiv_pos_site_id
 _symmetry_equiv_pos_as_xyz
  1  'x, y, z'
loop_
 _atom_site_type_symbol
 _atom_site_label
 _atom_site_symmetry_multiplicity
 _atom_site_fract_x
 _atom_site_fract_y
 _atom_site_fract_z
 _atom_site_occupancy
  Gd  Gd0  1  0.749145  0.626658  0.054659  1
  Gd  Gd1  1  0.750855  0.126658  0.445341  1
  Gd  Gd2  1  0.249145  0.873342  0.945341  1
  Gd  Gd3  1  0.250855  0.373342  0.945341  1
  Gd  Gd4  1  0.749145  0.626658  0.445341  1
  Gd  Gd5  1  0.250855  0.373342  0.554659  1
  Gd  Gd6  1  0.249145  0.873342  0.554659  1
  Gd  Gd7  1  0.750855  0.126658  0.054659  1
  Te  Te8  1  0.695813  0.124711  0.250000  1
  Te  Te9  1  0.757203  0.156772  0.866195  1
  Te  Te10  1  0.242797  0.843228  0.133805  1
  Te  Te11  1  0.195813  0.375289  0.750000  1
  Te  Te12  1  0.742797  0.656772  0.866195  1
  Te  Te13  1  0.742797  0.656772  0.633805  1
  Te  Te14  1  0.257203  0.343228  0.366195  1
  Te  Te15  1  0.242797  0.843228  0.366195  1
  Te  Te16  1  0.257203  0.343228  0.133805  1
  Te  Te17  1  0.757203  0.156772  0.633805  1
  Te  Te18  1  0.304187  0.875289  0.750000  1
  Te  Te19  1  0.804187  0.624711  0.250000  1
  O  O20  1  0.391155  0.126297  0.120419  1
  O  O21  1  0.473560  0.838530  0.051949  1
  O  O22  1  0.108845  0.626297  0.379581  1
  O  O23  1  0.108845  0.626297  0.120419  1
  O  O24  1  0.473560  0.838530  0.448051  1
  O  O25  1  0.092612  0.833093  0.671338  1
  O  O26  1  0.956396  0.833019  0.250000  1
  O  O27  1  0.391155  0.126297  0.379581  1
  O  O28  1  0.608845  0.873703  0.620419  1
  O  O29  1  0.891155  0.373703  0.620419  1
  O  O30  1  0.501901  0.403227  0.437498  1
  O  O31  1  0.498099  0.596773  0.562502  1
  O  O32  1  0.407388  0.333093  0.671338  1
  O  O33  1  0.501901  0.403227  0.062502  1
  O  O34  1  0.043604  0.166981  0.750000  1
  O  O35  1  0.608845  0.873703  0.879581  1
  O  O36  1  0.001901  0.096773  0.562502  1
  O  O37  1  0.526440  0.161470  0.948051  1
  O  O38  1  0.456396  0.666981  0.750000  1
  O  O39  1  0.526440  0.161470  0.551949  1
  O  O40  1  0.026440  0.338530  0.051949  1
  O  O41  1  0.001901  0.096773  0.937498  1
  O  O42  1  0.973560  0.661470  0.948051  1
  O  O43  1  0.407388  0.333093  0.828662  1
  O  O44  1  0.498099  0.596773  0.937498  1
  O  O45  1  0.592612  0.666907  0.328662  1
  O  O46  1  0.891155  0.373703  0.879581  1
  O  O47  1  0.092612  0.833093  0.828662  1
  O  O48  1  0.907388  0.166907  0.328662  1
  O  O49  1  0.543604  0.333019  0.250000  1
  O  O50  1  0.026440  0.338530  0.448051  1
  O  O51  1  0.907388  0.166907  0.171338  1
  O  O52  1  0.998099  0.903227  0.062502  1
  O  O53  1  0.973560  0.661470  0.551949  1
  O  O54  1  0.998099  0.903227  0.437498  1
  O  O55  1  0.592612  0.666907  0.171338  1
