# generated using pymatgen
data_YHo(Ga3Ir)3
_symmetry_space_group_name_H-M   'P 1'
_cell_length_a   7.58886908
_cell_length_b   7.59172119
_cell_length_c   9.52498500
_cell_angle_alpha   90.00000000
_cell_angle_beta   90.00000000
_cell_angle_gamma   119.82943430
_symmetry_Int_Tables_number   1
_chemical_formula_structural   YHo(Ga3Ir)3
_chemical_formula_sum   'Y2 Ho2 Ga18 Ir6'
_cell_volume   476.05388784
_cell_formula_units_Z   2
loop_
 _symmetry_equiv_pos_site_id
 _symmetry_equiv_pos_as_xyz
  1  'x, y, z'
loop_
 _atom_site_type_symbol
 _atom_site_label
 _atom_site_symmetry_multiplicity
 _atom_site_fract_x
 _atom_site_fract_y
 _atom_site_fract_z
 _atom_site_occupancy
  Y  Y0  1  0.997332  0.668181  0.250000  1
  Y  Y1  1  0.002668  0.331819  0.750000  1
  Ho  Ho2  1  0.668227  0.997529  0.250000  1
  Ho  Ho3  1  0.331773  0.002471  0.750000  1
  Ga  Ga4  1  0.127488  0.127853  0.250000  1
  Ga  Ga5  1  0.872512  0.872147  0.750000  1
  Ga  Ga6  1  0.999369  0.333901  0.080276  1
  Ga  Ga7  1  0.000631  0.666099  0.919724  1
  Ga  Ga8  1  0.000631  0.666099  0.580276  1
  Ga  Ga9  1  0.334827  0.999815  0.420086  1
  Ga  Ga10  1  0.999369  0.333901  0.419724  1
  Ga  Ga11  1  0.665173  0.000185  0.579914  1
  Ga  Ga12  1  0.665173  0.000185  0.920086  1
  Ga  Ga13  1  0.334827  0.999815  0.079914  1
  Ga  Ga14  1  0.332512  0.332118  0.563741  1
  Ga  Ga15  1  0.667488  0.667882  0.436259  1
  Ga  Ga16  1  0.667488  0.667882  0.063741  1
  Ga  Ga17  1  0.332512  0.332118  0.936259  1
  Ga  Ga18  1  0.338921  0.546151  0.250000  1
  Ga  Ga19  1  0.661079  0.453849  0.750000  1
  Ga  Ga20  1  0.545546  0.337947  0.250000  1
  Ga  Ga21  1  0.454454  0.662053  0.750000  1
  Ir  Ir22  1  0.671446  0.328235  0.000005  1
  Ir  Ir23  1  0.328554  0.671765  0.999995  1
  Ir  Ir24  1  0.328554  0.671765  0.500005  1
  Ir  Ir25  1  0.671446  0.328235  0.499995  1
  Ir  Ir26  1  0.000000  0.000000  0.000000  1
  Ir  Ir27  1  0.000000  0.000000  0.500000  1
