# generated using pymatgen
data_DyY2Zr3(SnIr)6
_symmetry_space_group_name_H-M   'P 1'
_cell_length_a   7.48021601
_cell_length_b   7.47946576
_cell_length_c   7.62915600
_cell_angle_alpha   90.00000000
_cell_angle_beta   90.00000000
_cell_angle_gamma   119.99755445
_symmetry_Int_Tables_number   1
_chemical_formula_structural   DyY2Zr3(SnIr)6
_chemical_formula_sum   'Dy1 Y2 Zr3 Sn6 Ir6'
_cell_volume   369.66007463
_cell_formula_units_Z   1
loop_
 _symmetry_equiv_pos_site_id
 _symmetry_equiv_pos_as_xyz
  1  'x, y, z'
loop_
 _atom_site_type_symbol
 _atom_site_label
 _atom_site_symmetry_multiplicity
 _atom_site_fract_x
 _atom_site_fract_y
 _atom_site_fract_z
 _atom_site_occupancy
  Dy  Dy0  1  0.000454  0.406695  0.250000  1
  Y  Y1  1  0.406303  0.999614  0.250000  1
  Y  Y2  1  0.593282  0.593726  0.250000  1
  Zr  Zr3  1  0.607101  0.607754  0.750000  1
  Zr  Zr4  1  0.000739  0.392826  0.750000  1
  Zr  Zr5  1  0.392159  0.999176  0.750000  1
  Sn  Sn6  1  0.265900  0.265218  0.505729  1
  Sn  Sn7  1  0.265900  0.265218  0.994271  1
  Sn  Sn8  1  0.734756  0.000629  0.994273  1
  Sn  Sn9  1  0.999346  0.734090  0.505633  1
  Sn  Sn10  1  0.734756  0.000629  0.505727  1
  Sn  Sn11  1  0.999346  0.734090  0.994367  1
  Ir  Ir12  1  0.667053  0.333422  0.534091  1
  Ir  Ir13  1  0.667053  0.333422  0.965909  1
  Ir  Ir14  1  0.332926  0.666353  0.967307  1
  Ir  Ir15  1  0.332926  0.666353  0.532693  1
  Ir  Ir16  1  0.999998  0.999961  0.750000  1
  Ir  Ir17  1  0.000005  0.000825  0.250000  1
