# generated using pymatgen
data_DyCoP3Rh4
_symmetry_space_group_name_H-M   'P 1'
_cell_length_a   3.84590500
_cell_length_b   10.77048500
_cell_length_c   12.40322300
_cell_angle_alpha   90.00000000
_cell_angle_beta   90.00000000
_cell_angle_gamma   90.00000000
_symmetry_Int_Tables_number   1
_chemical_formula_structural   DyCoP3Rh4
_chemical_formula_sum   'Dy4 Co4 P12 Rh16'
_cell_volume   513.76955416
_cell_formula_units_Z   4
loop_
 _symmetry_equiv_pos_site_id
 _symmetry_equiv_pos_as_xyz
  1  'x, y, z'
loop_
 _atom_site_type_symbol
 _atom_site_label
 _atom_site_symmetry_multiplicity
 _atom_site_fract_x
 _atom_site_fract_y
 _atom_site_fract_z
 _atom_site_occupancy
  Dy  Dy0  1  0.250000  0.585234  0.707365  1
  Dy  Dy1  1  0.250000  0.914766  0.207365  1
  Dy  Dy2  1  0.750000  0.414766  0.292635  1
  Dy  Dy3  1  0.750000  0.085234  0.792635  1
  Co  Co4  1  0.250000  0.464331  0.933807  1
  Co  Co5  1  0.250000  0.035669  0.433807  1
  Co  Co6  1  0.750000  0.535669  0.066193  1
  Co  Co7  1  0.750000  0.964331  0.566193  1
  P  P8  1  0.250000  0.423826  0.105983  1
  P  P9  1  0.250000  0.076174  0.605983  1
  P  P10  1  0.750000  0.576174  0.894017  1
  P  P11  1  0.750000  0.923826  0.394017  1
  P  P12  1  0.250000  0.272203  0.872588  1
  P  P13  1  0.250000  0.227797  0.372588  1
  P  P14  1  0.750000  0.727797  0.127412  1
  P  P15  1  0.750000  0.772203  0.627412  1
  P  P16  1  0.250000  0.599767  0.388133  1
  P  P17  1  0.250000  0.900233  0.888133  1
  P  P18  1  0.750000  0.400233  0.611867  1
  P  P19  1  0.750000  0.099767  0.111867  1
  Rh  Rh20  1  0.250000  0.716301  0.987782  1
  Rh  Rh21  1  0.250000  0.783699  0.487782  1
  Rh  Rh22  1  0.750000  0.283699  0.012218  1
  Rh  Rh23  1  0.750000  0.216301  0.512218  1
  Rh  Rh24  1  0.250000  0.408192  0.480059  1
  Rh  Rh25  1  0.250000  0.091808  0.980059  1
  Rh  Rh26  1  0.750000  0.591808  0.519941  1
  Rh  Rh27  1  0.750000  0.908192  0.019941  1
  Rh  Rh28  1  0.250000  0.227571  0.178391  1
  Rh  Rh29  1  0.250000  0.272429  0.678391  1
  Rh  Rh30  1  0.750000  0.772429  0.821609  1
  Rh  Rh31  1  0.750000  0.727571  0.321609  1
  Rh  Rh32  1  0.250000  0.886945  0.698964  1
  Rh  Rh33  1  0.250000  0.613055  0.198964  1
  Rh  Rh34  1  0.750000  0.113055  0.301036  1
  Rh  Rh35  1  0.750000  0.386945  0.801036  1
