# generated using pymatgen
data_Np2PSe
_symmetry_space_group_name_H-M   'P 1'
_cell_length_a   6.96794454
_cell_length_b   6.96794447
_cell_length_c   6.96794376
_cell_angle_alpha   34.05806700
_cell_angle_beta   34.05806808
_cell_angle_gamma   34.05806510
_symmetry_Int_Tables_number   1
_chemical_formula_structural   Np2PSe
_chemical_formula_sum   'Np2 P1 Se1'
_cell_volume   94.58972138
_cell_formula_units_Z   1
loop_
 _symmetry_equiv_pos_site_id
 _symmetry_equiv_pos_as_xyz
  1  'x, y, z'
loop_
 _atom_site_type_symbol
 _atom_site_label
 _atom_site_symmetry_multiplicity
 _atom_site_fract_x
 _atom_site_fract_y
 _atom_site_fract_z
 _atom_site_occupancy
  Np  Np0  1  0.255442  0.255442  0.255442  1
  Np  Np1  1  0.744558  0.744558  0.744558  1
  P  P2  1  0.000000  0.000000  0.000000  1
  Se  Se3  1  0.500000  0.500000  0.500000  1
