# generated using pymatgen
data_Y3Ho9Pd4
_symmetry_space_group_name_H-M   'P 1'
_cell_length_a   7.00716505
_cell_length_b   9.61556400
_cell_length_c   6.48822890
_cell_angle_alpha   90.00000000
_cell_angle_beta   90.08766438
_cell_angle_gamma   90.00000000
_symmetry_Int_Tables_number   1
_chemical_formula_structural   Y3Ho9Pd4
_chemical_formula_sum   'Y3 Ho9 Pd4'
_cell_volume   437.16236288
_cell_formula_units_Z   1
loop_
 _symmetry_equiv_pos_site_id
 _symmetry_equiv_pos_as_xyz
  1  'x, y, z'
loop_
 _atom_site_type_symbol
 _atom_site_label
 _atom_site_symmetry_multiplicity
 _atom_site_fract_x
 _atom_site_fract_y
 _atom_site_fract_z
 _atom_site_occupancy
  Y  Y0  1  0.478782  0.250000  0.131324  1
  Y  Y1  1  0.978628  0.250000  0.368669  1
  Y  Y2  1  0.021184  0.750000  0.631540  1
  Ho  Ho3  1  0.181249  0.559522  0.175747  1
  Ho  Ho4  1  0.181249  0.940478  0.175747  1
  Ho  Ho5  1  0.680825  0.559395  0.323656  1
  Ho  Ho6  1  0.680825  0.940605  0.323656  1
  Ho  Ho7  1  0.319123  0.059077  0.676220  1
  Ho  Ho8  1  0.319123  0.440923  0.676220  1
  Ho  Ho9  1  0.818824  0.059220  0.824084  1
  Ho  Ho10  1  0.818824  0.440780  0.824084  1
  Ho  Ho11  1  0.522390  0.750000  0.868120  1
  Pd  Pd12  1  0.889243  0.750000  0.060051  1
  Pd  Pd13  1  0.391080  0.750000  0.440786  1
  Pd  Pd14  1  0.609302  0.250000  0.560948  1
  Pd  Pd15  1  0.109345  0.250000  0.939143  1
