# generated using pymatgen
data_La2Dy18Si15Os
_symmetry_space_group_name_H-M   'P 1'
_cell_length_a   7.43599502
_cell_length_b   7.79103512
_cell_length_c   14.67866811
_cell_angle_alpha   89.66790249
_cell_angle_beta   90.00864127
_cell_angle_gamma   89.95020116
_symmetry_Int_Tables_number   1
_chemical_formula_structural   La2Dy18Si15Os
_chemical_formula_sum   'La2 Dy18 Si15 Os1'
_cell_volume   850.38078560
_cell_formula_units_Z   1
loop_
 _symmetry_equiv_pos_site_id
 _symmetry_equiv_pos_as_xyz
  1  'x, y, z'
loop_
 _atom_site_type_symbol
 _atom_site_label
 _atom_site_symmetry_multiplicity
 _atom_site_fract_x
 _atom_site_fract_y
 _atom_site_fract_z
 _atom_site_occupancy
  La  La0  1  0.522599  0.569157  0.342503  1
  La  La1  1  0.024151  0.428454  0.657787  1
  Dy  Dy2  1  0.806268  0.576797  0.877782  1
  Dy  Dy3  1  0.324366  0.431872  0.123168  1
  Dy  Dy4  1  0.183513  0.928408  0.372829  1
  Dy  Dy5  1  0.682751  0.069289  0.626802  1
  Dy  Dy6  1  0.183648  0.927493  0.628691  1
  Dy  Dy7  1  0.682414  0.070389  0.371833  1
  Dy  Dy8  1  0.809552  0.573879  0.123184  1
  Dy  Dy9  1  0.327179  0.436741  0.875587  1
  Dy  Dy10  1  0.643681  0.238818  0.999653  1
  Dy  Dy11  1  0.159126  0.761435  0.000376  1
  Dy  Dy12  1  0.350515  0.263885  0.499786  1
  Dy  Dy13  1  0.849234  0.734231  0.499963  1
  Dy  Dy14  1  0.477456  0.924817  0.849281  1
  Dy  Dy15  1  0.973193  0.065764  0.151198  1
  Dy  Dy16  1  0.475809  0.925158  0.150124  1
  Dy  Dy17  1  0.971713  0.066417  0.849649  1
  Dy  Dy18  1  0.528675  0.564795  0.652001  1
  Dy  Dy19  1  0.027287  0.433687  0.347502  1
  Si  Si20  1  0.018736  0.350228  0.999576  1
  Si  Si21  1  0.475878  0.858720  0.501093  1
  Si  Si22  1  0.978711  0.139836  0.499065  1
  Si  Si23  1  0.652499  0.275698  0.789626  1
  Si  Si24  1  0.146744  0.721322  0.210001  1
  Si  Si25  1  0.352261  0.215754  0.286823  1
  Si  Si26  1  0.850282  0.783966  0.713157  1
  Si  Si27  1  0.362478  0.219233  0.711716  1
  Si  Si28  1  0.859185  0.780679  0.288303  1
  Si  Si29  1  0.648782  0.268158  0.207186  1
  Si  Si30  1  0.141154  0.728529  0.792797  1
  Si  Si31  1  0.767211  0.883278  0.000329  1
  Si  Si32  1  0.257914  0.126296  0.999554  1
  Si  Si33  1  0.232878  0.626496  0.501963  1
  Si  Si34  1  0.734109  0.373676  0.498803  1
  Os  Os35  1  0.518045  0.656644  0.000305  1
