# generated using pymatgen
data_Lu5ReTcC7
_symmetry_space_group_name_H-M   'P 1'
_cell_length_a   8.14081802
_cell_length_b   8.14081836
_cell_length_c   3.35601200
_cell_angle_alpha   90.00000000
_cell_angle_beta   90.00000000
_cell_angle_gamma   121.64418000
_symmetry_Int_Tables_number   1
_chemical_formula_structural   Lu5ReTcC7
_chemical_formula_sum   'Lu5 Re1 Tc1 C7'
_cell_volume   189.34498225
_cell_formula_units_Z   1
loop_
 _symmetry_equiv_pos_site_id
 _symmetry_equiv_pos_as_xyz
  1  'x, y, z'
loop_
 _atom_site_type_symbol
 _atom_site_label
 _atom_site_symmetry_multiplicity
 _atom_site_fract_x
 _atom_site_fract_y
 _atom_site_fract_z
 _atom_site_occupancy
  Lu  Lu0  1  0.336952  0.078464  0.500000  1
  Lu  Lu1  1  0.661466  0.920775  0.500000  1
  Lu  Lu2  1  0.079225  0.338534  0.500000  1
  Lu  Lu3  1  0.921536  0.663048  0.500000  1
  Lu  Lu4  1  0.499710  0.500290  0.000000  1
  Re  Re5  1  0.715389  0.284611  0.000000  1
  Tc  Tc6  1  0.285069  0.714931  0.000000  1
  C  C7  1  0.171014  0.170953  0.000000  1
  C  C8  1  0.829047  0.828986  0.000000  1
  C  C9  1  0.000257  0.999743  0.000000  1
  C  C10  1  0.377370  0.622630  0.500000  1
  C  C11  1  0.622902  0.377098  0.500000  1
  C  C12  1  0.501151  0.001088  0.000000  1
  C  C13  1  0.998912  0.498849  0.000000  1
