# generated using pymatgen
data_K7RbSr4(ZrAs4)2
_symmetry_space_group_name_H-M   'P 1'
_cell_length_a   10.54161976
_cell_length_b   10.54531487
_cell_length_c   7.88840520
_cell_angle_alpha   88.17330725
_cell_angle_beta   87.92303850
_cell_angle_gamma   119.44295570
_symmetry_Int_Tables_number   1
_chemical_formula_structural   K7RbSr4(ZrAs4)2
_chemical_formula_sum   'K7 Rb1 Sr4 Zr2 As8'
_cell_volume   761.90832766
_cell_formula_units_Z   1
loop_
 _symmetry_equiv_pos_site_id
 _symmetry_equiv_pos_as_xyz
  1  'x, y, z'
loop_
 _atom_site_type_symbol
 _atom_site_label
 _atom_site_symmetry_multiplicity
 _atom_site_fract_x
 _atom_site_fract_y
 _atom_site_fract_z
 _atom_site_occupancy
  K  K0  1  0.475714  0.941004  0.385070  1
  K  K1  1  0.940824  0.474141  0.885338  1
  K  K2  1  0.865353  0.718113  0.168496  1
  K  K3  1  0.268861  0.128615  0.233916  1
  K  K4  1  0.855815  0.140799  0.195415  1
  K  K5  1  0.128120  0.269027  0.734113  1
  K  K6  1  0.717794  0.865464  0.667738  1
  Rb  Rb7  1  0.137717  0.856957  0.690401  1
  Sr  Sr8  1  0.072267  0.530853  0.394899  1
  Sr  Sr9  1  0.475109  0.529899  0.377796  1
  Sr  Sr10  1  0.533208  0.072942  0.894643  1
  Sr  Sr11  1  0.530684  0.475314  0.876916  1
  Zr  Zr12  1  0.664867  0.335126  0.489322  1
  Zr  Zr13  1  0.336152  0.664628  0.991881  1
  As  As14  1  0.639772  0.328628  0.155973  1
  As  As15  1  0.329332  0.639398  0.658181  1
  As  As16  1  0.209165  0.398490  0.134480  1
  As  As17  1  0.609177  0.797736  0.076841  1
  As  As18  1  0.208515  0.806123  0.106055  1
  As  As19  1  0.793483  0.606670  0.575091  1
  As  As20  1  0.400689  0.212312  0.634371  1
  As  As21  1  0.807497  0.207877  0.601128  1
