# generated using pymatgen
data_AuNF10
_symmetry_space_group_name_H-M   'P 1'
_cell_length_a   5.75124858
_cell_length_b   7.74128507
_cell_length_c   9.17275466
_cell_angle_alpha   88.78679595
_cell_angle_beta   109.60937712
_cell_angle_gamma   96.74585652
_symmetry_Int_Tables_number   1
_chemical_formula_structural   AuNF10
_chemical_formula_sum   'Au2 N2 F20'
_cell_volume   381.96828191
_cell_formula_units_Z   2
loop_
 _symmetry_equiv_pos_site_id
 _symmetry_equiv_pos_as_xyz
  1  'x, y, z'
loop_
 _atom_site_type_symbol
 _atom_site_label
 _atom_site_symmetry_multiplicity
 _atom_site_fract_x
 _atom_site_fract_y
 _atom_site_fract_z
 _atom_site_occupancy
  Au  Au0  1  0.996951  0.753215  0.294340  1
  Au  Au1  1  0.003049  0.246785  0.705660  1
  N  N2  1  0.296285  0.273846  0.214794  1
  N  N3  1  0.703715  0.726154  0.785206  1
  F  F4  1  0.063639  0.233265  0.214001  1
  F  F5  1  0.936361  0.766735  0.785999  1
  F  F6  1  0.368280  0.140671  0.155583  1
  F  F7  1  0.631720  0.859329  0.844417  1
  F  F8  1  0.928715  0.192821  0.896537  1
  F  F9  1  0.071285  0.807179  0.103463  1
  F  F10  1  0.074752  0.301099  0.516631  1
  F  F11  1  0.925248  0.698901  0.483369  1
  F  F12  1  0.782763  0.043117  0.602645  1
  F  F13  1  0.217237  0.956883  0.397355  1
  F  F14  1  0.280141  0.107759  0.779756  1
  F  F15  1  0.719859  0.892241  0.220244  1
  F  F16  1  0.218384  0.454834  0.809572  1
  F  F17  1  0.781616  0.545166  0.190428  1
  F  F18  1  0.723060  0.383785  0.634715  1
  F  F19  1  0.276940  0.616215  0.365285  1
  F  F20  1  0.694262  0.586034  0.872309  1
  F  F21  1  0.305738  0.413966  0.127691  1
  F  F22  1  0.549794  0.693005  0.639964  1
  F  F23  1  0.450206  0.306995  0.360036  1
