# generated using pymatgen
data_Tm19LuBi11Au
_symmetry_space_group_name_H-M   'P 1'
_cell_length_a   8.12105687
_cell_length_b   9.41326300
_cell_length_c   11.88543804
_cell_angle_alpha   90.00000000
_cell_angle_beta   89.52793698
_cell_angle_gamma   90.00000000
_symmetry_Int_Tables_number   1
_chemical_formula_structural   Tm19LuBi11Au
_chemical_formula_sum   'Tm19 Lu1 Bi11 Au1'
_cell_volume   908.55912943
_cell_formula_units_Z   1
loop_
 _symmetry_equiv_pos_site_id
 _symmetry_equiv_pos_as_xyz
  1  'x, y, z'
loop_
 _atom_site_type_symbol
 _atom_site_label
 _atom_site_symmetry_multiplicity
 _atom_site_fract_x
 _atom_site_fract_y
 _atom_site_fract_z
 _atom_site_occupancy
  Tm  Tm0  1  0.980726  0.750000  0.490894  1
  Tm  Tm1  1  0.475758  0.750000  0.010816  1
  Tm  Tm2  1  0.525716  0.250000  0.989670  1
  Tm  Tm3  1  0.357387  0.250000  0.295405  1
  Tm  Tm4  1  0.649146  0.750000  0.716610  1
  Tm  Tm5  1  0.149547  0.750000  0.781901  1
  Tm  Tm6  1  0.851404  0.250000  0.215991  1
  Tm  Tm7  1  0.196062  0.250000  0.778614  1
  Tm  Tm8  1  0.809540  0.750000  0.216753  1
  Tm  Tm9  1  0.313306  0.750000  0.281690  1
  Tm  Tm10  1  0.670413  0.250000  0.709103  1
  Tm  Tm11  1  0.192649  0.065912  0.061791  1
  Tm  Tm12  1  0.806596  0.934428  0.940593  1
  Tm  Tm13  1  0.309490  0.954030  0.559484  1
  Tm  Tm14  1  0.806596  0.565572  0.940593  1
  Tm  Tm15  1  0.685070  0.071680  0.446107  1
  Tm  Tm16  1  0.192649  0.434088  0.061791  1
  Tm  Tm17  1  0.685070  0.428320  0.446107  1
  Tm  Tm18  1  0.309490  0.545970  0.559484  1
  Lu  Lu19  1  0.039346  0.250000  0.507592  1
  Bi  Bi20  1  0.594397  0.750000  0.456986  1
  Bi  Bi21  1  0.095819  0.750000  0.042214  1
  Bi  Bi22  1  0.906683  0.250000  0.954155  1
  Bi  Bi23  1  0.060863  0.001931  0.323645  1
  Bi  Bi24  1  0.935172  0.998666  0.675588  1
  Bi  Bi25  1  0.435915  0.996015  0.826212  1
  Bi  Bi26  1  0.935172  0.501334  0.675588  1
  Bi  Bi27  1  0.564498  0.004147  0.174684  1
  Bi  Bi28  1  0.060863  0.498069  0.323645  1
  Bi  Bi29  1  0.564498  0.495853  0.174684  1
  Bi  Bi30  1  0.435915  0.503985  0.826212  1
  Au  Au31  1  0.404238  0.250000  0.535397  1
