# generated using pymatgen
data_Y8Ho12Bi11Te
_symmetry_space_group_name_H-M   'P 1'
_cell_length_a   8.21434188
_cell_length_b   9.46118100
_cell_length_c   12.06299700
_cell_angle_alpha   90.00000000
_cell_angle_beta   90.31083249
_cell_angle_gamma   90.00000000
_symmetry_Int_Tables_number   1
_chemical_formula_structural   Y8Ho12Bi11Te
_chemical_formula_sum   'Y8 Ho12 Bi11 Te1'
_cell_volume   937.49066931
_cell_formula_units_Z   1
loop_
 _symmetry_equiv_pos_site_id
 _symmetry_equiv_pos_as_xyz
  1  'x, y, z'
loop_
 _atom_site_type_symbol
 _atom_site_label
 _atom_site_symmetry_multiplicity
 _atom_site_fract_x
 _atom_site_fract_y
 _atom_site_fract_z
 _atom_site_occupancy
  Y  Y0  1  0.187266  0.750000  0.720889  1
  Y  Y1  1  0.679717  0.750000  0.784574  1
  Y  Y2  1  0.812642  0.250000  0.280241  1
  Y  Y3  1  0.314778  0.250000  0.219244  1
  Y  Y4  1  0.353924  0.750000  0.212014  1
  Y  Y5  1  0.850956  0.750000  0.284695  1
  Y  Y6  1  0.648446  0.250000  0.785524  1
  Y  Y7  1  0.148217  0.250000  0.716391  1
  Ho  Ho8  1  0.025701  0.750000  0.988906  1
  Ho  Ho9  1  0.526627  0.750000  0.511393  1
  Ho  Ho10  1  0.976008  0.250000  0.009805  1
  Ho  Ho11  1  0.474334  0.250000  0.489001  1
  Ho  Ho12  1  0.308459  0.439159  0.940914  1
  Ho  Ho13  1  0.806746  0.063137  0.559368  1
  Ho  Ho14  1  0.691520  0.933724  0.057495  1
  Ho  Ho15  1  0.193669  0.564219  0.439924  1
  Ho  Ho16  1  0.691520  0.566276  0.057495  1
  Ho  Ho17  1  0.193669  0.935781  0.439924  1
  Ho  Ho18  1  0.308459  0.060841  0.940914  1
  Ho  Ho19  1  0.806746  0.436863  0.559368  1
  Bi  Bi20  1  0.434034  0.004051  0.673916  1
  Bi  Bi21  1  0.933559  0.497244  0.826070  1
  Bi  Bi22  1  0.566168  0.504370  0.326607  1
  Bi  Bi23  1  0.066207  0.996127  0.172918  1
  Bi  Bi24  1  0.566168  0.995630  0.326607  1
  Bi  Bi25  1  0.066207  0.503873  0.172918  1
  Bi  Bi26  1  0.434034  0.495949  0.673916  1
  Bi  Bi27  1  0.933559  0.002756  0.826070  1
  Bi  Bi28  1  0.910286  0.750000  0.543008  1
  Bi  Bi29  1  0.592405  0.250000  0.042205  1
  Bi  Bi30  1  0.090869  0.250000  0.458190  1
  Te  Te31  1  0.407102  0.750000  0.959500  1
