# generated using pymatgen
data_HfAlGa2(CuNi3)3
_symmetry_space_group_name_H-M   'P 1'
_cell_length_a   3.71655700
_cell_length_b   3.71655700
_cell_length_c   13.83085600
_cell_angle_alpha   90.00000000
_cell_angle_beta   90.00000000
_cell_angle_gamma   90.00000000
_symmetry_Int_Tables_number   1
_chemical_formula_structural   HfAlGa2(CuNi3)3
_chemical_formula_sum   'Hf1 Al1 Ga2 Cu3 Ni9'
_cell_volume   191.04279152
_cell_formula_units_Z   1
loop_
 _symmetry_equiv_pos_site_id
 _symmetry_equiv_pos_as_xyz
  1  'x, y, z'
loop_
 _atom_site_type_symbol
 _atom_site_label
 _atom_site_symmetry_multiplicity
 _atom_site_fract_x
 _atom_site_fract_y
 _atom_site_fract_z
 _atom_site_occupancy
  Hf  Hf0  1  0.000000  0.000000  0.000848  1
  Al  Al1  1  0.000000  0.000000  0.255313  1
  Ga  Ga2  1  0.000000  0.000000  0.499239  1
  Ga  Ga3  1  0.000000  0.000000  0.744756  1
  Cu  Cu4  1  0.500000  0.500000  0.255747  1
  Cu  Cu5  1  0.500000  0.500000  0.499683  1
  Cu  Cu6  1  0.500000  0.500000  0.743931  1
  Ni  Ni7  1  0.500000  0.500000  0.000362  1
  Ni  Ni8  1  0.500000  0.000000  0.134491  1
  Ni  Ni9  1  0.500000  0.000000  0.376374  1
  Ni  Ni10  1  0.500000  0.000000  0.622353  1
  Ni  Ni11  1  0.500000  0.000000  0.866843  1
  Ni  Ni12  1  0.000000  0.500000  0.134491  1
  Ni  Ni13  1  0.000000  0.500000  0.376374  1
  Ni  Ni14  1  0.000000  0.500000  0.622353  1
  Ni  Ni15  1  0.000000  0.500000  0.866843  1
