# generated using pymatgen
data_DyHoV2(WO6)2
_symmetry_space_group_name_H-M   'P 1'
_cell_length_a   5.22474603
_cell_length_b   7.43218304
_cell_length_c   11.17802400
_cell_angle_alpha   90.00000000
_cell_angle_beta   90.00000000
_cell_angle_gamma   90.01215781
_symmetry_Int_Tables_number   1
_chemical_formula_structural   DyHoV2(WO6)2
_chemical_formula_sum   'Dy2 Ho2 V4 W4 O24'
_cell_volume   434.05684525
_cell_formula_units_Z   2
loop_
 _symmetry_equiv_pos_site_id
 _symmetry_equiv_pos_as_xyz
  1  'x, y, z'
loop_
 _atom_site_type_symbol
 _atom_site_label
 _atom_site_symmetry_multiplicity
 _atom_site_fract_x
 _atom_site_fract_y
 _atom_site_fract_z
 _atom_site_occupancy
  Dy  Dy0  1  0.544046  0.250869  0.045179  1
  Dy  Dy1  1  0.044045  0.750869  0.454821  1
  Ho  Ho2  1  0.955415  0.250930  0.545210  1
  Ho  Ho3  1  0.455414  0.750930  0.954790  1
  V  V4  1  0.050354  0.997689  0.134018  1
  V  V5  1  0.550352  0.497689  0.365982  1
  V  V6  1  0.449619  0.997898  0.634070  1
  V  V7  1  0.949618  0.497898  0.865929  1
  W  W8  1  0.056472  0.506132  0.143723  1
  W  W9  1  0.556470  0.006132  0.356276  1
  W  W10  1  0.443509  0.505952  0.643855  1
  W  W11  1  0.943510  0.005952  0.856145  1
  O  O12  1  0.755478  0.959330  0.019873  1
  O  O13  1  0.764230  0.547191  0.029728  1
  O  O14  1  0.181693  0.749458  0.115587  1
  O  O15  1  0.933332  0.258177  0.143344  1
  O  O16  1  0.375816  0.432472  0.206137  1
  O  O17  1  0.393061  0.068767  0.213313  1
  O  O18  1  0.893060  0.568767  0.286687  1
  O  O19  1  0.875815  0.932472  0.293863  1
  O  O20  1  0.433331  0.758177  0.356656  1
  O  O21  1  0.681692  0.249458  0.384413  1
  O  O22  1  0.264231  0.047191  0.470271  1
  O  O23  1  0.255479  0.459330  0.480127  1
  O  O24  1  0.744144  0.960216  0.520000  1
  O  O25  1  0.735410  0.546473  0.529857  1
  O  O26  1  0.319148  0.749374  0.615940  1
  O  O27  1  0.567719  0.258139  0.643175  1
  O  O28  1  0.123900  0.432136  0.705864  1
  O  O29  1  0.106656  0.068995  0.713061  1
  O  O30  1  0.606655  0.568995  0.786940  1
  O  O31  1  0.623899  0.932136  0.794136  1
  O  O32  1  0.067718  0.758139  0.856824  1
  O  O33  1  0.819147  0.249374  0.884059  1
  O  O34  1  0.235411  0.046473  0.970142  1
  O  O35  1  0.244145  0.460216  0.980000  1
