# generated using pymatgen
data_Ho3ThHgRu
_symmetry_space_group_name_H-M   'P 1'
_cell_length_a   9.64442297
_cell_length_b   9.64442289
_cell_length_c   9.64442300
_cell_angle_alpha   59.99999619
_cell_angle_beta   59.99999647
_cell_angle_gamma   59.99999737
_symmetry_Int_Tables_number   1
_chemical_formula_structural   Ho3ThHgRu
_chemical_formula_sum   'Ho12 Th4 Hg4 Ru4'
_cell_volume   634.32775347
_cell_formula_units_Z   4
loop_
 _symmetry_equiv_pos_site_id
 _symmetry_equiv_pos_as_xyz
  1  'x, y, z'
loop_
 _atom_site_type_symbol
 _atom_site_label
 _atom_site_symmetry_multiplicity
 _atom_site_fract_x
 _atom_site_fract_y
 _atom_site_fract_z
 _atom_site_occupancy
  Ho  Ho0  1  0.061976  0.438024  0.438024  1
  Ho  Ho1  1  0.438024  0.061976  0.061976  1
  Ho  Ho2  1  0.438024  0.061976  0.438024  1
  Ho  Ho3  1  0.061976  0.438024  0.061976  1
  Ho  Ho4  1  0.438024  0.438024  0.061976  1
  Ho  Ho5  1  0.061976  0.061976  0.438024  1
  Ho  Ho6  1  0.185869  0.814131  0.814131  1
  Ho  Ho7  1  0.814131  0.185869  0.185869  1
  Ho  Ho8  1  0.814131  0.185869  0.814131  1
  Ho  Ho9  1  0.185869  0.814131  0.185869  1
  Ho  Ho10  1  0.814131  0.814131  0.185869  1
  Ho  Ho11  1  0.185869  0.185869  0.814131  1
  Th  Th12  1  0.598915  0.598915  0.598915  1
  Th  Th13  1  0.598915  0.598915  0.203257  1
  Th  Th14  1  0.598915  0.203257  0.598915  1
  Th  Th15  1  0.203257  0.598915  0.598915  1
  Hg  Hg16  1  0.834876  0.834876  0.834876  1
  Hg  Hg17  1  0.834876  0.834876  0.495372  1
  Hg  Hg18  1  0.834876  0.495372  0.834876  1
  Hg  Hg19  1  0.495372  0.834876  0.834876  1
  Ru  Ru20  1  0.393215  0.393215  0.393215  1
  Ru  Ru21  1  0.393215  0.393215  0.820354  1
  Ru  Ru22  1  0.393215  0.820354  0.393215  1
  Ru  Ru23  1  0.820354  0.393215  0.393215  1
