# generated using pymatgen
data_Ho7Lu13Pb16
_symmetry_space_group_name_H-M   'P 1'
_cell_length_a   8.11761250
_cell_length_b   15.40579689
_cell_length_c   8.18151526
_cell_angle_alpha   90.02586914
_cell_angle_beta   89.86072338
_cell_angle_gamma   90.14557078
_symmetry_Int_Tables_number   1
_chemical_formula_structural   Ho7Lu13Pb16
_chemical_formula_sum   'Ho7 Lu13 Pb16'
_cell_volume   1023.15987572
_cell_formula_units_Z   1
loop_
 _symmetry_equiv_pos_site_id
 _symmetry_equiv_pos_as_xyz
  1  'x, y, z'
loop_
 _atom_site_type_symbol
 _atom_site_label
 _atom_site_symmetry_multiplicity
 _atom_site_fract_x
 _atom_site_fract_y
 _atom_site_fract_z
 _atom_site_occupancy
  Ho  Ho0  1  0.962516  0.900461  0.823246  1
  Ho  Ho1  1  0.537783  0.099047  0.323324  1
  Ho  Ho2  1  0.038778  0.400932  0.176103  1
  Ho  Ho3  1  0.538466  0.400842  0.324325  1
  Ho  Ho4  1  0.037326  0.098717  0.176389  1
  Ho  Ho5  1  0.462461  0.900765  0.676500  1
  Ho  Ho6  1  0.961747  0.599173  0.823599  1
  Lu  Lu7  1  0.623661  0.622587  0.157855  1
  Lu  Lu8  1  0.124733  0.877651  0.342818  1
  Lu  Lu9  1  0.375488  0.122065  0.842568  1
  Lu  Lu10  1  0.875631  0.378575  0.657812  1
  Lu  Lu11  1  0.376876  0.378494  0.841738  1
  Lu  Lu12  1  0.875282  0.121682  0.656981  1
  Lu  Lu13  1  0.624507  0.877178  0.157047  1
  Lu  Lu14  1  0.124306  0.622171  0.342616  1
  Lu  Lu15  1  0.459096  0.600441  0.674594  1
  Lu  Lu16  1  0.792645  0.749685  0.495008  1
  Lu  Lu17  1  0.293059  0.749701  0.005138  1
  Lu  Lu18  1  0.207440  0.250309  0.505392  1
  Lu  Lu19  1  0.707542  0.250146  0.994736  1
  Pb  Pb20  1  0.717818  0.456883  0.966521  1
  Pb  Pb21  1  0.217352  0.042781  0.535754  1
  Pb  Pb22  1  0.283650  0.956767  0.034868  1
  Pb  Pb23  1  0.780431  0.543300  0.467173  1
  Pb  Pb24  1  0.284822  0.543439  0.033717  1
  Pb  Pb25  1  0.783426  0.956864  0.464392  1
  Pb  Pb26  1  0.716088  0.042481  0.964360  1
  Pb  Pb27  1  0.216904  0.458063  0.535899  1
  Pb  Pb28  1  0.430466  0.750056  0.373672  1
  Pb  Pb29  1  0.930861  0.749660  0.127025  1
  Pb  Pb30  1  0.569731  0.250084  0.626817  1
  Pb  Pb31  1  0.069312  0.250029  0.872613  1
  Pb  Pb32  1  0.649978  0.749030  0.843334  1
  Pb  Pb33  1  0.151794  0.749831  0.656129  1
  Pb  Pb34  1  0.348316  0.250215  0.155462  1
  Pb  Pb35  1  0.849706  0.249896  0.344474  1
