# generated using pymatgen
data_TbDy5(Si3Os)8
_symmetry_space_group_name_H-M   'P 1'
_cell_length_a   10.13714462
_cell_length_b   10.13714413
_cell_length_c   8.16400102
_cell_angle_alpha   90.01615771
_cell_angle_beta   89.98384144
_cell_angle_gamma   132.55851081
_symmetry_Int_Tables_number   1
_chemical_formula_structural   TbDy5(Si3Os)8
_chemical_formula_sum   'Tb1 Dy5 Si24 Os8'
_cell_volume   617.95715294
_cell_formula_units_Z   1
loop_
 _symmetry_equiv_pos_site_id
 _symmetry_equiv_pos_as_xyz
  1  'x, y, z'
loop_
 _atom_site_type_symbol
 _atom_site_label
 _atom_site_symmetry_multiplicity
 _atom_site_fract_x
 _atom_site_fract_y
 _atom_site_fract_z
 _atom_site_occupancy
  Tb  Tb0  1  0.001017  0.501017  0.750000  1
  Dy  Dy1  1  0.501023  0.001023  0.750000  1
  Dy  Dy2  1  0.999075  0.499075  0.250000  1
  Dy  Dy3  1  0.498918  0.998918  0.250000  1
  Dy  Dy4  1  0.999989  0.000003  0.000017  1
  Dy  Dy5  1  0.500003  0.499989  0.499983  1
  Si  Si6  1  0.795027  0.204595  0.499898  1
  Si  Si7  1  0.704595  0.295027  0.000102  1
  Si  Si8  1  0.204921  0.795430  0.499905  1
  Si  Si9  1  0.295430  0.704921  0.000095  1
  Si  Si10  1  0.667602  0.667833  0.166842  1
  Si  Si11  1  0.167833  0.167602  0.333158  1
  Si  Si12  1  0.832351  0.832280  0.666839  1
  Si  Si13  1  0.332280  0.332351  0.833161  1
  Si  Si14  1  0.844749  0.611050  0.995937  1
  Si  Si15  1  0.111050  0.344749  0.504063  1
  Si  Si16  1  0.655050  0.888965  0.495751  1
  Si  Si17  1  0.388965  0.155050  0.004249  1
  Si  Si18  1  0.155203  0.388908  0.004487  1
  Si  Si19  1  0.888908  0.655203  0.495513  1
  Si  Si20  1  0.121307  0.886676  0.728017  1
  Si  Si21  1  0.386676  0.621307  0.771983  1
  Si  Si22  1  0.379302  0.613943  0.228011  1
  Si  Si23  1  0.113943  0.879302  0.271989  1
  Si  Si24  1  0.878972  0.113613  0.272101  1
  Si  Si25  1  0.613613  0.378972  0.227899  1
  Si  Si26  1  0.620382  0.385804  0.771933  1
  Si  Si27  1  0.885804  0.120382  0.728067  1
  Si  Si28  1  0.611056  0.844954  0.995680  1
  Si  Si29  1  0.344954  0.111056  0.504320  1
  Os  Os30  1  0.626781  0.626732  0.872174  1
  Os  Os31  1  0.126732  0.126781  0.627826  1
  Os  Os32  1  0.373287  0.373240  0.127807  1
  Os  Os33  1  0.873240  0.873287  0.372193  1
  Os  Os34  1  0.168962  0.830771  0.000062  1
  Os  Os35  1  0.330771  0.668962  0.499938  1
  Os  Os36  1  0.830998  0.169232  0.000347  1
  Os  Os37  1  0.669232  0.330998  0.499653  1
