# generated using pymatgen
data_Dy5Ho4Er3Ru4
_symmetry_space_group_name_H-M   'P 1'
_cell_length_a   6.29132305
_cell_length_b   7.29462597
_cell_length_c   9.13759911
_cell_angle_alpha   89.99550295
_cell_angle_beta   90.08574177
_cell_angle_gamma   90.02882403
_symmetry_Int_Tables_number   1
_chemical_formula_structural   Dy5Ho4Er3Ru4
_chemical_formula_sum   'Dy5 Ho4 Er3 Ru4'
_cell_volume   419.34992793
_cell_formula_units_Z   1
loop_
 _symmetry_equiv_pos_site_id
 _symmetry_equiv_pos_as_xyz
  1  'x, y, z'
loop_
 _atom_site_type_symbol
 _atom_site_label
 _atom_site_symmetry_multiplicity
 _atom_site_fract_x
 _atom_site_fract_y
 _atom_site_fract_z
 _atom_site_occupancy
  Dy  Dy0  1  0.669169  0.323007  0.935745  1
  Dy  Dy1  1  0.866635  0.539782  0.250396  1
  Dy  Dy2  1  0.633347  0.039450  0.250197  1
  Dy  Dy3  1  0.133830  0.460631  0.749698  1
  Dy  Dy4  1  0.366227  0.960198  0.749729  1
  Ho  Ho5  1  0.330551  0.677188  0.064871  1
  Ho  Ho6  1  0.169001  0.176729  0.435475  1
  Ho  Ho7  1  0.669234  0.323302  0.564097  1
  Ho  Ho8  1  0.831166  0.823264  0.935409  1
  Er  Er9  1  0.831082  0.823202  0.564450  1
  Er  Er10  1  0.330884  0.676728  0.435447  1
  Er  Er11  1  0.168903  0.176500  0.064760  1
  Ru  Ru12  1  0.040844  0.884472  0.250485  1
  Ru  Ru13  1  0.458706  0.384638  0.250016  1
  Ru  Ru14  1  0.959672  0.115128  0.750219  1
  Ru  Ru15  1  0.540750  0.615783  0.749008  1
