# generated using pymatgen
data_YbCeCdRh2
_symmetry_space_group_name_H-M   'P 1'
_cell_length_a   7.59764700
_cell_length_b   7.55887900
_cell_length_c   3.70071000
_cell_angle_alpha   90.00000000
_cell_angle_beta   90.00000000
_cell_angle_gamma   90.00000000
_symmetry_Int_Tables_number   1
_chemical_formula_structural   YbCeCdRh2
_chemical_formula_sum   'Yb2 Ce2 Cd2 Rh4'
_cell_volume   212.53064421
_cell_formula_units_Z   2
loop_
 _symmetry_equiv_pos_site_id
 _symmetry_equiv_pos_as_xyz
  1  'x, y, z'
loop_
 _atom_site_type_symbol
 _atom_site_label
 _atom_site_symmetry_multiplicity
 _atom_site_fract_x
 _atom_site_fract_y
 _atom_site_fract_z
 _atom_site_occupancy
  Yb  Yb0  1  0.665162  0.165478  0.500000  1
  Yb  Yb1  1  0.165162  0.334522  0.500000  1
  Ce  Ce2  1  0.833666  0.659817  0.500000  1
  Ce  Ce3  1  0.333666  0.840183  0.500000  1
  Cd  Cd4  1  0.992940  0.014893  0.000000  1
  Cd  Cd5  1  0.492940  0.485107  0.000000  1
  Rh  Rh6  1  0.861239  0.388326  0.000000  1
  Rh  Rh7  1  0.361239  0.111674  0.000000  1
  Rh  Rh8  1  0.646994  0.848639  0.000000  1
  Rh  Rh9  1  0.146994  0.651361  0.000000  1
