# generated using pymatgen
data_Ac8Zn8AgIr6Rh
_symmetry_space_group_name_H-M   'P 1'
_cell_length_a   4.17465000
_cell_length_b   7.65797259
_cell_length_c   17.41737818
_cell_angle_alpha   89.63676660
_cell_angle_beta   90.00000000
_cell_angle_gamma   90.00000000
_symmetry_Int_Tables_number   1
_chemical_formula_structural   Ac8Zn8AgIr6Rh
_chemical_formula_sum   'Ac8 Zn8 Ag1 Ir6 Rh1'
_cell_volume   556.81116158
_cell_formula_units_Z   1
loop_
 _symmetry_equiv_pos_site_id
 _symmetry_equiv_pos_as_xyz
  1  'x, y, z'
loop_
 _atom_site_type_symbol
 _atom_site_label
 _atom_site_symmetry_multiplicity
 _atom_site_fract_x
 _atom_site_fract_y
 _atom_site_fract_z
 _atom_site_occupancy
  Ac  Ac0  1  0.250000  0.170056  0.938881  1
  Ac  Ac1  1  0.250000  0.666388  0.569905  1
  Ac  Ac2  1  0.750000  0.325560  0.441439  1
  Ac  Ac3  1  0.750000  0.964379  0.273353  1
  Ac  Ac4  1  0.750000  0.825718  0.059729  1
  Ac  Ac5  1  0.750000  0.447136  0.213499  1
  Ac  Ac6  1  0.250000  0.050908  0.721120  1
  Ac  Ac7  1  0.250000  0.547930  0.785446  1
  Zn  Zn8  1  0.750000  0.013424  0.569193  1
  Zn  Zn9  1  0.250000  0.617742  0.338599  1
  Zn  Zn10  1  0.750000  0.368658  0.649133  1
  Zn  Zn11  1  0.250000  0.492815  0.056534  1
  Zn  Zn12  1  0.750000  0.501576  0.942265  1
  Zn  Zn13  1  0.250000  0.008134  0.442758  1
  Zn  Zn14  1  0.250000  0.128829  0.138233  1
  Zn  Zn15  1  0.750000  0.868106  0.854916  1
  Ag  Ag16  1  0.750000  0.765111  0.430884  1
  Ir  Ir17  1  0.250000  0.247042  0.320021  1
  Ir  Ir18  1  0.750000  0.254005  0.816556  1
  Ir  Ir19  1  0.750000  0.757387  0.684525  1
  Ir  Ir20  1  0.250000  0.237074  0.567688  1
  Ir  Ir21  1  0.250000  0.746893  0.186419  1
  Ir  Ir22  1  0.750000  0.261938  0.064252  1
  Rh  Rh23  1  0.250000  0.733188  0.934651  1
