# generated using pymatgen
data_Na8Ga(Sn4Hg)3
_symmetry_space_group_name_H-M   'P 1'
_cell_length_a   10.29221500
_cell_length_b   10.29221282
_cell_length_c   7.29814300
_cell_angle_alpha   90.00000000
_cell_angle_beta   90.00000000
_cell_angle_gamma   119.99999736
_symmetry_Int_Tables_number   1
_chemical_formula_structural   Na8Ga(Sn4Hg)3
_chemical_formula_sum   'Na8 Ga1 Sn12 Hg3'
_cell_volume   669.51547503
_cell_formula_units_Z   1
loop_
 _symmetry_equiv_pos_site_id
 _symmetry_equiv_pos_as_xyz
  1  'x, y, z'
loop_
 _atom_site_type_symbol
 _atom_site_label
 _atom_site_symmetry_multiplicity
 _atom_site_fract_x
 _atom_site_fract_y
 _atom_site_fract_z
 _atom_site_occupancy
  Na  Na0  1  0.524673  0.049345  0.249533  1
  Na  Na1  1  0.047676  0.523838  0.748990  1
  Na  Na2  1  0.476162  0.523838  0.748990  1
  Na  Na3  1  0.524673  0.475327  0.249533  1
  Na  Na4  1  0.476162  0.952324  0.748990  1
  Na  Na5  1  0.950655  0.475327  0.249533  1
  Na  Na6  1  0.000000  0.000000  0.749864  1
  Na  Na7  1  0.000000  0.000000  0.244504  1
  Ga  Ga8  1  0.333333  0.666667  0.063495  1
  Sn  Sn9  1  0.170910  0.829090  0.042697  1
  Sn  Sn10  1  0.831713  0.663426  0.541689  1
  Sn  Sn11  1  0.336574  0.168287  0.541689  1
  Sn  Sn12  1  0.832560  0.167440  0.954864  1
  Sn  Sn13  1  0.832560  0.665119  0.954864  1
  Sn  Sn14  1  0.831713  0.168287  0.541689  1
  Sn  Sn15  1  0.334881  0.167440  0.954864  1
  Sn  Sn16  1  0.658179  0.829090  0.042697  1
  Sn  Sn17  1  0.665179  0.832589  0.456495  1
  Sn  Sn18  1  0.167411  0.334821  0.456495  1
  Sn  Sn19  1  0.167411  0.832589  0.456495  1
  Sn  Sn20  1  0.170910  0.341821  0.042697  1
  Hg  Hg21  1  0.333333  0.666667  0.457743  1
  Hg  Hg22  1  0.666667  0.333333  0.539109  1
  Hg  Hg23  1  0.666667  0.333333  0.962478  1
