# generated using pymatgen
data_Ho7Tm3In8CoPt3
_symmetry_space_group_name_H-M   'P 1'
_cell_length_a   3.58360100
_cell_length_b   8.08959498
_cell_length_c   18.08836281
_cell_angle_alpha   89.97644810
_cell_angle_beta   90.00000000
_cell_angle_gamma   90.00000000
_symmetry_Int_Tables_number   1
_chemical_formula_structural   Ho7Tm3In8CoPt3
_chemical_formula_sum   'Ho7 Tm3 In8 Co1 Pt3'
_cell_volume   524.37943523
_cell_formula_units_Z   1
loop_
 _symmetry_equiv_pos_site_id
 _symmetry_equiv_pos_as_xyz
  1  'x, y, z'
loop_
 _atom_site_type_symbol
 _atom_site_label
 _atom_site_symmetry_multiplicity
 _atom_site_fract_x
 _atom_site_fract_y
 _atom_site_fract_z
 _atom_site_occupancy
  Ho  Ho0  1  0.000000  0.617461  0.086823  1
  Ho  Ho1  1  0.000000  0.231557  0.224226  1
  Ho  Ho2  1  0.000000  0.760106  0.779786  1
  Ho  Ho3  1  0.000000  0.259188  0.719952  1
  Ho  Ho4  1  0.000000  0.754027  0.280062  1
  Ho  Ho5  1  0.000000  0.999685  0.001028  1
  Ho  Ho6  1  0.000000  0.501326  0.498491  1
  Tm  Tm7  1  0.000000  0.111774  0.408627  1
  Tm  Tm8  1  0.000000  0.883613  0.583613  1
  Tm  Tm9  1  0.000000  0.383641  0.915789  1
  In  In10  1  0.500000  0.419014  0.351138  1
  In  In11  1  0.500000  0.578878  0.647928  1
  In  In12  1  0.500000  0.078539  0.851678  1
  In  In13  1  0.500000  0.927991  0.152597  1
  In  In14  1  0.500000  0.291285  0.068038  1
  In  In15  1  0.500000  0.707193  0.934472  1
  In  In16  1  0.500000  0.206931  0.563549  1
  In  In17  1  0.500000  0.796792  0.429922  1
  Co  Co18  1  0.500000  0.018008  0.305615  1
  Pt  Pt19  1  0.500000  0.976831  0.694559  1
  Pt  Pt20  1  0.500000  0.475534  0.804612  1
  Pt  Pt21  1  0.500000  0.520623  0.197494  1
