# generated using pymatgen
data_Tb3Eu(CuSe2)4
_symmetry_space_group_name_H-M   'P 1'
_cell_length_a   7.36427382
_cell_length_b   6.68644463
_cell_length_c   7.15151860
_cell_angle_alpha   83.71121535
_cell_angle_beta   89.94998607
_cell_angle_gamma   89.69892987
_symmetry_Int_Tables_number   1
_chemical_formula_structural   Tb3Eu(CuSe2)4
_chemical_formula_sum   'Tb3 Eu1 Cu4 Se8'
_cell_volume   350.02264271
_cell_formula_units_Z   1
loop_
 _symmetry_equiv_pos_site_id
 _symmetry_equiv_pos_as_xyz
  1  'x, y, z'
loop_
 _atom_site_type_symbol
 _atom_site_label
 _atom_site_symmetry_multiplicity
 _atom_site_fract_x
 _atom_site_fract_y
 _atom_site_fract_z
 _atom_site_occupancy
  Tb  Tb0  1  0.042450  0.190984  0.201162  1
  Tb  Tb1  1  0.456579  0.194812  0.701204  1
  Tb  Tb2  1  0.955768  0.806768  0.797936  1
  Eu  Eu3  1  0.545803  0.805722  0.302720  1
  Cu  Cu4  1  0.339375  0.575348  0.955349  1
  Cu  Cu5  1  0.659755  0.424434  0.046331  1
  Cu  Cu6  1  0.159271  0.574537  0.454631  1
  Cu  Cu7  1  0.841711  0.428920  0.546200  1
  Se  Se8  1  0.776697  0.079054  0.505443  1
  Se  Se9  1  0.728814  0.075299  0.998605  1
  Se  Se10  1  0.271216  0.928324  0.992392  1
  Se  Se11  1  0.219028  0.927325  0.499376  1
  Se  Se12  1  0.383981  0.394897  0.278123  1
  Se  Se13  1  0.892161  0.592002  0.217728  1
  Se  Se14  1  0.613338  0.596766  0.724143  1
  Se  Se15  1  0.114052  0.404808  0.778657  1
