# generated using pymatgen
data_DyCoP3Ir4
_symmetry_space_group_name_H-M   'P 1'
_cell_length_a   3.93407000
_cell_length_b   10.71769700
_cell_length_c   12.39133900
_cell_angle_alpha   90.00000000
_cell_angle_beta   90.00000000
_cell_angle_gamma   90.00000000
_symmetry_Int_Tables_number   1
_chemical_formula_structural   DyCoP3Ir4
_chemical_formula_sum   'Dy4 Co4 P12 Ir16'
_cell_volume   522.47052706
_cell_formula_units_Z   4
loop_
 _symmetry_equiv_pos_site_id
 _symmetry_equiv_pos_as_xyz
  1  'x, y, z'
loop_
 _atom_site_type_symbol
 _atom_site_label
 _atom_site_symmetry_multiplicity
 _atom_site_fract_x
 _atom_site_fract_y
 _atom_site_fract_z
 _atom_site_occupancy
  Dy  Dy0  1  0.250000  0.585563  0.709745  1
  Dy  Dy1  1  0.250000  0.914437  0.209745  1
  Dy  Dy2  1  0.750000  0.414437  0.290255  1
  Dy  Dy3  1  0.750000  0.085563  0.790255  1
  Co  Co4  1  0.250000  0.461708  0.933986  1
  Co  Co5  1  0.250000  0.038292  0.433986  1
  Co  Co6  1  0.750000  0.538292  0.066014  1
  Co  Co7  1  0.750000  0.961708  0.566014  1
  P  P8  1  0.250000  0.426106  0.105521  1
  P  P9  1  0.250000  0.073894  0.605521  1
  P  P10  1  0.750000  0.573894  0.894479  1
  P  P11  1  0.750000  0.926106  0.394479  1
  P  P12  1  0.250000  0.271251  0.871405  1
  P  P13  1  0.250000  0.228749  0.371405  1
  P  P14  1  0.750000  0.728749  0.128595  1
  P  P15  1  0.750000  0.771251  0.628595  1
  P  P16  1  0.250000  0.594502  0.384849  1
  P  P17  1  0.250000  0.905498  0.884849  1
  P  P18  1  0.750000  0.405498  0.615151  1
  P  P19  1  0.750000  0.094502  0.115151  1
  Ir  Ir20  1  0.250000  0.721142  0.980804  1
  Ir  Ir21  1  0.250000  0.778858  0.480804  1
  Ir  Ir22  1  0.750000  0.278858  0.019196  1
  Ir  Ir23  1  0.750000  0.221142  0.519196  1
  Ir  Ir24  1  0.250000  0.407665  0.478311  1
  Ir  Ir25  1  0.250000  0.092335  0.978311  1
  Ir  Ir26  1  0.750000  0.592335  0.521689  1
  Ir  Ir27  1  0.750000  0.907665  0.021689  1
  Ir  Ir28  1  0.250000  0.231739  0.179577  1
  Ir  Ir29  1  0.250000  0.268261  0.679577  1
  Ir  Ir30  1  0.750000  0.768261  0.820423  1
  Ir  Ir31  1  0.750000  0.731739  0.320423  1
  Ir  Ir32  1  0.250000  0.886035  0.698734  1
  Ir  Ir33  1  0.250000  0.613965  0.198734  1
  Ir  Ir34  1  0.750000  0.113965  0.301266  1
  Ir  Ir35  1  0.750000  0.386035  0.801266  1
