# generated using pymatgen
data_LaPa(PSe3)4
_symmetry_space_group_name_H-M   'P 1'
_cell_length_a   7.61184100
_cell_length_b   7.61184100
_cell_length_c   10.47294300
_cell_angle_alpha   90.00000000
_cell_angle_beta   90.00000000
_cell_angle_gamma   90.00000000
_symmetry_Int_Tables_number   1
_chemical_formula_structural   LaPa(PSe3)4
_chemical_formula_sum   'La1 Pa1 P4 Se12'
_cell_volume   606.80360988
_cell_formula_units_Z   1
loop_
 _symmetry_equiv_pos_site_id
 _symmetry_equiv_pos_as_xyz
  1  'x, y, z'
loop_
 _atom_site_type_symbol
 _atom_site_label
 _atom_site_symmetry_multiplicity
 _atom_site_fract_x
 _atom_site_fract_y
 _atom_site_fract_z
 _atom_site_occupancy
  La  La0  1  0.000000  0.000000  0.250000  1
  Pa  Pa1  1  0.000000  0.000000  0.750000  1
  P  P2  1  0.054060  0.353182  0.500636  1
  P  P3  1  0.945940  0.646818  0.500636  1
  P  P4  1  0.353182  0.945940  0.999364  1
  P  P5  1  0.646818  0.054060  0.999364  1
  Se  Se6  1  0.199068  0.307263  0.682622  1
  Se  Se7  1  0.673188  0.209727  0.171996  1
  Se  Se8  1  0.172217  0.175798  0.988162  1
  Se  Se9  1  0.824202  0.172217  0.511838  1
  Se  Se10  1  0.175798  0.827783  0.511838  1
  Se  Se11  1  0.827783  0.824202  0.988162  1
  Se  Se12  1  0.209727  0.326812  0.328004  1
  Se  Se13  1  0.692737  0.199068  0.817378  1
  Se  Se14  1  0.307263  0.800932  0.817378  1
  Se  Se15  1  0.790273  0.673188  0.328004  1
  Se  Se16  1  0.800932  0.692737  0.682622  1
  Se  Se17  1  0.326812  0.790273  0.171996  1
