# generated using pymatgen
data_Dy2Ho3Co11(P3Ru2)4
_symmetry_space_group_name_H-M   'P 1'
_cell_length_a   12.22947703
_cell_length_b   12.25401796
_cell_length_c   3.73856700
_cell_angle_alpha   90.00000000
_cell_angle_beta   90.00000000
_cell_angle_gamma   119.92265971
_symmetry_Int_Tables_number   1
_chemical_formula_structural   Dy2Ho3Co11(P3Ru2)4
_chemical_formula_sum   'Dy2 Ho3 Co11 P12 Ru8'
_cell_volume   485.57926181
_cell_formula_units_Z   1
loop_
 _symmetry_equiv_pos_site_id
 _symmetry_equiv_pos_as_xyz
  1  'x, y, z'
loop_
 _atom_site_type_symbol
 _atom_site_label
 _atom_site_symmetry_multiplicity
 _atom_site_fract_x
 _atom_site_fract_y
 _atom_site_fract_z
 _atom_site_occupancy
  Dy  Dy0  1  0.667177  0.333267  0.000000  1
  Dy  Dy1  1  0.328699  0.663023  0.000000  1
  Ho  Ho2  1  0.819201  0.818872  0.500000  1
  Ho  Ho3  1  0.180345  0.000338  0.500000  1
  Ho  Ho4  1  0.000075  0.181463  0.500000  1
  Co  Co5  1  0.128381  0.481494  0.500000  1
  Co  Co6  1  0.803854  0.172587  0.000000  1
  Co  Co7  1  0.829261  0.630252  0.000000  1
  Co  Co8  1  0.367909  0.197224  0.000000  1
  Co  Co9  1  0.172233  0.802795  0.000000  1
  Co  Co10  1  0.630979  0.827538  0.000000  1
  Co  Co11  1  0.194581  0.372352  0.000000  1
  Co  Co12  1  0.279297  0.281914  0.500000  1
  Co  Co13  1  0.719231  0.999928  0.500000  1
  Co  Co14  1  0.000882  0.718302  0.500000  1
  Co  Co15  1  0.000224  0.999633  0.000000  1
  P  P16  1  0.686454  0.161841  0.500000  1
  P  P17  1  0.840909  0.524106  0.500000  1
  P  P18  1  0.475132  0.316246  0.500000  1
  P  P19  1  0.159573  0.680361  0.500000  1
  P  P20  1  0.523606  0.839472  0.500000  1
  P  P21  1  0.309601  0.475754  0.500000  1
  P  P22  1  0.177052  0.178880  0.000000  1
  P  P23  1  0.822269  0.999820  0.000000  1
  P  P24  1  0.000261  0.821642  0.000000  1
  P  P25  1  0.637171  0.637890  0.000000  1
  P  P26  1  0.361401  0.999621  0.000000  1
  P  P27  1  0.004181  0.363131  0.000000  1
  Ru  Ru28  1  0.877486  0.354560  0.500000  1
  Ru  Ru29  1  0.648099  0.519698  0.500000  1
  Ru  Ru30  1  0.481140  0.129049  0.500000  1
  Ru  Ru31  1  0.351383  0.870031  0.500000  1
  Ru  Ru32  1  0.515678  0.646335  0.500000  1
  Ru  Ru33  1  0.444242  0.445151  0.000000  1
  Ru  Ru34  1  0.554905  0.999898  0.000000  1
  Ru  Ru35  1  0.007127  0.555535  0.000000  1
