# generated using pymatgen
data_Tb3Er2Bi3C
_symmetry_space_group_name_H-M   'P 1'
_cell_length_a   9.15950900
_cell_length_b   9.15951037
_cell_length_c   6.48664700
_cell_angle_alpha   90.00000000
_cell_angle_beta   90.00000000
_cell_angle_gamma   120.00153467
_symmetry_Int_Tables_number   1
_chemical_formula_structural   Tb3Er2Bi3C
_chemical_formula_sum   'Tb6 Er4 Bi6 C2'
_cell_volume   471.29044239
_cell_formula_units_Z   2
loop_
 _symmetry_equiv_pos_site_id
 _symmetry_equiv_pos_as_xyz
  1  'x, y, z'
loop_
 _atom_site_type_symbol
 _atom_site_label
 _atom_site_symmetry_multiplicity
 _atom_site_fract_x
 _atom_site_fract_y
 _atom_site_fract_z
 _atom_site_occupancy
  Tb  Tb0  1  0.666764  0.333411  0.000276  1
  Tb  Tb1  1  0.333411  0.666764  0.000276  1
  Tb  Tb2  1  0.333411  0.666764  0.499724  1
  Tb  Tb3  1  0.666764  0.333411  0.499724  1
  Tb  Tb4  1  0.790209  0.999884  0.250000  1
  Tb  Tb5  1  0.999884  0.790209  0.250000  1
  Er  Er6  1  0.795970  0.795970  0.750000  1
  Er  Er7  1  0.205257  0.000688  0.750000  1
  Er  Er8  1  0.000688  0.205257  0.750000  1
  Er  Er9  1  0.204312  0.204312  0.250000  1
  Bi  Bi10  1  0.400644  0.400644  0.750000  1
  Bi  Bi11  1  0.599843  0.999886  0.750000  1
  Bi  Bi12  1  0.999886  0.599843  0.750000  1
  Bi  Bi13  1  0.598406  0.598406  0.250000  1
  Bi  Bi14  1  0.400622  0.001005  0.250000  1
  Bi  Bi15  1  0.001005  0.400622  0.250000  1
  C  C16  1  0.001462  0.001462  0.997641  1
  C  C17  1  0.001462  0.001462  0.502359  1
