# generated using pymatgen
data_Hf4Al18Ir5Os
_symmetry_space_group_name_H-M   'P 1'
_cell_length_a   7.46508217
_cell_length_b   7.46520912
_cell_length_c   9.22341006
_cell_angle_alpha   89.96861688
_cell_angle_beta   89.97033263
_cell_angle_gamma   119.71629087
_symmetry_Int_Tables_number   1
_chemical_formula_structural   Hf4Al18Ir5Os
_chemical_formula_sum   'Hf4 Al18 Ir5 Os1'
_cell_volume   446.40902691
_cell_formula_units_Z   1
loop_
 _symmetry_equiv_pos_site_id
 _symmetry_equiv_pos_as_xyz
  1  'x, y, z'
loop_
 _atom_site_type_symbol
 _atom_site_label
 _atom_site_symmetry_multiplicity
 _atom_site_fract_x
 _atom_site_fract_y
 _atom_site_fract_z
 _atom_site_occupancy
  Hf  Hf0  1  0.993819  0.676012  0.749059  1
  Hf  Hf1  1  0.006181  0.323988  0.250941  1
  Hf  Hf2  1  0.676030  0.993855  0.749062  1
  Hf  Hf3  1  0.323970  0.006145  0.250938  1
  Al  Al4  1  0.127669  0.127670  0.749235  1
  Al  Al5  1  0.872331  0.872330  0.250765  1
  Al  Al6  1  0.998367  0.334305  0.577509  1
  Al  Al7  1  0.001633  0.665695  0.422491  1
  Al  Al8  1  0.001623  0.663745  0.078948  1
  Al  Al9  1  0.336254  0.998372  0.921050  1
  Al  Al10  1  0.998377  0.336255  0.921052  1
  Al  Al11  1  0.663746  0.001628  0.078950  1
  Al  Al12  1  0.665701  0.001648  0.422488  1
  Al  Al13  1  0.334299  0.998352  0.577512  1
  Al  Al14  1  0.331454  0.331443  0.058289  1
  Al  Al15  1  0.668546  0.668557  0.941711  1
  Al  Al16  1  0.669455  0.669466  0.556358  1
  Al  Al17  1  0.330545  0.330534  0.443642  1
  Al  Al18  1  0.341119  0.555601  0.749847  1
  Al  Al19  1  0.658881  0.444399  0.250153  1
  Al  Al20  1  0.555571  0.341116  0.749861  1
  Al  Al21  1  0.444429  0.658884  0.250139  1
  Ir  Ir22  1  0.673089  0.326918  0.500011  1
  Ir  Ir23  1  0.326911  0.673082  0.499989  1
  Ir  Ir24  1  0.326930  0.673059  0.000008  1
  Ir  Ir25  1  0.673070  0.326941  0.999992  1
  Ir  Ir26  1  0.000000  0.000000  0.000000  1
  Os  Os27  1  0.000000  0.000000  0.500000  1
