# generated using pymatgen
data_Li4Ac4Sn3Bi
_symmetry_space_group_name_H-M   'P 1'
_cell_length_a   10.12442110
_cell_length_b   10.12314347
_cell_length_c   8.09909400
_cell_angle_alpha   90.00000000
_cell_angle_beta   90.06287335
_cell_angle_gamma   119.99581881
_symmetry_Int_Tables_number   1
_chemical_formula_structural   Li4Ac4Sn3Bi
_chemical_formula_sum   'Li8 Ac8 Sn6 Bi2'
_cell_volume   718.90352146
_cell_formula_units_Z   2
loop_
 _symmetry_equiv_pos_site_id
 _symmetry_equiv_pos_as_xyz
  1  'x, y, z'
loop_
 _atom_site_type_symbol
 _atom_site_label
 _atom_site_symmetry_multiplicity
 _atom_site_fract_x
 _atom_site_fract_y
 _atom_site_fract_z
 _atom_site_occupancy
  Li  Li0  1  0.831713  0.166247  0.720231  1
  Li  Li1  1  0.831713  0.665466  0.720231  1
  Li  Li2  1  0.335627  0.167813  0.715630  1
  Li  Li3  1  0.170951  0.835044  0.214629  1
  Li  Li4  1  0.170951  0.335908  0.214629  1
  Li  Li5  1  0.661972  0.830987  0.209372  1
  Li  Li6  1  0.662723  0.331361  0.332026  1
  Li  Li7  1  0.334489  0.667245  0.826299  1
  Ac  Ac8  1  0.483561  0.509008  0.507530  1
  Ac  Ac9  1  0.483561  0.974553  0.507530  1
  Ac  Ac10  1  0.027461  0.513730  0.509737  1
  Ac  Ac11  1  0.506801  0.485982  0.001783  1
  Ac  Ac12  1  0.506801  0.020819  0.001783  1
  Ac  Ac13  1  0.982654  0.491327  0.999986  1
  Ac  Ac14  1  0.004626  0.002313  0.505910  1
  Ac  Ac15  1  0.004772  0.002386  0.996830  1
  Sn  Sn16  1  0.333302  0.166651  0.269360  1
  Sn  Sn17  1  0.165969  0.832958  0.768403  1
  Sn  Sn18  1  0.165969  0.333011  0.768403  1
  Sn  Sn19  1  0.666655  0.833327  0.769732  1
  Sn  Sn20  1  0.667556  0.333777  0.732731  1
  Sn  Sn21  1  0.332899  0.666450  0.232827  1
  Bi  Bi22  1  0.833637  0.167088  0.266208  1
  Bi  Bi23  1  0.833637  0.666550  0.266208  1
