# generated using pymatgen
data_PrNd4(MoO6)2
_symmetry_space_group_name_H-M   'P 1'
_cell_length_a   7.12141027
_cell_length_b   7.12141066
_cell_length_c   7.63503843
_cell_angle_alpha   74.52572322
_cell_angle_beta   74.52572082
_cell_angle_gamma   51.47498245
_symmetry_Int_Tables_number   1
_chemical_formula_structural   PrNd4(MoO6)2
_chemical_formula_sum   'Pr1 Nd4 Mo2 O12'
_cell_volume   289.33355508
_cell_formula_units_Z   1
loop_
 _symmetry_equiv_pos_site_id
 _symmetry_equiv_pos_as_xyz
  1  'x, y, z'
loop_
 _atom_site_type_symbol
 _atom_site_label
 _atom_site_symmetry_multiplicity
 _atom_site_fract_x
 _atom_site_fract_y
 _atom_site_fract_z
 _atom_site_occupancy
  Pr  Pr0  1  0.000000  0.000000  0.500000  1
  Nd  Nd1  1  0.303696  0.303696  0.360265  1
  Nd  Nd2  1  0.696304  0.696304  0.639735  1
  Nd  Nd3  1  0.693450  0.693450  0.168800  1
  Nd  Nd4  1  0.306550  0.306550  0.831200  1
  Mo  Mo5  1  0.755505  0.244495  0.000000  1
  Mo  Mo6  1  0.244495  0.755505  0.000000  1
  O  O7  1  0.095063  0.594360  0.577557  1
  O  O8  1  0.999115  0.999115  0.178501  1
  O  O9  1  0.405640  0.904937  0.422443  1
  O  O10  1  0.500971  0.500971  0.181021  1
  O  O11  1  0.104516  0.572905  0.080163  1
  O  O12  1  0.904937  0.405640  0.422443  1
  O  O13  1  0.000885  0.000885  0.821499  1
  O  O14  1  0.594360  0.095062  0.577557  1
  O  O15  1  0.499029  0.499029  0.818979  1
  O  O16  1  0.572905  0.104516  0.080163  1
  O  O17  1  0.427095  0.895484  0.919837  1
  O  O18  1  0.895484  0.427095  0.919837  1
