# generated using pymatgen
data_Dy8Mg2CuSi(NiBi)2
_symmetry_space_group_name_H-M   'P 1'
_cell_length_a   8.60748863
_cell_length_b   8.60748706
_cell_length_c   8.70568267
_cell_angle_alpha   127.72493300
_cell_angle_beta   127.72492556
_cell_angle_gamma   76.24899726
_symmetry_Int_Tables_number   1
_chemical_formula_structural   Dy8Mg2CuSi(NiBi)2
_chemical_formula_sum   'Dy8 Mg2 Cu1 Si1 Ni2 Bi2'
_cell_volume   393.76868342
_cell_formula_units_Z   1
loop_
 _symmetry_equiv_pos_site_id
 _symmetry_equiv_pos_as_xyz
  1  'x, y, z'
loop_
 _atom_site_type_symbol
 _atom_site_label
 _atom_site_symmetry_multiplicity
 _atom_site_fract_x
 _atom_site_fract_y
 _atom_site_fract_z
 _atom_site_occupancy
  Dy  Dy0  1  0.789040  0.289040  0.821652  1
  Dy  Dy1  1  0.214432  0.714432  0.190124  1
  Dy  Dy2  1  0.475692  0.975692  0.190124  1
  Dy  Dy3  1  0.302088  0.456846  0.495812  1
  Dy  Dy4  1  0.038966  0.193724  0.495812  1
  Dy  Dy5  1  0.532611  0.032611  0.821652  1
  Dy  Dy6  1  0.693724  0.538966  0.495812  1
  Dy  Dy7  1  0.956846  0.802088  0.495812  1
  Mg  Mg8  1  0.998426  0.997897  0.996323  1
  Mg  Mg9  1  0.497897  0.498426  0.996323  1
  Cu  Cu10  1  0.877974  0.377974  0.255948  1
  Si  Si11  1  0.129685  0.629685  0.759370  1
  Ni  Ni12  1  0.627189  0.873394  0.500583  1
  Ni  Ni13  1  0.373394  0.127189  0.500583  1
  Bi  Bi14  1  0.246018  0.246018  0.992035  1
  Bi  Bi15  1  0.746018  0.746018  0.992035  1
