# generated using pymatgen
data_Ac3CuSnS7
_symmetry_space_group_name_H-M   'P 1'
_cell_length_a   10.69321500
_cell_length_b   10.69332976
_cell_length_c   6.18220300
_cell_angle_alpha   90.00081780
_cell_angle_beta   90.00284615
_cell_angle_gamma   119.99973983
_symmetry_Int_Tables_number   1
_chemical_formula_structural   Ac3CuSnS7
_chemical_formula_sum   'Ac6 Cu2 Sn2 S14'
_cell_volume   612.20417916
_cell_formula_units_Z   2
loop_
 _symmetry_equiv_pos_site_id
 _symmetry_equiv_pos_as_xyz
  1  'x, y, z'
loop_
 _atom_site_type_symbol
 _atom_site_label
 _atom_site_symmetry_multiplicity
 _atom_site_fract_x
 _atom_site_fract_y
 _atom_site_fract_z
 _atom_site_occupancy
  Ac  Ac0  1  0.128833  0.355542  0.254375  1
  Ac  Ac1  1  0.644524  0.773384  0.254440  1
  Ac  Ac2  1  0.226601  0.871144  0.254426  1
  Ac  Ac3  1  0.773323  0.128781  0.754428  1
  Ac  Ac4  1  0.355453  0.226599  0.754442  1
  Ac  Ac5  1  0.871096  0.644435  0.754363  1
  Cu  Cu6  1  0.000357  0.000439  0.286973  1
  Cu  Cu7  1  0.999956  0.999754  0.786731  1
  Sn  Sn8  1  0.666664  0.333291  0.178142  1
  Sn  Sn9  1  0.333333  0.666695  0.678144  1
  S  S10  1  0.516899  0.097403  0.016968  1
  S  S11  1  0.580518  0.483049  0.017015  1
  S  S12  1  0.902556  0.419492  0.016961  1
  S  S13  1  0.333318  0.666683  0.062674  1
  S  S14  1  0.910560  0.755542  0.275804  1
  S  S15  1  0.844750  0.089570  0.275710  1
  S  S16  1  0.244957  0.155396  0.275711  1
  S  S17  1  0.483037  0.902566  0.516940  1
  S  S18  1  0.419445  0.516914  0.517007  1
  S  S19  1  0.097418  0.580491  0.516983  1
  S  S20  1  0.666640  0.333259  0.562672  1
  S  S21  1  0.089401  0.244490  0.775732  1
  S  S22  1  0.755165  0.844680  0.775671  1
  S  S23  1  0.155198  0.910397  0.775686  1
