# generated using pymatgen
data_Tm2Be2GeRh5
_symmetry_space_group_name_H-M   'P 1'
_cell_length_a   9.57543900
_cell_length_b   9.57543900
_cell_length_c   3.19338100
_cell_angle_alpha   90.00000000
_cell_angle_beta   90.00000000
_cell_angle_gamma   90.00000000
_symmetry_Int_Tables_number   1
_chemical_formula_structural   Tm2Be2GeRh5
_chemical_formula_sum   'Tm4 Be4 Ge2 Rh10'
_cell_volume   292.79801283
_cell_formula_units_Z   2
loop_
 _symmetry_equiv_pos_site_id
 _symmetry_equiv_pos_as_xyz
  1  'x, y, z'
loop_
 _atom_site_type_symbol
 _atom_site_label
 _atom_site_symmetry_multiplicity
 _atom_site_fract_x
 _atom_site_fract_y
 _atom_site_fract_z
 _atom_site_occupancy
  Tm  Tm0  1  0.824234  0.324234  0.000000  1
  Tm  Tm1  1  0.324234  0.175766  0.000000  1
  Tm  Tm2  1  0.675766  0.824234  0.000000  1
  Tm  Tm3  1  0.175766  0.675766  0.000000  1
  Be  Be4  1  0.621804  0.121804  0.000000  1
  Be  Be5  1  0.121804  0.378196  0.000000  1
  Be  Be6  1  0.878196  0.621804  0.000000  1
  Be  Be7  1  0.378196  0.878196  0.000000  1
  Ge  Ge8  1  0.000000  0.000000  0.000000  1
  Ge  Ge9  1  0.500000  0.500000  0.000000  1
  Rh  Rh10  1  0.067770  0.209111  0.500000  1
  Rh  Rh11  1  0.209111  0.932230  0.500000  1
  Rh  Rh12  1  0.790889  0.067770  0.500000  1
  Rh  Rh13  1  0.932230  0.790889  0.500000  1
  Rh  Rh14  1  0.432230  0.709111  0.500000  1
  Rh  Rh15  1  0.567770  0.290889  0.500000  1
  Rh  Rh16  1  0.709111  0.567770  0.500000  1
  Rh  Rh17  1  0.290889  0.432230  0.500000  1
  Rh  Rh18  1  0.500000  0.000000  0.500000  1
  Rh  Rh19  1  0.000000  0.500000  0.500000  1
