# generated using pymatgen
data_Pa2CoF12
_symmetry_space_group_name_H-M   'P 1'
_cell_length_a   5.65061577
_cell_length_b   6.08366706
_cell_length_c   7.98427786
_cell_angle_alpha   98.02668589
_cell_angle_beta   92.64235842
_cell_angle_gamma   89.72212330
_symmetry_Int_Tables_number   1
_chemical_formula_structural   Pa2CoF12
_chemical_formula_sum   'Pa2 Co1 F12'
_cell_volume   271.49297270
_cell_formula_units_Z   1
loop_
 _symmetry_equiv_pos_site_id
 _symmetry_equiv_pos_as_xyz
  1  'x, y, z'
loop_
 _atom_site_type_symbol
 _atom_site_label
 _atom_site_symmetry_multiplicity
 _atom_site_fract_x
 _atom_site_fract_y
 _atom_site_fract_z
 _atom_site_occupancy
  Pa  Pa0  1  0.000000  0.000000  0.000000  1
  Pa  Pa1  1  0.500000  0.500000  0.500000  1
  Co  Co2  1  0.500000  0.500000  0.000000  1
  F  F3  1  0.623854  0.812243  0.599728  1
  F  F4  1  0.232269  0.287070  0.051152  1
  F  F5  1  0.115260  0.960949  0.761001  1
  F  F6  1  0.625529  0.527611  0.241105  1
  F  F7  1  0.184721  0.632684  0.419735  1
  F  F8  1  0.716360  0.222504  0.941970  1
  F  F9  1  0.884740  0.039051  0.238999  1
  F  F10  1  0.374471  0.472389  0.758895  1
  F  F11  1  0.815279  0.367316  0.580265  1
  F  F12  1  0.283640  0.777496  0.058030  1
  F  F13  1  0.376146  0.187757  0.400272  1
  F  F14  1  0.767731  0.712930  0.948848  1
