# generated using pymatgen
data_HfZr5(SiRu)6
_symmetry_space_group_name_H-M   'P 1'
_cell_length_a   7.65452893
_cell_length_b   7.64191985
_cell_length_c   7.65452830
_cell_angle_alpha   127.82490723
_cell_angle_beta   122.04742465
_cell_angle_gamma   81.77289914
_symmetry_Int_Tables_number   1
_chemical_formula_structural   HfZr5(SiRu)6
_chemical_formula_sum   'Hf1 Zr5 Si6 Ru6'
_cell_volume   288.45118427
_cell_formula_units_Z   1
loop_
 _symmetry_equiv_pos_site_id
 _symmetry_equiv_pos_as_xyz
  1  'x, y, z'
loop_
 _atom_site_type_symbol
 _atom_site_label
 _atom_site_symmetry_multiplicity
 _atom_site_fract_x
 _atom_site_fract_y
 _atom_site_fract_z
 _atom_site_occupancy
  Hf  Hf0  1  0.947278  0.650164  0.202886  1
  Zr  Zr1  1  0.469535  0.697231  0.727696  1
  Zr  Zr2  1  0.529707  0.258203  0.228496  1
  Zr  Zr3  1  0.747054  0.831844  0.584790  1
  Zr  Zr4  1  0.253196  0.836938  0.083743  1
  Zr  Zr5  1  0.053362  0.258582  0.705219  1
  Si  Si6  1  0.274388  0.270071  0.495683  1
  Si  Si7  1  0.724013  0.215616  0.991604  1
  Si  Si8  1  0.325691  0.588375  0.249759  1
  Si  Si9  1  0.675096  0.922747  0.261585  1
  Si  Si10  1  0.161162  0.922747  0.747651  1
  Si  Si11  1  0.838616  0.588375  0.762684  1
  Ru  Ru12  1  0.506084  0.498495  0.003354  1
  Ru  Ru13  1  0.995141  0.498495  0.492411  1
  Ru  Ru14  1  0.095109  0.255041  0.103490  1
  Ru  Ru15  1  0.904977  0.005818  0.157778  1
  Ru  Ru16  1  0.348040  0.005818  0.600841  1
  Ru  Ru17  1  0.651553  0.255041  0.659934  1
