# generated using pymatgen
data_NdSm4(B3Ru)2
_symmetry_space_group_name_H-M   'P 1'
_cell_length_a   8.67515722
_cell_length_b   8.67515660
_cell_length_c   8.67515624
_cell_angle_alpha   37.46481990
_cell_angle_beta   37.46482591
_cell_angle_gamma   37.46481338
_symmetry_Int_Tables_number   1
_chemical_formula_structural   NdSm4(B3Ru)2
_chemical_formula_sum   'Nd1 Sm4 B6 Ru2'
_cell_volume   216.62607474
_cell_formula_units_Z   1
loop_
 _symmetry_equiv_pos_site_id
 _symmetry_equiv_pos_as_xyz
  1  'x, y, z'
loop_
 _atom_site_type_symbol
 _atom_site_label
 _atom_site_symmetry_multiplicity
 _atom_site_fract_x
 _atom_site_fract_y
 _atom_site_fract_z
 _atom_site_occupancy
  Nd  Nd0  1  0.000000  0.000000  0.000000  1
  Sm  Sm1  1  0.582446  0.582446  0.582446  1
  Sm  Sm2  1  0.417554  0.417554  0.417554  1
  Sm  Sm3  1  0.751119  0.751119  0.751119  1
  Sm  Sm4  1  0.248881  0.248881  0.248881  1
  B  B5  1  0.500000  0.827479  0.172521  1
  B  B6  1  0.172521  0.500000  0.827479  1
  B  B7  1  0.827479  0.172521  0.500000  1
  B  B8  1  0.500000  0.172521  0.827479  1
  B  B9  1  0.827479  0.500000  0.172521  1
  B  B10  1  0.172521  0.827479  0.500000  1
  Ru  Ru11  1  0.884820  0.884820  0.884820  1
  Ru  Ru12  1  0.115180  0.115180  0.115180  1
