# generated using pymatgen
data_RbCr(PO3)4
_symmetry_space_group_name_H-M   'P 1'
_cell_length_a   10.63664744
_cell_length_b   10.63664750
_cell_length_c   5.26954442
_cell_angle_alpha   80.79165581
_cell_angle_beta   80.79165643
_cell_angle_gamma   72.11682544
_symmetry_Int_Tables_number   1
_chemical_formula_structural   RbCr(PO3)4
_chemical_formula_sum   'Rb2 Cr2 P8 O24'
_cell_volume   556.15501870
_cell_formula_units_Z   2
loop_
 _symmetry_equiv_pos_site_id
 _symmetry_equiv_pos_as_xyz
  1  'x, y, z'
loop_
 _atom_site_type_symbol
 _atom_site_label
 _atom_site_symmetry_multiplicity
 _atom_site_fract_x
 _atom_site_fract_y
 _atom_site_fract_z
 _atom_site_occupancy
  Rb  Rb0  1  0.403866  0.403866  0.747162  1
  Rb  Rb1  1  0.596134  0.596134  0.252838  1
  Cr  Cr2  1  0.500000  0.000000  0.000000  1
  Cr  Cr3  1  0.000000  0.500000  0.000000  1
  P  P4  1  0.801146  0.352699  0.836998  1
  P  P5  1  0.068405  0.307931  0.536128  1
  P  P6  1  0.307931  0.068405  0.536128  1
  P  P7  1  0.647301  0.198854  0.163002  1
  P  P8  1  0.352699  0.801146  0.836998  1
  P  P9  1  0.692069  0.931595  0.463872  1
  P  P10  1  0.931595  0.692069  0.463872  1
  P  P11  1  0.198854  0.647301  0.163002  1
  O  O12  1  0.423042  0.851033  0.011965  1
  O  O13  1  0.397868  0.098202  0.699761  1
  O  O14  1  0.428282  0.680284  0.713891  1
  O  O15  1  0.148967  0.576958  0.988035  1
  O  O16  1  0.576958  0.148967  0.988035  1
  O  O17  1  0.911884  0.656850  0.752572  1
  O  O18  1  0.214104  0.785896  0.000000  1
  O  O19  1  0.571718  0.319716  0.286109  1
  O  O20  1  0.602132  0.901798  0.300239  1
  O  O21  1  0.709903  0.076198  0.376737  1
  O  O22  1  0.319716  0.571718  0.286109  1
  O  O23  1  0.901798  0.602132  0.300239  1
  O  O24  1  0.851033  0.423042  0.011965  1
  O  O25  1  0.076198  0.709903  0.376737  1
  O  O26  1  0.157742  0.157742  0.605028  1
  O  O27  1  0.098202  0.397868  0.699761  1
  O  O28  1  0.680284  0.428282  0.713891  1
  O  O29  1  0.290097  0.923802  0.623263  1
  O  O30  1  0.785896  0.214104  0.000000  1
  O  O31  1  0.343150  0.088116  0.247428  1
  O  O32  1  0.656850  0.911884  0.752572  1
  O  O33  1  0.842258  0.842258  0.394972  1
  O  O34  1  0.923802  0.290097  0.623263  1
  O  O35  1  0.088116  0.343150  0.247428  1
