# generated using pymatgen
data_Er5Co15(Si3Ir)4
_symmetry_space_group_name_H-M   'P 1'
_cell_length_a   12.27926600
_cell_length_b   12.27926674
_cell_length_c   3.77312500
_cell_angle_alpha   90.00000000
_cell_angle_beta   90.00000000
_cell_angle_gamma   120.00000877
_symmetry_Int_Tables_number   1
_chemical_formula_structural   Er5Co15(Si3Ir)4
_chemical_formula_sum   'Er5 Co15 Si12 Ir4'
_cell_volume   492.69326723
_cell_formula_units_Z   1
loop_
 _symmetry_equiv_pos_site_id
 _symmetry_equiv_pos_as_xyz
  1  'x, y, z'
loop_
 _atom_site_type_symbol
 _atom_site_label
 _atom_site_symmetry_multiplicity
 _atom_site_fract_x
 _atom_site_fract_y
 _atom_site_fract_z
 _atom_site_occupancy
  Er  Er0  1  0.666667  0.333333  0.000000  1
  Er  Er1  1  0.333333  0.666667  0.000000  1
  Er  Er2  1  0.812126  0.812126  0.500000  1
  Er  Er3  1  0.187874  0.000000  0.500000  1
  Er  Er4  1  0.000000  0.187874  0.500000  1
  Co  Co5  1  0.803853  0.182205  0.000000  1
  Co  Co6  1  0.817795  0.621648  0.000000  1
  Co  Co7  1  0.378352  0.196147  0.000000  1
  Co  Co8  1  0.182205  0.803853  0.000000  1
  Co  Co9  1  0.621648  0.817795  0.000000  1
  Co  Co10  1  0.196147  0.378352  0.000000  1
  Co  Co11  1  0.283273  0.283273  0.500000  1
  Co  Co12  1  0.716727  0.000000  0.500000  1
  Co  Co13  1  0.000000  0.716727  0.500000  1
  Co  Co14  1  0.876664  0.357341  0.500000  1
  Co  Co15  1  0.642659  0.519325  0.500000  1
  Co  Co16  1  0.480675  0.123336  0.500000  1
  Co  Co17  1  0.357341  0.876664  0.500000  1
  Co  Co18  1  0.519325  0.642659  0.500000  1
  Co  Co19  1  0.123336  0.480675  0.500000  1
  Si  Si20  1  0.686024  0.164926  0.500000  1
  Si  Si21  1  0.835074  0.521097  0.500000  1
  Si  Si22  1  0.478903  0.313976  0.500000  1
  Si  Si23  1  0.164926  0.686024  0.500000  1
  Si  Si24  1  0.521097  0.835074  0.500000  1
  Si  Si25  1  0.313976  0.478903  0.500000  1
  Si  Si26  1  0.633658  0.633658  0.000000  1
  Si  Si27  1  0.366342  0.000000  0.000000  1
  Si  Si28  1  0.000000  0.366342  0.000000  1
  Si  Si29  1  0.190387  0.190387  0.000000  1
  Si  Si30  1  0.809613  0.000000  0.000000  1
  Si  Si31  1  0.000000  0.809613  0.000000  1
  Ir  Ir32  1  0.442287  0.442287  0.000000  1
  Ir  Ir33  1  0.557713  0.000000  0.000000  1
  Ir  Ir34  1  0.000000  0.557713  0.000000  1
  Ir  Ir35  1  0.000000  0.000000  0.000000  1
