# generated using pymatgen
data_Ta3NbS6
_symmetry_space_group_name_H-M   'P 1'
_cell_length_a   5.79523100
_cell_length_b   5.79523268
_cell_length_c   12.77581400
_cell_angle_alpha   90.00000000
_cell_angle_beta   90.00000000
_cell_angle_gamma   119.99967811
_symmetry_Int_Tables_number   1
_chemical_formula_structural   Ta3NbS6
_chemical_formula_sum   'Ta6 Nb2 S12'
_cell_volume   371.58848739
_cell_formula_units_Z   2
loop_
 _symmetry_equiv_pos_site_id
 _symmetry_equiv_pos_as_xyz
  1  'x, y, z'
loop_
 _atom_site_type_symbol
 _atom_site_label
 _atom_site_symmetry_multiplicity
 _atom_site_fract_x
 _atom_site_fract_y
 _atom_site_fract_z
 _atom_site_occupancy
  Ta  Ta0  1  0.000002  0.999998  0.999999  1
  Ta  Ta1  1  0.666668  0.333333  0.001304  1
  Ta  Ta2  1  0.333332  0.666667  0.501304  1
  Ta  Ta3  1  0.999998  0.000002  0.499999  1
  Ta  Ta4  1  0.333331  0.666667  0.998695  1
  Ta  Ta5  1  0.666669  0.333333  0.498695  1
  Nb  Nb6  1  0.666644  0.333348  0.750004  1
  Nb  Nb7  1  0.333356  0.666652  0.250004  1
  S  S8  1  0.668500  0.667819  0.123144  1
  S  S9  1  0.331500  0.332181  0.623144  1
  S  S10  1  0.667818  0.668501  0.876854  1
  S  S11  1  0.331502  0.999320  0.876854  1
  S  S12  1  0.000679  0.668499  0.623146  1
  S  S13  1  0.000683  0.332182  0.876855  1
  S  S14  1  0.999317  0.667818  0.376855  1
  S  S15  1  0.332182  0.331499  0.376854  1
  S  S16  1  0.668498  0.000680  0.376854  1
  S  S17  1  0.999321  0.331501  0.123146  1
  S  S18  1  0.667818  0.999319  0.623145  1
  S  S19  1  0.332182  0.000681  0.123145  1
