# generated using pymatgen
data_Zr7Ti3(BePb3)2
_symmetry_space_group_name_H-M   'P 1'
_cell_length_a   8.63965300
_cell_length_b   8.63965327
_cell_length_c   5.77475400
_cell_angle_alpha   90.00000000
_cell_angle_beta   90.00000000
_cell_angle_gamma   120.00000280
_symmetry_Int_Tables_number   1
_chemical_formula_structural   Zr7Ti3(BePb3)2
_chemical_formula_sum   'Zr7 Ti3 Be2 Pb6'
_cell_volume   373.29890954
_cell_formula_units_Z   1
loop_
 _symmetry_equiv_pos_site_id
 _symmetry_equiv_pos_as_xyz
  1  'x, y, z'
loop_
 _atom_site_type_symbol
 _atom_site_label
 _atom_site_symmetry_multiplicity
 _atom_site_fract_x
 _atom_site_fract_y
 _atom_site_fract_z
 _atom_site_occupancy
  Zr  Zr0  1  0.666667  0.333333  0.000000  1
  Zr  Zr1  1  0.754571  0.752999  0.247775  1
  Zr  Zr2  1  0.247001  0.001572  0.247775  1
  Zr  Zr3  1  0.998428  0.245429  0.247775  1
  Zr  Zr4  1  0.247001  0.245429  0.752225  1
  Zr  Zr5  1  0.754571  0.001572  0.752225  1
  Zr  Zr6  1  0.998428  0.752999  0.752225  1
  Ti  Ti7  1  0.666667  0.333333  0.500000  1
  Ti  Ti8  1  0.333333  0.666667  0.500000  1
  Ti  Ti9  1  0.333333  0.666667  0.000000  1
  Be  Be10  1  0.000000  0.000000  0.500000  1
  Be  Be11  1  0.000000  0.000000  0.000000  1
  Pb  Pb12  1  0.392107  0.397021  0.253636  1
  Pb  Pb13  1  0.602979  0.995085  0.253636  1
  Pb  Pb14  1  0.004915  0.607893  0.253636  1
  Pb  Pb15  1  0.602979  0.607893  0.746364  1
  Pb  Pb16  1  0.392107  0.995085  0.746364  1
  Pb  Pb17  1  0.004915  0.397021  0.746364  1
