# generated using pymatgen
data_ScCr2AgO8
_symmetry_space_group_name_H-M   'P 1'
_cell_length_a   5.27212438
_cell_length_b   5.27203080
_cell_length_c   14.61939165
_cell_angle_alpha   86.85218047
_cell_angle_beta   86.84882278
_cell_angle_gamma   65.73234973
_symmetry_Int_Tables_number   1
_chemical_formula_structural   ScCr2AgO8
_chemical_formula_sum   'Sc2 Cr4 Ag2 O16'
_cell_volume   369.64345577
_cell_formula_units_Z   2
loop_
 _symmetry_equiv_pos_site_id
 _symmetry_equiv_pos_as_xyz
  1  'x, y, z'
loop_
 _atom_site_type_symbol
 _atom_site_label
 _atom_site_symmetry_multiplicity
 _atom_site_fract_x
 _atom_site_fract_y
 _atom_site_fract_z
 _atom_site_occupancy
  Sc  Sc0  1  0.000009  0.000029  0.749942  1
  Sc  Sc1  1  0.999968  0.999997  0.250069  1
  Cr  Cr2  1  0.652296  0.652310  0.138226  1
  Cr  Cr3  1  0.347675  0.347712  0.361981  1
  Cr  Cr4  1  0.652443  0.652322  0.637979  1
  Cr  Cr5  1  0.347594  0.347632  0.861795  1
  Ag  Ag6  1  0.000008  0.999921  0.000006  1
  Ag  Ag7  1  0.000048  0.000003  0.499996  1
  O  O8  1  0.249326  0.249364  0.460309  1
  O  O9  1  0.249247  0.249265  0.960086  1
  O  O10  1  0.750721  0.750686  0.039923  1
  O  O11  1  0.750665  0.750624  0.539671  1
  O  O12  1  0.230096  0.230116  0.277830  1
  O  O13  1  0.230113  0.230127  0.777643  1
  O  O14  1  0.769884  0.769861  0.222392  1
  O  O15  1  0.769935  0.769911  0.722112  1
  O  O16  1  0.787380  0.299314  0.146251  1
  O  O17  1  0.787426  0.299325  0.646036  1
  O  O18  1  0.299362  0.787346  0.146260  1
  O  O19  1  0.299330  0.787405  0.646045  1
  O  O20  1  0.212596  0.700751  0.353958  1
  O  O21  1  0.212544  0.700685  0.853776  1
  O  O22  1  0.700695  0.212672  0.353953  1
  O  O23  1  0.700641  0.212625  0.853766  1
