# generated using pymatgen
data_La2Al20Ir3Ru
_symmetry_space_group_name_H-M   'P 1'
_cell_length_a   6.90962887
_cell_length_b   6.91148547
_cell_length_c   9.23723141
_cell_angle_alpha   90.06057948
_cell_angle_beta   90.01112043
_cell_angle_gamma   97.33246917
_symmetry_Int_Tables_number   1
_chemical_formula_structural   La2Al20Ir3Ru
_chemical_formula_sum   'La2 Al20 Ir3 Ru1'
_cell_volume   437.52365241
_cell_formula_units_Z   1
loop_
 _symmetry_equiv_pos_site_id
 _symmetry_equiv_pos_as_xyz
  1  'x, y, z'
loop_
 _atom_site_type_symbol
 _atom_site_label
 _atom_site_symmetry_multiplicity
 _atom_site_fract_x
 _atom_site_fract_y
 _atom_site_fract_z
 _atom_site_occupancy
  La  La0  1  0.873731  0.124733  0.749933  1
  La  La1  1  0.126269  0.875267  0.250067  1
  Al  Al2  1  0.620211  0.376662  0.548604  1
  Al  Al3  1  0.379789  0.623338  0.451396  1
  Al  Al4  1  0.379097  0.621564  0.049793  1
  Al  Al5  1  0.620903  0.378436  0.950207  1
  Al  Al6  1  0.223796  0.221486  0.498984  1
  Al  Al7  1  0.776204  0.778514  0.501016  1
  Al  Al8  1  0.776828  0.777421  0.000367  1
  Al  Al9  1  0.223172  0.222579  0.999633  1
  Al  Al10  1  0.840629  0.159802  0.105149  1
  Al  Al11  1  0.159371  0.840198  0.894851  1
  Al  Al12  1  0.160643  0.841634  0.603913  1
  Al  Al13  1  0.839357  0.158366  0.396087  1
  Al  Al14  1  0.856667  0.592385  0.749695  1
  Al  Al15  1  0.143333  0.407615  0.250305  1
  Al  Al16  1  0.408720  0.142775  0.748603  1
  Al  Al17  1  0.591280  0.857225  0.251397  1
  Al  Al18  1  0.225757  0.482555  0.750212  1
  Al  Al19  1  0.774243  0.517445  0.249788  1
  Al  Al20  1  0.516856  0.775716  0.747409  1
  Al  Al21  1  0.483144  0.224284  0.252591  1
  Ir  Ir22  1  0.000000  0.500000  0.500000  1
  Ir  Ir23  1  0.000000  0.500000  0.000000  1
  Ir  Ir24  1  0.500000  0.000000  0.000000  1
  Ru  Ru25  1  0.500000  0.000000  0.500000  1
