# generated using pymatgen
data_Sm8Pd16Pt8Pb
_symmetry_space_group_name_H-M   'P 1'
_cell_length_a   8.50688519
_cell_length_b   8.51937900
_cell_length_c   8.50417219
_cell_angle_alpha   90.00000000
_cell_angle_beta   89.97580322
_cell_angle_gamma   90.00000000
_symmetry_Int_Tables_number   1
_chemical_formula_structural   Sm8Pd16Pt8Pb
_chemical_formula_sum   'Sm8 Pd16 Pt8 Pb1'
_cell_volume   616.32603956
_cell_formula_units_Z   1
loop_
 _symmetry_equiv_pos_site_id
 _symmetry_equiv_pos_as_xyz
  1  'x, y, z'
loop_
 _atom_site_type_symbol
 _atom_site_label
 _atom_site_symmetry_multiplicity
 _atom_site_fract_x
 _atom_site_fract_y
 _atom_site_fract_z
 _atom_site_occupancy
  Sm  Sm0  1  0.252805  0.251966  0.252670  1
  Sm  Sm1  1  0.747504  0.746772  0.747630  1
  Sm  Sm2  1  0.747195  0.747538  0.252429  1
  Sm  Sm3  1  0.747504  0.253228  0.747630  1
  Sm  Sm4  1  0.252559  0.252451  0.747325  1
  Sm  Sm5  1  0.252805  0.748034  0.252670  1
  Sm  Sm6  1  0.252559  0.747549  0.747325  1
  Sm  Sm7  1  0.747195  0.252462  0.252429  1
  Pd  Pd8  1  0.500126  0.000000  0.732176  1
  Pd  Pd9  1  0.732166  0.000000  0.500127  1
  Pd  Pd10  1  0.999976  0.500000  0.268090  1
  Pd  Pd11  1  0.999957  0.500000  0.731997  1
  Pd  Pd12  1  0.255053  0.500000  0.500098  1
  Pd  Pd13  1  0.744948  0.500000  0.500083  1
  Pd  Pd14  1  0.499933  0.255219  0.499921  1
  Pd  Pd15  1  0.499933  0.744781  0.499921  1
  Pd  Pd16  1  0.500090  0.500000  0.255420  1
  Pd  Pd17  1  0.500077  0.500000  0.744538  1
  Pd  Pd18  1  0.318434  0.000000  0.999823  1
  Pd  Pd19  1  0.681589  0.000000  0.999869  1
  Pd  Pd20  1  0.999962  0.318517  0.999955  1
  Pd  Pd21  1  0.999962  0.681483  0.999955  1
  Pd  Pd22  1  0.999826  0.000000  0.318259  1
  Pd  Pd23  1  0.999873  0.000000  0.681773  1
  Pt  Pt24  1  0.267097  0.500000  0.999963  1
  Pt  Pt25  1  0.732985  0.500000  0.999935  1
  Pt  Pt26  1  0.999864  0.267440  0.500084  1
  Pt  Pt27  1  0.500065  0.267393  0.999895  1
  Pt  Pt28  1  0.999864  0.732560  0.500084  1
  Pt  Pt29  1  0.500065  0.732607  0.999895  1
  Pt  Pt30  1  0.500002  0.000000  0.267896  1
  Pt  Pt31  1  0.267888  0.000000  0.499998  1
  Pb  Pb32  1  0.000143  0.000000  0.000137  1
