# generated using pymatgen
data_Er3TmB12RhW
_symmetry_space_group_name_H-M   'P 1'
_cell_length_a   3.62126800
_cell_length_b   9.15736603
_cell_length_c   11.56300206
_cell_angle_alpha   90.43338523
_cell_angle_beta   90.00000000
_cell_angle_gamma   90.00000000
_symmetry_Int_Tables_number   1
_chemical_formula_structural   Er3TmB12RhW
_chemical_formula_sum   'Er6 Tm2 B24 Rh2 W2'
_cell_volume   383.43293992
_cell_formula_units_Z   2
loop_
 _symmetry_equiv_pos_site_id
 _symmetry_equiv_pos_as_xyz
  1  'x, y, z'
loop_
 _atom_site_type_symbol
 _atom_site_label
 _atom_site_symmetry_multiplicity
 _atom_site_fract_x
 _atom_site_fract_y
 _atom_site_fract_z
 _atom_site_occupancy
  Er  Er0  1  0.500000  0.319471  0.412006  1
  Er  Er1  1  0.500000  0.680529  0.587994  1
  Er  Er2  1  0.500000  0.175411  0.916495  1
  Er  Er3  1  0.500000  0.824589  0.083505  1
  Er  Er4  1  0.500000  0.444599  0.127064  1
  Er  Er5  1  0.500000  0.555401  0.872936  1
  Tm  Tm6  1  0.500000  0.055435  0.627285  1
  Tm  Tm7  1  0.500000  0.944565  0.372715  1
  B  B8  1  0.000000  0.107415  0.471919  1
  B  B9  1  0.000000  0.892585  0.528081  1
  B  B10  1  0.000000  0.395361  0.970313  1
  B  B11  1  0.000000  0.604639  0.029687  1
  B  B12  1  0.000000  0.132920  0.318310  1
  B  B13  1  0.000000  0.867080  0.681690  1
  B  B14  1  0.000000  0.367270  0.815627  1
  B  B15  1  0.000000  0.632730  0.184373  1
  B  B16  1  0.000000  0.051547  0.065620  1
  B  B17  1  0.000000  0.948453  0.934380  1
  B  B18  1  0.000000  0.446299  0.565528  1
  B  B19  1  0.000000  0.553701  0.434472  1
  B  B20  1  0.000000  0.483957  0.288986  1
  B  B21  1  0.000000  0.516043  0.711014  1
  B  B22  1  0.000000  0.021042  0.785584  1
  B  B23  1  0.000000  0.978958  0.214416  1
  B  B24  1  0.000000  0.251210  0.078885  1
  B  B25  1  0.000000  0.748790  0.921115  1
  B  B26  1  0.000000  0.250861  0.578937  1
  B  B27  1  0.000000  0.749139  0.421063  1
  B  B28  1  0.000000  0.296965  0.237319  1
  B  B29  1  0.000000  0.703035  0.762681  1
  B  B30  1  0.000000  0.208840  0.734157  1
  B  B31  1  0.000000  0.791160  0.265843  1
  Rh  Rh32  1  0.500000  0.361005  0.678381  1
  Rh  Rh33  1  0.500000  0.638995  0.321619  1
  W  W34  1  0.500000  0.139196  0.181091  1
  W  W35  1  0.500000  0.860804  0.818909  1
