# generated using pymatgen
data_Li4Tb3DySi6
_symmetry_space_group_name_H-M   'P 1'
_cell_length_a   9.30168012
_cell_length_b   9.30167829
_cell_length_c   6.70047300
_cell_angle_alpha   90.00000000
_cell_angle_beta   90.00000000
_cell_angle_gamma   153.48740582
_symmetry_Int_Tables_number   1
_chemical_formula_structural   Li4Tb3DySi6
_chemical_formula_sum   'Li4 Tb3 Dy1 Si6'
_cell_volume   258.78972489
_cell_formula_units_Z   1
loop_
 _symmetry_equiv_pos_site_id
 _symmetry_equiv_pos_as_xyz
  1  'x, y, z'
loop_
 _atom_site_type_symbol
 _atom_site_label
 _atom_site_symmetry_multiplicity
 _atom_site_fract_x
 _atom_site_fract_y
 _atom_site_fract_z
 _atom_site_occupancy
  Li  Li0  1  0.809807  0.190193  0.558915  1
  Li  Li1  1  0.190115  0.809885  0.441264  1
  Li  Li2  1  0.190115  0.809885  0.058736  1
  Li  Li3  1  0.809807  0.190193  0.941085  1
  Tb  Tb4  1  0.552213  0.447787  0.250000  1
  Tb  Tb5  1  0.447911  0.552089  0.750000  1
  Tb  Tb6  1  0.344557  0.655443  0.250000  1
  Dy  Dy7  1  0.655344  0.344656  0.750000  1
  Si  Si8  1  0.940783  0.059217  0.072706  1
  Si  Si9  1  0.059367  0.940633  0.927128  1
  Si  Si10  1  0.059367  0.940633  0.572872  1
  Si  Si11  1  0.940783  0.059217  0.427294  1
  Si  Si12  1  0.719741  0.280259  0.250000  1
  Si  Si13  1  0.280089  0.719911  0.750000  1
