# generated using pymatgen
data_KSm(AuO2)4
_symmetry_space_group_name_H-M   'P 1'
_cell_length_a   6.15848500
_cell_length_b   6.82352600
_cell_length_c   5.68084300
_cell_angle_alpha   90.00000000
_cell_angle_beta   90.00000000
_cell_angle_gamma   90.00000000
_symmetry_Int_Tables_number   1
_chemical_formula_structural   KSm(AuO2)4
_chemical_formula_sum   'K1 Sm1 Au4 O8'
_cell_volume   238.72369374
_cell_formula_units_Z   1
loop_
 _symmetry_equiv_pos_site_id
 _symmetry_equiv_pos_as_xyz
  1  'x, y, z'
loop_
 _atom_site_type_symbol
 _atom_site_label
 _atom_site_symmetry_multiplicity
 _atom_site_fract_x
 _atom_site_fract_y
 _atom_site_fract_z
 _atom_site_occupancy
  K  K0  1  0.000000  0.500000  0.500000  1
  Sm  Sm1  1  0.500000  0.000000  0.000000  1
  Au  Au2  1  0.000000  0.793288  0.000000  1
  Au  Au3  1  0.000000  0.206712  0.000000  1
  Au  Au4  1  0.230840  0.000000  0.500000  1
  Au  Au5  1  0.769160  0.000000  0.500000  1
  O  O6  1  0.249239  0.206623  0.238998  1
  O  O7  1  0.249239  0.206623  0.761002  1
  O  O8  1  0.249239  0.793377  0.238998  1
  O  O9  1  0.249239  0.793377  0.761002  1
  O  O10  1  0.750761  0.793377  0.238998  1
  O  O11  1  0.750761  0.206623  0.761002  1
  O  O12  1  0.750761  0.793377  0.761002  1
  O  O13  1  0.750761  0.206623  0.238998  1
