# generated using pymatgen
data_Ti10CuSb6As
_symmetry_space_group_name_H-M   'P 1'
_cell_length_a   8.20440700
_cell_length_b   8.20440872
_cell_length_c   5.52189200
_cell_angle_alpha   90.00000000
_cell_angle_beta   90.00000000
_cell_angle_gamma   120.00000518
_symmetry_Int_Tables_number   1
_chemical_formula_structural   Ti10CuSb6As
_chemical_formula_sum   'Ti10 Cu1 Sb6 As1'
_cell_volume   321.89408850
_cell_formula_units_Z   1
loop_
 _symmetry_equiv_pos_site_id
 _symmetry_equiv_pos_as_xyz
  1  'x, y, z'
loop_
 _atom_site_type_symbol
 _atom_site_label
 _atom_site_symmetry_multiplicity
 _atom_site_fract_x
 _atom_site_fract_y
 _atom_site_fract_z
 _atom_site_occupancy
  Ti  Ti0  1  0.666667  0.333333  0.500000  1
  Ti  Ti1  1  0.333333  0.666667  0.500000  1
  Ti  Ti2  1  0.333333  0.666667  0.000000  1
  Ti  Ti3  1  0.666667  0.333333  0.000000  1
  Ti  Ti4  1  0.733617  0.733617  0.247393  1
  Ti  Ti5  1  0.266383  0.000000  0.247393  1
  Ti  Ti6  1  0.000000  0.266383  0.247393  1
  Ti  Ti7  1  0.266383  0.266383  0.752607  1
  Ti  Ti8  1  0.733617  0.000000  0.752607  1
  Ti  Ti9  1  0.000000  0.733617  0.752607  1
  Cu  Cu10  1  0.000000  0.000000  0.500000  1
  Sb  Sb11  1  0.388975  0.388975  0.253572  1
  Sb  Sb12  1  0.611025  0.000000  0.253572  1
  Sb  Sb13  1  0.000000  0.611025  0.253572  1
  Sb  Sb14  1  0.611025  0.611025  0.746428  1
  Sb  Sb15  1  0.388975  0.000000  0.746428  1
  Sb  Sb16  1  0.000000  0.388975  0.746428  1
  As  As17  1  0.000000  0.000000  0.000000  1
