# generated using pymatgen
data_LaNd6PaSe12
_symmetry_space_group_name_H-M   'P 1'
_cell_length_a   11.55873584
_cell_length_b   4.18296200
_cell_length_c   11.29638100
_cell_angle_alpha   90.00000000
_cell_angle_beta   90.02185508
_cell_angle_gamma   90.00000000
_symmetry_Int_Tables_number   1
_chemical_formula_structural   LaNd6PaSe12
_chemical_formula_sum   'La1 Nd6 Pa1 Se12'
_cell_volume   546.17718904
_cell_formula_units_Z   1
loop_
 _symmetry_equiv_pos_site_id
 _symmetry_equiv_pos_as_xyz
  1  'x, y, z'
loop_
 _atom_site_type_symbol
 _atom_site_label
 _atom_site_symmetry_multiplicity
 _atom_site_fract_x
 _atom_site_fract_y
 _atom_site_fract_z
 _atom_site_occupancy
  La  La0  1  0.308588  0.250000  0.504489  1
  Nd  Nd1  1  0.486794  0.250000  0.185431  1
  Nd  Nd2  1  0.988813  0.250000  0.313695  1
  Nd  Nd3  1  0.512437  0.750000  0.812579  1
  Nd  Nd4  1  0.011314  0.750000  0.686097  1
  Nd  Nd5  1  0.691811  0.750000  0.488366  1
  Nd  Nd6  1  0.194989  0.750000  0.000603  1
  Pa  Pa7  1  0.807062  0.250000  0.003622  1
  Se  Se8  1  0.550740  0.250000  0.626040  1
  Se  Se9  1  0.039960  0.250000  0.877110  1
  Se  Se10  1  0.455168  0.750000  0.371068  1
  Se  Se11  1  0.949591  0.750000  0.123583  1
  Se  Se12  1  0.623428  0.750000  0.054631  1
  Se  Se13  1  0.119739  0.750000  0.444924  1
  Se  Se14  1  0.380262  0.250000  0.944645  1
  Se  Se15  1  0.875507  0.250000  0.555205  1
  Se  Se16  1  0.730520  0.250000  0.291978  1
  Se  Se17  1  0.225664  0.250000  0.196114  1
  Se  Se18  1  0.269826  0.750000  0.704980  1
  Se  Se19  1  0.777787  0.750000  0.814842  1
