# generated using pymatgen
data_La7NdHoPt6
_symmetry_space_group_name_H-M   'P 1'
_cell_length_a   7.79159491
_cell_length_b   7.79159549
_cell_length_c   7.79159437
_cell_angle_alpha   71.74548632
_cell_angle_beta   71.74549346
_cell_angle_gamma   71.74549289
_symmetry_Int_Tables_number   1
_chemical_formula_structural   La7NdHoPt6
_chemical_formula_sum   'La7 Nd1 Ho1 Pt6'
_cell_volume   414.29432522
_cell_formula_units_Z   1
loop_
 _symmetry_equiv_pos_site_id
 _symmetry_equiv_pos_as_xyz
  1  'x, y, z'
loop_
 _atom_site_type_symbol
 _atom_site_label
 _atom_site_symmetry_multiplicity
 _atom_site_fract_x
 _atom_site_fract_y
 _atom_site_fract_z
 _atom_site_occupancy
  La  La0  1  0.199108  0.199108  0.199108  1
  La  La1  1  0.327707  0.611069  0.836402  1
  La  La2  1  0.836402  0.327707  0.611069  1
  La  La3  1  0.611069  0.836402  0.327707  1
  La  La4  1  0.672429  0.389618  0.163093  1
  La  La5  1  0.163093  0.672429  0.389618  1
  La  La6  1  0.389618  0.163093  0.672429  1
  Nd  Nd7  1  0.801050  0.801050  0.801050  1
  Ho  Ho8  1  0.999816  0.999816  0.999816  1
  Pt  Pt9  1  0.161581  0.960102  0.596516  1
  Pt  Pt10  1  0.596516  0.161581  0.960102  1
  Pt  Pt11  1  0.960102  0.596516  0.161581  1
  Pt  Pt12  1  0.838320  0.039395  0.403796  1
  Pt  Pt13  1  0.403796  0.838320  0.039395  1
  Pt  Pt14  1  0.039395  0.403796  0.838320  1
