# generated using pymatgen
data_CaEr(Tm9Pt8)2
_symmetry_space_group_name_H-M   'P 1'
_cell_length_a   7.39735609
_cell_length_b   7.48453534
_cell_length_c   14.58768200
_cell_angle_alpha   90.01103117
_cell_angle_beta   90.00869813
_cell_angle_gamma   90.03240288
_symmetry_Int_Tables_number   1
_chemical_formula_structural   CaEr(Tm9Pt8)2
_chemical_formula_sum   'Ca1 Er1 Tm18 Pt16'
_cell_volume   807.65813692
_cell_formula_units_Z   1
loop_
 _symmetry_equiv_pos_site_id
 _symmetry_equiv_pos_as_xyz
  1  'x, y, z'
loop_
 _atom_site_type_symbol
 _atom_site_label
 _atom_site_symmetry_multiplicity
 _atom_site_fract_x
 _atom_site_fract_y
 _atom_site_fract_z
 _atom_site_occupancy
  Ca  Ca0  1  0.000788  0.821687  0.091993  1
  Er  Er1  1  0.499122  0.679643  0.406988  1
  Tm  Tm2  1  0.682933  0.989618  0.249496  1
  Tm  Tm3  1  0.180645  0.510420  0.249991  1
  Tm  Tm4  1  0.818695  0.490318  0.749741  1
  Tm  Tm5  1  0.318216  0.010073  0.749939  1
  Tm  Tm6  1  0.655179  0.833303  0.622654  1
  Tm  Tm7  1  0.155335  0.667289  0.878319  1
  Tm  Tm8  1  0.844923  0.332873  0.378356  1
  Tm  Tm9  1  0.344797  0.165989  0.122804  1
  Tm  Tm10  1  0.345647  0.167457  0.378134  1
  Tm  Tm11  1  0.845638  0.333617  0.122434  1
  Tm  Tm12  1  0.155211  0.667456  0.622359  1
  Tm  Tm13  1  0.655633  0.832088  0.877515  1
  Tm  Tm14  1  0.999505  0.820377  0.406503  1
  Tm  Tm15  1  0.498632  0.678978  0.092690  1
  Tm  Tm16  1  0.501593  0.318892  0.593033  1
  Tm  Tm17  1  0.002225  0.182355  0.906363  1
  Tm  Tm18  1  0.001289  0.180734  0.593027  1
  Tm  Tm19  1  0.500974  0.319754  0.907735  1
  Pt  Pt20  1  0.813965  0.640544  0.254500  1
  Pt  Pt21  1  0.320364  0.856926  0.251462  1
  Pt  Pt22  1  0.681316  0.143810  0.749986  1
  Pt  Pt23  1  0.181330  0.356308  0.749936  1
  Pt  Pt24  1  0.545484  0.385267  0.249753  1
  Pt  Pt25  1  0.048064  0.116944  0.252385  1
  Pt  Pt26  1  0.952681  0.886766  0.750325  1
  Pt  Pt27  1  0.452632  0.613178  0.749845  1
  Pt  Pt28  1  0.815589  0.531676  0.542484  1
  Pt  Pt29  1  0.320589  0.970609  0.954497  1
  Pt  Pt30  1  0.685314  0.031954  0.458306  1
  Pt  Pt31  1  0.188731  0.460263  0.039869  1
  Pt  Pt32  1  0.183840  0.467757  0.458237  1
  Pt  Pt33  1  0.675349  0.039881  0.040585  1
  Pt  Pt34  1  0.315023  0.968452  0.541916  1
  Pt  Pt35  1  0.812751  0.526743  0.955843  1
