# generated using pymatgen
data_Nd8SmY11Sn16
_symmetry_space_group_name_H-M   'P 1'
_cell_length_a   8.16511966
_cell_length_b   8.35092125
_cell_length_c   15.76466000
_cell_angle_alpha   89.86159951
_cell_angle_beta   90.02305130
_cell_angle_gamma   89.92649875
_symmetry_Int_Tables_number   1
_chemical_formula_structural   Nd8SmY11Sn16
_chemical_formula_sum   'Nd8 Sm1 Y11 Sn16'
_cell_volume   1074.92927396
_cell_formula_units_Z   1
loop_
 _symmetry_equiv_pos_site_id
 _symmetry_equiv_pos_as_xyz
  1  'x, y, z'
loop_
 _atom_site_type_symbol
 _atom_site_label
 _atom_site_symmetry_multiplicity
 _atom_site_fract_x
 _atom_site_fract_y
 _atom_site_fract_z
 _atom_site_occupancy
  Nd  Nd0  1  0.513821  0.321232  0.903007  1
  Nd  Nd1  1  0.013201  0.179312  0.596262  1
  Nd  Nd2  1  0.486102  0.678307  0.402767  1
  Nd  Nd3  1  0.986522  0.821948  0.097591  1
  Nd  Nd4  1  0.486141  0.678448  0.098303  1
  Nd  Nd5  1  0.986244  0.821161  0.402943  1
  Nd  Nd6  1  0.513929  0.321289  0.595682  1
  Nd  Nd7  1  0.014115  0.179535  0.903052  1
  Sm  Sm8  1  0.361354  0.834340  0.879307  1
  Y  Y9  1  0.860293  0.663853  0.621451  1
  Y  Y10  1  0.640459  0.164291  0.377090  1
  Y  Y11  1  0.139266  0.336194  0.124888  1
  Y  Y12  1  0.639731  0.163836  0.122804  1
  Y  Y13  1  0.140057  0.336044  0.377164  1
  Y  Y14  1  0.359694  0.835761  0.622374  1
  Y  Y15  1  0.859084  0.664822  0.876547  1
  Y  Y16  1  0.193317  0.501712  0.749131  1
  Y  Y17  1  0.693920  0.998330  0.749622  1
  Y  Y18  1  0.805548  0.498082  0.249991  1
  Y  Y19  1  0.305813  0.002042  0.250826  1
  Sn  Sn20  1  0.302241  0.041663  0.044549  1
  Sn  Sn21  1  0.803061  0.459926  0.457423  1
  Sn  Sn22  1  0.696199  0.960199  0.541551  1
  Sn  Sn23  1  0.192678  0.536194  0.958809  1
  Sn  Sn24  1  0.703187  0.961931  0.958514  1
  Sn  Sn25  1  0.197542  0.539958  0.541428  1
  Sn  Sn26  1  0.303464  0.039886  0.457992  1
  Sn  Sn27  1  0.803551  0.460134  0.041792  1
  Sn  Sn28  1  0.559947  0.620833  0.748912  1
  Sn  Sn29  1  0.058571  0.877046  0.748205  1
  Sn  Sn30  1  0.441154  0.376907  0.250306  1
  Sn  Sn31  1  0.940376  0.122986  0.250666  1
  Sn  Sn32  1  0.322245  0.143590  0.748911  1
  Sn  Sn33  1  0.822740  0.357472  0.749306  1
  Sn  Sn34  1  0.677218  0.857718  0.250352  1
  Sn  Sn35  1  0.177216  0.643020  0.250482  1
