# generated using pymatgen
data_Pr3In3AgHgRu
_symmetry_space_group_name_H-M   'P 1'
_cell_length_a   7.93042000
_cell_length_b   7.93042171
_cell_length_c   4.17616400
_cell_angle_alpha   90.00000000
_cell_angle_beta   90.00000000
_cell_angle_gamma   120.00000956
_symmetry_Int_Tables_number   1
_chemical_formula_structural   Pr3In3AgHgRu
_chemical_formula_sum   'Pr3 In3 Ag1 Hg1 Ru1'
_cell_volume   227.45768020
_cell_formula_units_Z   1
loop_
 _symmetry_equiv_pos_site_id
 _symmetry_equiv_pos_as_xyz
  1  'x, y, z'
loop_
 _atom_site_type_symbol
 _atom_site_label
 _atom_site_symmetry_multiplicity
 _atom_site_fract_x
 _atom_site_fract_y
 _atom_site_fract_z
 _atom_site_occupancy
  Pr  Pr0  1  0.429441  0.400964  0.500000  1
  Pr  Pr1  1  0.599036  0.028477  0.500000  1
  Pr  Pr2  1  0.971523  0.570559  0.500000  1
  In  In3  1  0.752627  0.741572  0.000000  1
  In  In4  1  0.258428  0.011055  0.000000  1
  In  In5  1  0.988945  0.247373  0.000000  1
  Ag  Ag6  1  0.000000  0.000000  0.500000  1
  Hg  Hg7  1  0.333333  0.666667  0.000000  1
  Ru  Ru8  1  0.666667  0.333333  0.000000  1
