# generated using pymatgen
data_Er2Sc2B12IrRh
_symmetry_space_group_name_H-M   'P 1'
_cell_length_a   3.53775500
_cell_length_b   8.98986913
_cell_length_c   11.34261043
_cell_angle_alpha   89.94242501
_cell_angle_beta   90.00000000
_cell_angle_gamma   90.00000000
_symmetry_Int_Tables_number   1
_chemical_formula_structural   Er2Sc2B12IrRh
_chemical_formula_sum   'Er4 Sc4 B24 Ir2 Rh2'
_cell_volume   360.73968373
_cell_formula_units_Z   2
loop_
 _symmetry_equiv_pos_site_id
 _symmetry_equiv_pos_as_xyz
  1  'x, y, z'
loop_
 _atom_site_type_symbol
 _atom_site_label
 _atom_site_symmetry_multiplicity
 _atom_site_fract_x
 _atom_site_fract_y
 _atom_site_fract_z
 _atom_site_occupancy
  Er  Er0  1  0.500000  0.319590  0.413579  1
  Er  Er1  1  0.500000  0.680410  0.586421  1
  Er  Er2  1  0.500000  0.179175  0.914462  1
  Er  Er3  1  0.500000  0.820825  0.085538  1
  Sc  Sc4  1  0.500000  0.444488  0.124410  1
  Sc  Sc5  1  0.500000  0.555512  0.875590  1
  Sc  Sc6  1  0.500000  0.054713  0.624661  1
  Sc  Sc7  1  0.500000  0.945287  0.375339  1
  B  B8  1  0.000000  0.100529  0.472799  1
  B  B9  1  0.000000  0.899471  0.527201  1
  B  B10  1  0.000000  0.399292  0.972773  1
  B  B11  1  0.000000  0.600708  0.027227  1
  B  B12  1  0.000000  0.130590  0.318462  1
  B  B13  1  0.000000  0.869410  0.681538  1
  B  B14  1  0.000000  0.369930  0.818476  1
  B  B15  1  0.000000  0.630070  0.181524  1
  B  B16  1  0.000000  0.054474  0.065251  1
  B  B17  1  0.000000  0.945526  0.934749  1
  B  B18  1  0.000000  0.445327  0.565533  1
  B  B19  1  0.000000  0.554673  0.434467  1
  B  B20  1  0.000000  0.481300  0.285343  1
  B  B21  1  0.000000  0.518700  0.714657  1
  B  B22  1  0.000000  0.018267  0.785518  1
  B  B23  1  0.000000  0.981733  0.214482  1
  B  B24  1  0.000000  0.253445  0.080018  1
  B  B25  1  0.000000  0.746555  0.919982  1
  B  B26  1  0.000000  0.246074  0.579904  1
  B  B27  1  0.000000  0.753926  0.420096  1
  B  B28  1  0.000000  0.295723  0.235914  1
  B  B29  1  0.000000  0.704277  0.764086  1
  B  B30  1  0.000000  0.204028  0.735652  1
  B  B31  1  0.000000  0.795972  0.264348  1
  Ir  Ir32  1  0.500000  0.358862  0.680938  1
  Ir  Ir33  1  0.500000  0.641138  0.319062  1
  Rh  Rh34  1  0.500000  0.141545  0.181745  1
  Rh  Rh35  1  0.500000  0.858455  0.818255  1
