# generated using pymatgen
data_Hf6Fe3Co13(P6Ru)2
_symmetry_space_group_name_H-M   'P 1'
_cell_length_a   11.88666433
_cell_length_b   11.91722972
_cell_length_c   3.62917500
_cell_angle_alpha   90.00000000
_cell_angle_beta   90.00000000
_cell_angle_gamma   120.02551582
_symmetry_Int_Tables_number   1
_chemical_formula_structural   Hf6Fe3Co13(P6Ru)2
_chemical_formula_sum   'Hf6 Fe3 Co13 P12 Ru2'
_cell_volume   445.10465008
_cell_formula_units_Z   1
loop_
 _symmetry_equiv_pos_site_id
 _symmetry_equiv_pos_as_xyz
  1  'x, y, z'
loop_
 _atom_site_type_symbol
 _atom_site_label
 _atom_site_symmetry_multiplicity
 _atom_site_fract_x
 _atom_site_fract_y
 _atom_site_fract_z
 _atom_site_occupancy
  Hf  Hf0  1  0.820801  0.818224  0.500000  1
  Hf  Hf1  1  0.002158  0.175158  0.500000  1
  Hf  Hf2  1  0.333323  0.666656  0.000000  1
  Hf  Hf3  1  0.667278  0.333682  0.000000  1
  Hf  Hf4  1  0.000202  0.555902  0.000000  1
  Hf  Hf5  1  0.177607  0.998447  0.500000  1
  Fe  Fe6  1  0.624705  0.823529  0.000000  1
  Fe  Fe7  1  0.000091  0.720966  0.500000  1
  Fe  Fe8  1  0.282274  0.281102  0.500000  1
  Co  Co9  1  0.375281  0.196829  0.000000  1
  Co  Co10  1  0.870760  0.350859  0.500000  1
  Co  Co11  1  0.717906  0.999628  0.500000  1
  Co  Co12  1  0.816153  0.627600  0.000000  1
  Co  Co13  1  0.183692  0.811459  0.000000  1
  Co  Co14  1  0.357938  0.874153  0.500000  1
  Co  Co15  1  0.129154  0.479872  0.500000  1
  Co  Co16  1  0.642567  0.516278  0.500000  1
  Co  Co17  1  0.999977  0.001148  0.000000  1
  Co  Co18  1  0.514108  0.644811  0.500000  1
  Co  Co19  1  0.484649  0.131427  0.500000  1
  Co  Co20  1  0.196903  0.371301  0.000000  1
  Co  Co21  1  0.804414  0.174614  0.000000  1
  P  P22  1  0.000160  0.345088  0.000000  1
  P  P23  1  0.826295  0.517059  0.500000  1
  P  P24  1  0.684240  0.165761  0.500000  1
  P  P25  1  0.177967  0.175457  0.000000  1
  P  P26  1  0.640415  0.646607  0.000000  1
  P  P27  1  0.822026  0.996855  0.000000  1
  P  P28  1  0.517884  0.832614  0.500000  1
  P  P29  1  0.174018  0.690899  0.500000  1
  P  P30  1  0.358782  0.004248  0.000000  1
  P  P31  1  0.482180  0.316461  0.500000  1
  P  P32  1  0.999626  0.824355  0.000000  1
  P  P33  1  0.315307  0.480231  0.500000  1
  Ru  Ru34  1  0.448809  0.449778  0.000000  1
  Ru  Ru35  1  0.550349  0.000940  0.000000  1
