# generated using pymatgen
data_Zr6Cr2Co16Si11P
_symmetry_space_group_name_H-M   'P 1'
_cell_length_a   12.14271036
_cell_length_b   12.11210169
_cell_length_c   3.68390400
_cell_angle_alpha   90.00000000
_cell_angle_beta   90.00000000
_cell_angle_gamma   119.78297392
_symmetry_Int_Tables_number   1
_chemical_formula_structural   Zr6Cr2Co16Si11P
_chemical_formula_sum   'Zr6 Cr2 Co16 Si11 P1'
_cell_volume   470.24013171
_cell_formula_units_Z   1
loop_
 _symmetry_equiv_pos_site_id
 _symmetry_equiv_pos_as_xyz
  1  'x, y, z'
loop_
 _atom_site_type_symbol
 _atom_site_label
 _atom_site_symmetry_multiplicity
 _atom_site_fract_x
 _atom_site_fract_y
 _atom_site_fract_z
 _atom_site_occupancy
  Zr  Zr0  1  0.000215  0.560732  0.000000  1
  Zr  Zr1  1  0.662270  0.330464  0.000000  1
  Zr  Zr2  1  0.337286  0.666478  0.000000  1
  Zr  Zr3  1  0.809256  0.811249  0.500000  1
  Zr  Zr4  1  0.190734  0.002147  0.500000  1
  Zr  Zr5  1  0.000824  0.178532  0.500000  1
  Cr  Cr6  1  0.436903  0.438048  0.000000  1
  Cr  Cr7  1  0.564454  0.001558  0.000000  1
  Co  Co8  1  0.198201  0.368653  0.000000  1
  Co  Co9  1  0.184765  0.811226  0.000000  1
  Co  Co10  1  0.815343  0.626643  0.000000  1
  Co  Co11  1  0.800920  0.174057  0.000000  1
  Co  Co12  1  0.373873  0.198427  0.000000  1
  Co  Co13  1  0.124909  0.477138  0.500000  1
  Co  Co14  1  0.363488  0.885220  0.500000  1
  Co  Co15  1  0.516527  0.643707  0.500000  1
  Co  Co16  1  0.636248  0.521423  0.500000  1
  Co  Co17  1  0.875660  0.353690  0.500000  1
  Co  Co18  1  0.482491  0.127910  0.500000  1
  Co  Co19  1  0.005311  0.005461  0.000000  1
  Co  Co20  1  0.718622  0.998448  0.500000  1
  Co  Co21  1  0.000009  0.722978  0.500000  1
  Co  Co22  1  0.622937  0.821952  0.000000  1
  Co  Co23  1  0.277474  0.275438  0.500000  1
  Si  Si24  1  0.632415  0.638178  0.000000  1
  Si  Si25  1  0.367590  0.005560  0.000000  1
  Si  Si26  1  0.000037  0.346195  0.000000  1
  Si  Si27  1  0.480686  0.316698  0.500000  1
  Si  Si28  1  0.685570  0.166566  0.500000  1
  Si  Si29  1  0.819196  0.516741  0.500000  1
  Si  Si30  1  0.518776  0.834831  0.500000  1
  Si  Si31  1  0.181134  0.697334  0.500000  1
  Si  Si32  1  0.819920  0.996623  0.000000  1
  Si  Si33  1  0.999733  0.822393  0.000000  1
  Si  Si34  1  0.314423  0.479306  0.500000  1
  P  P35  1  0.181795  0.177989  0.000000  1
