# generated using pymatgen
data_Yb12MnGaN10
_symmetry_space_group_name_H-M   'P 1'
_cell_length_a   6.19792600
_cell_length_b   6.19792705
_cell_length_c   12.00968700
_cell_angle_alpha   90.00000000
_cell_angle_beta   90.00000000
_cell_angle_gamma   120.00000508
_symmetry_Int_Tables_number   1
_chemical_formula_structural   Yb12MnGaN10
_chemical_formula_sum   'Yb12 Mn1 Ga1 N10'
_cell_volume   399.53528963
_cell_formula_units_Z   1
loop_
 _symmetry_equiv_pos_site_id
 _symmetry_equiv_pos_as_xyz
  1  'x, y, z'
loop_
 _atom_site_type_symbol
 _atom_site_label
 _atom_site_symmetry_multiplicity
 _atom_site_fract_x
 _atom_site_fract_y
 _atom_site_fract_z
 _atom_site_occupancy
  Yb  Yb0  1  0.000000  0.402495  0.880181  1
  Yb  Yb1  1  0.597505  0.597505  0.880181  1
  Yb  Yb2  1  0.593289  0.000000  0.124052  1
  Yb  Yb3  1  0.402495  0.000000  0.619819  1
  Yb  Yb4  1  0.406711  0.406711  0.375948  1
  Yb  Yb5  1  0.593289  0.000000  0.375948  1
  Yb  Yb6  1  0.406711  0.406711  0.124052  1
  Yb  Yb7  1  0.000000  0.593289  0.124052  1
  Yb  Yb8  1  0.000000  0.402495  0.619819  1
  Yb  Yb9  1  0.597505  0.597505  0.619819  1
  Yb  Yb10  1  0.402495  0.000000  0.880181  1
  Yb  Yb11  1  0.000000  0.593289  0.375948  1
  Mn  Mn12  1  0.000000  0.000000  0.750000  1
  Ga  Ga13  1  0.000000  0.000000  0.250000  1
  N  N14  1  0.712678  0.000000  0.750000  1
  N  N15  1  0.287322  0.287322  0.750000  1
  N  N16  1  0.301071  0.000000  0.250000  1
  N  N17  1  0.666667  0.333333  0.499716  1
  N  N18  1  0.333333  0.666667  0.000284  1
  N  N19  1  0.333333  0.666667  0.499716  1
  N  N20  1  0.666667  0.333333  0.000284  1
  N  N21  1  0.698929  0.698929  0.250000  1
  N  N22  1  0.000000  0.301071  0.250000  1
  N  N23  1  0.000000  0.712678  0.750000  1
