# generated using pymatgen
data_Dy5Ho3Sc12Si15Rh
_symmetry_space_group_name_H-M   'P 1'
_cell_length_a   7.07405214
_cell_length_b   7.43279245
_cell_length_c   13.95118104
_cell_angle_alpha   89.99460391
_cell_angle_beta   89.99274149
_cell_angle_gamma   90.20680698
_symmetry_Int_Tables_number   1
_chemical_formula_structural   Dy5Ho3Sc12Si15Rh
_chemical_formula_sum   'Dy5 Ho3 Sc12 Si15 Rh1'
_cell_volume   733.54777244
_cell_formula_units_Z   1
loop_
 _symmetry_equiv_pos_site_id
 _symmetry_equiv_pos_as_xyz
  1  'x, y, z'
loop_
 _atom_site_type_symbol
 _atom_site_label
 _atom_site_symmetry_multiplicity
 _atom_site_fract_x
 _atom_site_fract_y
 _atom_site_fract_z
 _atom_site_occupancy
  Dy  Dy0  1  0.991072  0.824636  0.595430  1
  Dy  Dy1  1  0.511230  0.322985  0.096333  1
  Dy  Dy2  1  0.011345  0.178184  0.403938  1
  Dy  Dy3  1  0.511158  0.322996  0.403581  1
  Dy  Dy4  1  0.489154  0.676804  0.595646  1
  Ho  Ho5  1  0.011401  0.178258  0.096097  1
  Ho  Ho6  1  0.991086  0.824499  0.904521  1
  Ho  Ho7  1  0.489042  0.677068  0.904282  1
  Sc  Sc8  1  0.158890  0.503670  0.750070  1
  Sc  Sc9  1  0.837963  0.496051  0.249973  1
  Sc  Sc10  1  0.338704  0.004724  0.249974  1
  Sc  Sc11  1  0.668721  0.998915  0.750063  1
  Sc  Sc12  1  0.320334  0.172693  0.626921  1
  Sc  Sc13  1  0.671111  0.825201  0.374012  1
  Sc  Sc14  1  0.170697  0.677329  0.374307  1
  Sc  Sc15  1  0.671093  0.825205  0.125917  1
  Sc  Sc16  1  0.833941  0.322143  0.626572  1
  Sc  Sc17  1  0.320137  0.172630  0.873132  1
  Sc  Sc18  1  0.834027  0.322072  0.873464  1
  Sc  Sc19  1  0.170677  0.677408  0.125620  1
  Si  Si20  1  0.968444  0.884545  0.249927  1
  Si  Si21  1  0.468012  0.615061  0.249979  1
  Si  Si22  1  0.530602  0.387506  0.750091  1
  Si  Si23  1  0.287735  0.868495  0.750209  1
  Si  Si24  1  0.713534  0.128974  0.249892  1
  Si  Si25  1  0.213152  0.371771  0.249884  1
  Si  Si26  1  0.780776  0.626709  0.750201  1
  Si  Si27  1  0.159337  0.467194  0.537957  1
  Si  Si28  1  0.842855  0.535736  0.461236  1
  Si  Si29  1  0.344597  0.965740  0.460545  1
  Si  Si30  1  0.842889  0.535721  0.038739  1
  Si  Si31  1  0.657612  0.034719  0.538670  1
  Si  Si32  1  0.159511  0.467370  0.962000  1
  Si  Si33  1  0.657883  0.034363  0.961256  1
  Si  Si34  1  0.344265  0.965684  0.039429  1
  Rh  Rh35  1  0.027011  0.106938  0.750131  1
