# generated using pymatgen
data_Ca2Ga3Cu
_symmetry_space_group_name_H-M   'P 1'
_cell_length_a   4.41321298
_cell_length_b   5.71356418
_cell_length_c   5.65867700
_cell_angle_alpha   93.51540434
_cell_angle_beta   112.95143905
_cell_angle_gamma   67.28144024
_symmetry_Int_Tables_number   1
_chemical_formula_structural   Ca2Ga3Cu
_chemical_formula_sum   'Ca2 Ga3 Cu1'
_cell_volume   120.52352091
_cell_formula_units_Z   1
loop_
 _symmetry_equiv_pos_site_id
 _symmetry_equiv_pos_as_xyz
  1  'x, y, z'
loop_
 _atom_site_type_symbol
 _atom_site_label
 _atom_site_symmetry_multiplicity
 _atom_site_fract_x
 _atom_site_fract_y
 _atom_site_fract_z
 _atom_site_occupancy
  Ca  Ca0  1  0.749254  0.706429  0.204937  1
  Ca  Ca1  1  0.250205  0.295814  0.796223  1
  Ga  Ga2  1  0.450163  0.702906  0.603233  1
  Ga  Ga3  1  0.057752  0.116320  0.231822  1
  Ga  Ga4  1  0.937422  0.900087  0.774932  1
  Cu  Cu5  1  0.555204  0.278444  0.388852  1
