# generated using pymatgen
data_Tb16Zn3InIr4
_symmetry_space_group_name_H-M   'P 1'
_cell_length_a   9.59861661
_cell_length_b   9.59861677
_cell_length_c   9.57204746
_cell_angle_alpha   59.90814329
_cell_angle_beta   59.90814225
_cell_angle_gamma   60.00000194
_symmetry_Int_Tables_number   1
_chemical_formula_structural   Tb16Zn3InIr4
_chemical_formula_sum   'Tb16 Zn3 In1 Ir4'
_cell_volume   622.73427289
_cell_formula_units_Z   1
loop_
 _symmetry_equiv_pos_site_id
 _symmetry_equiv_pos_as_xyz
  1  'x, y, z'
loop_
 _atom_site_type_symbol
 _atom_site_label
 _atom_site_symmetry_multiplicity
 _atom_site_fract_x
 _atom_site_fract_y
 _atom_site_fract_z
 _atom_site_occupancy
  Tb  Tb0  1  0.100696  0.696007  0.102600  1
  Tb  Tb1  1  0.940584  0.940584  0.559372  1
  Tb  Tb2  1  0.941769  0.559075  0.940081  1
  Tb  Tb3  1  0.313649  0.687150  0.312051  1
  Tb  Tb4  1  0.940584  0.559461  0.559372  1
  Tb  Tb5  1  0.313343  0.313343  0.681811  1
  Tb  Tb6  1  0.100696  0.100696  0.102600  1
  Tb  Tb7  1  0.559075  0.559075  0.940081  1
  Tb  Tb8  1  0.101926  0.101926  0.694222  1
  Tb  Tb9  1  0.691503  0.313343  0.681811  1
  Tb  Tb10  1  0.687150  0.687150  0.312051  1
  Tb  Tb11  1  0.687150  0.313649  0.312051  1
  Tb  Tb12  1  0.313343  0.691503  0.681811  1
  Tb  Tb13  1  0.559461  0.940584  0.559372  1
  Tb  Tb14  1  0.696007  0.100696  0.102600  1
  Tb  Tb15  1  0.559075  0.941769  0.940081  1
  Zn  Zn16  1  0.328922  0.328922  0.332581  1
  Zn  Zn17  1  0.009575  0.328922  0.332581  1
  Zn  Zn18  1  0.328922  0.009575  0.332581  1
  In  In19  1  0.327622  0.327622  0.017132  1
  Ir  Ir20  1  0.892052  0.892052  0.892854  1
  Ir  Ir21  1  0.891802  0.891802  0.324595  1
  Ir  Ir22  1  0.323042  0.892052  0.892854  1
  Ir  Ir23  1  0.892052  0.323042  0.892854  1
