# generated using pymatgen
data_MnSb12OsRh2
_symmetry_space_group_name_H-M   'P 1'
_cell_length_a   8.16704541
_cell_length_b   8.15276704
_cell_length_c   8.17274658
_cell_angle_alpha   109.54491177
_cell_angle_beta   109.51990589
_cell_angle_gamma   109.53177917
_symmetry_Int_Tables_number   1
_chemical_formula_structural   MnSb12OsRh2
_chemical_formula_sum   'Mn1 Sb12 Os1 Rh2'
_cell_volume   417.95714209
_cell_formula_units_Z   1
loop_
 _symmetry_equiv_pos_site_id
 _symmetry_equiv_pos_as_xyz
  1  'x, y, z'
loop_
 _atom_site_type_symbol
 _atom_site_label
 _atom_site_symmetry_multiplicity
 _atom_site_fract_x
 _atom_site_fract_y
 _atom_site_fract_z
 _atom_site_occupancy
  Mn  Mn0  1  0.500000  0.500000  0.500000  1
  Sb  Sb1  1  0.154625  0.815177  0.660323  1
  Sb  Sb2  1  0.845375  0.184823  0.339677  1
  Sb  Sb3  1  0.847703  0.504964  0.662857  1
  Sb  Sb4  1  0.152297  0.495036  0.337143  1
  Sb  Sb5  1  0.817793  0.661727  0.153888  1
  Sb  Sb6  1  0.182207  0.338273  0.846112  1
  Sb  Sb7  1  0.503600  0.659974  0.847909  1
  Sb  Sb8  1  0.496400  0.340026  0.152091  1
  Sb  Sb9  1  0.663211  0.155534  0.817645  1
  Sb  Sb10  1  0.336789  0.844466  0.182355  1
  Sb  Sb11  1  0.660242  0.847576  0.503718  1
  Sb  Sb12  1  0.339758  0.152424  0.496282  1
  Os  Os13  1  0.000000  0.500000  0.000000  1
  Rh  Rh14  1  0.000000  0.000000  0.500000  1
  Rh  Rh15  1  0.500000  0.000000  0.000000  1
