# generated using pymatgen
data_Hf5Pa3(Ni2Pd)4
_symmetry_space_group_name_H-M   'P 1'
_cell_length_a   6.98635640
_cell_length_b   6.98635580
_cell_length_c   6.82713000
_cell_angle_alpha   90.00000000
_cell_angle_beta   90.00000000
_cell_angle_gamma   90.28441178
_symmetry_Int_Tables_number   1
_chemical_formula_structural   Hf5Pa3(Ni2Pd)4
_chemical_formula_sum   'Hf5 Pa3 Ni8 Pd4'
_cell_volume   333.22245406
_cell_formula_units_Z   1
loop_
 _symmetry_equiv_pos_site_id
 _symmetry_equiv_pos_as_xyz
  1  'x, y, z'
loop_
 _atom_site_type_symbol
 _atom_site_label
 _atom_site_symmetry_multiplicity
 _atom_site_fract_x
 _atom_site_fract_y
 _atom_site_fract_z
 _atom_site_occupancy
  Hf  Hf0  1  0.174800  0.825200  0.500000  1
  Hf  Hf1  1  0.325084  0.324472  0.000000  1
  Hf  Hf2  1  0.823072  0.176928  0.500000  1
  Hf  Hf3  1  0.675528  0.674916  0.000000  1
  Hf  Hf4  1  0.825672  0.174328  0.000000  1
  Pa  Pa5  1  0.677365  0.671900  0.500000  1
  Pa  Pa6  1  0.173479  0.826521  0.000000  1
  Pa  Pa7  1  0.328100  0.322635  0.500000  1
  Ni  Ni8  1  0.126478  0.125408  0.257007  1
  Ni  Ni9  1  0.874592  0.873522  0.742993  1
  Ni  Ni10  1  0.874592  0.873522  0.257007  1
  Ni  Ni11  1  0.126478  0.125408  0.742993  1
  Ni  Ni12  1  0.371263  0.628737  0.241881  1
  Ni  Ni13  1  0.623367  0.376633  0.760408  1
  Ni  Ni14  1  0.371263  0.628737  0.758119  1
  Ni  Ni15  1  0.623367  0.376633  0.239592  1
  Pd  Pd16  1  0.504848  0.002097  0.758293  1
  Pd  Pd17  1  0.997903  0.495152  0.241707  1
  Pd  Pd18  1  0.997903  0.495152  0.758293  1
  Pd  Pd19  1  0.504848  0.002097  0.241707  1
