# generated using pymatgen
data_Er12Zn5Hg7C4
_symmetry_space_group_name_H-M   'P 1'
_cell_length_a   9.24702439
_cell_length_b   9.24349771
_cell_length_c   9.24754500
_cell_angle_alpha   119.98530798
_cell_angle_beta   90.06184980
_cell_angle_gamma   119.98588353
_symmetry_Int_Tables_number   1
_chemical_formula_structural   Er12Zn5Hg7C4
_chemical_formula_sum   'Er12 Zn5 Hg7 C4'
_cell_volume   558.86146501
_cell_formula_units_Z   1
loop_
 _symmetry_equiv_pos_site_id
 _symmetry_equiv_pos_as_xyz
  1  'x, y, z'
loop_
 _atom_site_type_symbol
 _atom_site_label
 _atom_site_symmetry_multiplicity
 _atom_site_fract_x
 _atom_site_fract_y
 _atom_site_fract_z
 _atom_site_occupancy
  Er  Er0  1  0.931511  0.363164  0.181552  1
  Er  Er1  1  0.931558  0.749973  0.181616  1
  Er  Er2  1  0.318421  0.750059  0.181557  1
  Er  Er3  1  0.680605  0.250135  0.430703  1
  Er  Er4  1  0.680667  0.861212  0.430619  1
  Er  Er5  1  0.069594  0.250159  0.430709  1
  Er  Er6  1  0.318706  0.137345  0.571271  1
  Er  Er7  1  0.318677  0.752703  0.571371  1
  Er  Er8  1  0.934025  0.752606  0.571214  1
  Er  Er9  1  0.680280  0.249829  0.819324  1
  Er  Er10  1  0.069546  0.639022  0.819290  1
  Er  Er11  1  0.069563  0.249824  0.819422  1
  Zn  Zn12  1  0.005191  0.999262  0.993404  1
  Zn  Zn13  1  0.494010  0.999373  0.993575  1
  Zn  Zn14  1  0.494118  0.488317  0.993594  1
  Zn  Zn15  1  0.499712  0.499576  0.499345  1
  Zn  Zn16  1  0.294436  0.088880  0.883304  1
  Hg  Hg17  1  0.709799  0.919199  0.128730  1
  Hg  Hg18  1  0.289648  0.079609  0.207905  1
  Hg  Hg19  1  0.289590  0.417772  0.207809  1
  Hg  Hg20  1  0.628120  0.417938  0.207586  1
  Hg  Hg21  1  0.370677  0.580946  0.791348  1
  Hg  Hg22  1  0.710472  0.580803  0.790990  1
  Hg  Hg23  1  0.710313  0.920666  0.791081  1
  C  C24  1  0.999697  0.499213  0.999308  1
  C  C25  1  0.000288  0.000741  0.501291  1
  C  C26  1  0.500509  0.000782  0.500832  1
  C  C27  1  0.000275  0.500905  0.501257  1
