# generated using pymatgen
data_Na4La2(CrH9)3
_symmetry_space_group_name_H-M   'P 1'
_cell_length_a   8.87033700
_cell_length_b   8.89625248
_cell_length_c   5.16475700
_cell_angle_alpha   90.00000000
_cell_angle_beta   90.00000000
_cell_angle_gamma   119.90368655
_symmetry_Int_Tables_number   1
_chemical_formula_structural   Na4La2(CrH9)3
_chemical_formula_sum   'Na4 La2 Cr3 H27'
_cell_volume   353.30388858
_cell_formula_units_Z   1
loop_
 _symmetry_equiv_pos_site_id
 _symmetry_equiv_pos_as_xyz
  1  'x, y, z'
loop_
 _atom_site_type_symbol
 _atom_site_label
 _atom_site_symmetry_multiplicity
 _atom_site_fract_x
 _atom_site_fract_y
 _atom_site_fract_z
 _atom_site_occupancy
  Na  Na0  1  0.013593  0.291133  0.500000  1
  Na  Na1  1  0.722459  0.708867  0.500000  1
  Na  Na2  1  0.009418  0.598358  0.000000  1
  Na  Na3  1  0.411060  0.401642  0.000000  1
  La  La4  1  0.248351  0.000000  0.500000  1
  La  La5  1  0.610764  0.000000  0.000000  1
  Cr  Cr6  1  0.989866  0.000000  0.000000  1
  Cr  Cr7  1  0.352848  0.699021  0.500000  1
  Cr  Cr8  1  0.653830  0.300979  0.500000  1
  H  H9  1  0.866928  0.000000  0.233846  1
  H  H10  1  0.983948  0.859868  0.219373  1
  H  H11  1  0.866928  0.000000  0.766154  1
  H  H12  1  0.983948  0.859868  0.780627  1
  H  H13  1  0.124080  0.140132  0.219373  1
  H  H14  1  0.124080  0.140132  0.780627  1
  H  H15  1  0.180982  0.000000  0.000000  1
  H  H16  1  0.971821  0.172214  0.000000  1
  H  H17  1  0.799607  0.827786  0.000000  1
  H  H18  1  0.227739  0.555000  0.288090  1
  H  H19  1  0.475226  0.700947  0.259316  1
  H  H20  1  0.227739  0.555000  0.711910  1
  H  H21  1  0.516862  0.173130  0.736506  1
  H  H22  1  0.343733  0.826870  0.263494  1
  H  H23  1  0.475226  0.700947  0.740684  1
  H  H24  1  0.672740  0.445000  0.711910  1
  H  H25  1  0.516862  0.173130  0.263494  1
  H  H26  1  0.343733  0.826870  0.736506  1
  H  H27  1  0.672740  0.445000  0.288090  1
  H  H28  1  0.774279  0.299053  0.740684  1
  H  H29  1  0.774279  0.299053  0.259316  1
  H  H30  1  0.376106  0.533185  0.500000  1
  H  H31  1  0.541354  0.875932  0.500000  1
  H  H32  1  0.477502  0.316476  0.500000  1
  H  H33  1  0.161026  0.683524  0.500000  1
  H  H34  1  0.842921  0.466815  0.500000  1
  H  H35  1  0.665422  0.124068  0.500000  1
