# generated using pymatgen
data_MnCu3(TeO6)2
_symmetry_space_group_name_H-M   'P 1'
_cell_length_a   4.61057288
_cell_length_b   4.61061177
_cell_length_c   9.11123600
_cell_angle_alpha   90.00085003
_cell_angle_beta   90.00149769
_cell_angle_gamma   89.25353036
_symmetry_Int_Tables_number   1
_chemical_formula_structural   MnCu3(TeO6)2
_chemical_formula_sum   'Mn1 Cu3 Te2 O12'
_cell_volume   193.66622303
_cell_formula_units_Z   1
loop_
 _symmetry_equiv_pos_site_id
 _symmetry_equiv_pos_as_xyz
  1  'x, y, z'
loop_
 _atom_site_type_symbol
 _atom_site_label
 _atom_site_symmetry_multiplicity
 _atom_site_fract_x
 _atom_site_fract_y
 _atom_site_fract_z
 _atom_site_occupancy
  Mn  Mn0  1  0.499956  0.499969  0.165865  1
  Cu  Cu1  1  0.999920  0.999477  0.666844  1
  Cu  Cu2  1  0.500104  0.500462  0.833004  1
  Cu  Cu3  1  0.999905  0.000017  0.333020  1
  Te  Te4  1  0.999995  0.000276  0.999539  1
  Te  Te5  1  0.500044  0.499700  0.500800  1
  O  O6  1  0.304136  0.304196  0.005085  1
  O  O7  1  0.695999  0.696059  0.005098  1
  O  O8  1  0.195105  0.804844  0.498882  1
  O  O9  1  0.805135  0.194808  0.498902  1
  O  O10  1  0.313101  0.313126  0.330329  1
  O  O11  1  0.691496  0.691543  0.665980  1
  O  O12  1  0.686892  0.686917  0.330405  1
  O  O13  1  0.191671  0.808219  0.835470  1
  O  O14  1  0.196366  0.803637  0.164646  1
  O  O15  1  0.308493  0.308543  0.666061  1
  O  O16  1  0.803547  0.196455  0.164727  1
  O  O17  1  0.808134  0.191754  0.835341  1
