# generated using pymatgen
data_CsK6Rb11(AlSb4)2
_symmetry_space_group_name_H-M   'P 1'
_cell_length_a   10.94820505
_cell_length_b   10.90671303
_cell_length_c   11.42130069
_cell_angle_alpha   89.90898459
_cell_angle_beta   90.00116310
_cell_angle_gamma   120.12685440
_symmetry_Int_Tables_number   1
_chemical_formula_structural   CsK6Rb11(AlSb4)2
_chemical_formula_sum   'Cs1 K6 Rb11 Al2 Sb8'
_cell_volume   1179.57542914
_cell_formula_units_Z   1
loop_
 _symmetry_equiv_pos_site_id
 _symmetry_equiv_pos_as_xyz
  1  'x, y, z'
loop_
 _atom_site_type_symbol
 _atom_site_label
 _atom_site_symmetry_multiplicity
 _atom_site_fract_x
 _atom_site_fract_y
 _atom_site_fract_z
 _atom_site_occupancy
  Cs  Cs0  1  0.209388  0.418735  0.954639  1
  K  K1  1  0.118769  0.237605  0.250867  1
  K  K2  1  0.880844  0.761610  0.749907  1
  K  K3  1  0.761852  0.880910  0.250069  1
  K  K4  1  0.118975  0.880873  0.250063  1
  K  K5  1  0.880280  0.118539  0.749669  1
  K  K6  1  0.238271  0.118495  0.749672  1
  Rb  Rb7  1  0.208229  0.416397  0.544001  1
  Rb  Rb8  1  0.791838  0.583730  0.044632  1
  Rb  Rb9  1  0.583693  0.791660  0.544502  1
  Rb  Rb10  1  0.208021  0.791673  0.544454  1
  Rb  Rb11  1  0.791135  0.207970  0.044597  1
  Rb  Rb12  1  0.416795  0.207976  0.044646  1
  Rb  Rb13  1  0.791811  0.583674  0.455706  1
  Rb  Rb14  1  0.791870  0.208406  0.455591  1
  Rb  Rb15  1  0.416498  0.208417  0.455547  1
  Rb  Rb16  1  0.584150  0.792271  0.955471  1
  Rb  Rb17  1  0.208168  0.792278  0.955520  1
  Al  Al18  1  0.333312  0.666598  0.251003  1
  Al  Al19  1  0.666893  0.333794  0.748909  1
  Sb  Sb20  1  0.998984  0.997973  0.000250  1
  Sb  Sb21  1  0.000148  0.000296  0.500101  1
  Sb  Sb22  1  0.476253  0.524468  0.251245  1
  Sb  Sb23  1  0.524955  0.475511  0.748914  1
  Sb  Sb24  1  0.476154  0.952311  0.249826  1
  Sb  Sb25  1  0.048233  0.524469  0.251241  1
  Sb  Sb26  1  0.950550  0.475510  0.748911  1
  Sb  Sb27  1  0.523928  0.047853  0.750055  1
