# generated using pymatgen
data_TaBe8Ni4W11C2
_symmetry_space_group_name_H-M   'P 1'
_cell_length_a   7.57217337
_cell_length_b   7.57217299
_cell_length_c   7.56404200
_cell_angle_alpha   60.03551462
_cell_angle_beta   60.03551628
_cell_angle_gamma   60.00403874
_symmetry_Int_Tables_number   1
_chemical_formula_structural   TaBe8Ni4W11C2
_chemical_formula_sum   'Ta1 Be8 Ni4 W11 C2'
_cell_volume   306.85005513
_cell_formula_units_Z   1
loop_
 _symmetry_equiv_pos_site_id
 _symmetry_equiv_pos_as_xyz
  1  'x, y, z'
loop_
 _atom_site_type_symbol
 _atom_site_label
 _atom_site_symmetry_multiplicity
 _atom_site_fract_x
 _atom_site_fract_y
 _atom_site_fract_z
 _atom_site_occupancy
  Ta  Ta0  1  0.049500  0.049500  0.450500  1
  Be  Be1  1  0.421772  0.421772  0.734291  1
  Be  Be2  1  0.423630  0.732656  0.421856  1
  Be  Be3  1  0.732656  0.423630  0.421856  1
  Be  Be4  1  0.421772  0.421772  0.422164  1
  Be  Be5  1  0.827101  0.827101  0.515602  1
  Be  Be6  1  0.828627  0.516582  0.827396  1
  Be  Be7  1  0.516582  0.828627  0.827396  1
  Be  Be8  1  0.827101  0.827101  0.830196  1
  Ni  Ni9  1  0.625507  0.625507  0.124358  1
  Ni  Ni10  1  0.623178  0.125439  0.625692  1
  Ni  Ni11  1  0.125439  0.623178  0.625692  1
  Ni  Ni12  1  0.625507  0.625507  0.624628  1
  W  W13  1  0.450088  0.050268  0.449778  1
  W  W14  1  0.050268  0.450088  0.449778  1
  W  W15  1  0.450593  0.450593  0.049407  1
  W  W16  1  0.050268  0.450088  0.049867  1
  W  W17  1  0.450088  0.050268  0.049867  1
  W  W18  1  0.199051  0.199051  0.800949  1
  W  W19  1  0.799075  0.200680  0.801673  1
  W  W20  1  0.200680  0.799075  0.801673  1
  W  W21  1  0.799925  0.799925  0.200075  1
  W  W22  1  0.200680  0.799075  0.198572  1
  W  W23  1  0.799075  0.200680  0.198572  1
  C  C24  1  0.252444  0.252444  0.247556  1
  C  C25  1  0.999396  0.999396  0.000604  1
