# generated using pymatgen
data_La2C2F
_symmetry_space_group_name_H-M   'P 1'
_cell_length_a   7.28915767
_cell_length_b   7.28915741
_cell_length_c   6.70526759
_cell_angle_alpha   106.51097078
_cell_angle_beta   106.51097048
_cell_angle_gamma   34.57450861
_symmetry_Int_Tables_number   1
_chemical_formula_structural   La2C2F
_chemical_formula_sum   'La4 C4 F2'
_cell_volume   193.00820736
_cell_formula_units_Z   2
loop_
 _symmetry_equiv_pos_site_id
 _symmetry_equiv_pos_as_xyz
  1  'x, y, z'
loop_
 _atom_site_type_symbol
 _atom_site_label
 _atom_site_symmetry_multiplicity
 _atom_site_fract_x
 _atom_site_fract_y
 _atom_site_fract_z
 _atom_site_occupancy
  La  La0  1  0.462267  0.820192  0.116851  1
  La  La1  1  0.179809  0.537733  0.383149  1
  La  La2  1  0.820192  0.462267  0.616852  1
  La  La3  1  0.537733  0.179809  0.883148  1
  C  C4  1  0.094471  0.349169  0.015662  1
  C  C5  1  0.650831  0.905530  0.484339  1
  C  C6  1  0.349170  0.094471  0.515662  1
  C  C7  1  0.905530  0.650831  0.984338  1
  F  F8  1  0.600032  0.399968  0.250000  1
  F  F9  1  0.399968  0.600032  0.750000  1
