# generated using pymatgen
data_Zr10Be2AlBi5
_symmetry_space_group_name_H-M   'P 1'
_cell_length_a   8.68899900
_cell_length_b   8.73046142
_cell_length_c   5.86943800
_cell_angle_alpha   90.00000000
_cell_angle_beta   90.00000000
_cell_angle_gamma   119.84301898
_symmetry_Int_Tables_number   1
_chemical_formula_structural   Zr10Be2AlBi5
_chemical_formula_sum   'Zr10 Be2 Al1 Bi5'
_cell_volume   386.20590645
_cell_formula_units_Z   1
loop_
 _symmetry_equiv_pos_site_id
 _symmetry_equiv_pos_as_xyz
  1  'x, y, z'
loop_
 _atom_site_type_symbol
 _atom_site_label
 _atom_site_symmetry_multiplicity
 _atom_site_fract_x
 _atom_site_fract_y
 _atom_site_fract_z
 _atom_site_occupancy
  Zr  Zr0  1  0.738759  0.000000  0.250000  1
  Zr  Zr1  1  0.014527  0.754235  0.250000  1
  Zr  Zr2  1  0.260293  0.245765  0.250000  1
  Zr  Zr3  1  0.243823  0.000000  0.750000  1
  Zr  Zr4  1  0.997442  0.242412  0.750000  1
  Zr  Zr5  1  0.755030  0.757588  0.750000  1
  Zr  Zr6  1  0.334150  0.672529  0.495050  1
  Zr  Zr7  1  0.661622  0.327471  0.495050  1
  Zr  Zr8  1  0.661622  0.327471  0.004950  1
  Zr  Zr9  1  0.334150  0.672529  0.004950  1
  Be  Be10  1  0.999355  0.000000  0.480469  1
  Be  Be11  1  0.999355  0.000000  0.019531  1
  Al  Al12  1  0.391424  0.000000  0.250000  1
  Bi  Bi13  1  0.002260  0.384858  0.250000  1
  Bi  Bi14  1  0.617402  0.615142  0.250000  1
  Bi  Bi15  1  0.600046  0.000000  0.750000  1
  Bi  Bi16  1  0.997583  0.606427  0.750000  1
  Bi  Bi17  1  0.391156  0.393573  0.750000  1
