# generated using pymatgen
data_NaTl(PO3)2
_symmetry_space_group_name_H-M   'P 1'
_cell_length_a   6.28180300
_cell_length_b   7.62185144
_cell_length_c   13.54398400
_cell_angle_alpha   90.00000000
_cell_angle_beta   90.00000000
_cell_angle_gamma   95.21159394
_symmetry_Int_Tables_number   1
_chemical_formula_structural   NaTl(PO3)2
_chemical_formula_sum   'Na4 Tl4 P8 O24'
_cell_volume   645.79123512
_cell_formula_units_Z   4
loop_
 _symmetry_equiv_pos_site_id
 _symmetry_equiv_pos_as_xyz
  1  'x, y, z'
loop_
 _atom_site_type_symbol
 _atom_site_label
 _atom_site_symmetry_multiplicity
 _atom_site_fract_x
 _atom_site_fract_y
 _atom_site_fract_z
 _atom_site_occupancy
  Na  Na0  1  0.825386  0.694521  0.468526  1
  Na  Na1  1  0.174614  0.305479  0.531474  1
  Na  Na2  1  0.174614  0.805479  0.968526  1
  Na  Na3  1  0.825386  0.194521  0.031474  1
  Tl  Tl4  1  0.309496  0.735857  0.667616  1
  Tl  Tl5  1  0.690504  0.264143  0.332384  1
  Tl  Tl6  1  0.690504  0.764143  0.167616  1
  Tl  Tl7  1  0.309496  0.235857  0.832384  1
  P  P8  1  0.691056  0.850843  0.866560  1
  P  P9  1  0.308944  0.149157  0.133440  1
  P  P10  1  0.308944  0.649157  0.366560  1
  P  P11  1  0.691056  0.350843  0.633440  1
  P  P12  1  0.842044  0.995452  0.668546  1
  P  P13  1  0.157956  0.004548  0.331454  1
  P  P14  1  0.157956  0.504548  0.168546  1
  P  P15  1  0.842044  0.495452  0.831454  1
  O  O16  1  0.938505  0.926139  0.358893  1
  O  O17  1  0.061495  0.073861  0.641107  1
  O  O18  1  0.061495  0.573861  0.858893  1
  O  O19  1  0.938505  0.426139  0.141107  1
  O  O20  1  0.466679  0.903553  0.856247  1
  O  O21  1  0.533321  0.096447  0.143753  1
  O  O22  1  0.533321  0.596447  0.356247  1
  O  O23  1  0.466679  0.403553  0.643753  1
  O  O24  1  0.737398  0.838128  0.614474  1
  O  O25  1  0.262602  0.161872  0.385526  1
  O  O26  1  0.262602  0.661872  0.114474  1
  O  O27  1  0.737398  0.338128  0.885526  1
  O  O28  1  0.852258  0.950914  0.786414  1
  O  O29  1  0.147742  0.049086  0.213586  1
  O  O30  1  0.147742  0.549086  0.286414  1
  O  O31  1  0.852258  0.450914  0.713586  1
  O  O32  1  0.805628  0.874828  0.963689  1
  O  O33  1  0.194372  0.125172  0.036311  1
  O  O34  1  0.194372  0.625172  0.463689  1
  O  O35  1  0.805628  0.374828  0.536311  1
  O  O36  1  0.673402  0.646283  0.831173  1
  O  O37  1  0.326598  0.353717  0.168827  1
  O  O38  1  0.326598  0.853717  0.331173  1
  O  O39  1  0.673402  0.146283  0.668827  1
