# generated using pymatgen
data_Zr10AlBi5B2
_symmetry_space_group_name_H-M   'P 1'
_cell_length_a   8.67937463
_cell_length_b   8.67937453
_cell_length_c   5.85489900
_cell_angle_alpha   90.00000000
_cell_angle_beta   90.00000000
_cell_angle_gamma   120.57583897
_symmetry_Int_Tables_number   1
_chemical_formula_structural   Zr10AlBi5B2
_chemical_formula_sum   'Zr10 Al1 Bi5 B2'
_cell_volume   379.73229580
_cell_formula_units_Z   1
loop_
 _symmetry_equiv_pos_site_id
 _symmetry_equiv_pos_as_xyz
  1  'x, y, z'
loop_
 _atom_site_type_symbol
 _atom_site_label
 _atom_site_symmetry_multiplicity
 _atom_site_fract_x
 _atom_site_fract_y
 _atom_site_fract_z
 _atom_site_occupancy
  Zr  Zr0  1  0.661791  0.334635  0.495874  1
  Zr  Zr1  1  0.334635  0.661791  0.495874  1
  Zr  Zr2  1  0.334635  0.661791  0.004126  1
  Zr  Zr3  1  0.661791  0.334635  0.004126  1
  Zr  Zr4  1  0.765346  0.765346  0.250000  1
  Zr  Zr5  1  0.233475  0.012588  0.250000  1
  Zr  Zr6  1  0.012588  0.233475  0.250000  1
  Zr  Zr7  1  0.228905  0.228905  0.750000  1
  Zr  Zr8  1  0.771811  0.997210  0.750000  1
  Zr  Zr9  1  0.997210  0.771811  0.750000  1
  Al  Al10  1  0.402844  0.402844  0.250000  1
  Bi  Bi11  1  0.605996  0.002096  0.250000  1
  Bi  Bi12  1  0.002096  0.605996  0.250000  1
  Bi  Bi13  1  0.592782  0.592782  0.750000  1
  Bi  Bi14  1  0.397190  0.998210  0.750000  1
  Bi  Bi15  1  0.998210  0.397190  0.750000  1
  B  B16  1  0.999347  0.999347  0.498929  1
  B  B17  1  0.999347  0.999347  0.001071  1
