# generated using pymatgen
data_Cs3Na2SnAs3
_symmetry_space_group_name_H-M   'P 1'
_cell_length_a   11.18137516
_cell_length_b   11.18137533
_cell_length_c   16.96606700
_cell_angle_alpha   90.00000000
_cell_angle_beta   90.00000000
_cell_angle_gamma   143.07982243
_symmetry_Int_Tables_number   1
_chemical_formula_structural   Cs3Na2SnAs3
_chemical_formula_sum   'Cs12 Na8 Sn4 As12'
_cell_volume   1274.17935013
_cell_formula_units_Z   4
loop_
 _symmetry_equiv_pos_site_id
 _symmetry_equiv_pos_as_xyz
  1  'x, y, z'
loop_
 _atom_site_type_symbol
 _atom_site_label
 _atom_site_symmetry_multiplicity
 _atom_site_fract_x
 _atom_site_fract_y
 _atom_site_fract_z
 _atom_site_occupancy
  Cs  Cs0  1  0.940936  0.606906  0.827640  1
  Cs  Cs1  1  0.559064  0.893094  0.327640  1
  Cs  Cs2  1  0.393094  0.059064  0.172360  1
  Cs  Cs3  1  0.059064  0.393094  0.172360  1
  Cs  Cs4  1  0.893094  0.559064  0.327640  1
  Cs  Cs5  1  0.440936  0.106906  0.672360  1
  Cs  Cs6  1  0.606906  0.940936  0.827640  1
  Cs  Cs7  1  0.267535  0.267535  0.321686  1
  Cs  Cs8  1  0.767535  0.767535  0.178314  1
  Cs  Cs9  1  0.232465  0.232465  0.821686  1
  Cs  Cs10  1  0.732465  0.732465  0.678314  1
  Cs  Cs11  1  0.106906  0.440936  0.672360  1
  Na  Na12  1  0.919306  0.080694  0.000000  1
  Na  Na13  1  0.580694  0.419306  0.500000  1
  Na  Na14  1  0.080694  0.919306  0.000000  1
  Na  Na15  1  0.419306  0.580694  0.500000  1
  Na  Na16  1  0.754103  0.245897  0.000000  1
  Na  Na17  1  0.745897  0.254103  0.500000  1
  Na  Na18  1  0.245897  0.754103  0.000000  1
  Na  Na19  1  0.254103  0.745897  0.500000  1
  Sn  Sn20  1  0.587829  0.412171  0.000000  1
  Sn  Sn21  1  0.912171  0.087829  0.500000  1
  Sn  Sn22  1  0.412171  0.587829  0.000000  1
  Sn  Sn23  1  0.087829  0.912171  0.500000  1
  As  As24  1  0.879031  0.562750  0.094061  1
  As  As25  1  0.437250  0.120969  0.905939  1
  As  As26  1  0.620969  0.937250  0.594061  1
  As  As27  1  0.937250  0.620969  0.594061  1
  As  As28  1  0.120969  0.437250  0.905939  1
  As  As29  1  0.562750  0.879031  0.094061  1
  As  As30  1  0.379031  0.062750  0.405939  1
  As  As31  1  0.203956  0.203956  0.585224  1
  As  As32  1  0.703956  0.703956  0.914776  1
  As  As33  1  0.296044  0.296044  0.085224  1
  As  As34  1  0.062750  0.379031  0.405939  1
  As  As35  1  0.796044  0.796044  0.414776  1
