# generated using pymatgen
data_NdEr5Tm10(In3Co)2
_symmetry_space_group_name_H-M   'P 1'
_cell_length_a   10.25074900
_cell_length_b   10.26824491
_cell_length_c   6.98883586
_cell_angle_alpha   89.85062864
_cell_angle_beta   90.00000000
_cell_angle_gamma   119.94364871
_symmetry_Int_Tables_number   1
_chemical_formula_structural   NdEr5Tm10(In3Co)2
_chemical_formula_sum   'Nd1 Er5 Tm10 In6 Co2'
_cell_volume   637.42875577
_cell_formula_units_Z   1
loop_
 _symmetry_equiv_pos_site_id
 _symmetry_equiv_pos_as_xyz
  1  'x, y, z'
loop_
 _atom_site_type_symbol
 _atom_site_label
 _atom_site_symmetry_multiplicity
 _atom_site_fract_x
 _atom_site_fract_y
 _atom_site_fract_z
 _atom_site_occupancy
  Nd  Nd0  1  0.533938  0.067876  0.510974  1
  Er  Er1  1  0.931554  0.466068  0.512945  1
  Er  Er2  1  0.534514  0.466068  0.512945  1
  Er  Er3  1  0.463640  0.927280  0.011922  1
  Er  Er4  1  0.070076  0.534882  0.013730  1
  Er  Er5  1  0.464805  0.534882  0.013730  1
  Tm  Tm6  1  0.178901  0.357802  0.720235  1
  Tm  Tm7  1  0.643603  0.820086  0.720788  1
  Tm  Tm8  1  0.176483  0.820086  0.720788  1
  Tm  Tm9  1  0.821557  0.643113  0.218816  1
  Tm  Tm10  1  0.356511  0.179376  0.217936  1
  Tm  Tm11  1  0.822864  0.179376  0.217936  1
  Tm  Tm12  1  0.667686  0.335371  0.905546  1
  Tm  Tm13  1  0.332428  0.664856  0.405138  1
  Tm  Tm14  1  0.999898  0.999797  0.501091  1
  Tm  Tm15  1  0.000014  0.000028  0.001679  1
  In  In16  1  0.836764  0.673527  0.761649  1
  In  In17  1  0.323619  0.162817  0.764512  1
  In  In18  1  0.839200  0.162817  0.764512  1
  In  In19  1  0.162781  0.325563  0.264186  1
  In  In20  1  0.674114  0.836905  0.261463  1
  In  In21  1  0.162790  0.836905  0.261463  1
  Co  Co22  1  0.669215  0.338430  0.286011  1
  Co  Co23  1  0.333044  0.666089  0.788008  1
