# generated using pymatgen
data_Nd2Fe7Ni5P7
_symmetry_space_group_name_H-M   'P 1'
_cell_length_a   9.10196502
_cell_length_b   9.12814138
_cell_length_c   3.68948400
_cell_angle_alpha   90.00000000
_cell_angle_beta   90.00000000
_cell_angle_gamma   119.91258473
_symmetry_Int_Tables_number   1
_chemical_formula_structural   Nd2Fe7Ni5P7
_chemical_formula_sum   'Nd2 Fe7 Ni5 P7'
_cell_volume   265.70251152
_cell_formula_units_Z   1
loop_
 _symmetry_equiv_pos_site_id
 _symmetry_equiv_pos_as_xyz
  1  'x, y, z'
loop_
 _atom_site_type_symbol
 _atom_site_label
 _atom_site_symmetry_multiplicity
 _atom_site_fract_x
 _atom_site_fract_y
 _atom_site_fract_z
 _atom_site_occupancy
  Nd  Nd0  1  0.668468  0.334107  0.000000  1
  Nd  Nd1  1  0.331441  0.665436  0.500000  1
  Fe  Fe2  1  0.272168  0.119570  0.000000  1
  Fe  Fe3  1  0.845731  0.727773  0.000000  1
  Fe  Fe4  1  0.881397  0.150418  0.000000  1
  Fe  Fe5  1  0.952919  0.384055  0.500000  1
  Fe  Fe6  1  0.095570  0.879018  0.500000  1
  Fe  Fe7  1  0.786078  0.903811  0.500000  1
  Fe  Fe8  1  0.116014  0.210676  0.500000  1
  Ni  Ni9  1  0.059852  0.630435  0.000000  1
  Ni  Ni10  1  0.568207  0.941932  0.000000  1
  Ni  Ni11  1  0.370971  0.432823  0.000000  1
  Ni  Ni12  1  0.433524  0.048981  0.500000  1
  Ni  Ni13  1  0.614629  0.567215  0.500000  1
  P  P14  1  0.293983  0.893150  0.000000  1
  P  P15  1  0.598161  0.707304  0.000000  1
  P  P16  1  0.101410  0.402672  0.000000  1
  P  P17  1  0.392492  0.284181  0.500000  1
  P  P18  1  0.892545  0.602176  0.500000  1
  P  P19  1  0.723782  0.116025  0.500000  1
  P  P20  1  0.000659  0.998242  0.000000  1
