# generated using pymatgen
data_CeZnSiNiIr
_symmetry_space_group_name_H-M   'P 1'
_cell_length_a   4.06298100
_cell_length_b   4.06298100
_cell_length_c   10.22030900
_cell_angle_alpha   90.00000000
_cell_angle_beta   90.00000000
_cell_angle_gamma   90.00000000
_symmetry_Int_Tables_number   1
_chemical_formula_structural   CeZnSiNiIr
_chemical_formula_sum   'Ce2 Zn2 Si2 Ni2 Ir2'
_cell_volume   168.71496619
_cell_formula_units_Z   2
loop_
 _symmetry_equiv_pos_site_id
 _symmetry_equiv_pos_as_xyz
  1  'x, y, z'
loop_
 _atom_site_type_symbol
 _atom_site_label
 _atom_site_symmetry_multiplicity
 _atom_site_fract_x
 _atom_site_fract_y
 _atom_site_fract_z
 _atom_site_occupancy
  Ce  Ce0  1  0.000000  0.500000  0.752160  1
  Ce  Ce1  1  0.500000  0.000000  0.247840  1
  Zn  Zn2  1  0.000000  0.000000  0.000000  1
  Zn  Zn3  1  0.500000  0.500000  0.000000  1
  Si  Si4  1  0.000000  0.500000  0.370467  1
  Si  Si5  1  0.500000  0.000000  0.629533  1
  Ni  Ni6  1  0.500000  0.000000  0.853750  1
  Ni  Ni7  1  0.000000  0.500000  0.146250  1
  Ir  Ir8  1  0.000000  0.000000  0.500000  1
  Ir  Ir9  1  0.500000  0.500000  0.500000  1
