# generated using pymatgen
data_Y6Zr4Sn6O
_symmetry_space_group_name_H-M   'P 1'
_cell_length_a   8.80840600
_cell_length_b   8.80840842
_cell_length_c   6.08589300
_cell_angle_alpha   90.00000000
_cell_angle_beta   90.00000000
_cell_angle_gamma   120.00000594
_symmetry_Int_Tables_number   1
_chemical_formula_structural   Y6Zr4Sn6O
_chemical_formula_sum   'Y6 Zr4 Sn6 O1'
_cell_volume   408.93067137
_cell_formula_units_Z   1
loop_
 _symmetry_equiv_pos_site_id
 _symmetry_equiv_pos_as_xyz
  1  'x, y, z'
loop_
 _atom_site_type_symbol
 _atom_site_label
 _atom_site_symmetry_multiplicity
 _atom_site_fract_x
 _atom_site_fract_y
 _atom_site_fract_z
 _atom_site_occupancy
  Y  Y0  1  0.000000  0.766878  0.258901  1
  Y  Y1  1  0.233122  0.233122  0.258901  1
  Y  Y2  1  0.766878  0.000000  0.258901  1
  Y  Y3  1  0.000000  0.233122  0.741099  1
  Y  Y4  1  0.766878  0.766878  0.741099  1
  Y  Y5  1  0.233122  0.000000  0.741099  1
  Zr  Zr6  1  0.333333  0.666667  0.500000  1
  Zr  Zr7  1  0.666667  0.333333  0.500000  1
  Zr  Zr8  1  0.666667  0.333333  0.000000  1
  Zr  Zr9  1  0.333333  0.666667  0.000000  1
  Sn  Sn10  1  0.000000  0.403858  0.247020  1
  Sn  Sn11  1  0.596142  0.596142  0.247020  1
  Sn  Sn12  1  0.403858  0.000000  0.247020  1
  Sn  Sn13  1  0.000000  0.596142  0.752980  1
  Sn  Sn14  1  0.403858  0.403858  0.752980  1
  Sn  Sn15  1  0.596142  0.000000  0.752980  1
  O  O16  1  0.000000  0.000000  0.500000  1
