# generated using pymatgen
data_Ac8InAu6
_symmetry_space_group_name_H-M   'P 1'
_cell_length_a   8.37395498
_cell_length_b   8.37395637
_cell_length_c   8.37395651
_cell_angle_alpha   70.47063957
_cell_angle_beta   70.47065431
_cell_angle_gamma   70.47063596
_symmetry_Int_Tables_number   1
_chemical_formula_structural   Ac8InAu6
_chemical_formula_sum   'Ac8 In1 Au6'
_cell_volume   504.95269405
_cell_formula_units_Z   1
loop_
 _symmetry_equiv_pos_site_id
 _symmetry_equiv_pos_as_xyz
  1  'x, y, z'
loop_
 _atom_site_type_symbol
 _atom_site_label
 _atom_site_symmetry_multiplicity
 _atom_site_fract_x
 _atom_site_fract_y
 _atom_site_fract_z
 _atom_site_occupancy
  Ac  Ac0  1  0.185074  0.185074  0.185074  1
  Ac  Ac1  1  0.814926  0.814926  0.814926  1
  Ac  Ac2  1  0.379922  0.682280  0.149591  1
  Ac  Ac3  1  0.682280  0.149591  0.379922  1
  Ac  Ac4  1  0.149591  0.379922  0.682280  1
  Ac  Ac5  1  0.620078  0.317720  0.850409  1
  Ac  Ac6  1  0.317720  0.850409  0.620078  1
  Ac  Ac7  1  0.850409  0.620078  0.317720  1
  In  In8  1  0.000000  0.000000  0.000000  1
  Au  Au9  1  0.042671  0.826117  0.423651  1
  Au  Au10  1  0.826117  0.423651  0.042671  1
  Au  Au11  1  0.423651  0.042671  0.826117  1
  Au  Au12  1  0.957329  0.173883  0.576349  1
  Au  Au13  1  0.173883  0.576349  0.957329  1
  Au  Au14  1  0.576349  0.957329  0.173883  1
