# generated using pymatgen
data_K5AgSn2Se7
_symmetry_space_group_name_H-M   'P 1'
_cell_length_a   7.88277011
_cell_length_b   7.88276971
_cell_length_c   16.87651618
_cell_angle_alpha   82.15370387
_cell_angle_beta   82.15370558
_cell_angle_gamma   93.98583397
_symmetry_Int_Tables_number   1
_chemical_formula_structural   K5AgSn2Se7
_chemical_formula_sum   'K10 Ag2 Sn4 Se14'
_cell_volume   1024.97047900
_cell_formula_units_Z   2
loop_
 _symmetry_equiv_pos_site_id
 _symmetry_equiv_pos_as_xyz
  1  'x, y, z'
loop_
 _atom_site_type_symbol
 _atom_site_label
 _atom_site_symmetry_multiplicity
 _atom_site_fract_x
 _atom_site_fract_y
 _atom_site_fract_z
 _atom_site_occupancy
  K  K0  1  0.000000  0.000000  0.500000  1
  K  K1  1  0.000000  0.000000  0.000000  1
  K  K2  1  0.465750  0.761944  0.915197  1
  K  K3  1  0.534250  0.238056  0.084803  1
  K  K4  1  0.238056  0.534250  0.584803  1
  K  K5  1  0.761944  0.465750  0.415197  1
  K  K6  1  0.496250  0.038706  0.646149  1
  K  K7  1  0.503750  0.961295  0.353851  1
  K  K8  1  0.961294  0.503750  0.853851  1
  K  K9  1  0.038706  0.496250  0.146149  1
  Ag  Ag10  1  0.907421  0.092579  0.750000  1
  Ag  Ag11  1  0.092579  0.907421  0.250000  1
  Sn  Sn12  1  0.408490  0.263092  0.855767  1
  Sn  Sn13  1  0.591510  0.736908  0.144233  1
  Sn  Sn14  1  0.736908  0.591510  0.644233  1
  Sn  Sn15  1  0.263092  0.408490  0.355767  1
  Se  Se16  1  0.215772  0.033104  0.809069  1
  Se  Se17  1  0.784228  0.966896  0.190931  1
  Se  Se18  1  0.966896  0.784228  0.690931  1
  Se  Se19  1  0.033104  0.215772  0.309069  1
  Se  Se20  1  0.452302  0.547698  0.750000  1
  Se  Se21  1  0.547698  0.452302  0.250000  1
  Se  Se22  1  0.692835  0.147582  0.884052  1
  Se  Se23  1  0.307165  0.852418  0.115948  1
  Se  Se24  1  0.852418  0.307165  0.615948  1
  Se  Se25  1  0.147582  0.692835  0.384052  1
  Se  Se26  1  0.622034  0.759851  0.526317  1
  Se  Se27  1  0.377966  0.240149  0.473683  1
  Se  Se28  1  0.240149  0.377966  0.973683  1
  Se  Se29  1  0.759851  0.622034  0.026317  1
