# generated using pymatgen
data_Hf3Zr(AlRu3)2
_symmetry_space_group_name_H-M   'P 1'
_cell_length_a   4.50579200
_cell_length_b   6.37081600
_cell_length_c   13.47006600
_cell_angle_alpha   89.99972898
_cell_angle_beta   90.00000846
_cell_angle_gamma   89.99997829
_symmetry_Int_Tables_number   1
_chemical_formula_structural   Hf3Zr(AlRu3)2
_chemical_formula_sum   'Hf6 Zr2 Al4 Ru12'
_cell_volume   386.66594626
_cell_formula_units_Z   2
loop_
 _symmetry_equiv_pos_site_id
 _symmetry_equiv_pos_as_xyz
  1  'x, y, z'
loop_
 _atom_site_type_symbol
 _atom_site_label
 _atom_site_symmetry_multiplicity
 _atom_site_fract_x
 _atom_site_fract_y
 _atom_site_fract_z
 _atom_site_occupancy
  Hf  Hf0  1  0.999995  0.999999  0.990749  1
  Hf  Hf1  1  0.499950  0.500001  0.175905  1
  Hf  Hf2  1  0.999930  0.000000  0.343839  1
  Hf  Hf3  1  0.500001  0.500001  0.502206  1
  Hf  Hf4  1  0.000060  0.999999  0.664505  1
  Hf  Hf5  1  0.500060  0.500000  0.822820  1
  Zr  Zr6  1  0.000001  0.500001  0.997893  1
  Zr  Zr7  1  0.499939  0.999999  0.168760  1
  Al  Al8  1  0.999939  0.500000  0.337829  1
  Al  Al9  1  0.499986  0.000000  0.502930  1
  Al  Al10  1  0.000063  0.500000  0.663712  1
  Al  Al11  1  0.500082  0.000000  0.828855  1
  Ru  Ru12  1  0.500003  0.248385  0.997055  1
  Ru  Ru13  1  0.500002  0.751616  0.997056  1
  Ru  Ru14  1  0.999951  0.251547  0.169586  1
  Ru  Ru15  1  0.999950  0.748453  0.169586  1
  Ru  Ru16  1  0.499939  0.250346  0.337144  1
  Ru  Ru17  1  0.499940  0.749655  0.337144  1
  Ru  Ru18  1  0.999999  0.252778  0.501553  1
  Ru  Ru19  1  0.999997  0.747223  0.501554  1
  Ru  Ru20  1  0.500051  0.247133  0.665120  1
  Ru  Ru21  1  0.500051  0.752868  0.665119  1
  Ru  Ru22  1  0.000054  0.249637  0.829542  1
  Ru  Ru23  1  0.000054  0.750364  0.829541  1
