# generated using pymatgen
data_Ta3Ge2OsC
_symmetry_space_group_name_H-M   'P 1'
_cell_length_a   8.32611293
_cell_length_b   8.32611266
_cell_length_c   8.32611100
_cell_angle_alpha   59.99999467
_cell_angle_beta   59.99999574
_cell_angle_gamma   59.99999380
_symmetry_Int_Tables_number   1
_chemical_formula_structural   Ta3Ge2OsC
_chemical_formula_sum   'Ta12 Ge8 Os4 C4'
_cell_volume   408.14241198
_cell_formula_units_Z   4
loop_
 _symmetry_equiv_pos_site_id
 _symmetry_equiv_pos_as_xyz
  1  'x, y, z'
loop_
 _atom_site_type_symbol
 _atom_site_label
 _atom_site_symmetry_multiplicity
 _atom_site_fract_x
 _atom_site_fract_y
 _atom_site_fract_z
 _atom_site_occupancy
  Ta  Ta0  1  0.565247  0.934753  0.565247  1
  Ta  Ta1  1  0.315247  0.684753  0.684753  1
  Ta  Ta2  1  0.684753  0.315247  0.315247  1
  Ta  Ta3  1  0.315247  0.684753  0.315247  1
  Ta  Ta4  1  0.684753  0.684753  0.315247  1
  Ta  Ta5  1  0.315247  0.315247  0.684753  1
  Ta  Ta6  1  0.565247  0.565247  0.934753  1
  Ta  Ta7  1  0.934753  0.565247  0.565247  1
  Ta  Ta8  1  0.565247  0.934753  0.934753  1
  Ta  Ta9  1  0.934753  0.934753  0.565247  1
  Ta  Ta10  1  0.684753  0.315247  0.684753  1
  Ta  Ta11  1  0.934753  0.565247  0.934753  1
  Ge  Ge12  1  0.911720  0.911720  0.911720  1
  Ge  Ge13  1  0.985157  0.338280  0.338280  1
  Ge  Ge14  1  0.338280  0.985157  0.338280  1
  Ge  Ge15  1  0.338280  0.338280  0.985157  1
  Ge  Ge16  1  0.911720  0.264843  0.911720  1
  Ge  Ge17  1  0.911720  0.911720  0.264843  1
  Ge  Ge18  1  0.264843  0.911720  0.911720  1
  Ge  Ge19  1  0.338280  0.338280  0.338280  1
  Os  Os20  1  0.125000  0.125000  0.125000  1
  Os  Os21  1  0.625000  0.125000  0.125000  1
  Os  Os22  1  0.125000  0.625000  0.125000  1
  Os  Os23  1  0.125000  0.125000  0.625000  1
  C  C24  1  0.625000  0.625000  0.625000  1
  C  C25  1  0.125000  0.625000  0.625000  1
  C  C26  1  0.625000  0.125000  0.625000  1
  C  C27  1  0.625000  0.625000  0.125000  1
