# generated using pymatgen
data_Yb7DyAs6
_symmetry_space_group_name_H-M   'P 1'
_cell_length_a   7.65340870
_cell_length_b   7.68531458
_cell_length_c   7.68531528
_cell_angle_alpha   109.55516757
_cell_angle_beta   109.38713870
_cell_angle_gamma   109.38714362
_symmetry_Int_Tables_number   1
_chemical_formula_structural   Yb7DyAs6
_chemical_formula_sum   'Yb7 Dy1 As6'
_cell_volume   348.34209205
_cell_formula_units_Z   1
loop_
 _symmetry_equiv_pos_site_id
 _symmetry_equiv_pos_as_xyz
  1  'x, y, z'
loop_
 _atom_site_type_symbol
 _atom_site_label
 _atom_site_symmetry_multiplicity
 _atom_site_fract_x
 _atom_site_fract_y
 _atom_site_fract_z
 _atom_site_occupancy
  Yb  Yb0  1  0.499671  0.000080  0.642729  1
  Yb  Yb1  1  0.363852  0.358342  0.365695  1
  Yb  Yb2  1  0.998157  0.134305  0.492647  1
  Yb  Yb3  1  0.856942  0.857271  0.857352  1
  Yb  Yb4  1  0.999590  0.642648  0.499920  1
  Yb  Yb5  1  0.640165  0.500000  0.000000  1
  Yb  Yb6  1  0.505510  0.007353  0.141658  1
  Dy  Dy7  1  0.137878  0.500000  0.000000  1
  As  As8  1  0.883055  0.256031  0.125875  1
  As  As9  1  0.127024  0.869845  0.243969  1
  As  As10  1  0.370855  0.624618  0.756971  1
  As  As11  1  0.246237  0.132353  0.875382  1
  As  As12  1  0.757180  0.374125  0.630155  1
  As  As13  1  0.613884  0.743029  0.367647  1
