# generated using pymatgen
data_CrP4Ru5W2
_symmetry_space_group_name_H-M   'P 1'
_cell_length_a   3.88574600
_cell_length_b   6.03311634
_cell_length_c   6.93036957
_cell_angle_alpha   90.35761466
_cell_angle_beta   90.00000000
_cell_angle_gamma   90.00000000
_symmetry_Int_Tables_number   1
_chemical_formula_structural   CrP4Ru5W2
_chemical_formula_sum   'Cr1 P4 Ru5 W2'
_cell_volume   162.46658203
_cell_formula_units_Z   1
loop_
 _symmetry_equiv_pos_site_id
 _symmetry_equiv_pos_as_xyz
  1  'x, y, z'
loop_
 _atom_site_type_symbol
 _atom_site_label
 _atom_site_symmetry_multiplicity
 _atom_site_fract_x
 _atom_site_fract_y
 _atom_site_fract_z
 _atom_site_occupancy
  Cr  Cr0  1  0.250000  0.975239  0.329221  1
  P  P1  1  0.250000  0.742972  0.613085  1
  P  P2  1  0.750000  0.255357  0.386824  1
  P  P3  1  0.250000  0.242194  0.886715  1
  P  P4  1  0.750000  0.757411  0.116867  1
  Ru  Ru5  1  0.250000  0.473416  0.156575  1
  Ru  Ru6  1  0.250000  0.358453  0.571655  1
  Ru  Ru7  1  0.750000  0.642839  0.430673  1
  Ru  Ru8  1  0.250000  0.859330  0.928574  1
  Ru  Ru9  1  0.750000  0.144145  0.073310  1
  W  W10  1  0.750000  0.022971  0.668520  1
  W  W11  1  0.750000  0.525674  0.837982  1
