# generated using pymatgen
data_KSr(U2Se5)2
_symmetry_space_group_name_H-M   'P 1'
_cell_length_a   7.80106200
_cell_length_b   8.74762710
_cell_length_c   12.23095607
_cell_angle_alpha   89.88575978
_cell_angle_beta   90.00000000
_cell_angle_gamma   90.00000000
_symmetry_Int_Tables_number   1
_chemical_formula_structural   KSr(U2Se5)2
_chemical_formula_sum   'K2 Sr2 U8 Se20'
_cell_volume   834.64834006
_cell_formula_units_Z   2
loop_
 _symmetry_equiv_pos_site_id
 _symmetry_equiv_pos_as_xyz
  1  'x, y, z'
loop_
 _atom_site_type_symbol
 _atom_site_label
 _atom_site_symmetry_multiplicity
 _atom_site_fract_x
 _atom_site_fract_y
 _atom_site_fract_z
 _atom_site_occupancy
  K  K0  1  0.945183  0.509327  0.671645  1
  K  K1  1  0.445183  0.490673  0.828355  1
  Sr  Sr2  1  0.054208  0.491158  0.334887  1
  Sr  Sr3  1  0.554208  0.508842  0.165113  1
  U  U4  1  0.019957  0.999412  0.318404  1
  U  U5  1  0.519957  0.000588  0.181596  1
  U  U6  1  0.974735  0.000318  0.680864  1
  U  U7  1  0.474735  0.999682  0.819136  1
  U  U8  1  0.072501  0.748909  0.008282  1
  U  U9  1  0.572501  0.251091  0.491718  1
  U  U10  1  0.930521  0.246886  0.990167  1
  U  U11  1  0.430521  0.753114  0.509833  1
  Se  Se12  1  0.662815  0.955731  0.403063  1
  Se  Se13  1  0.162815  0.044269  0.096937  1
  Se  Se14  1  0.335268  0.047088  0.594124  1
  Se  Se15  1  0.835268  0.952912  0.905876  1
  Se  Se16  1  0.453777  0.788121  0.003849  1
  Se  Se17  1  0.953777  0.211879  0.496151  1
  Se  Se18  1  0.548298  0.210920  0.000875  1
  Se  Se19  1  0.048298  0.789080  0.499125  1
  Se  Se20  1  0.836388  0.779031  0.188342  1
  Se  Se21  1  0.336388  0.220969  0.311658  1
  Se  Se22  1  0.164929  0.212165  0.813922  1
  Se  Se23  1  0.664929  0.787835  0.686078  1
  Se  Se24  1  0.310396  0.766789  0.283838  1
  Se  Se25  1  0.810396  0.233211  0.216162  1
  Se  Se26  1  0.691751  0.221740  0.715823  1
  Se  Se27  1  0.191751  0.778260  0.784177  1
  Se  Se28  1  0.177466  0.458932  0.082110  1
  Se  Se29  1  0.677466  0.541068  0.417890  1
  Se  Se30  1  0.821807  0.542041  0.934093  1
  Se  Se31  1  0.321807  0.457959  0.565907  1
