# generated using pymatgen
data_Np2U2MoW3C8
_symmetry_space_group_name_H-M   'P 1'
_cell_length_a   3.23595900
_cell_length_b   5.66288655
_cell_length_c   11.00552513
_cell_angle_alpha   89.92695582
_cell_angle_beta   90.00000000
_cell_angle_gamma   90.00000000
_symmetry_Int_Tables_number   1
_chemical_formula_structural   Np2U2MoW3C8
_chemical_formula_sum   'Np2 U2 Mo1 W3 C8'
_cell_volume   201.67463905
_cell_formula_units_Z   1
loop_
 _symmetry_equiv_pos_site_id
 _symmetry_equiv_pos_as_xyz
  1  'x, y, z'
loop_
 _atom_site_type_symbol
 _atom_site_label
 _atom_site_symmetry_multiplicity
 _atom_site_fract_x
 _atom_site_fract_y
 _atom_site_fract_z
 _atom_site_occupancy
  Np  Np0  1  0.250000  0.080580  0.859613  1
  Np  Np1  1  0.750000  0.920688  0.140282  1
  U  U2  1  0.250000  0.579377  0.641784  1
  U  U3  1  0.750000  0.420353  0.357507  1
  Mo  Mo4  1  0.250000  0.418748  0.102496  1
  W  W5  1  0.750000  0.079616  0.603376  1
  W  W6  1  0.750000  0.581095  0.897649  1
  W  W7  1  0.250000  0.920190  0.397084  1
  C  C8  1  0.250000  0.747346  0.992142  1
  C  C9  1  0.750000  0.253377  0.006698  1
  C  C10  1  0.250000  0.248855  0.508327  1
  C  C11  1  0.750000  0.750788  0.491738  1
  C  C12  1  0.250000  0.163430  0.246550  1
  C  C13  1  0.750000  0.337756  0.744272  1
  C  C14  1  0.250000  0.662754  0.256166  1
  C  C15  1  0.750000  0.835050  0.754316  1
