# generated using pymatgen
data_Tb4Ga18Co3PtRh2
_symmetry_space_group_name_H-M   'P 1'
_cell_length_a   7.48640128
_cell_length_b   7.48640087
_cell_length_c   9.46412912
_cell_angle_alpha   89.98233919
_cell_angle_beta   89.98234320
_cell_angle_gamma   119.35394138
_symmetry_Int_Tables_number   1
_chemical_formula_structural   Tb4Ga18Co3PtRh2
_chemical_formula_sum   'Tb4 Ga18 Co3 Pt1 Rh2'
_cell_volume   462.32570573
_cell_formula_units_Z   1
loop_
 _symmetry_equiv_pos_site_id
 _symmetry_equiv_pos_as_xyz
  1  'x, y, z'
loop_
 _atom_site_type_symbol
 _atom_site_label
 _atom_site_symmetry_multiplicity
 _atom_site_fract_x
 _atom_site_fract_y
 _atom_site_fract_z
 _atom_site_occupancy
  Tb  Tb0  1  0.320396  0.997529  0.250167  1
  Tb  Tb1  1  0.002471  0.679604  0.749833  1
  Tb  Tb2  1  0.671794  0.991702  0.748973  1
  Tb  Tb3  1  0.008298  0.328206  0.251027  1
  Ga  Ga4  1  0.344455  0.015553  0.921740  1
  Ga  Ga5  1  0.984447  0.655545  0.078260  1
  Ga  Ga6  1  0.342502  0.000039  0.574383  1
  Ga  Ga7  1  0.999961  0.657498  0.425617  1
  Ga  Ga8  1  0.667331  0.012979  0.078403  1
  Ga  Ga9  1  0.987021  0.332669  0.921597  1
  Ga  Ga10  1  0.659106  0.004223  0.425474  1
  Ga  Ga11  1  0.995777  0.340894  0.574526  1
  Ga  Ga12  1  0.667055  0.658271  0.934481  1
  Ga  Ga13  1  0.341729  0.332945  0.065519  1
  Ga  Ga14  1  0.663010  0.660882  0.559121  1
  Ga  Ga15  1  0.339118  0.336990  0.440879  1
  Ga  Ga16  1  0.135272  0.137839  0.749080  1
  Ga  Ga17  1  0.862161  0.864728  0.250920  1
  Ga  Ga18  1  0.453121  0.663558  0.259430  1
  Ga  Ga19  1  0.336442  0.546879  0.740570  1
  Ga  Ga20  1  0.562404  0.338080  0.747602  1
  Ga  Ga21  1  0.661920  0.437596  0.252398  1
  Co  Co22  1  0.328438  0.671562  0.500000  1
  Co  Co23  1  0.669213  0.330787  0.000000  1
  Co  Co24  1  0.670502  0.329498  0.500000  1
  Pt  Pt25  1  0.327316  0.672684  0.000000  1
  Rh  Rh26  1  0.999050  0.000950  0.000000  1
  Rh  Rh27  1  0.999690  0.000310  0.500000  1
