# generated using pymatgen
data_Y3In3HgIr
_symmetry_space_group_name_H-M   'P 1'
_cell_length_a   7.87394200
_cell_length_b   7.87394217
_cell_length_c   3.69417500
_cell_angle_alpha   90.00000000
_cell_angle_beta   90.00000000
_cell_angle_gamma   119.99999927
_symmetry_Int_Tables_number   1
_chemical_formula_structural   Y3In3HgIr
_chemical_formula_sum   'Y3 In3 Hg1 Ir1'
_cell_volume   198.35014953
_cell_formula_units_Z   1
loop_
 _symmetry_equiv_pos_site_id
 _symmetry_equiv_pos_as_xyz
  1  'x, y, z'
loop_
 _atom_site_type_symbol
 _atom_site_label
 _atom_site_symmetry_multiplicity
 _atom_site_fract_x
 _atom_site_fract_y
 _atom_site_fract_z
 _atom_site_occupancy
  Y  Y0  1  0.570627  0.973594  0.499999  1
  Y  Y1  1  0.402967  0.429373  0.499999  1
  Y  Y2  1  0.026406  0.597033  0.499999  1
  In  In3  1  0.231272  0.999486  0.000000  1
  In  In4  1  0.000514  0.231786  0.000000  1
  In  In5  1  0.768214  0.768727  0.000000  1
  Hg  Hg6  1  0.666667  0.333334  0.000000  1
  Ir  Ir7  1  0.333334  0.666667  0.000000  1
