# generated using pymatgen
data_Tb5Tm(AlAu5)2
_symmetry_space_group_name_H-M   'P 1'
_cell_length_a   8.49310308
_cell_length_b   8.49310337
_cell_length_c   13.53727025
_cell_angle_alpha   90.04447640
_cell_angle_beta   89.95552343
_cell_angle_gamma   128.46085119
_symmetry_Int_Tables_number   1
_chemical_formula_structural   Tb5Tm(AlAu5)2
_chemical_formula_sum   'Tb10 Tm2 Al4 Au20'
_cell_volume   764.61706636
_cell_formula_units_Z   2
loop_
 _symmetry_equiv_pos_site_id
 _symmetry_equiv_pos_as_xyz
  1  'x, y, z'
loop_
 _atom_site_type_symbol
 _atom_site_label
 _atom_site_symmetry_multiplicity
 _atom_site_fract_x
 _atom_site_fract_y
 _atom_site_fract_z
 _atom_site_occupancy
  Tb  Tb0  1  0.927645  0.072355  0.250444  1
  Tb  Tb1  1  0.072355  0.927645  0.749556  1
  Tb  Tb2  1  0.320687  0.679313  0.250537  1
  Tb  Tb3  1  0.679313  0.320687  0.749463  1
  Tb  Tb4  1  0.630952  0.369048  0.035238  1
  Tb  Tb5  1  0.369048  0.630952  0.964762  1
  Tb  Tb6  1  0.881568  0.118432  0.950943  1
  Tb  Tb7  1  0.118432  0.881568  0.049057  1
  Tb  Tb8  1  0.881284  0.118716  0.548878  1
  Tb  Tb9  1  0.118716  0.881284  0.451122  1
  Tm  Tm10  1  0.630559  0.369441  0.465475  1
  Tm  Tm11  1  0.369441  0.630559  0.534525  1
  Al  Al12  1  0.719956  0.280044  0.250975  1
  Al  Al13  1  0.280044  0.719956  0.749025  1
  Al  Al14  1  0.532803  0.467197  0.250509  1
  Al  Al15  1  0.467197  0.532803  0.749491  1
  Au  Au16  1  0.323130  0.069416  0.250066  1
  Au  Au17  1  0.069416  0.323130  0.749934  1
  Au  Au18  1  0.676870  0.930584  0.749934  1
  Au  Au19  1  0.930584  0.676870  0.250066  1
  Au  Au20  1  0.570472  0.005300  0.397631  1
  Au  Au21  1  0.005300  0.570472  0.602369  1
  Au  Au22  1  0.570863  0.004227  0.103544  1
  Au  Au23  1  0.004227  0.570863  0.896456  1
  Au  Au24  1  0.429528  0.994700  0.602369  1
  Au  Au25  1  0.994700  0.429528  0.397631  1
  Au  Au26  1  0.429137  0.995773  0.896456  1
  Au  Au27  1  0.995773  0.429137  0.103544  1
  Au  Au28  1  0.683435  0.738341  0.396009  1
  Au  Au29  1  0.738341  0.683435  0.603991  1
  Au  Au30  1  0.685919  0.741045  0.105338  1
  Au  Au31  1  0.741045  0.685919  0.894662  1
  Au  Au32  1  0.316565  0.261659  0.603991  1
  Au  Au33  1  0.261659  0.316565  0.396009  1
  Au  Au34  1  0.314081  0.258955  0.894662  1
  Au  Au35  1  0.258955  0.314081  0.105338  1
