# generated using pymatgen
data_Ca2Ac2YbSi4
_symmetry_space_group_name_H-M   'P 1'
_cell_length_a   7.74880100
_cell_length_b   8.13594800
_cell_length_c   15.69427500
_cell_angle_alpha   90.00000000
_cell_angle_beta   90.00000000
_cell_angle_gamma   90.00000000
_symmetry_Int_Tables_number   1
_chemical_formula_structural   Ca2Ac2YbSi4
_chemical_formula_sum   'Ca8 Ac8 Yb4 Si16'
_cell_volume   989.42739338
_cell_formula_units_Z   4
loop_
 _symmetry_equiv_pos_site_id
 _symmetry_equiv_pos_as_xyz
  1  'x, y, z'
loop_
 _atom_site_type_symbol
 _atom_site_label
 _atom_site_symmetry_multiplicity
 _atom_site_fract_x
 _atom_site_fract_y
 _atom_site_fract_z
 _atom_site_occupancy
  Ca  Ca0  1  0.315279  0.180544  0.122177  1
  Ca  Ca1  1  0.815279  0.319456  0.377823  1
  Ca  Ca2  1  0.184721  0.680544  0.877823  1
  Ca  Ca3  1  0.684721  0.819456  0.622177  1
  Ca  Ca4  1  0.315279  0.180544  0.377823  1
  Ca  Ca5  1  0.815279  0.319456  0.122177  1
  Ca  Ca6  1  0.184721  0.680544  0.622177  1
  Ca  Ca7  1  0.684721  0.819456  0.877823  1
  Ac  Ac8  1  0.967327  0.817177  0.400906  1
  Ac  Ac9  1  0.467327  0.682823  0.099094  1
  Ac  Ac10  1  0.532673  0.317177  0.599094  1
  Ac  Ac11  1  0.032673  0.182823  0.900906  1
  Ac  Ac12  1  0.032673  0.182823  0.599094  1
  Ac  Ac13  1  0.532673  0.317177  0.900906  1
  Ac  Ac14  1  0.467327  0.682823  0.400906  1
  Ac  Ac15  1  0.967327  0.817177  0.099094  1
  Yb  Yb16  1  0.361492  0.995847  0.750000  1
  Yb  Yb17  1  0.861492  0.504153  0.750000  1
  Yb  Yb18  1  0.138508  0.495847  0.250000  1
  Yb  Yb19  1  0.638508  0.004153  0.250000  1
  Si  Si20  1  0.863435  0.528868  0.538309  1
  Si  Si21  1  0.363435  0.971132  0.961691  1
  Si  Si22  1  0.636565  0.028868  0.461691  1
  Si  Si23  1  0.136565  0.471132  0.038309  1
  Si  Si24  1  0.136565  0.471132  0.461691  1
  Si  Si25  1  0.636565  0.028868  0.038309  1
  Si  Si26  1  0.363435  0.971132  0.538309  1
  Si  Si27  1  0.863435  0.528868  0.961691  1
  Si  Si28  1  0.975719  0.902495  0.750000  1
  Si  Si29  1  0.475719  0.597505  0.750000  1
  Si  Si30  1  0.524281  0.402495  0.250000  1
  Si  Si31  1  0.024281  0.097505  0.250000  1
  Si  Si32  1  0.250086  0.381789  0.750000  1
  Si  Si33  1  0.750086  0.118211  0.750000  1
  Si  Si34  1  0.249914  0.881789  0.250000  1
  Si  Si35  1  0.749914  0.618211  0.250000  1
