# generated using pymatgen
data_Li3Tb3HgGeP
_symmetry_space_group_name_H-M   'P 1'
_cell_length_a   7.17897500
_cell_length_b   7.17897499
_cell_length_c   4.17135100
_cell_angle_alpha   90.00000000
_cell_angle_beta   90.00000000
_cell_angle_gamma   119.99999544
_symmetry_Int_Tables_number   1
_chemical_formula_structural   Li3Tb3HgGeP
_chemical_formula_sum   'Li3 Tb3 Hg1 Ge1 P1'
_cell_volume   186.17967515
_cell_formula_units_Z   1
loop_
 _symmetry_equiv_pos_site_id
 _symmetry_equiv_pos_as_xyz
  1  'x, y, z'
loop_
 _atom_site_type_symbol
 _atom_site_label
 _atom_site_symmetry_multiplicity
 _atom_site_fract_x
 _atom_site_fract_y
 _atom_site_fract_z
 _atom_site_occupancy
  Li  Li0  1  0.749910  0.746349  0.500000  1
  Li  Li1  1  0.253651  0.003560  0.500000  1
  Li  Li2  1  0.996440  0.250090  0.500000  1
  Tb  Tb3  1  0.432097  0.430355  0.000000  1
  Tb  Tb4  1  0.569645  0.001743  0.000000  1
  Tb  Tb5  1  0.998257  0.567903  0.000000  1
  Hg  Hg6  1  0.000000  0.000000  0.000000  1
  Ge  Ge7  1  0.333333  0.666667  0.500000  1
  P  P8  1  0.666667  0.333333  0.500000  1
