# generated using pymatgen
data_SmThFeCo16
_symmetry_space_group_name_H-M   'P 1'
_cell_length_a   6.31345506
_cell_length_b   6.31345435
_cell_length_c   6.31345508
_cell_angle_alpha   83.01606589
_cell_angle_beta   83.01606609
_cell_angle_gamma   83.01605307
_symmetry_Int_Tables_number   1
_chemical_formula_structural   SmThFeCo16
_chemical_formula_sum   'Sm1 Th1 Fe1 Co16'
_cell_volume   246.47073062
_cell_formula_units_Z   1
loop_
 _symmetry_equiv_pos_site_id
 _symmetry_equiv_pos_as_xyz
  1  'x, y, z'
loop_
 _atom_site_type_symbol
 _atom_site_label
 _atom_site_symmetry_multiplicity
 _atom_site_fract_x
 _atom_site_fract_y
 _atom_site_fract_z
 _atom_site_occupancy
  Sm  Sm0  1  0.344528  0.344528  0.344528  1
  Th  Th1  1  0.655363  0.655363  0.655363  1
  Fe  Fe2  1  0.095224  0.095224  0.095224  1
  Co  Co3  1  0.345677  0.345677  0.849370  1
  Co  Co4  1  0.345677  0.849370  0.345677  1
  Co  Co5  1  0.849370  0.345677  0.345677  1
  Co  Co6  1  0.655698  0.655698  0.147014  1
  Co  Co7  1  0.655698  0.147014  0.655698  1
  Co  Co8  1  0.147014  0.655698  0.655698  1
  Co  Co9  1  0.001264  0.001264  0.500991  1
  Co  Co10  1  0.001264  0.500991  0.001264  1
  Co  Co11  1  0.500991  0.001264  0.001264  1
  Co  Co12  1  0.286767  0.713990  0.999289  1
  Co  Co13  1  0.713990  0.999289  0.286767  1
  Co  Co14  1  0.999289  0.286767  0.713990  1
  Co  Co15  1  0.286767  0.999289  0.713990  1
  Co  Co16  1  0.999289  0.713990  0.286767  1
  Co  Co17  1  0.713990  0.286767  0.999289  1
  Co  Co18  1  0.902141  0.902141  0.902141  1
