# generated using pymatgen
data_TmZnCdCu3
_symmetry_space_group_name_H-M   'P 1'
_cell_length_a   5.10261439
_cell_length_b   5.10261347
_cell_length_c   5.10261416
_cell_angle_alpha   60.54961455
_cell_angle_beta   60.54962845
_cell_angle_gamma   60.54961329
_symmetry_Int_Tables_number   1
_chemical_formula_structural   TmZnCdCu3
_chemical_formula_sum   'Tm1 Zn1 Cd1 Cu3'
_cell_volume   95.10923899
_cell_formula_units_Z   1
loop_
 _symmetry_equiv_pos_site_id
 _symmetry_equiv_pos_as_xyz
  1  'x, y, z'
loop_
 _atom_site_type_symbol
 _atom_site_label
 _atom_site_symmetry_multiplicity
 _atom_site_fract_x
 _atom_site_fract_y
 _atom_site_fract_z
 _atom_site_occupancy
  Tm  Tm0  1  0.001186  0.001186  0.001186  1
  Zn  Zn1  1  0.624124  0.624124  0.624124  1
  Cd  Cd2  1  0.250170  0.250170  0.250170  1
  Cu  Cu3  1  0.624287  0.624287  0.125947  1
  Cu  Cu4  1  0.624287  0.125947  0.624287  1
  Cu  Cu5  1  0.125947  0.624287  0.624287  1
