# generated using pymatgen
data_Ti6AlSi3(IrN)2
_symmetry_space_group_name_H-M   'P 1'
_cell_length_a   8.05456347
_cell_length_b   8.04603259
_cell_length_c   8.04603264
_cell_angle_alpha   59.95739844
_cell_angle_beta   59.96492850
_cell_angle_gamma   59.96492456
_symmetry_Int_Tables_number   1
_chemical_formula_structural   Ti6AlSi3(IrN)2
_chemical_formula_sum   'Ti12 Al2 Si6 Ir4 N4'
_cell_volume   368.40055535
_cell_formula_units_Z   2
loop_
 _symmetry_equiv_pos_site_id
 _symmetry_equiv_pos_as_xyz
  1  'x, y, z'
loop_
 _atom_site_type_symbol
 _atom_site_label
 _atom_site_symmetry_multiplicity
 _atom_site_fract_x
 _atom_site_fract_y
 _atom_site_fract_z
 _atom_site_occupancy
  Ti  Ti0  1  0.814931  0.815109  0.184413  1
  Ti  Ti1  1  0.064346  0.435547  0.435762  1
  Ti  Ti2  1  0.434960  0.061822  0.068258  1
  Ti  Ti3  1  0.064454  0.065587  0.434891  1
  Ti  Ti4  1  0.060900  0.435250  0.068225  1
  Ti  Ti5  1  0.435069  0.065587  0.434891  1
  Ti  Ti6  1  0.185546  0.815109  0.184413  1
  Ti  Ti7  1  0.185654  0.814238  0.814453  1
  Ti  Ti8  1  0.815040  0.181742  0.188178  1
  Ti  Ti9  1  0.814375  0.181775  0.814750  1
  Ti  Ti10  1  0.435625  0.435250  0.068225  1
  Ti  Ti11  1  0.189100  0.181775  0.814750  1
  Al  Al12  1  0.415435  0.415177  0.753952  1
  Al  Al13  1  0.834565  0.496048  0.834823  1
  Si  Si14  1  0.411347  0.761250  0.416054  1
  Si  Si15  1  0.838653  0.833946  0.488750  1
  Si  Si16  1  0.491918  0.833052  0.837498  1
  Si  Si17  1  0.837534  0.833052  0.837498  1
  Si  Si18  1  0.758082  0.412502  0.416948  1
  Si  Si19  1  0.412466  0.412502  0.416948  1
  Ir  Ir20  1  0.629239  0.119078  0.622444  1
  Ir  Ir21  1  0.620761  0.627556  0.130922  1
  Ir  Ir22  1  0.125000  0.632721  0.617279  1
  Ir  Ir23  1  0.625000  0.632721  0.617279  1
  N  N24  1  0.124917  0.625598  0.124569  1
  N  N25  1  0.125083  0.125431  0.624402  1
  N  N26  1  0.625000  0.125289  0.124711  1
  N  N27  1  0.125000  0.125289  0.124711  1
