# generated using pymatgen
data_ZrPd(SeO3)4
_symmetry_space_group_name_H-M   'P 1'
_cell_length_a   8.15995200
_cell_length_b   8.54849786
_cell_length_c   8.44536209
_cell_angle_alpha   89.09109797
_cell_angle_beta   89.99998321
_cell_angle_gamma   90.00293147
_symmetry_Int_Tables_number   1
_chemical_formula_structural   ZrPd(SeO3)4
_chemical_formula_sum   'Zr2 Pd2 Se8 O24'
_cell_volume   589.03491600
_cell_formula_units_Z   2
loop_
 _symmetry_equiv_pos_site_id
 _symmetry_equiv_pos_as_xyz
  1  'x, y, z'
loop_
 _atom_site_type_symbol
 _atom_site_label
 _atom_site_symmetry_multiplicity
 _atom_site_fract_x
 _atom_site_fract_y
 _atom_site_fract_z
 _atom_site_occupancy
  Zr  Zr0  1  0.000000  0.000000  0.500000  1
  Zr  Zr1  1  0.500000  0.000000  0.000000  1
  Pd  Pd2  1  0.000000  0.500000  0.000000  1
  Pd  Pd3  1  0.500000  0.500000  0.500000  1
  Se  Se4  1  0.304981  0.652013  0.195937  1
  Se  Se5  1  0.804983  0.347964  0.304058  1
  Se  Se6  1  0.668219  0.794420  0.665255  1
  Se  Se7  1  0.168219  0.205617  0.834775  1
  Se  Se8  1  0.695019  0.347987  0.804063  1
  Se  Se9  1  0.195017  0.652036  0.695942  1
  Se  Se10  1  0.331781  0.205580  0.334745  1
  Se  Se11  1  0.831781  0.794383  0.165225  1
  O  O12  1  0.243478  0.534416  0.037250  1
  O  O13  1  0.743472  0.465520  0.462771  1
  O  O14  1  0.756409  0.947913  0.561461  1
  O  O15  1  0.256414  0.052135  0.938597  1
  O  O16  1  0.529222  0.894593  0.777784  1
  O  O17  1  0.456549  0.518860  0.263512  1
  O  O18  1  0.956528  0.481151  0.236489  1
  O  O19  1  0.029297  0.105415  0.722199  1
  O  O20  1  0.928828  0.219280  0.405188  1
  O  O21  1  0.535434  0.733711  0.513414  1
  O  O22  1  0.428802  0.780712  0.094792  1
  O  O23  1  0.035339  0.266284  0.986548  1
  O  O24  1  0.756522  0.465584  0.962750  1
  O  O25  1  0.256528  0.534480  0.537229  1
  O  O26  1  0.243591  0.052087  0.438539  1
  O  O27  1  0.743586  0.947865  0.061403  1
  O  O28  1  0.470778  0.105407  0.222216  1
  O  O29  1  0.543451  0.481140  0.736488  1
  O  O30  1  0.043472  0.518849  0.763511  1
  O  O31  1  0.970703  0.894585  0.277801  1
  O  O32  1  0.071172  0.780720  0.594812  1
  O  O33  1  0.464566  0.266289  0.486586  1
  O  O34  1  0.571198  0.219288  0.905208  1
  O  O35  1  0.964661  0.733716  0.013452  1
