# generated using pymatgen
data_PbI28
_symmetry_space_group_name_H-M   'P 1'
_cell_length_a   10.67681737
_cell_length_b   14.33344904
_cell_length_c   12.98270300
_cell_angle_alpha   108.44914254
_cell_angle_beta   105.43469067
_cell_angle_gamma   86.57346759
_symmetry_Int_Tables_number   1
_chemical_formula_structural   PbI28
_chemical_formula_sum   'Pb1 I28'
_cell_volume   1816.08072199
_cell_formula_units_Z   1
loop_
 _symmetry_equiv_pos_site_id
 _symmetry_equiv_pos_as_xyz
  1  'x, y, z'
loop_
 _atom_site_type_symbol
 _atom_site_label
 _atom_site_symmetry_multiplicity
 _atom_site_fract_x
 _atom_site_fract_y
 _atom_site_fract_z
 _atom_site_occupancy
  Pb  Pb0  1  0.500000  0.000000  0.000000  1
  I  I1  1  0.120747  0.111271  0.430431  1
  I  I2  1  0.591592  0.153773  0.449042  1
  I  I3  1  0.286577  0.271289  0.872681  1
  I  I4  1  0.781173  0.276541  0.861988  1
  I  I5  1  0.184577  0.478248  0.640784  1
  I  I6  1  0.787517  0.565261  0.725979  1
  I  I7  1  0.408408  0.846227  0.550958  1
  I  I8  1  0.879253  0.888729  0.569569  1
  I  I9  1  0.218827  0.723459  0.138012  1
  I  I10  1  0.713423  0.728711  0.127319  1
  I  I11  1  0.212483  0.434739  0.274021  1
  I  I12  1  0.815423  0.521752  0.359216  1
  I  I13  1  0.845532  0.072867  0.729790  1
  I  I14  1  0.307863  0.946131  0.758809  1
  I  I15  1  0.014871  0.648107  0.938042  1
  I  I16  1  0.520223  0.767260  0.940247  1
  I  I17  1  0.720786  0.383129  0.433783  1
  I  I18  1  0.174233  0.272645  0.348727  1
  I  I19  1  0.692137  0.053869  0.241191  1
  I  I20  1  0.154468  0.927133  0.270210  1
  I  I21  1  0.479777  0.232740  0.059753  1
  I  I22  1  0.985129  0.351893  0.061958  1
  I  I23  1  0.825767  0.727355  0.651273  1
  I  I24  1  0.279214  0.616871  0.566217  1
  I  I25  1  0.077455  0.310032  0.692539  1
  I  I26  1  0.502494  0.235167  0.645770  1
  I  I27  1  0.497506  0.764833  0.354230  1
  I  I28  1  0.922545  0.689968  0.307461  1
