# generated using pymatgen
data_Bi2RhPbF14
_symmetry_space_group_name_H-M   'P 1'
_cell_length_a   5.77823840
_cell_length_b   6.15440399
_cell_length_c   8.41471600
_cell_angle_alpha   78.45177931
_cell_angle_beta   89.93788750
_cell_angle_gamma   89.85935201
_symmetry_Int_Tables_number   1
_chemical_formula_structural   Bi2RhPbF14
_chemical_formula_sum   'Bi2 Rh1 Pb1 F14'
_cell_volume   293.18227804
_cell_formula_units_Z   1
loop_
 _symmetry_equiv_pos_site_id
 _symmetry_equiv_pos_as_xyz
  1  'x, y, z'
loop_
 _atom_site_type_symbol
 _atom_site_label
 _atom_site_symmetry_multiplicity
 _atom_site_fract_x
 _atom_site_fract_y
 _atom_site_fract_z
 _atom_site_occupancy
  Bi  Bi0  1  0.198158  0.659391  0.321072  1
  Bi  Bi1  1  0.693953  0.336905  0.687746  1
  Rh  Rh2  1  0.209441  0.810073  0.774322  1
  Pb  Pb3  1  0.710938  0.198184  0.225908  1
  F  F4  1  0.380900  0.431939  0.524542  1
  F  F5  1  0.879167  0.548797  0.473051  1
  F  F6  1  0.914981  0.915424  0.221818  1
  F  F7  1  0.416911  0.061481  0.771593  1
  F  F8  1  0.422768  0.985099  0.240666  1
  F  F9  1  0.944477  0.015486  0.767311  1
  F  F10  1  0.519884  0.492383  0.207944  1
  F  F11  1  0.004030  0.557876  0.785370  1
  F  F12  1  0.208270  0.763345  0.006446  1
  F  F13  1  0.702079  0.246727  0.974134  1
  F  F14  1  0.210871  0.865619  0.536806  1
  F  F15  1  0.719297  0.123069  0.481071  1
  F  F16  1  0.029930  0.374274  0.216466  1
  F  F17  1  0.486667  0.613930  0.783737  1
