# generated using pymatgen
data_Zr12Zn3Ni(Ir2N)4
_symmetry_space_group_name_H-M   'P 1'
_cell_length_a   8.52002107
_cell_length_b   8.52002068
_cell_length_c   8.57327143
_cell_angle_alpha   60.20525020
_cell_angle_beta   60.20525394
_cell_angle_gamma   60.00000348
_symmetry_Int_Tables_number   1
_chemical_formula_structural   Zr12Zn3Ni(Ir2N)4
_chemical_formula_sum   'Zr12 Zn3 Ni1 Ir8 N4'
_cell_volume   441.42132442
_cell_formula_units_Z   1
loop_
 _symmetry_equiv_pos_site_id
 _symmetry_equiv_pos_as_xyz
  1  'x, y, z'
loop_
 _atom_site_type_symbol
 _atom_site_label
 _atom_site_symmetry_multiplicity
 _atom_site_fract_x
 _atom_site_fract_y
 _atom_site_fract_z
 _atom_site_occupancy
  Zr  Zr0  1  0.805467  0.195777  0.193289  1
  Zr  Zr1  1  0.195777  0.805467  0.193289  1
  Zr  Zr2  1  0.805467  0.805467  0.193289  1
  Zr  Zr3  1  0.192471  0.806959  0.808100  1
  Zr  Zr4  1  0.806959  0.192471  0.808100  1
  Zr  Zr5  1  0.192471  0.192471  0.808100  1
  Zr  Zr6  1  0.444533  0.054223  0.056711  1
  Zr  Zr7  1  0.054223  0.444533  0.056711  1
  Zr  Zr8  1  0.444533  0.444533  0.056711  1
  Zr  Zr9  1  0.057529  0.443041  0.441900  1
  Zr  Zr10  1  0.443041  0.057529  0.441900  1
  Zr  Zr11  1  0.057529  0.057529  0.441900  1
  Zn  Zn12  1  0.625000  0.625000  0.625000  1
  Zn  Zn13  1  0.125000  0.625000  0.625000  1
  Zn  Zn14  1  0.625000  0.125000  0.625000  1
  Ni  Ni15  1  0.625000  0.625000  0.125000  1
  Ir  Ir16  1  0.415315  0.415315  0.754054  1
  Ir  Ir17  1  0.417134  0.417134  0.412687  1
  Ir  Ir18  1  0.753043  0.417134  0.412687  1
  Ir  Ir19  1  0.417134  0.753043  0.412687  1
  Ir  Ir20  1  0.834685  0.834685  0.495946  1
  Ir  Ir21  1  0.832866  0.832866  0.837313  1
  Ir  Ir22  1  0.496957  0.832866  0.837313  1
  Ir  Ir23  1  0.832866  0.496957  0.837313  1
  N  N24  1  0.125000  0.125000  0.625000  1
  N  N25  1  0.125000  0.125000  0.125000  1
  N  N26  1  0.625000  0.125000  0.125000  1
  N  N27  1  0.125000  0.625000  0.125000  1
