# generated using pymatgen
data_HoTaNb4(B2Ru5)2
_symmetry_space_group_name_H-M   'P 1'
_cell_length_a   9.51883556
_cell_length_b   9.52170002
_cell_length_c   3.05287900
_cell_angle_alpha   90.00000000
_cell_angle_beta   90.00000000
_cell_angle_gamma   90.27740910
_symmetry_Int_Tables_number   1
_chemical_formula_structural   HoTaNb4(B2Ru5)2
_chemical_formula_sum   'Ho1 Ta1 Nb4 B4 Ru10'
_cell_volume   276.69596166
_cell_formula_units_Z   1
loop_
 _symmetry_equiv_pos_site_id
 _symmetry_equiv_pos_as_xyz
  1  'x, y, z'
loop_
 _atom_site_type_symbol
 _atom_site_label
 _atom_site_symmetry_multiplicity
 _atom_site_fract_x
 _atom_site_fract_y
 _atom_site_fract_z
 _atom_site_occupancy
  Ho  Ho0  1  0.824584  0.675600  0.000000  1
  Ta  Ta1  1  0.999295  0.998755  0.000000  1
  Nb  Nb2  1  0.177737  0.321984  0.000000  1
  Nb  Nb3  1  0.324330  0.823481  0.000000  1
  Nb  Nb4  1  0.677042  0.175616  0.000000  1
  Nb  Nb5  1  0.501184  0.500604  0.000000  1
  B  B6  1  0.618762  0.881234  0.000000  1
  B  B7  1  0.377208  0.122802  0.000000  1
  B  B8  1  0.123084  0.619860  0.000000  1
  B  B9  1  0.880291  0.376864  0.000000  1
  Ru  Ru10  1  0.559037  0.724540  0.500000  1
  Ru  Ru11  1  0.426743  0.282710  0.500000  1
  Ru  Ru12  1  0.080950  0.782781  0.500000  1
  Ru  Ru13  1  0.930656  0.216074  0.500000  1
  Ru  Ru14  1  0.283556  0.569571  0.500000  1
  Ru  Ru15  1  0.717602  0.418575  0.500000  1
  Ru  Ru16  1  0.216956  0.072807  0.500000  1
  Ru  Ru17  1  0.776000  0.940794  0.500000  1
  Ru  Ru18  1  0.496336  0.003984  0.500000  1
  Ru  Ru19  1  0.008647  0.491361  0.500000  1
