# generated using pymatgen
data_Tm10Zn3Os
_symmetry_space_group_name_H-M   'P 1'
_cell_length_a   9.27505400
_cell_length_b   9.27505367
_cell_length_c   9.54009200
_cell_angle_alpha   90.00000000
_cell_angle_beta   90.00000000
_cell_angle_gamma   120.00000119
_symmetry_Int_Tables_number   1
_chemical_formula_structural   Tm10Zn3Os
_chemical_formula_sum   'Tm20 Zn6 Os2'
_cell_volume   710.74868897
_cell_formula_units_Z   2
loop_
 _symmetry_equiv_pos_site_id
 _symmetry_equiv_pos_as_xyz
  1  'x, y, z'
loop_
 _atom_site_type_symbol
 _atom_site_label
 _atom_site_symmetry_multiplicity
 _atom_site_fract_x
 _atom_site_fract_y
 _atom_site_fract_z
 _atom_site_occupancy
  Tm  Tm0  1  0.000000  0.000000  0.500000  1
  Tm  Tm1  1  0.000000  0.000000  0.000000  1
  Tm  Tm2  1  0.207508  0.792492  0.443381  1
  Tm  Tm3  1  0.207508  0.415014  0.443381  1
  Tm  Tm4  1  0.584986  0.792492  0.443381  1
  Tm  Tm5  1  0.792492  0.207508  0.556619  1
  Tm  Tm6  1  0.792492  0.584986  0.556619  1
  Tm  Tm7  1  0.415014  0.207508  0.556619  1
  Tm  Tm8  1  0.792492  0.207508  0.943381  1
  Tm  Tm9  1  0.792492  0.584986  0.943381  1
  Tm  Tm10  1  0.415014  0.207508  0.943381  1
  Tm  Tm11  1  0.207508  0.792492  0.056619  1
  Tm  Tm12  1  0.207508  0.415014  0.056619  1
  Tm  Tm13  1  0.584986  0.792492  0.056619  1
  Tm  Tm14  1  0.539682  0.460318  0.250000  1
  Tm  Tm15  1  0.539682  0.079364  0.250000  1
  Tm  Tm16  1  0.920636  0.460318  0.250000  1
  Tm  Tm17  1  0.460318  0.539682  0.750000  1
  Tm  Tm18  1  0.460318  0.920636  0.750000  1
  Tm  Tm19  1  0.079364  0.539682  0.750000  1
  Zn  Zn20  1  0.886456  0.113544  0.250000  1
  Zn  Zn21  1  0.886456  0.772914  0.250000  1
  Zn  Zn22  1  0.227086  0.113544  0.250000  1
  Zn  Zn23  1  0.113544  0.886456  0.750000  1
  Zn  Zn24  1  0.113544  0.227086  0.750000  1
  Zn  Zn25  1  0.772914  0.886456  0.750000  1
  Os  Os26  1  0.333333  0.666667  0.250000  1
  Os  Os27  1  0.666667  0.333333  0.750000  1
