# generated using pymatgen
data_TbY4GePb3
_symmetry_space_group_name_H-M   'P 1'
_cell_length_a   9.33674308
_cell_length_b   9.33675493
_cell_length_c   6.61040000
_cell_angle_alpha   90.00000000
_cell_angle_beta   90.00000000
_cell_angle_gamma   119.98547342
_symmetry_Int_Tables_number   1
_chemical_formula_structural   TbY4GePb3
_chemical_formula_sum   'Tb2 Y8 Ge2 Pb6'
_cell_volume   499.12956200
_cell_formula_units_Z   2
loop_
 _symmetry_equiv_pos_site_id
 _symmetry_equiv_pos_as_xyz
  1  'x, y, z'
loop_
 _atom_site_type_symbol
 _atom_site_label
 _atom_site_symmetry_multiplicity
 _atom_site_fract_x
 _atom_site_fract_y
 _atom_site_fract_z
 _atom_site_occupancy
  Tb  Tb0  1  0.748556  0.748556  0.250000  1
  Tb  Tb1  1  0.251444  0.251444  0.750000  1
  Y  Y2  1  0.251603  0.999957  0.250000  1
  Y  Y3  1  0.748397  0.000043  0.750000  1
  Y  Y4  1  0.999957  0.251601  0.250000  1
  Y  Y5  1  0.000043  0.748399  0.750000  1
  Y  Y6  1  0.333355  0.666646  0.000001  1
  Y  Y7  1  0.666645  0.333354  0.999999  1
  Y  Y8  1  0.666645  0.333354  0.500001  1
  Y  Y9  1  0.333355  0.666646  0.499999  1
  Ge  Ge10  1  0.000000  0.000000  0.000000  1
  Ge  Ge11  1  0.000000  0.000000  0.500000  1
  Pb  Pb12  1  0.605443  0.000027  0.250000  1
  Pb  Pb13  1  0.394557  0.999973  0.750000  1
  Pb  Pb14  1  0.000029  0.605444  0.250000  1
  Pb  Pb15  1  0.999971  0.394556  0.750000  1
  Pb  Pb16  1  0.394246  0.394245  0.250000  1
  Pb  Pb17  1  0.605754  0.605755  0.750000  1
