# generated using pymatgen
data_Er2Mn(Co3As2)3
_symmetry_space_group_name_H-M   'P 1'
_cell_length_a   3.78141000
_cell_length_b   10.69100600
_cell_length_c   12.24412000
_cell_angle_alpha   90.00000000
_cell_angle_beta   90.00000000
_cell_angle_gamma   90.00000000
_symmetry_Int_Tables_number   1
_chemical_formula_structural   Er2Mn(Co3As2)3
_chemical_formula_sum   'Er4 Mn2 Co18 As12'
_cell_volume   494.99398202
_cell_formula_units_Z   2
loop_
 _symmetry_equiv_pos_site_id
 _symmetry_equiv_pos_as_xyz
  1  'x, y, z'
loop_
 _atom_site_type_symbol
 _atom_site_label
 _atom_site_symmetry_multiplicity
 _atom_site_fract_x
 _atom_site_fract_y
 _atom_site_fract_z
 _atom_site_occupancy
  Er  Er0  1  0.250000  0.578147  0.701080  1
  Er  Er1  1  0.250000  0.921853  0.201080  1
  Er  Er2  1  0.750000  0.420891  0.296853  1
  Er  Er3  1  0.750000  0.079109  0.796853  1
  Mn  Mn4  1  0.250000  0.703063  0.990221  1
  Mn  Mn5  1  0.250000  0.796937  0.490221  1
  Co  Co6  1  0.750000  0.293759  0.009868  1
  Co  Co7  1  0.750000  0.206241  0.509868  1
  Co  Co8  1  0.250000  0.405246  0.488006  1
  Co  Co9  1  0.250000  0.094755  0.988006  1
  Co  Co10  1  0.750000  0.592694  0.514742  1
  Co  Co11  1  0.750000  0.907306  0.014742  1
  Co  Co12  1  0.250000  0.218321  0.176621  1
  Co  Co13  1  0.250000  0.281679  0.676621  1
  Co  Co14  1  0.750000  0.782512  0.824967  1
  Co  Co15  1  0.750000  0.717488  0.324967  1
  Co  Co16  1  0.250000  0.883425  0.698145  1
  Co  Co17  1  0.250000  0.616575  0.198145  1
  Co  Co18  1  0.750000  0.118722  0.301972  1
  Co  Co19  1  0.750000  0.381278  0.801972  1
  Co  Co20  1  0.250000  0.465217  0.932139  1
  Co  Co21  1  0.250000  0.034783  0.432139  1
  Co  Co22  1  0.750000  0.532525  0.065852  1
  Co  Co23  1  0.750000  0.967475  0.565852  1
  As  As24  1  0.250000  0.417518  0.114941  1
  As  As25  1  0.250000  0.082482  0.614941  1
  As  As26  1  0.750000  0.580510  0.882064  1
  As  As27  1  0.750000  0.919490  0.382064  1
  As  As28  1  0.250000  0.265784  0.867799  1
  As  As29  1  0.250000  0.234216  0.367799  1
  As  As30  1  0.750000  0.732491  0.135250  1
  As  As31  1  0.750000  0.767509  0.635250  1
  As  As32  1  0.250000  0.596446  0.390791  1
  As  As33  1  0.250000  0.903554  0.890791  1
  As  As34  1  0.750000  0.397255  0.608687  1
  As  As35  1  0.750000  0.102745  0.108687  1
