# generated using pymatgen
data_SrDy3(Rh2O7)2
_symmetry_space_group_name_H-M   'P 1'
_cell_length_a   7.30237513
_cell_length_b   7.30237577
_cell_length_c   7.30237552
_cell_angle_alpha   59.81179846
_cell_angle_beta   59.81179282
_cell_angle_gamma   59.81180005
_symmetry_Int_Tables_number   1
_chemical_formula_structural   SrDy3(Rh2O7)2
_chemical_formula_sum   'Sr1 Dy3 Rh4 O14'
_cell_volume   274.16889274
_cell_formula_units_Z   1
loop_
 _symmetry_equiv_pos_site_id
 _symmetry_equiv_pos_as_xyz
  1  'x, y, z'
loop_
 _atom_site_type_symbol
 _atom_site_label
 _atom_site_symmetry_multiplicity
 _atom_site_fract_x
 _atom_site_fract_y
 _atom_site_fract_z
 _atom_site_occupancy
  Sr  Sr0  1  0.125000  0.125000  0.125000  1
  Dy  Dy1  1  0.125000  0.625000  0.125000  1
  Dy  Dy2  1  0.125000  0.125000  0.625000  1
  Dy  Dy3  1  0.625000  0.125000  0.125000  1
  Rh  Rh4  1  0.625000  0.625000  0.625000  1
  Rh  Rh5  1  0.125000  0.625000  0.625000  1
  Rh  Rh6  1  0.625000  0.125000  0.625000  1
  Rh  Rh7  1  0.625000  0.625000  0.125000  1
  O  O8  1  0.292736  0.708387  0.708387  1
  O  O9  1  0.557807  0.955134  0.955134  1
  O  O10  1  0.708387  0.292736  0.708387  1
  O  O11  1  0.294866  0.294866  0.692193  1
  O  O12  1  0.708387  0.708387  0.292736  1
  O  O13  1  0.992527  0.992527  0.992527  1
  O  O14  1  0.294866  0.692193  0.294866  1
  O  O15  1  0.955134  0.557807  0.955134  1
  O  O16  1  0.955134  0.955134  0.557807  1
  O  O17  1  0.541613  0.541613  0.957264  1
  O  O18  1  0.257473  0.257473  0.257473  1
  O  O19  1  0.541613  0.957264  0.541613  1
  O  O20  1  0.692193  0.294866  0.294866  1
  O  O21  1  0.957264  0.541613  0.541613  1
