# generated using pymatgen
data_YbSm2Pa(Pt2Pb)2
_symmetry_space_group_name_H-M   'P 1'
_cell_length_a   7.99823986
_cell_length_b   7.99823988
_cell_length_c   7.29059600
_cell_angle_alpha   90.00000000
_cell_angle_beta   90.00000000
_cell_angle_gamma   92.42322623
_symmetry_Int_Tables_number   1
_chemical_formula_structural   YbSm2Pa(Pt2Pb)2
_chemical_formula_sum   'Yb2 Sm4 Pa2 Pt8 Pb4'
_cell_volume   465.97578705
_cell_formula_units_Z   2
loop_
 _symmetry_equiv_pos_site_id
 _symmetry_equiv_pos_as_xyz
  1  'x, y, z'
loop_
 _atom_site_type_symbol
 _atom_site_label
 _atom_site_symmetry_multiplicity
 _atom_site_fract_x
 _atom_site_fract_y
 _atom_site_fract_z
 _atom_site_occupancy
  Yb  Yb0  1  0.835122  0.164878  0.500000  1
  Yb  Yb1  1  0.164878  0.835122  0.500000  1
  Sm  Sm2  1  0.663590  0.663590  0.000000  1
  Sm  Sm3  1  0.336410  0.336410  0.000000  1
  Sm  Sm4  1  0.826861  0.173139  0.000000  1
  Sm  Sm5  1  0.173139  0.826861  0.000000  1
  Pa  Pa6  1  0.324675  0.324675  0.500000  1
  Pa  Pa7  1  0.675325  0.675325  0.500000  1
  Pt  Pt8  1  0.868230  0.868230  0.744717  1
  Pt  Pt9  1  0.131770  0.131770  0.744717  1
  Pt  Pt10  1  0.624707  0.375293  0.722355  1
  Pt  Pt11  1  0.624707  0.375293  0.277645  1
  Pt  Pt12  1  0.375293  0.624707  0.277645  1
  Pt  Pt13  1  0.131770  0.131770  0.255283  1
  Pt  Pt14  1  0.868230  0.868230  0.255283  1
  Pt  Pt15  1  0.375293  0.624707  0.722355  1
  Pb  Pb16  1  0.500000  0.000000  0.747258  1
  Pb  Pb17  1  0.500000  0.000000  0.252742  1
  Pb  Pb18  1  0.000000  0.500000  0.747258  1
  Pb  Pb19  1  0.000000  0.500000  0.252742  1
