# generated using pymatgen
data_Li6Er2PuN6
_symmetry_space_group_name_H-M   'P 1'
_cell_length_a   5.91629500
_cell_length_b   5.91629532
_cell_length_c   5.48837300
_cell_angle_alpha   90.00000000
_cell_angle_beta   90.00000000
_cell_angle_gamma   120.00000081
_symmetry_Int_Tables_number   1
_chemical_formula_structural   Li6Er2PuN6
_chemical_formula_sum   'Li6 Er2 Pu1 N6'
_cell_volume   166.36957693
_cell_formula_units_Z   1
loop_
 _symmetry_equiv_pos_site_id
 _symmetry_equiv_pos_as_xyz
  1  'x, y, z'
loop_
 _atom_site_type_symbol
 _atom_site_label
 _atom_site_symmetry_multiplicity
 _atom_site_fract_x
 _atom_site_fract_y
 _atom_site_fract_z
 _atom_site_occupancy
  Li  Li0  1  0.992646  0.669155  0.610614  1
  Li  Li1  1  0.330845  0.323492  0.610614  1
  Li  Li2  1  0.676508  0.007354  0.610614  1
  Li  Li3  1  0.007354  0.330845  0.389386  1
  Li  Li4  1  0.669155  0.676508  0.389386  1
  Li  Li5  1  0.323492  0.992646  0.389386  1
  Er  Er6  1  0.333333  0.666667  0.995233  1
  Er  Er7  1  0.666667  0.333333  0.004767  1
  Pu  Pu8  1  0.000000  0.000000  0.000000  1
  N  N9  1  0.999189  0.691023  0.224709  1
  N  N10  1  0.308977  0.308166  0.224709  1
  N  N11  1  0.691834  0.000811  0.224709  1
  N  N12  1  0.000811  0.308977  0.775291  1
  N  N13  1  0.691023  0.691834  0.775291  1
  N  N14  1  0.308166  0.999189  0.775291  1
