# generated using pymatgen
data_Ba6YGa(BO3)6
_symmetry_space_group_name_H-M   'P 1'
_cell_length_a   8.12926284
_cell_length_b   8.12925624
_cell_length_c   8.12926368
_cell_angle_alpha   105.98086500
_cell_angle_beta   105.98104219
_cell_angle_gamma   105.98070715
_symmetry_Int_Tables_number   1
_chemical_formula_structural   Ba6YGa(BO3)6
_chemical_formula_sum   'Ba6 Y1 Ga1 B6 O18'
_cell_volume   459.27394505
_cell_formula_units_Z   1
loop_
 _symmetry_equiv_pos_site_id
 _symmetry_equiv_pos_as_xyz
  1  'x, y, z'
loop_
 _atom_site_type_symbol
 _atom_site_label
 _atom_site_symmetry_multiplicity
 _atom_site_fract_x
 _atom_site_fract_y
 _atom_site_fract_z
 _atom_site_occupancy
  Ba  Ba0  1  0.342289  0.731103  0.830560  1
  Ba  Ba1  1  0.830560  0.342289  0.731103  1
  Ba  Ba2  1  0.731103  0.830560  0.342289  1
  Ba  Ba3  1  0.657711  0.268897  0.169440  1
  Ba  Ba4  1  0.169440  0.657711  0.268897  1
  Ba  Ba5  1  0.268897  0.169440  0.657711  1
  Y  Y6  1  0.000000  0.000000  0.000000  1
  Ga  Ga7  1  0.500000  0.500000  0.500000  1
  B  B8  1  0.375152  0.060349  0.297006  1
  B  B9  1  0.297005  0.375152  0.060349  1
  B  B10  1  0.060347  0.297004  0.375152  1
  B  B11  1  0.702995  0.624848  0.939651  1
  B  B12  1  0.939653  0.702996  0.624848  1
  B  B13  1  0.624848  0.939651  0.702994  1
  O  O14  1  0.427813  0.494684  0.237687  1
  O  O15  1  0.237689  0.427815  0.494685  1
  O  O16  1  0.812678  0.003337  0.731782  1
  O  O17  1  0.003336  0.731783  0.812679  1
  O  O18  1  0.731783  0.812677  0.003336  1
  O  O19  1  0.268217  0.187323  0.996664  1
  O  O20  1  0.187322  0.996663  0.268218  1
  O  O21  1  0.996664  0.268217  0.187321  1
  O  O22  1  0.551995  0.054769  0.791289  1
  O  O23  1  0.054770  0.791289  0.551995  1
  O  O24  1  0.791288  0.551995  0.054769  1
  O  O25  1  0.448005  0.945231  0.208711  1
  O  O26  1  0.945230  0.208711  0.448005  1
  O  O27  1  0.208712  0.448005  0.945231  1
  O  O28  1  0.505316  0.762312  0.572185  1
  O  O29  1  0.762311  0.572185  0.505315  1
  O  O30  1  0.572187  0.505316  0.762313  1
  O  O31  1  0.494684  0.237688  0.427815  1
