# generated using pymatgen
data_Be6Co2ReOs3
_symmetry_space_group_name_H-M   'P 1'
_cell_length_a   4.42566510
_cell_length_b   4.40307921
_cell_length_c   7.21002308
_cell_angle_alpha   90.30137348
_cell_angle_beta   90.01655880
_cell_angle_gamma   119.69584908
_symmetry_Int_Tables_number   1
_chemical_formula_structural   Be6Co2ReOs3
_chemical_formula_sum   'Be6 Co2 Re1 Os3'
_cell_volume   122.04410494
_cell_formula_units_Z   1
loop_
 _symmetry_equiv_pos_site_id
 _symmetry_equiv_pos_as_xyz
  1  'x, y, z'
loop_
 _atom_site_type_symbol
 _atom_site_label
 _atom_site_symmetry_multiplicity
 _atom_site_fract_x
 _atom_site_fract_y
 _atom_site_fract_z
 _atom_site_occupancy
  Be  Be0  1  0.999089  0.998158  0.000208  1
  Be  Be1  1  0.999406  0.001157  0.500899  1
  Be  Be2  1  0.662309  0.826838  0.753630  1
  Be  Be3  1  0.339908  0.169656  0.245864  1
  Be  Be4  1  0.830749  0.170388  0.246355  1
  Be  Be5  1  0.170159  0.335585  0.753130  1
  Co  Co6  1  0.837219  0.671711  0.250656  1
  Co  Co7  1  0.163377  0.830656  0.750907  1
  Re  Re8  1  0.338693  0.674138  0.438468  1
  Os  Os9  1  0.334942  0.668322  0.066042  1
  Os  Os10  1  0.657432  0.324156  0.555825  1
  Os  Os11  1  0.666720  0.329233  0.938016  1
