# generated using pymatgen
data_La4PrAlSn2
_symmetry_space_group_name_H-M   'P 1'
_cell_length_a   9.54391863
_cell_length_b   9.54391929
_cell_length_c   9.54391953
_cell_angle_alpha   96.10528684
_cell_angle_beta   96.10529131
_cell_angle_gamma   141.93281015
_symmetry_Int_Tables_number   1
_chemical_formula_structural   La4PrAlSn2
_chemical_formula_sum   'La8 Pr2 Al2 Sn4'
_cell_volume   506.70550162
_cell_formula_units_Z   2
loop_
 _symmetry_equiv_pos_site_id
 _symmetry_equiv_pos_as_xyz
  1  'x, y, z'
loop_
 _atom_site_type_symbol
 _atom_site_label
 _atom_site_symmetry_multiplicity
 _atom_site_fract_x
 _atom_site_fract_y
 _atom_site_fract_z
 _atom_site_occupancy
  La  La0  1  0.915062  0.217322  0.132384  1
  La  La1  1  0.217322  0.084938  0.302259  1
  La  La2  1  0.782678  0.915062  0.697741  1
  La  La3  1  0.084938  0.782678  0.867616  1
  La  La4  1  0.717322  0.415062  0.132384  1
  La  La5  1  0.282678  0.584938  0.867616  1
  La  La6  1  0.584938  0.717322  0.302259  1
  La  La7  1  0.415062  0.282678  0.697741  1
  Pr  Pr8  1  0.750000  0.250000  0.500000  1
  Pr  Pr9  1  0.250000  0.750000  0.500000  1
  Al  Al10  1  0.750000  0.750000  0.000000  1
  Al  Al11  1  0.250000  0.250000  0.000000  1
  Sn  Sn12  1  0.840477  0.659523  0.500000  1
  Sn  Sn13  1  0.659523  0.159523  0.819045  1
  Sn  Sn14  1  0.340477  0.840477  0.180955  1
  Sn  Sn15  1  0.159523  0.340477  0.500000  1
