# generated using pymatgen
data_TbHo9(RuPb3)2
_symmetry_space_group_name_H-M   'P 1'
_cell_length_a   9.30886900
_cell_length_b   9.30886922
_cell_length_c   6.56475600
_cell_angle_alpha   90.00000000
_cell_angle_beta   90.00000000
_cell_angle_gamma   120.00000277
_symmetry_Int_Tables_number   1
_chemical_formula_structural   TbHo9(RuPb3)2
_chemical_formula_sum   'Tb1 Ho9 Ru2 Pb6'
_cell_volume   492.65518283
_cell_formula_units_Z   1
loop_
 _symmetry_equiv_pos_site_id
 _symmetry_equiv_pos_as_xyz
  1  'x, y, z'
loop_
 _atom_site_type_symbol
 _atom_site_label
 _atom_site_symmetry_multiplicity
 _atom_site_fract_x
 _atom_site_fract_y
 _atom_site_fract_z
 _atom_site_occupancy
  Tb  Tb0  1  0.333333  0.666667  0.500000  1
  Ho  Ho1  1  0.999923  0.763486  0.750009  1
  Ho  Ho2  1  0.763563  0.763486  0.249991  1
  Ho  Ho3  1  0.763563  0.000077  0.750009  1
  Ho  Ho4  1  0.236514  0.000077  0.249991  1
  Ho  Ho5  1  0.666667  0.333333  0.500000  1
  Ho  Ho6  1  0.236514  0.236437  0.750009  1
  Ho  Ho7  1  0.333333  0.666667  0.000000  1
  Ho  Ho8  1  0.999923  0.236437  0.249991  1
  Ho  Ho9  1  0.666667  0.333333  0.000000  1
  Ru  Ru10  1  0.000000  0.000000  0.000000  1
  Ru  Ru11  1  0.000000  0.000000  0.500000  1
  Pb  Pb12  1  0.402324  0.402051  0.249853  1
  Pb  Pb13  1  0.597949  0.597676  0.750147  1
  Pb  Pb14  1  0.597949  0.000273  0.249853  1
  Pb  Pb15  1  0.402324  0.000273  0.750147  1
  Pb  Pb16  1  0.999727  0.597676  0.249853  1
  Pb  Pb17  1  0.999727  0.402051  0.750147  1
