# generated using pymatgen
data_Pr3Sn3Ir2Au
_symmetry_space_group_name_H-M   'P 1'
_cell_length_a   7.66447600
_cell_length_b   7.66447693
_cell_length_c   4.18630600
_cell_angle_alpha   90.00000000
_cell_angle_beta   90.00000000
_cell_angle_gamma   119.99999597
_symmetry_Int_Tables_number   1
_chemical_formula_structural   Pr3Sn3Ir2Au
_chemical_formula_sum   'Pr3 Sn3 Ir2 Au1'
_cell_volume   212.97401071
_cell_formula_units_Z   1
loop_
 _symmetry_equiv_pos_site_id
 _symmetry_equiv_pos_as_xyz
  1  'x, y, z'
loop_
 _atom_site_type_symbol
 _atom_site_label
 _atom_site_symmetry_multiplicity
 _atom_site_fract_x
 _atom_site_fract_y
 _atom_site_fract_z
 _atom_site_occupancy
  Pr  Pr0  1  0.597205  0.012556  0.000000  1
  Pr  Pr1  1  0.987444  0.584649  0.000000  1
  Pr  Pr2  1  0.415351  0.402795  0.000000  1
  Sn  Sn3  1  0.250814  0.007016  0.500000  1
  Sn  Sn4  1  0.992984  0.243798  0.500000  1
  Sn  Sn5  1  0.756202  0.749186  0.500000  1
  Ir  Ir6  1  0.666667  0.333333  0.500000  1
  Ir  Ir7  1  0.000000  0.000000  0.000000  1
  Au  Au8  1  0.333333  0.666667  0.500000  1
