# generated using pymatgen
data_Ca2Al3Au14
_symmetry_space_group_name_H-M   'P 1'
_cell_length_a   7.22131385
_cell_length_b   7.22131403
_cell_length_c   7.22239603
_cell_angle_alpha   97.94524097
_cell_angle_beta   97.94523771
_cell_angle_gamma   82.00037609
_symmetry_Int_Tables_number   1
_chemical_formula_structural   Ca2Al3Au14
_chemical_formula_sum   'Ca2 Al3 Au14'
_cell_volume   366.65514064
_cell_formula_units_Z   1
loop_
 _symmetry_equiv_pos_site_id
 _symmetry_equiv_pos_as_xyz
  1  'x, y, z'
loop_
 _atom_site_type_symbol
 _atom_site_label
 _atom_site_symmetry_multiplicity
 _atom_site_fract_x
 _atom_site_fract_y
 _atom_site_fract_z
 _atom_site_occupancy
  Ca  Ca0  1  0.151385  0.151385  0.347794  1
  Ca  Ca1  1  0.848616  0.848616  0.652206  1
  Al  Al2  1  0.500000  0.000000  0.000000  1
  Al  Al3  1  0.000000  0.500000  0.000000  1
  Al  Al4  1  0.500000  0.500000  0.500000  1
  Au  Au5  1  0.801521  0.198479  0.000000  1
  Au  Au6  1  0.198479  0.801521  0.000000  1
  Au  Au7  1  0.396289  0.396289  0.103059  1
  Au  Au8  1  0.846229  0.846229  0.136496  1
  Au  Au9  1  0.802724  0.500386  0.302842  1
  Au  Au10  1  0.500386  0.802724  0.302842  1
  Au  Au11  1  0.636974  0.154382  0.345753  1
  Au  Au12  1  0.154382  0.636974  0.345753  1
  Au  Au13  1  0.845618  0.363026  0.654247  1
  Au  Au14  1  0.363026  0.845618  0.654247  1
  Au  Au15  1  0.499614  0.197276  0.697158  1
  Au  Au16  1  0.197276  0.499614  0.697158  1
  Au  Au17  1  0.153771  0.153771  0.863504  1
  Au  Au18  1  0.603711  0.603711  0.896941  1
