# generated using pymatgen
data_Ba4TaMoO8
_symmetry_space_group_name_H-M   'P 1'
_cell_length_a   7.40601832
_cell_length_b   7.40601847
_cell_length_c   5.88461500
_cell_angle_alpha   90.00000000
_cell_angle_beta   90.00000000
_cell_angle_gamma   133.23086956
_symmetry_Int_Tables_number   1
_chemical_formula_structural   Ba4TaMoO8
_chemical_formula_sum   'Ba4 Ta1 Mo1 O8'
_cell_volume   235.16712964
_cell_formula_units_Z   1
loop_
 _symmetry_equiv_pos_site_id
 _symmetry_equiv_pos_as_xyz
  1  'x, y, z'
loop_
 _atom_site_type_symbol
 _atom_site_label
 _atom_site_symmetry_multiplicity
 _atom_site_fract_x
 _atom_site_fract_y
 _atom_site_fract_z
 _atom_site_occupancy
  Ba  Ba0  1  0.647157  0.352843  0.000000  1
  Ba  Ba1  1  0.145996  0.854004  0.500000  1
  Ba  Ba2  1  0.854004  0.145996  0.500000  1
  Ba  Ba3  1  0.352843  0.647157  0.000000  1
  Ta  Ta4  1  0.500000  0.500000  0.500000  1
  Mo  Mo5  1  0.000000  0.000000  0.000000  1
  O  O6  1  0.741660  0.741660  0.739110  1
  O  O7  1  0.258340  0.258340  0.260890  1
  O  O8  1  0.258340  0.258340  0.739110  1
  O  O9  1  0.741660  0.741660  0.260890  1
  O  O10  1  0.839390  0.160610  0.000000  1
  O  O11  1  0.349638  0.650362  0.500000  1
  O  O12  1  0.650362  0.349638  0.500000  1
  O  O13  1  0.160610  0.839390  0.000000  1
