# generated using pymatgen
data_Yb7Tm(Sc3Pt4)4
_symmetry_space_group_name_H-M   'P 1'
_cell_length_a   7.28166971
_cell_length_b   7.31162200
_cell_length_c   14.07473520
_cell_angle_alpha   89.89199657
_cell_angle_beta   89.99006521
_cell_angle_gamma   90.04986507
_symmetry_Int_Tables_number   1
_chemical_formula_structural   Yb7Tm(Sc3Pt4)4
_chemical_formula_sum   'Yb7 Tm1 Sc12 Pt16'
_cell_volume   749.34876696
_cell_formula_units_Z   1
loop_
 _symmetry_equiv_pos_site_id
 _symmetry_equiv_pos_as_xyz
  1  'x, y, z'
loop_
 _atom_site_type_symbol
 _atom_site_label
 _atom_site_symmetry_multiplicity
 _atom_site_fract_x
 _atom_site_fract_y
 _atom_site_fract_z
 _atom_site_occupancy
  Yb  Yb0  1  0.988722  0.824861  0.907070  1
  Yb  Yb1  1  0.512204  0.325073  0.093154  1
  Yb  Yb2  1  0.012317  0.174989  0.406507  1
  Yb  Yb3  1  0.511806  0.325078  0.406534  1
  Yb  Yb4  1  0.011899  0.175126  0.093191  1
  Yb  Yb5  1  0.487719  0.675075  0.906426  1
  Yb  Yb6  1  0.988175  0.824802  0.593039  1
  Tm  Tm7  1  0.489621  0.676940  0.594667  1
  Sc  Sc8  1  0.647737  0.167461  0.623832  1
  Sc  Sc9  1  0.148009  0.334200  0.875493  1
  Sc  Sc10  1  0.351991  0.833968  0.123915  1
  Sc  Sc11  1  0.851983  0.665109  0.375984  1
  Sc  Sc12  1  0.352158  0.834050  0.375258  1
  Sc  Sc13  1  0.851897  0.665759  0.124239  1
  Sc  Sc14  1  0.648247  0.166613  0.876042  1
  Sc  Sc15  1  0.147859  0.334384  0.624440  1
  Sc  Sc16  1  0.811004  0.505528  0.750271  1
  Sc  Sc17  1  0.309723  0.995290  0.750337  1
  Sc  Sc18  1  0.189582  0.494468  0.250091  1
  Sc  Sc19  1  0.689549  0.005059  0.249733  1
  Pt  Pt20  1  0.674852  0.953311  0.454478  1
  Pt  Pt21  1  0.175805  0.542716  0.047229  1
  Pt  Pt22  1  0.324327  0.042902  0.952685  1
  Pt  Pt23  1  0.818256  0.462661  0.547339  1
  Pt  Pt24  1  0.325407  0.038037  0.547783  1
  Pt  Pt25  1  0.824035  0.457479  0.952602  1
  Pt  Pt26  1  0.676129  0.957163  0.046892  1
  Pt  Pt27  1  0.180410  0.543638  0.456134  1
  Pt  Pt28  1  0.446891  0.371825  0.748908  1
  Pt  Pt29  1  0.945303  0.128310  0.750540  1
  Pt  Pt30  1  0.553290  0.628998  0.249599  1
  Pt  Pt31  1  0.052616  0.870337  0.249776  1
  Pt  Pt32  1  0.669356  0.863431  0.747612  1
  Pt  Pt33  1  0.172274  0.635756  0.748654  1
  Pt  Pt34  1  0.329097  0.134037  0.249557  1
  Pt  Pt35  1  0.829752  0.365565  0.249987  1
