# generated using pymatgen
data_Gd10Se19
_symmetry_space_group_name_H-M   'P 1'
_cell_length_a   9.16453800
_cell_length_b   9.16453800
_cell_length_c   16.74841400
_cell_angle_alpha   90.00000000
_cell_angle_beta   90.00000000
_cell_angle_gamma   90.00000000
_symmetry_Int_Tables_number   1
_chemical_formula_structural   Gd10Se19
_chemical_formula_sum   'Gd20 Se38'
_cell_volume   1406.67846945
_cell_formula_units_Z   2
loop_
 _symmetry_equiv_pos_site_id
 _symmetry_equiv_pos_as_xyz
  1  'x, y, z'
loop_
 _atom_site_type_symbol
 _atom_site_label
 _atom_site_symmetry_multiplicity
 _atom_site_fract_x
 _atom_site_fract_y
 _atom_site_fract_z
 _atom_site_occupancy
  Gd  Gd0  1  0.250000  0.750000  0.616401  1
  Gd  Gd1  1  0.250000  0.750000  0.116401  1
  Gd  Gd2  1  0.750000  0.250000  0.383599  1
  Gd  Gd3  1  0.750000  0.250000  0.883599  1
  Gd  Gd4  1  0.447563  0.351577  0.105952  1
  Gd  Gd5  1  0.851577  0.552437  0.605952  1
  Gd  Gd6  1  0.648423  0.947563  0.605952  1
  Gd  Gd7  1  0.052437  0.148423  0.105952  1
  Gd  Gd8  1  0.552437  0.648423  0.894048  1
  Gd  Gd9  1  0.148423  0.447563  0.394048  1
  Gd  Gd10  1  0.351577  0.052437  0.394048  1
  Gd  Gd11  1  0.947563  0.851577  0.894048  1
  Gd  Gd12  1  0.846538  0.543941  0.119232  1
  Gd  Gd13  1  0.043941  0.153462  0.619232  1
  Gd  Gd14  1  0.456059  0.346538  0.619232  1
  Gd  Gd15  1  0.653462  0.956059  0.119232  1
  Gd  Gd16  1  0.153462  0.456059  0.880768  1
  Gd  Gd17  1  0.956059  0.846538  0.380768  1
  Gd  Gd18  1  0.543941  0.653462  0.380768  1
  Gd  Gd19  1  0.346538  0.043941  0.880768  1
  Se  Se20  1  0.250000  0.750000  0.935505  1
  Se  Se21  1  0.250000  0.750000  0.435505  1
  Se  Se22  1  0.750000  0.250000  0.064495  1
  Se  Se23  1  0.750000  0.250000  0.564495  1
  Se  Se24  1  0.447633  0.350582  0.436794  1
  Se  Se25  1  0.850582  0.552367  0.936794  1
  Se  Se26  1  0.649418  0.947633  0.936794  1
  Se  Se27  1  0.052367  0.149418  0.436794  1
  Se  Se28  1  0.552367  0.649418  0.563206  1
  Se  Se29  1  0.149418  0.447633  0.063206  1
  Se  Se30  1  0.350582  0.052367  0.063206  1
  Se  Se31  1  0.947633  0.850582  0.563206  1
  Se  Se32  1  0.652090  0.950931  0.429185  1
  Se  Se33  1  0.450931  0.347910  0.929185  1
  Se  Se34  1  0.049069  0.152090  0.929185  1
  Se  Se35  1  0.847910  0.549069  0.429185  1
  Se  Se36  1  0.347910  0.049069  0.570815  1
  Se  Se37  1  0.549069  0.652090  0.070815  1
  Se  Se38  1  0.950931  0.847910  0.070815  1
  Se  Se39  1  0.152090  0.450931  0.570815  1
  Se  Se40  1  0.121090  0.936593  0.750735  1
  Se  Se41  1  0.436593  0.878910  0.250735  1
  Se  Se42  1  0.063407  0.621090  0.250735  1
  Se  Se43  1  0.378910  0.563407  0.750735  1
  Se  Se44  1  0.878910  0.063407  0.249265  1
  Se  Se45  1  0.563407  0.121090  0.749265  1
  Se  Se46  1  0.936593  0.378910  0.749265  1
  Se  Se47  1  0.621090  0.436593  0.249265  1
  Se  Se48  1  0.029327  0.671651  0.749943  1
  Se  Se49  1  0.171651  0.970673  0.249943  1
  Se  Se50  1  0.328349  0.529327  0.249943  1
  Se  Se51  1  0.470673  0.828349  0.749943  1
  Se  Se52  1  0.970673  0.328349  0.250057  1
  Se  Se53  1  0.828349  0.029327  0.750057  1
  Se  Se54  1  0.671651  0.470673  0.750057  1
  Se  Se55  1  0.529327  0.171651  0.250057  1
  Se  Se56  1  0.750000  0.750000  0.250000  1
  Se  Se57  1  0.250000  0.250000  0.750000  1
