# generated using pymatgen
data_Ba2LiAlS4
_symmetry_space_group_name_H-M   'P 1'
_cell_length_a   7.08253300
_cell_length_b   8.28961541
_cell_length_c   14.51139389
_cell_angle_alpha   73.34488635
_cell_angle_beta   90.00000000
_cell_angle_gamma   90.00000000
_symmetry_Int_Tables_number   1
_chemical_formula_structural   Ba2LiAlS4
_chemical_formula_sum   'Ba8 Li4 Al4 S16'
_cell_volume   816.24226961
_cell_formula_units_Z   4
loop_
 _symmetry_equiv_pos_site_id
 _symmetry_equiv_pos_as_xyz
  1  'x, y, z'
loop_
 _atom_site_type_symbol
 _atom_site_label
 _atom_site_symmetry_multiplicity
 _atom_site_fract_x
 _atom_site_fract_y
 _atom_site_fract_z
 _atom_site_occupancy
  Ba  Ba0  1  0.781960  0.811486  0.130363  1
  Ba  Ba1  1  0.281960  0.688514  0.369637  1
  Ba  Ba2  1  0.218040  0.188514  0.869637  1
  Ba  Ba3  1  0.718040  0.311486  0.630363  1
  Ba  Ba4  1  0.780717  0.314358  0.121761  1
  Ba  Ba5  1  0.280717  0.185642  0.378239  1
  Ba  Ba6  1  0.219283  0.685642  0.878239  1
  Ba  Ba7  1  0.719283  0.814358  0.621761  1
  Li  Li8  1  0.766261  0.947184  0.358087  1
  Li  Li9  1  0.266261  0.552816  0.141913  1
  Li  Li10  1  0.233739  0.052816  0.641913  1
  Li  Li11  1  0.733739  0.447184  0.858087  1
  Al  Al12  1  0.762305  0.442460  0.360386  1
  Al  Al13  1  0.262305  0.057540  0.139614  1
  Al  Al14  1  0.237695  0.557540  0.639614  1
  Al  Al15  1  0.737695  0.942460  0.860386  1
  S  S16  1  0.244184  0.865386  0.055033  1
  S  S17  1  0.744184  0.634614  0.444967  1
  S  S18  1  0.755816  0.134614  0.944967  1
  S  S19  1  0.255816  0.365386  0.555033  1
  S  S20  1  0.017791  0.486014  0.263601  1
  S  S21  1  0.517791  0.013986  0.236399  1
  S  S22  1  0.982209  0.513986  0.736399  1
  S  S23  1  0.482209  0.986014  0.763601  1
  S  S24  1  0.527199  0.492984  0.249937  1
  S  S25  1  0.027199  0.007016  0.250063  1
  S  S26  1  0.472801  0.507016  0.750063  1
  S  S27  1  0.972801  0.992984  0.749937  1
  S  S28  1  0.741698  0.166283  0.449831  1
  S  S29  1  0.241698  0.333717  0.050169  1
  S  S30  1  0.258302  0.833717  0.550169  1
  S  S31  1  0.758302  0.666283  0.949831  1
