# generated using pymatgen
data_Nb5Se8
_symmetry_space_group_name_H-M   'P 1'
_cell_length_a   6.98084900
_cell_length_b   6.98085012
_cell_length_c   13.34110600
_cell_angle_alpha   90.00000000
_cell_angle_beta   90.00000000
_cell_angle_gamma   120.00000891
_symmetry_Int_Tables_number   1
_chemical_formula_structural   Nb5Se8
_chemical_formula_sum   'Nb10 Se16'
_cell_volume   563.03965739
_cell_formula_units_Z   2
loop_
 _symmetry_equiv_pos_site_id
 _symmetry_equiv_pos_as_xyz
  1  'x, y, z'
loop_
 _atom_site_type_symbol
 _atom_site_label
 _atom_site_symmetry_multiplicity
 _atom_site_fract_x
 _atom_site_fract_y
 _atom_site_fract_z
 _atom_site_occupancy
  Nb  Nb0  1  0.000000  0.000000  0.250000  1
  Nb  Nb1  1  0.000000  0.000000  0.750000  1
  Nb  Nb2  1  0.506427  0.012854  0.250000  1
  Nb  Nb3  1  0.493573  0.987146  0.750000  1
  Nb  Nb4  1  0.987146  0.493573  0.250000  1
  Nb  Nb5  1  0.012854  0.506427  0.750000  1
  Nb  Nb6  1  0.506427  0.493573  0.250000  1
  Nb  Nb7  1  0.493573  0.506427  0.750000  1
  Nb  Nb8  1  0.000000  0.000000  0.000000  1
  Nb  Nb9  1  0.000000  0.000000  0.500000  1
  Se  Se10  1  0.333333  0.666667  0.620395  1
  Se  Se11  1  0.666667  0.333333  0.379605  1
  Se  Se12  1  0.666667  0.333333  0.120395  1
  Se  Se13  1  0.333333  0.666667  0.879605  1
  Se  Se14  1  0.168225  0.336450  0.124269  1
  Se  Se15  1  0.831775  0.663550  0.875731  1
  Se  Se16  1  0.663550  0.831775  0.124269  1
  Se  Se17  1  0.831775  0.663550  0.624269  1
  Se  Se18  1  0.336450  0.168225  0.875731  1
  Se  Se19  1  0.168225  0.336450  0.375731  1
  Se  Se20  1  0.168225  0.831775  0.124269  1
  Se  Se21  1  0.336450  0.168225  0.624269  1
  Se  Se22  1  0.831775  0.168225  0.875731  1
  Se  Se23  1  0.663550  0.831775  0.375731  1
  Se  Se24  1  0.831775  0.168225  0.624269  1
  Se  Se25  1  0.168225  0.831775  0.375731  1
