# generated using pymatgen
data_Ce2PrCo8ReP6
_symmetry_space_group_name_H-M   'P 1'
_cell_length_a   3.78119700
_cell_length_b   10.60219400
_cell_length_c   12.41336600
_cell_angle_alpha   90.00000000
_cell_angle_beta   90.00000000
_cell_angle_gamma   90.00000000
_symmetry_Int_Tables_number   1
_chemical_formula_structural   Ce2PrCo8ReP6
_chemical_formula_sum   'Ce4 Pr2 Co16 Re2 P12'
_cell_volume   497.63923278
_cell_formula_units_Z   2
loop_
 _symmetry_equiv_pos_site_id
 _symmetry_equiv_pos_as_xyz
  1  'x, y, z'
loop_
 _atom_site_type_symbol
 _atom_site_label
 _atom_site_symmetry_multiplicity
 _atom_site_fract_x
 _atom_site_fract_y
 _atom_site_fract_z
 _atom_site_occupancy
  Ce  Ce0  1  0.500000  0.820542  0.207627  1
  Ce  Ce1  1  0.500000  0.179458  0.207627  1
  Ce  Ce2  1  0.000000  0.679458  0.792373  1
  Ce  Ce3  1  0.000000  0.320542  0.792373  1
  Pr  Pr4  1  0.000000  0.500000  0.521015  1
  Pr  Pr5  1  0.500000  0.000000  0.478985  1
  Co  Co6  1  0.500000  0.500000  0.709652  1
  Co  Co7  1  0.000000  0.000000  0.290348  1
  Co  Co8  1  0.000000  0.500000  0.988334  1
  Co  Co9  1  0.500000  0.000000  0.011666  1
  Co  Co10  1  0.500000  0.332202  0.992372  1
  Co  Co11  1  0.500000  0.667798  0.992372  1
  Co  Co12  1  0.000000  0.167798  0.007628  1
  Co  Co13  1  0.000000  0.832202  0.007628  1
  Co  Co14  1  0.500000  0.297952  0.426834  1
  Co  Co15  1  0.500000  0.702048  0.426834  1
  Co  Co16  1  0.000000  0.202048  0.573166  1
  Co  Co17  1  0.000000  0.797952  0.573166  1
  Co  Co18  1  0.500000  0.880434  0.714526  1
  Co  Co19  1  0.500000  0.119566  0.714526  1
  Co  Co20  1  0.000000  0.619566  0.285474  1
  Co  Co21  1  0.000000  0.380434  0.285474  1
  Re  Re22  1  0.500000  0.500000  0.153501  1
  Re  Re23  1  0.000000  0.000000  0.846499  1
  P  P24  1  0.500000  0.500000  0.887513  1
  P  P25  1  0.000000  0.000000  0.112487  1
  P  P26  1  0.500000  0.500000  0.342542  1
  P  P27  1  0.000000  0.000000  0.657458  1
  P  P28  1  0.500000  0.306317  0.614013  1
  P  P29  1  0.500000  0.693683  0.614013  1
  P  P30  1  0.000000  0.193683  0.385987  1
  P  P31  1  0.000000  0.806317  0.385987  1
  P  P32  1  0.500000  0.846017  0.895086  1
  P  P33  1  0.500000  0.153983  0.895086  1
  P  P34  1  0.000000  0.653983  0.104914  1
  P  P35  1  0.000000  0.346017  0.104914  1
