# generated using pymatgen
data_Gd7Tm3Si5Ge
_symmetry_space_group_name_H-M   'P 1'
_cell_length_a   8.42208000
_cell_length_b   8.42181913
_cell_length_c   6.32481600
_cell_angle_alpha   90.00258524
_cell_angle_beta   89.99891151
_cell_angle_gamma   120.01353982
_symmetry_Int_Tables_number   1
_chemical_formula_structural   Gd7Tm3Si5Ge
_chemical_formula_sum   'Gd7 Tm3 Si5 Ge1'
_cell_volume   388.45841122
_cell_formula_units_Z   1
loop_
 _symmetry_equiv_pos_site_id
 _symmetry_equiv_pos_as_xyz
  1  'x, y, z'
loop_
 _atom_site_type_symbol
 _atom_site_label
 _atom_site_symmetry_multiplicity
 _atom_site_fract_x
 _atom_site_fract_y
 _atom_site_fract_z
 _atom_site_occupancy
  Gd  Gd0  1  0.667802  0.332928  0.499210  1
  Gd  Gd1  1  0.756311  0.756309  0.249653  1
  Gd  Gd2  1  0.244543  0.998578  0.249407  1
  Gd  Gd3  1  0.998414  0.244503  0.249486  1
  Gd  Gd4  1  0.245294  0.245196  0.750451  1
  Gd  Gd5  1  0.754723  0.999317  0.750987  1
  Gd  Gd6  1  0.999973  0.755069  0.751033  1
  Tm  Tm7  1  0.332823  0.667611  0.499774  1
  Tm  Tm8  1  0.333004  0.667605  0.000091  1
  Tm  Tm9  1  0.668020  0.333468  0.000018  1
  Si  Si10  1  0.602787  0.997872  0.247137  1
  Si  Si11  1  0.002291  0.605088  0.247264  1
  Si  Si12  1  0.603284  0.605588  0.752583  1
  Si  Si13  1  0.394556  0.997281  0.752752  1
  Si  Si14  1  0.001953  0.396663  0.752857  1
  Ge  Ge15  1  0.394219  0.396925  0.247296  1
