# generated using pymatgen
data_Sm6FeCo15(ReP6)2
_symmetry_space_group_name_H-M   'P 1'
_cell_length_a   3.77080900
_cell_length_b   10.62888300
_cell_length_c   12.33110100
_cell_angle_alpha   90.00000000
_cell_angle_beta   90.00000000
_cell_angle_gamma   90.00000000
_symmetry_Int_Tables_number   1
_chemical_formula_structural   Sm6FeCo15(ReP6)2
_chemical_formula_sum   'Sm6 Fe1 Co15 Re2 P12'
_cell_volume   494.22421057
_cell_formula_units_Z   1
loop_
 _symmetry_equiv_pos_site_id
 _symmetry_equiv_pos_as_xyz
  1  'x, y, z'
loop_
 _atom_site_type_symbol
 _atom_site_label
 _atom_site_symmetry_multiplicity
 _atom_site_fract_x
 _atom_site_fract_y
 _atom_site_fract_z
 _atom_site_occupancy
  Sm  Sm0  1  0.000000  0.500000  0.523123  1
  Sm  Sm1  1  0.500000  0.000000  0.476366  1
  Sm  Sm2  1  0.500000  0.817039  0.205159  1
  Sm  Sm3  1  0.500000  0.182961  0.205159  1
  Sm  Sm4  1  0.000000  0.681270  0.795250  1
  Sm  Sm5  1  0.000000  0.318730  0.795250  1
  Fe  Fe6  1  0.000000  0.500000  0.988117  1
  Co  Co7  1  0.500000  0.500000  0.701401  1
  Co  Co8  1  0.000000  0.000000  0.297979  1
  Co  Co9  1  0.500000  0.000000  0.012195  1
  Co  Co10  1  0.500000  0.330938  0.990684  1
  Co  Co11  1  0.500000  0.669062  0.990684  1
  Co  Co12  1  0.000000  0.166862  0.009380  1
  Co  Co13  1  0.000000  0.833138  0.009380  1
  Co  Co14  1  0.500000  0.296344  0.430787  1
  Co  Co15  1  0.500000  0.703656  0.430787  1
  Co  Co16  1  0.000000  0.203598  0.569830  1
  Co  Co17  1  0.000000  0.796402  0.569830  1
  Co  Co18  1  0.500000  0.880686  0.709847  1
  Co  Co19  1  0.500000  0.119314  0.709847  1
  Co  Co20  1  0.000000  0.619681  0.290324  1
  Co  Co21  1  0.000000  0.380319  0.290324  1
  Re  Re22  1  0.500000  0.500000  0.154141  1
  Re  Re23  1  0.000000  0.000000  0.845075  1
  P  P24  1  0.500000  0.500000  0.883469  1
  P  P25  1  0.000000  0.000000  0.118339  1
  P  P26  1  0.500000  0.500000  0.344935  1
  P  P27  1  0.000000  0.000000  0.654501  1
  P  P28  1  0.500000  0.308767  0.615127  1
  P  P29  1  0.500000  0.691233  0.615127  1
  P  P30  1  0.000000  0.191129  0.384997  1
  P  P31  1  0.000000  0.808871  0.384997  1
  P  P32  1  0.500000  0.847199  0.894057  1
  P  P33  1  0.500000  0.152801  0.894057  1
  P  P34  1  0.000000  0.651992  0.104739  1
  P  P35  1  0.000000  0.348008  0.104739  1
