# generated using pymatgen
data_Li2La2Ge2Pb
_symmetry_space_group_name_H-M   'P 1'
_cell_length_a   10.12579600
_cell_length_b   10.12579646
_cell_length_c   7.08532500
_cell_angle_alpha   90.00000000
_cell_angle_beta   90.00000000
_cell_angle_gamma   153.35652569
_symmetry_Int_Tables_number   1
_chemical_formula_structural   Li2La2Ge2Pb
_chemical_formula_sum   'Li4 La4 Ge4 Pb2'
_cell_volume   325.77667339
_cell_formula_units_Z   2
loop_
 _symmetry_equiv_pos_site_id
 _symmetry_equiv_pos_as_xyz
  1  'x, y, z'
loop_
 _atom_site_type_symbol
 _atom_site_label
 _atom_site_symmetry_multiplicity
 _atom_site_fract_x
 _atom_site_fract_y
 _atom_site_fract_z
 _atom_site_occupancy
  Li  Li0  1  0.183784  0.816216  0.055929  1
  Li  Li1  1  0.183784  0.816216  0.444071  1
  Li  Li2  1  0.816216  0.183784  0.944071  1
  Li  Li3  1  0.816216  0.183784  0.555929  1
  La  La4  1  0.349741  0.650259  0.250000  1
  La  La5  1  0.650259  0.349741  0.750000  1
  La  La6  1  0.548003  0.451997  0.250000  1
  La  La7  1  0.451997  0.548003  0.750000  1
  Ge  Ge8  1  0.059504  0.940496  0.930935  1
  Ge  Ge9  1  0.940496  0.059504  0.069065  1
  Ge  Ge10  1  0.940496  0.059504  0.430935  1
  Ge  Ge11  1  0.059504  0.940496  0.569065  1
  Pb  Pb12  1  0.719699  0.280301  0.250000  1
  Pb  Pb13  1  0.280301  0.719699  0.750000  1
