# generated using pymatgen
data_YHo11Co4BiOs
_symmetry_space_group_name_H-M   'P 1'
_cell_length_a   8.30098344
_cell_length_b   8.30086288
_cell_length_c   8.29245534
_cell_angle_alpha   111.39019289
_cell_angle_beta   110.35262133
_cell_angle_gamma   106.75123263
_symmetry_Int_Tables_number   1
_chemical_formula_structural   YHo11Co4BiOs
_chemical_formula_sum   'Y1 Ho11 Co4 Bi1 Os1'
_cell_volume   438.83321162
_cell_formula_units_Z   1
loop_
 _symmetry_equiv_pos_site_id
 _symmetry_equiv_pos_as_xyz
  1  'x, y, z'
loop_
 _atom_site_type_symbol
 _atom_site_label
 _atom_site_symmetry_multiplicity
 _atom_site_fract_x
 _atom_site_fract_y
 _atom_site_fract_z
 _atom_site_occupancy
  Y  Y0  1  0.818268  0.717557  0.535832  1
  Ho  Ho1  1  0.180559  0.282170  0.462691  1
  Ho  Ho2  1  0.180778  0.717617  0.898363  1
  Ho  Ho3  1  0.819535  0.282235  0.101736  1
  Ho  Ho4  1  0.687574  0.378215  0.690955  1
  Ho  Ho5  1  0.311794  0.621422  0.309059  1
  Ho  Ho6  1  0.687548  0.997067  0.308944  1
  Ho  Ho7  1  0.312642  0.003192  0.690869  1
  Ho  Ho8  1  0.589988  0.786786  0.803925  1
  Ho  Ho9  1  0.409555  0.213261  0.195927  1
  Ho  Ho10  1  0.982698  0.786397  0.195964  1
  Ho  Ho11  1  0.017165  0.213927  0.803929  1
  Co  Co12  1  0.624507  0.000197  0.624676  1
  Co  Co13  1  0.375685  0.000078  0.375746  1
  Co  Co14  1  0.111791  0.610532  0.500103  1
  Co  Co15  1  0.889709  0.388417  0.500119  1
  Bi  Bi16  1  0.500006  0.500102  0.000137  1
  Os  Os17  1  0.000196  0.000828  0.001024  1
