# generated using pymatgen
data_Th4Si7Tc16Ge
_symmetry_space_group_name_H-M   'P 1'
_cell_length_a   4.17027600
_cell_length_b   7.20158112
_cell_length_c   15.72602463
_cell_angle_alpha   90.02253314
_cell_angle_beta   90.00000000
_cell_angle_gamma   90.00000000
_symmetry_Int_Tables_number   1
_chemical_formula_structural   Th4Si7Tc16Ge
_chemical_formula_sum   'Th4 Si7 Tc16 Ge1'
_cell_volume   472.29307060
_cell_formula_units_Z   1
loop_
 _symmetry_equiv_pos_site_id
 _symmetry_equiv_pos_as_xyz
  1  'x, y, z'
loop_
 _atom_site_type_symbol
 _atom_site_label
 _atom_site_symmetry_multiplicity
 _atom_site_fract_x
 _atom_site_fract_y
 _atom_site_fract_z
 _atom_site_occupancy
  Th  Th0  1  0.000000  0.589697  0.116808  1
  Th  Th1  1  0.000000  0.409757  0.882858  1
  Th  Th2  1  0.500000  0.094829  0.381390  1
  Th  Th3  1  0.500000  0.911322  0.619411  1
  Si  Si4  1  0.000000  0.179028  0.528419  1
  Si  Si5  1  0.500000  0.325386  0.026925  1
  Si  Si6  1  0.500000  0.673581  0.972831  1
  Si  Si7  1  0.000000  0.310194  0.272468  1
  Si  Si8  1  0.000000  0.689283  0.726348  1
  Si  Si9  1  0.500000  0.809648  0.225956  1
  Si  Si10  1  0.500000  0.189759  0.774711  1
  Tc  Tc11  1  0.000000  0.140400  0.050824  1
  Tc  Tc12  1  0.000000  0.858049  0.949214  1
  Tc  Tc13  1  0.500000  0.636280  0.447997  1
  Tc  Tc14  1  0.500000  0.358695  0.551481  1
  Tc  Tc15  1  0.000000  0.731613  0.318392  1
  Tc  Tc16  1  0.000000  0.265492  0.680943  1
  Tc  Tc17  1  0.500000  0.234115  0.179323  1
  Tc  Tc18  1  0.500000  0.764961  0.820151  1
  Tc  Tc19  1  0.000000  0.428532  0.420484  1
  Tc  Tc20  1  0.000000  0.567722  0.579324  1
  Tc  Tc21  1  0.500000  0.929281  0.078970  1
  Tc  Tc22  1  0.500000  0.069156  0.921288  1
  Tc  Tc23  1  0.000000  0.002499  0.205381  1
  Tc  Tc24  1  0.000000  0.995178  0.794978  1
  Tc  Tc25  1  0.500000  0.502584  0.293506  1
  Tc  Tc26  1  0.500000  0.495718  0.705961  1
  Ge  Ge27  1  0.000000  0.837243  0.473654  1
