# generated using pymatgen
data_Li4Nd4(SiGe)3
_symmetry_space_group_name_H-M   'P 1'
_cell_length_a   9.56660874
_cell_length_b   9.56660893
_cell_length_c   6.83116461
_cell_angle_alpha   89.95319804
_cell_angle_beta   90.04680051
_cell_angle_gamma   153.14927577
_symmetry_Int_Tables_number   1
_chemical_formula_structural   Li4Nd4(SiGe)3
_chemical_formula_sum   'Li4 Nd4 Si3 Ge3'
_cell_volume   282.37714583
_cell_formula_units_Z   1
loop_
 _symmetry_equiv_pos_site_id
 _symmetry_equiv_pos_as_xyz
  1  'x, y, z'
loop_
 _atom_site_type_symbol
 _atom_site_label
 _atom_site_symmetry_multiplicity
 _atom_site_fract_x
 _atom_site_fract_y
 _atom_site_fract_z
 _atom_site_occupancy
  Li  Li0  1  0.189381  0.810619  0.060284  1
  Li  Li1  1  0.188364  0.811636  0.439528  1
  Li  Li2  1  0.811415  0.188585  0.940087  1
  Li  Li3  1  0.812006  0.187994  0.559555  1
  Nd  Nd4  1  0.344171  0.655829  0.249942  1
  Nd  Nd5  1  0.656252  0.343748  0.746681  1
  Nd  Nd6  1  0.550913  0.449087  0.252785  1
  Nd  Nd7  1  0.447754  0.552246  0.749873  1
  Si  Si8  1  0.940126  0.059874  0.076035  1
  Si  Si9  1  0.941664  0.058336  0.426562  1
  Si  Si10  1  0.058273  0.941727  0.569667  1
  Ge  Ge11  1  0.719582  0.280418  0.249966  1
  Ge  Ge12  1  0.280213  0.719787  0.749959  1
  Ge  Ge13  1  0.059886  0.940114  0.929077  1
