# generated using pymatgen
data_Hf6Co15Si7Pd
_symmetry_space_group_name_H-M   'P 1'
_cell_length_a   8.03799222
_cell_length_b   8.03799071
_cell_length_c   8.04199569
_cell_angle_alpha   60.01647862
_cell_angle_beta   60.01648410
_cell_angle_gamma   60.00000591
_symmetry_Int_Tables_number   1
_chemical_formula_structural   Hf6Co15Si7Pd
_chemical_formula_sum   'Hf6 Co15 Si7 Pd1'
_cell_volume   367.49554901
_cell_formula_units_Z   1
loop_
 _symmetry_equiv_pos_site_id
 _symmetry_equiv_pos_as_xyz
  1  'x, y, z'
loop_
 _atom_site_type_symbol
 _atom_site_label
 _atom_site_symmetry_multiplicity
 _atom_site_fract_x
 _atom_site_fract_y
 _atom_site_fract_z
 _atom_site_occupancy
  Hf  Hf0  1  0.204999  0.797416  0.792587  1
  Hf  Hf1  1  0.799147  0.799147  0.202987  1
  Hf  Hf2  1  0.799147  0.198717  0.202987  1
  Hf  Hf3  1  0.204999  0.204999  0.792587  1
  Hf  Hf4  1  0.797416  0.204999  0.792587  1
  Hf  Hf5  1  0.198717  0.799147  0.202987  1
  Co  Co6  1  0.169123  0.489705  0.172049  1
  Co  Co7  1  0.860178  0.377830  0.384160  1
  Co  Co8  1  0.506732  0.832999  0.827268  1
  Co  Co9  1  0.489705  0.169123  0.172049  1
  Co  Co10  1  0.831517  0.831517  0.505446  1
  Co  Co11  1  0.171857  0.171857  0.484431  1
  Co  Co12  1  0.140037  0.619851  0.620260  1
  Co  Co13  1  0.169123  0.169123  0.172049  1
  Co  Co14  1  0.378341  0.378341  0.864977  1
  Co  Co15  1  0.619851  0.619851  0.620260  1
  Co  Co16  1  0.377830  0.860178  0.384160  1
  Co  Co17  1  0.377830  0.377830  0.384160  1
  Co  Co18  1  0.832999  0.832999  0.827268  1
  Co  Co19  1  0.619851  0.140037  0.620260  1
  Co  Co20  1  0.832999  0.506732  0.827268  1
  Si  Si21  1  0.501749  0.999081  0.500089  1
  Si  Si22  1  0.498614  0.498614  0.992385  1
  Si  Si23  1  0.493751  0.493751  0.518745  1
  Si  Si24  1  0.999081  0.999081  0.500089  1
  Si  Si25  1  0.010385  0.498614  0.992385  1
  Si  Si26  1  0.999081  0.501749  0.500089  1
  Si  Si27  1  0.498614  0.010385  0.992385  1
  Pd  Pd28  1  0.616320  0.616320  0.151039  1
