# generated using pymatgen
data_NaPr7Te8
_symmetry_space_group_name_H-M   'P 1'
_cell_length_a   9.05422331
_cell_length_b   9.05422331
_cell_length_c   9.05532601
_cell_angle_alpha   60.00402289
_cell_angle_beta   60.00401937
_cell_angle_gamma   60.00000081
_symmetry_Int_Tables_number   1
_chemical_formula_structural   NaPr7Te8
_chemical_formula_sum   'Na1 Pr7 Te8'
_cell_volume   524.94994218
_cell_formula_units_Z   1
loop_
 _symmetry_equiv_pos_site_id
 _symmetry_equiv_pos_as_xyz
  1  'x, y, z'
loop_
 _atom_site_type_symbol
 _atom_site_label
 _atom_site_symmetry_multiplicity
 _atom_site_fract_x
 _atom_site_fract_y
 _atom_site_fract_z
 _atom_site_occupancy
  Na  Na0  1  0.125000  0.125000  0.625000  1
  Pr  Pr1  1  0.625000  0.125000  0.625000  1
  Pr  Pr2  1  0.625000  0.625000  0.625000  1
  Pr  Pr3  1  0.125000  0.625000  0.625000  1
  Pr  Pr4  1  0.625000  0.625000  0.125000  1
  Pr  Pr5  1  0.125000  0.625000  0.125000  1
  Pr  Pr6  1  0.625000  0.125000  0.125000  1
  Pr  Pr7  1  0.125000  0.125000  0.125000  1
  Te  Te8  1  0.372027  0.878243  0.377702  1
  Te  Te9  1  0.877973  0.371757  0.872298  1
  Te  Te10  1  0.875132  0.875132  0.374603  1
  Te  Te11  1  0.877973  0.877973  0.872298  1
  Te  Te12  1  0.878243  0.372027  0.377702  1
  Te  Te13  1  0.374868  0.374868  0.875397  1
  Te  Te14  1  0.372027  0.372027  0.377702  1
  Te  Te15  1  0.371757  0.877973  0.872298  1
