# generated using pymatgen
data_Y18Sc2Cd6FeNi
_symmetry_space_group_name_H-M   'P 1'
_cell_length_a   9.57086300
_cell_length_b   9.57086455
_cell_length_c   9.68537900
_cell_angle_alpha   90.00000000
_cell_angle_beta   90.00000000
_cell_angle_gamma   119.99999808
_symmetry_Int_Tables_number   1
_chemical_formula_structural   Y18Sc2Cd6FeNi
_chemical_formula_sum   'Y18 Sc2 Cd6 Fe1 Ni1'
_cell_volume   768.33307635
_cell_formula_units_Z   1
loop_
 _symmetry_equiv_pos_site_id
 _symmetry_equiv_pos_as_xyz
  1  'x, y, z'
loop_
 _atom_site_type_symbol
 _atom_site_label
 _atom_site_symmetry_multiplicity
 _atom_site_fract_x
 _atom_site_fract_y
 _atom_site_fract_z
 _atom_site_occupancy
  Y  Y0  1  0.541371  0.458629  0.250000  1
  Y  Y1  1  0.541371  0.082742  0.250000  1
  Y  Y2  1  0.917258  0.458629  0.250000  1
  Y  Y3  1  0.456618  0.543382  0.750000  1
  Y  Y4  1  0.456618  0.913235  0.750000  1
  Y  Y5  1  0.086765  0.543382  0.750000  1
  Y  Y6  1  0.210259  0.789741  0.437083  1
  Y  Y7  1  0.210259  0.420521  0.437083  1
  Y  Y8  1  0.579479  0.789741  0.437083  1
  Y  Y9  1  0.791553  0.208447  0.561579  1
  Y  Y10  1  0.791553  0.583104  0.561579  1
  Y  Y11  1  0.416896  0.208447  0.561579  1
  Y  Y12  1  0.791553  0.208447  0.938421  1
  Y  Y13  1  0.791553  0.583104  0.938421  1
  Y  Y14  1  0.416896  0.208447  0.938421  1
  Y  Y15  1  0.210259  0.789741  0.062917  1
  Y  Y16  1  0.210259  0.420521  0.062917  1
  Y  Y17  1  0.579479  0.789741  0.062917  1
  Sc  Sc18  1  0.000000  0.000000  0.499421  1
  Sc  Sc19  1  0.000000  0.000000  0.000579  1
  Cd  Cd20  1  0.888987  0.111013  0.250000  1
  Cd  Cd21  1  0.888987  0.777974  0.250000  1
  Cd  Cd22  1  0.222026  0.111013  0.250000  1
  Cd  Cd23  1  0.111126  0.888874  0.750000  1
  Cd  Cd24  1  0.111126  0.222252  0.750000  1
  Cd  Cd25  1  0.777748  0.888874  0.750000  1
  Fe  Fe26  1  0.333333  0.666667  0.250000  1
  Ni  Ni27  1  0.666667  0.333333  0.750000  1
