# generated using pymatgen
data_La3In2Pt3Au
_symmetry_space_group_name_H-M   'P 1'
_cell_length_a   7.79264030
_cell_length_b   7.79264009
_cell_length_c   4.01982600
_cell_angle_alpha   90.00000000
_cell_angle_beta   90.00000000
_cell_angle_gamma   118.01484649
_symmetry_Int_Tables_number   1
_chemical_formula_structural   La3In2Pt3Au
_chemical_formula_sum   'La3 In2 Pt3 Au1'
_cell_volume   215.50213460
_cell_formula_units_Z   1
loop_
 _symmetry_equiv_pos_site_id
 _symmetry_equiv_pos_as_xyz
  1  'x, y, z'
loop_
 _atom_site_type_symbol
 _atom_site_label
 _atom_site_symmetry_multiplicity
 _atom_site_fract_x
 _atom_site_fract_y
 _atom_site_fract_z
 _atom_site_occupancy
  La  La0  1  0.421372  0.421372  0.500000  1
  La  La1  1  0.988341  0.598517  0.500000  1
  La  La2  1  0.598517  0.988341  0.500000  1
  In  In3  1  0.254646  0.002586  0.000000  1
  In  In4  1  0.002586  0.254646  0.000000  1
  Pt  Pt5  1  0.659746  0.313233  0.000000  1
  Pt  Pt6  1  0.313233  0.659746  0.000000  1
  Pt  Pt7  1  0.018731  0.018731  0.500000  1
  Au  Au8  1  0.742829  0.742829  0.000000  1
