# generated using pymatgen
data_Tb8Ga12CoNi3
_symmetry_space_group_name_H-M   'P 1'
_cell_length_a   7.06217400
_cell_length_b   8.76441112
_cell_length_c   8.76441100
_cell_angle_alpha   119.99999578
_cell_angle_beta   90.00000000
_cell_angle_gamma   90.00000000
_symmetry_Int_Tables_number   1
_chemical_formula_structural   Tb8Ga12CoNi3
_chemical_formula_sum   'Tb8 Ga12 Co1 Ni3'
_cell_volume   469.80165261
_cell_formula_units_Z   1
loop_
 _symmetry_equiv_pos_site_id
 _symmetry_equiv_pos_as_xyz
  1  'x, y, z'
loop_
 _atom_site_type_symbol
 _atom_site_label
 _atom_site_symmetry_multiplicity
 _atom_site_fract_x
 _atom_site_fract_y
 _atom_site_fract_z
 _atom_site_occupancy
  Tb  Tb0  1  0.748333  0.000000  0.000000  1
  Tb  Tb1  1  0.249761  0.000000  0.000000  1
  Tb  Tb2  1  0.750387  0.478524  0.521476  1
  Tb  Tb3  1  0.252798  0.524476  0.475524  1
  Tb  Tb4  1  0.750387  0.042954  0.521476  1
  Tb  Tb5  1  0.252798  0.951049  0.475524  1
  Tb  Tb6  1  0.750387  0.478524  0.957046  1
  Tb  Tb7  1  0.252798  0.524476  0.048951  1
  Ga  Ga8  1  0.954536  0.828830  0.171170  1
  Ga  Ga9  1  0.047127  0.171866  0.828134  1
  Ga  Ga10  1  0.954536  0.342341  0.171170  1
  Ga  Ga11  1  0.454415  0.171541  0.828459  1
  Ga  Ga12  1  0.047127  0.656266  0.828134  1
  Ga  Ga13  1  0.545626  0.827370  0.172630  1
  Ga  Ga14  1  0.954536  0.828830  0.657659  1
  Ga  Ga15  1  0.454415  0.656918  0.828459  1
  Ga  Ga16  1  0.047127  0.171866  0.343734  1
  Ga  Ga17  1  0.545626  0.345261  0.172630  1
  Ga  Ga18  1  0.454415  0.171541  0.343082  1
  Ga  Ga19  1  0.545626  0.827370  0.654739  1
  Co  Co20  1  0.517233  0.666667  0.333333  1
  Ni  Ni21  1  0.969036  0.666667  0.333333  1
  Ni  Ni22  1  0.028735  0.333333  0.666667  1
  Ni  Ni23  1  0.472232  0.333333  0.666667  1
