# generated using pymatgen
data_La3PrRu4F28
_symmetry_space_group_name_H-M   'P 1'
_cell_length_a   5.76794524
_cell_length_b   9.34752584
_cell_length_c   12.39338724
_cell_angle_alpha   62.62854690
_cell_angle_beta   90.00797486
_cell_angle_gamma   89.86655359
_symmetry_Int_Tables_number   1
_chemical_formula_structural   La3PrRu4F28
_chemical_formula_sum   'La3 Pr1 Ru4 F28'
_cell_volume   593.39106359
_cell_formula_units_Z   1
loop_
 _symmetry_equiv_pos_site_id
 _symmetry_equiv_pos_as_xyz
  1  'x, y, z'
loop_
 _atom_site_type_symbol
 _atom_site_label
 _atom_site_symmetry_multiplicity
 _atom_site_fract_x
 _atom_site_fract_y
 _atom_site_fract_z
 _atom_site_occupancy
  La  La0  1  0.258350  0.190031  0.231719  1
  La  La1  1  0.241546  0.192126  0.731415  1
  La  La2  1  0.741985  0.807285  0.768782  1
  Pr  Pr3  1  0.758563  0.806281  0.268886  1
  Ru  Ru4  1  0.245982  0.726437  0.543242  1
  Ru  Ru5  1  0.745918  0.272688  0.956246  1
  Ru  Ru6  1  0.754178  0.275365  0.454836  1
  Ru  Ru7  1  0.254419  0.726123  0.045617  1
  F  F8  1  0.965228  0.713812  0.455639  1
  F  F9  1  0.465606  0.286677  0.042553  1
  F  F10  1  0.034394  0.287721  0.541966  1
  F  F11  1  0.533479  0.713149  0.958039  1
  F  F12  1  0.056190  0.707466  0.923586  1
  F  F13  1  0.556661  0.293192  0.577184  1
  F  F14  1  0.943794  0.292717  0.077672  1
  F  F15  1  0.446195  0.708325  0.421221  1
  F  F16  1  0.739990  0.502503  0.863209  1
  F  F17  1  0.239562  0.496930  0.636050  1
  F  F18  1  0.259987  0.496717  0.137693  1
  F  F19  1  0.760321  0.505767  0.362316  1
  F  F20  1  0.741898  0.043528  0.047244  1
  F  F21  1  0.242182  0.955431  0.454182  1
  F  F22  1  0.258012  0.955116  0.955069  1
  F  F23  1  0.757666  0.046321  0.544949  1
  F  F24  1  0.048697  0.744928  0.666578  1
  F  F25  1  0.549448  0.254218  0.832819  1
  F  F26  1  0.950927  0.255790  0.332080  1
  F  F27  1  0.452817  0.745897  0.168187  1
  F  F28  1  0.022336  0.266449  0.865287  1
  F  F29  1  0.521344  0.733362  0.634495  1
  F  F30  1  0.977893  0.734011  0.136513  1
  F  F31  1  0.478022  0.267214  0.364633  1
  F  F32  1  0.080800  0.970183  0.231993  1
  F  F33  1  0.583655  0.026672  0.268124  1
  F  F34  1  0.915793  0.028595  0.768399  1
  F  F35  1  0.416160  0.970970  0.731576  1
