# generated using pymatgen
data_Sc6AlAs5Ru6
_symmetry_space_group_name_H-M   'P 1'
_cell_length_a   7.71498840
_cell_length_b   7.72104743
_cell_length_c   7.71498877
_cell_angle_alpha   127.91847904
_cell_angle_beta   122.43228539
_cell_angle_gamma   81.30318313
_symmetry_Int_Tables_number   1
_chemical_formula_structural   Sc6AlAs5Ru6
_chemical_formula_sum   'Sc6 Al1 As5 Ru6'
_cell_volume   294.81220810
_cell_formula_units_Z   1
loop_
 _symmetry_equiv_pos_site_id
 _symmetry_equiv_pos_as_xyz
  1  'x, y, z'
loop_
 _atom_site_type_symbol
 _atom_site_label
 _atom_site_symmetry_multiplicity
 _atom_site_fract_x
 _atom_site_fract_y
 _atom_site_fract_z
 _atom_site_occupancy
  Sc  Sc0  1  0.460990  0.678017  0.717028  1
  Sc  Sc1  1  0.536907  0.254500  0.217592  1
  Sc  Sc2  1  0.748171  0.841398  0.593227  1
  Sc  Sc3  1  0.250991  0.841358  0.090366  1
  Sc  Sc4  1  0.052204  0.253837  0.701631  1
  Sc  Sc5  1  0.949831  0.653609  0.203778  1
  Al  Al6  1  0.263009  0.263652  0.500645  1
  As  As7  1  0.737592  0.240849  0.003257  1
  As  As8  1  0.331395  0.586130  0.251807  1
  As  As9  1  0.668564  0.920497  0.255523  1
  As  As10  1  0.164975  0.920497  0.751934  1
  As  As11  1  0.834322  0.586130  0.754734  1
  Ru  Ru12  1  0.503344  0.499759  0.002957  1
  Ru  Ru13  1  0.996802  0.499759  0.496415  1
  Ru  Ru14  1  0.105618  0.253234  0.111737  1
  Ru  Ru15  1  0.888129  0.006569  0.140911  1
  Ru  Ru16  1  0.365659  0.006569  0.618440  1
  Ru  Ru17  1  0.641497  0.253234  0.647616  1
