# generated using pymatgen
data_LaTh3Mg2Si3Ge
_symmetry_space_group_name_H-M   'P 1'
_cell_length_a   7.35139985
_cell_length_b   7.35892075
_cell_length_c   4.44671900
_cell_angle_alpha   90.00000000
_cell_angle_beta   90.00000000
_cell_angle_gamma   90.41019971
_symmetry_Int_Tables_number   1
_chemical_formula_structural   LaTh3Mg2Si3Ge
_chemical_formula_sum   'La1 Th3 Mg2 Si3 Ge1'
_cell_volume   240.55407979
_cell_formula_units_Z   1
loop_
 _symmetry_equiv_pos_site_id
 _symmetry_equiv_pos_as_xyz
  1  'x, y, z'
loop_
 _atom_site_type_symbol
 _atom_site_label
 _atom_site_symmetry_multiplicity
 _atom_site_fract_x
 _atom_site_fract_y
 _atom_site_fract_z
 _atom_site_occupancy
  La  La0  1  0.818481  0.679446  0.500000  1
  Th  Th1  1  0.677537  0.178956  0.500000  1
  Th  Th2  1  0.323298  0.824724  0.500000  1
  Th  Th3  1  0.179797  0.317414  0.500000  1
  Mg  Mg4  1  0.999081  0.001719  0.000000  1
  Mg  Mg5  1  0.501580  0.499421  0.000000  1
  Si  Si6  1  0.882706  0.374989  0.000000  1
  Si  Si7  1  0.612272  0.887672  0.000000  1
  Si  Si8  1  0.381466  0.118259  0.000000  1
  Ge  Ge9  1  0.123781  0.617401  0.000000  1
