# generated using pymatgen
data_AcCe3(Si5Os3)2
_symmetry_space_group_name_H-M   'P 1'
_cell_length_a   8.23607817
_cell_length_b   8.25462100
_cell_length_c   5.89508524
_cell_angle_alpha   70.30692857
_cell_angle_beta   70.43542915
_cell_angle_gamma   93.55312728
_symmetry_Int_Tables_number   1
_chemical_formula_structural   AcCe3(Si5Os3)2
_chemical_formula_sum   'Ac1 Ce3 Si10 Os6'
_cell_volume   348.58285580
_cell_formula_units_Z   1
loop_
 _symmetry_equiv_pos_site_id
 _symmetry_equiv_pos_as_xyz
  1  'x, y, z'
loop_
 _atom_site_type_symbol
 _atom_site_label
 _atom_site_symmetry_multiplicity
 _atom_site_fract_x
 _atom_site_fract_y
 _atom_site_fract_z
 _atom_site_occupancy
  Ac  Ac0  1  0.602901  0.865755  0.257630  1
  Ce  Ce1  1  0.866286  0.601024  0.760300  1
  Ce  Ce2  1  0.397800  0.132519  0.742779  1
  Ce  Ce3  1  0.131795  0.401228  0.240317  1
  Si  Si4  1  0.060140  0.259952  0.834406  1
  Si  Si5  1  0.742491  0.940050  0.661897  1
  Si  Si6  1  0.945809  0.736764  0.163275  1
  Si  Si7  1  0.259402  0.065436  0.335827  1
  Si  Si8  1  0.206539  0.789656  0.754830  1
  Si  Si9  1  0.794864  0.211644  0.247567  1
  Si  Si10  1  0.509899  0.484508  0.754176  1
  Si  Si11  1  0.484669  0.508142  0.251011  1
  Si  Si12  1  0.772938  0.231513  0.746657  1
  Si  Si13  1  0.222551  0.770525  0.249095  1
  Os  Os14  1  0.251366  0.540370  0.635920  1
  Os  Os15  1  0.457589  0.742690  0.868858  1
  Os  Os16  1  0.744332  0.457153  0.365721  1
  Os  Os17  1  0.540905  0.257714  0.135507  1
  Os  Os18  1  0.007136  0.997874  0.746715  1
  Os  Os19  1  0.000589  0.005486  0.247514  1
