# generated using pymatgen
data_La12Ge(PBr4)3
_symmetry_space_group_name_H-M   'P 1'
_cell_length_a   10.53783274
_cell_length_b   10.53788565
_cell_length_c   10.53747205
_cell_angle_alpha   109.34083461
_cell_angle_beta   109.35063057
_cell_angle_gamma   109.34984032
_symmetry_Int_Tables_number   1
_chemical_formula_structural   La12Ge(PBr4)3
_chemical_formula_sum   'La12 Ge1 P3 Br12'
_cell_volume   904.89698092
_cell_formula_units_Z   1
loop_
 _symmetry_equiv_pos_site_id
 _symmetry_equiv_pos_as_xyz
  1  'x, y, z'
loop_
 _atom_site_type_symbol
 _atom_site_label
 _atom_site_symmetry_multiplicity
 _atom_site_fract_x
 _atom_site_fract_y
 _atom_site_fract_z
 _atom_site_occupancy
  La  La0  1  0.478125  0.493871  0.236035  1
  La  La1  1  0.749990  0.236058  0.263944  1
  La  La2  1  0.750005  0.013658  0.486335  1
  La  La3  1  0.235996  0.478080  0.493853  1
  La  La4  1  0.263962  0.750023  0.236046  1
  La  La5  1  0.021882  0.263984  0.006144  1
  La  La6  1  0.006183  0.021921  0.264019  1
  La  La7  1  0.486322  0.749986  0.013664  1
  La  La8  1  0.493811  0.235991  0.478070  1
  La  La9  1  0.013664  0.486330  0.750005  1
  La  La10  1  0.264004  0.006162  0.021910  1
  La  La11  1  0.236033  0.263937  0.749969  1
  Ge  Ge12  1  0.249999  0.250004  0.249994  1
  P  P13  1  0.500887  0.999120  0.250001  1
  P  P14  1  0.999110  0.249998  0.500879  1
  P  P15  1  0.250001  0.500876  0.999122  1
  Br  Br16  1  0.249999  0.755306  0.744696  1
  Br  Br17  1  0.508792  0.504659  0.754793  1
  Br  Br18  1  0.991210  0.745209  0.995341  1
  Br  Br19  1  0.744709  0.250001  0.755308  1
  Br  Br20  1  0.995341  0.991220  0.745206  1
  Br  Br21  1  0.249997  0.995495  0.504509  1
  Br  Br22  1  0.754780  0.508776  0.504651  1
  Br  Br23  1  0.504511  0.250001  0.995499  1
  Br  Br24  1  0.755300  0.744697  0.249998  1
  Br  Br25  1  0.745224  0.995342  0.991219  1
  Br  Br26  1  0.995488  0.504500  0.249998  1
  Br  Br27  1  0.504672  0.754796  0.508791  1
