# generated using pymatgen
data_Hf9Zr9(Si8W)2
_symmetry_space_group_name_H-M   'P 1'
_cell_length_a   7.04049971
_cell_length_b   7.04049625
_cell_length_c   12.88460602
_cell_angle_alpha   89.95818193
_cell_angle_beta   90.04868640
_cell_angle_gamma   89.80393086
_symmetry_Int_Tables_number   1
_chemical_formula_structural   Hf9Zr9(Si8W)2
_chemical_formula_sum   'Hf9 Zr9 Si16 W2'
_cell_volume   638.66789291
_cell_formula_units_Z   1
loop_
 _symmetry_equiv_pos_site_id
 _symmetry_equiv_pos_as_xyz
  1  'x, y, z'
loop_
 _atom_site_type_symbol
 _atom_site_label
 _atom_site_symmetry_multiplicity
 _atom_site_fract_x
 _atom_site_fract_y
 _atom_site_fract_z
 _atom_site_occupancy
  Hf  Hf0  1  0.824692  0.824702  0.500066  1
  Hf  Hf1  1  0.175251  0.175137  0.999809  1
  Hf  Hf2  1  0.502549  0.644406  0.626819  1
  Hf  Hf3  1  0.852605  0.002537  0.875075  1
  Hf  Hf4  1  0.147251  0.997087  0.375459  1
  Hf  Hf5  1  0.644345  0.502844  0.373473  1
  Hf  Hf6  1  0.355238  0.497608  0.872846  1
  Hf  Hf7  1  0.002810  0.852531  0.124781  1
  Hf  Hf8  1  0.997129  0.147501  0.624751  1
  Zr  Zr9  1  0.496265  0.152779  0.531382  1
  Zr  Zr10  1  0.503740  0.847792  0.031454  1
  Zr  Zr11  1  0.653743  0.001444  0.283118  1
  Zr  Zr12  1  0.346427  0.997982  0.782750  1
  Zr  Zr13  1  0.847623  0.503839  0.968375  1
  Zr  Zr14  1  0.152848  0.496310  0.468774  1
  Zr  Zr15  1  0.001852  0.653570  0.717143  1
  Zr  Zr16  1  0.998585  0.346583  0.217100  1
  Zr  Zr17  1  0.497755  0.355357  0.126684  1
  Si  Si18  1  0.796951  0.145468  0.070694  1
  Si  Si19  1  0.204098  0.854209  0.571130  1
  Si  Si20  1  0.646177  0.701847  0.821867  1
  Si  Si21  1  0.353558  0.297862  0.322450  1
  Si  Si22  1  0.854059  0.204150  0.428949  1
  Si  Si23  1  0.145824  0.795828  0.928915  1
  Si  Si24  1  0.702635  0.647041  0.178505  1
  Si  Si25  1  0.297963  0.353723  0.678027  1
  Si  Si26  1  0.551885  0.201467  0.933424  1
  Si  Si27  1  0.448200  0.798178  0.434214  1
  Si  Si28  1  0.696988  0.955709  0.685973  1
  Si  Si29  1  0.302663  0.043122  0.186331  1
  Si  Si30  1  0.798158  0.448252  0.565928  1
  Si  Si31  1  0.200970  0.552318  0.065541  1
  Si  Si32  1  0.955574  0.696956  0.314012  1
  Si  Si33  1  0.044280  0.303013  0.813903  1
  W  W34  1  0.675351  0.324670  0.749856  1
  W  W35  1  0.323956  0.676176  0.250422  1
