# generated using pymatgen
data_HoLu9(Bi2Rh)2
_symmetry_space_group_name_H-M   'P 1'
_cell_length_a   7.84069230
_cell_length_b   8.79145392
_cell_length_c   12.23541400
_cell_angle_alpha   90.01505476
_cell_angle_beta   89.94740068
_cell_angle_gamma   89.96531619
_symmetry_Int_Tables_number   1
_chemical_formula_structural   HoLu9(Bi2Rh)2
_chemical_formula_sum   'Ho2 Lu18 Bi8 Rh4'
_cell_volume   843.39982397
_cell_formula_units_Z   2
loop_
 _symmetry_equiv_pos_site_id
 _symmetry_equiv_pos_as_xyz
  1  'x, y, z'
loop_
 _atom_site_type_symbol
 _atom_site_label
 _atom_site_symmetry_multiplicity
 _atom_site_fract_x
 _atom_site_fract_y
 _atom_site_fract_z
 _atom_site_occupancy
  Ho  Ho0  1  0.821300  0.455534  0.067058  1
  Ho  Ho1  1  0.178700  0.544466  0.932942  1
  Lu  Lu2  1  0.835871  0.750961  0.791041  1
  Lu  Lu3  1  0.164129  0.249039  0.208959  1
  Lu  Lu4  1  0.337081  0.250019  0.707636  1
  Lu  Lu5  1  0.662919  0.749981  0.292364  1
  Lu  Lu6  1  0.378534  0.749055  0.690645  1
  Lu  Lu7  1  0.621466  0.250945  0.309355  1
  Lu  Lu8  1  0.879019  0.247703  0.808841  1
  Lu  Lu9  1  0.120981  0.752297  0.191159  1
  Lu  Lu10  1  0.946922  0.750182  0.500651  1
  Lu  Lu11  1  0.053078  0.249818  0.499349  1
  Lu  Lu12  1  0.448340  0.247138  0.999782  1
  Lu  Lu13  1  0.551660  0.752862  0.000218  1
  Lu  Lu14  1  0.675253  0.045772  0.566022  1
  Lu  Lu15  1  0.324747  0.954228  0.433978  1
  Lu  Lu16  1  0.174757  0.953453  0.932484  1
  Lu  Lu17  1  0.325232  0.545848  0.434035  1
  Lu  Lu18  1  0.825243  0.046547  0.067516  1
  Lu  Lu19  1  0.674768  0.454152  0.565965  1
  Bi  Bi20  1  0.569637  0.488663  0.827561  1
  Bi  Bi21  1  0.430363  0.511337  0.172439  1
  Bi  Bi22  1  0.065827  0.510128  0.672691  1
  Bi  Bi23  1  0.433519  0.989600  0.173991  1
  Bi  Bi24  1  0.934173  0.489872  0.327309  1
  Bi  Bi25  1  0.566481  0.010400  0.826009  1
  Bi  Bi26  1  0.932516  0.010829  0.327739  1
  Bi  Bi27  1  0.067484  0.989171  0.672261  1
  Rh  Rh28  1  0.576807  0.749912  0.509890  1
  Rh  Rh29  1  0.423193  0.250088  0.490110  1
  Rh  Rh30  1  0.078199  0.247248  0.990010  1
  Rh  Rh31  1  0.921801  0.752752  0.009990  1
