# generated using pymatgen
data_LaPr3HgIr
_symmetry_space_group_name_H-M   'P 1'
_cell_length_a   10.04598903
_cell_length_b   10.04598814
_cell_length_c   10.04598800
_cell_angle_alpha   60.00000045
_cell_angle_beta   60.00000338
_cell_angle_gamma   60.00000123
_symmetry_Int_Tables_number   1
_chemical_formula_structural   LaPr3HgIr
_chemical_formula_sum   'La4 Pr12 Hg4 Ir4'
_cell_volume   716.90735215
_cell_formula_units_Z   4
loop_
 _symmetry_equiv_pos_site_id
 _symmetry_equiv_pos_as_xyz
  1  'x, y, z'
loop_
 _atom_site_type_symbol
 _atom_site_label
 _atom_site_symmetry_multiplicity
 _atom_site_fract_x
 _atom_site_fract_y
 _atom_site_fract_z
 _atom_site_occupancy
  La  La0  1  0.348511  0.348511  0.348511  1
  La  La1  1  0.348511  0.348511  0.954465  1
  La  La2  1  0.348511  0.954465  0.348511  1
  La  La3  1  0.954465  0.348511  0.348511  1
  Pr  Pr4  1  0.809656  0.190344  0.190344  1
  Pr  Pr5  1  0.190344  0.809656  0.809656  1
  Pr  Pr6  1  0.190344  0.809656  0.190344  1
  Pr  Pr7  1  0.809656  0.190344  0.809656  1
  Pr  Pr8  1  0.190344  0.190344  0.809656  1
  Pr  Pr9  1  0.809656  0.809656  0.190344  1
  Pr  Pr10  1  0.938194  0.561806  0.561806  1
  Pr  Pr11  1  0.561806  0.938194  0.938194  1
  Pr  Pr12  1  0.561806  0.938194  0.561806  1
  Pr  Pr13  1  0.938194  0.561806  0.938194  1
  Pr  Pr14  1  0.561806  0.561806  0.938194  1
  Pr  Pr15  1  0.938194  0.938194  0.561806  1
  Hg  Hg16  1  0.583560  0.583560  0.583560  1
  Hg  Hg17  1  0.583560  0.583560  0.249317  1
  Hg  Hg18  1  0.583560  0.249317  0.583560  1
  Hg  Hg19  1  0.249317  0.583560  0.583560  1
  Ir  Ir20  1  0.142230  0.142230  0.142230  1
  Ir  Ir21  1  0.142230  0.142230  0.573310  1
  Ir  Ir22  1  0.142230  0.573310  0.142230  1
  Ir  Ir23  1  0.573310  0.142230  0.142230  1
