# generated using pymatgen
data_Tm6Lu2Ta11Si16Mo
_symmetry_space_group_name_H-M   'P 1'
_cell_length_a   6.79926744
_cell_length_b   6.99435150
_cell_length_c   13.25863447
_cell_angle_alpha   90.01109174
_cell_angle_beta   89.96692463
_cell_angle_gamma   89.94815597
_symmetry_Int_Tables_number   1
_chemical_formula_structural   Tm6Lu2Ta11Si16Mo
_chemical_formula_sum   'Tm6 Lu2 Ta11 Si16 Mo1'
_cell_volume   630.53342956
_cell_formula_units_Z   1
loop_
 _symmetry_equiv_pos_site_id
 _symmetry_equiv_pos_as_xyz
  1  'x, y, z'
loop_
 _atom_site_type_symbol
 _atom_site_label
 _atom_site_symmetry_multiplicity
 _atom_site_fract_x
 _atom_site_fract_y
 _atom_site_fract_z
 _atom_site_occupancy
  Tm  Tm0  1  0.502774  0.328659  0.095511  1
  Tm  Tm1  1  0.001179  0.172273  0.404621  1
  Tm  Tm2  1  0.497062  0.672502  0.594892  1
  Tm  Tm3  1  0.997994  0.828863  0.904526  1
  Tm  Tm4  1  0.497648  0.671468  0.904082  1
  Tm  Tm5  1  0.998350  0.827993  0.595366  1
  Lu  Lu6  1  0.501890  0.328207  0.405412  1
  Lu  Lu7  1  0.002199  0.172480  0.096140  1
  Ta  Ta8  1  0.838209  0.325850  0.624420  1
  Ta  Ta9  1  0.337535  0.174667  0.873759  1
  Ta  Ta10  1  0.163527  0.674180  0.125447  1
  Ta  Ta11  1  0.661656  0.826767  0.375231  1
  Ta  Ta12  1  0.165908  0.674263  0.376240  1
  Ta  Ta13  1  0.663789  0.825882  0.125411  1
  Ta  Ta14  1  0.836798  0.325200  0.873456  1
  Ta  Ta15  1  0.661632  0.008392  0.748955  1
  Ta  Ta16  1  0.160647  0.491563  0.749450  1
  Ta  Ta17  1  0.338537  0.993319  0.250425  1
  Ta  Ta18  1  0.838452  0.507780  0.250445  1
  Si  Si19  1  0.661903  0.037200  0.541693  1
  Si  Si20  1  0.164547  0.463756  0.959048  1
  Si  Si21  1  0.334372  0.965246  0.041204  1
  Si  Si22  1  0.834665  0.535784  0.458714  1
  Si  Si23  1  0.333831  0.966252  0.460787  1
  Si  Si24  1  0.835370  0.535052  0.040801  1
  Si  Si25  1  0.664881  0.035888  0.959509  1
  Si  Si26  1  0.166644  0.459589  0.542069  1
  Si  Si27  1  0.538115  0.378171  0.747498  1
  Si  Si28  1  0.042430  0.120324  0.748793  1
  Si  Si29  1  0.460824  0.619430  0.250314  1
  Si  Si30  1  0.960484  0.879664  0.250531  1
  Si  Si31  1  0.793738  0.631035  0.749696  1
  Si  Si32  1  0.296195  0.869569  0.749668  1
  Si  Si33  1  0.205430  0.368278  0.250548  1
  Si  Si34  1  0.704480  0.132603  0.250035  1
  Mo  Mo35  1  0.336308  0.171851  0.625300  1
