# generated using pymatgen
data_RbSnAuSe3
_symmetry_space_group_name_H-M   'P 1'
_cell_length_a   8.83764800
_cell_length_b   8.83764800
_cell_length_c   20.29440200
_cell_angle_alpha   90.00000000
_cell_angle_beta   90.00000000
_cell_angle_gamma   90.00000000
_symmetry_Int_Tables_number   1
_chemical_formula_structural   RbSnAuSe3
_chemical_formula_sum   'Rb8 Sn8 Au8 Se24'
_cell_volume   1585.07442377
_cell_formula_units_Z   8
loop_
 _symmetry_equiv_pos_site_id
 _symmetry_equiv_pos_as_xyz
  1  'x, y, z'
loop_
 _atom_site_type_symbol
 _atom_site_label
 _atom_site_symmetry_multiplicity
 _atom_site_fract_x
 _atom_site_fract_y
 _atom_site_fract_z
 _atom_site_occupancy
  Rb  Rb0  1  0.000000  0.000000  0.104197  1
  Rb  Rb1  1  0.500000  0.500000  0.235651  1
  Rb  Rb2  1  0.500000  0.500000  0.737032  1
  Rb  Rb3  1  0.000000  0.000000  0.396583  1
  Rb  Rb4  1  0.000000  0.000000  0.897825  1
  Rb  Rb5  1  0.000000  0.000000  0.601985  1
  Rb  Rb6  1  0.500000  0.500000  0.452467  1
  Rb  Rb7  1  0.500000  0.500000  0.952425  1
  Sn  Sn8  1  0.000000  0.500000  0.088541  1
  Sn  Sn9  1  0.500000  0.000000  0.088541  1
  Sn  Sn10  1  0.000000  0.500000  0.588786  1
  Sn  Sn11  1  0.500000  0.000000  0.588786  1
  Sn  Sn12  1  0.000000  0.500000  0.912110  1
  Sn  Sn13  1  0.500000  0.000000  0.912110  1
  Sn  Sn14  1  0.000000  0.500000  0.412128  1
  Sn  Sn15  1  0.500000  0.000000  0.412128  1
  Au  Au16  1  0.994267  0.675335  0.249856  1
  Au  Au17  1  0.005733  0.324665  0.249856  1
  Au  Au18  1  0.324665  0.994267  0.249856  1
  Au  Au19  1  0.675335  0.005733  0.249856  1
  Au  Au20  1  0.004124  0.674845  0.750118  1
  Au  Au21  1  0.995876  0.325155  0.750118  1
  Au  Au22  1  0.674845  0.995876  0.750118  1
  Au  Au23  1  0.325155  0.004124  0.750118  1
  Se  Se24  1  0.340078  0.148692  0.500305  1
  Se  Se25  1  0.659922  0.851308  0.500305  1
  Se  Se26  1  0.851308  0.340078  0.500305  1
  Se  Se27  1  0.148692  0.659922  0.500305  1
  Se  Se28  1  0.659836  0.148984  0.000240  1
  Se  Se29  1  0.340164  0.851016  0.000240  1
  Se  Se30  1  0.148984  0.340164  0.000240  1
  Se  Se31  1  0.851016  0.659836  0.000240  1
  Se  Se32  1  0.331612  0.820241  0.344838  1
  Se  Se33  1  0.668388  0.179759  0.344838  1
  Se  Se34  1  0.179759  0.331612  0.344838  1
  Se  Se35  1  0.820241  0.668388  0.344838  1
  Se  Se36  1  0.669070  0.821087  0.844867  1
  Se  Se37  1  0.330930  0.178913  0.844867  1
  Se  Se38  1  0.821087  0.330930  0.844867  1
  Se  Se39  1  0.178913  0.669070  0.844867  1
  Se  Se40  1  0.673199  0.173055  0.656500  1
  Se  Se41  1  0.326801  0.826945  0.656500  1
  Se  Se42  1  0.826945  0.673199  0.656500  1
  Se  Se43  1  0.173055  0.326801  0.656500  1
  Se  Se44  1  0.325905  0.171975  0.156401  1
  Se  Se45  1  0.674095  0.828025  0.156401  1
  Se  Se46  1  0.171975  0.674095  0.156401  1
  Se  Se47  1  0.828025  0.325905  0.156401  1
