# generated using pymatgen
data_Nd16Cd4OsPt3
_symmetry_space_group_name_H-M   'P 1'
_cell_length_a   10.03823527
_cell_length_b   10.03823507
_cell_length_c   10.03823562
_cell_angle_alpha   59.60004192
_cell_angle_beta   59.60004543
_cell_angle_gamma   59.60004533
_symmetry_Int_Tables_number   1
_chemical_formula_structural   Nd16Cd4OsPt3
_chemical_formula_sum   'Nd16 Cd4 Os1 Pt3'
_cell_volume   708.74678128
_cell_formula_units_Z   1
loop_
 _symmetry_equiv_pos_site_id
 _symmetry_equiv_pos_as_xyz
  1  'x, y, z'
loop_
 _atom_site_type_symbol
 _atom_site_label
 _atom_site_symmetry_multiplicity
 _atom_site_fract_x
 _atom_site_fract_y
 _atom_site_fract_z
 _atom_site_occupancy
  Nd  Nd0  1  0.351471  0.351471  0.351471  1
  Nd  Nd1  1  0.346751  0.346751  0.954826  1
  Nd  Nd2  1  0.346751  0.954826  0.346751  1
  Nd  Nd3  1  0.954826  0.346751  0.346751  1
  Nd  Nd4  1  0.815407  0.189624  0.189624  1
  Nd  Nd5  1  0.191230  0.808529  0.808529  1
  Nd  Nd6  1  0.189624  0.815407  0.189624  1
  Nd  Nd7  1  0.808529  0.191230  0.808529  1
  Nd  Nd8  1  0.189624  0.189624  0.815407  1
  Nd  Nd9  1  0.808529  0.808529  0.191230  1
  Nd  Nd10  1  0.934752  0.563382  0.563382  1
  Nd  Nd11  1  0.558541  0.937486  0.937486  1
  Nd  Nd12  1  0.563382  0.934752  0.563382  1
  Nd  Nd13  1  0.937486  0.558541  0.937486  1
  Nd  Nd14  1  0.563382  0.563382  0.934752  1
  Nd  Nd15  1  0.937486  0.937486  0.558541  1
  Cd  Cd16  1  0.579493  0.579493  0.579493  1
  Cd  Cd17  1  0.579612  0.579612  0.260896  1
  Cd  Cd18  1  0.579612  0.260896  0.579612  1
  Cd  Cd19  1  0.260896  0.579612  0.579612  1
  Os  Os20  1  0.142091  0.142091  0.142091  1
  Pt  Pt21  1  0.143805  0.143805  0.572917  1
  Pt  Pt22  1  0.143805  0.572917  0.143805  1
  Pt  Pt23  1  0.572917  0.143805  0.143805  1
