# generated using pymatgen
data_Tm11LuCo4HgOs
_symmetry_space_group_name_H-M   'P 1'
_cell_length_a   8.14800753
_cell_length_b   8.15395075
_cell_length_c   8.15395173
_cell_angle_alpha   111.77883451
_cell_angle_beta   110.45961589
_cell_angle_gamma   106.25344827
_symmetry_Int_Tables_number   1
_chemical_formula_structural   Tm11LuCo4HgOs
_chemical_formula_sum   'Tm11 Lu1 Co4 Hg1 Os1'
_cell_volume   415.84131280
_cell_formula_units_Z   1
loop_
 _symmetry_equiv_pos_site_id
 _symmetry_equiv_pos_as_xyz
  1  'x, y, z'
loop_
 _atom_site_type_symbol
 _atom_site_label
 _atom_site_symmetry_multiplicity
 _atom_site_fract_x
 _atom_site_fract_y
 _atom_site_fract_z
 _atom_site_occupancy
  Tm  Tm0  1  0.582050  0.775606  0.806445  1
  Tm  Tm1  1  0.031130  0.224467  0.806664  1
  Tm  Tm2  1  0.969499  0.775724  0.193775  1
  Tm  Tm3  1  0.181243  0.277322  0.457965  1
  Tm  Tm4  1  0.818433  0.722040  0.540900  1
  Tm  Tm5  1  0.181243  0.723277  0.903921  1
  Tm  Tm6  1  0.818433  0.277535  0.096394  1
  Tm  Tm7  1  0.315167  0.620600  0.306229  1
  Tm  Tm8  1  0.684830  0.378927  0.693220  1
  Tm  Tm9  1  0.315167  0.008939  0.694567  1
  Tm  Tm10  1  0.684830  0.991611  0.305903  1
  Lu  Lu11  1  0.418181  0.224111  0.194069  1
  Co  Co12  1  0.373633  0.000309  0.373324  1
  Co  Co13  1  0.626149  0.999840  0.626308  1
  Co  Co14  1  0.112593  0.612633  0.499959  1
  Co  Co15  1  0.886690  0.387388  0.499301  1
  Hg  Hg16  1  0.500479  0.499660  0.000819  1
  Os  Os17  1  0.000250  0.000012  0.000238  1
