# generated using pymatgen
data_TbHf(Co5P3)2
_symmetry_space_group_name_H-M   'P 1'
_cell_length_a   3.62008300
_cell_length_b   10.20280100
_cell_length_c   11.65791900
_cell_angle_alpha   90.00000000
_cell_angle_beta   90.00000000
_cell_angle_gamma   90.00000000
_symmetry_Int_Tables_number   1
_chemical_formula_structural   TbHf(Co5P3)2
_chemical_formula_sum   'Tb2 Hf2 Co20 P12'
_cell_volume   430.58508033
_cell_formula_units_Z   2
loop_
 _symmetry_equiv_pos_site_id
 _symmetry_equiv_pos_as_xyz
  1  'x, y, z'
loop_
 _atom_site_type_symbol
 _atom_site_label
 _atom_site_symmetry_multiplicity
 _atom_site_fract_x
 _atom_site_fract_y
 _atom_site_fract_z
 _atom_site_occupancy
  Tb  Tb0  1  0.750000  0.417415  0.296775  1
  Tb  Tb1  1  0.750000  0.082585  0.796775  1
  Hf  Hf2  1  0.250000  0.581891  0.701316  1
  Hf  Hf3  1  0.250000  0.918109  0.201316  1
  Co  Co4  1  0.250000  0.718636  0.993208  1
  Co  Co5  1  0.250000  0.781364  0.493208  1
  Co  Co6  1  0.750000  0.282341  0.009126  1
  Co  Co7  1  0.750000  0.217659  0.509126  1
  Co  Co8  1  0.250000  0.410238  0.491130  1
  Co  Co9  1  0.250000  0.089762  0.991130  1
  Co  Co10  1  0.750000  0.593806  0.517209  1
  Co  Co11  1  0.750000  0.906194  0.017209  1
  Co  Co12  1  0.250000  0.220798  0.177830  1
  Co  Co13  1  0.250000  0.279202  0.677830  1
  Co  Co14  1  0.750000  0.775926  0.822554  1
  Co  Co15  1  0.750000  0.724074  0.322554  1
  Co  Co16  1  0.250000  0.879573  0.698371  1
  Co  Co17  1  0.250000  0.620427  0.198371  1
  Co  Co18  1  0.750000  0.112341  0.298796  1
  Co  Co19  1  0.750000  0.387659  0.798796  1
  Co  Co20  1  0.250000  0.470940  0.927935  1
  Co  Co21  1  0.250000  0.029060  0.427935  1
  Co  Co22  1  0.750000  0.535529  0.066440  1
  Co  Co23  1  0.750000  0.964471  0.566440  1
  P  P24  1  0.250000  0.418983  0.110025  1
  P  P25  1  0.250000  0.081017  0.610025  1
  P  P26  1  0.750000  0.581848  0.883849  1
  P  P27  1  0.750000  0.918152  0.383849  1
  P  P28  1  0.250000  0.270617  0.872143  1
  P  P29  1  0.250000  0.229383  0.372143  1
  P  P30  1  0.750000  0.733171  0.131801  1
  P  P31  1  0.750000  0.766829  0.631801  1
  P  P32  1  0.250000  0.602204  0.390957  1
  P  P33  1  0.250000  0.897796  0.890957  1
  P  P34  1  0.750000  0.401067  0.610535  1
  P  P35  1  0.750000  0.098933  0.110535  1
