# generated using pymatgen
data_Ac2ThZnAg2Pb3
_symmetry_space_group_name_H-M   'P 1'
_cell_length_a   4.87148700
_cell_length_b   4.87148632
_cell_length_c   12.87743900
_cell_angle_alpha   90.00000000
_cell_angle_beta   90.00000000
_cell_angle_gamma   119.99999783
_symmetry_Int_Tables_number   1
_chemical_formula_structural   Ac2ThZnAg2Pb3
_chemical_formula_sum   'Ac2 Th1 Zn1 Ag2 Pb3'
_cell_volume   264.65687357
_cell_formula_units_Z   1
loop_
 _symmetry_equiv_pos_site_id
 _symmetry_equiv_pos_as_xyz
  1  'x, y, z'
loop_
 _atom_site_type_symbol
 _atom_site_label
 _atom_site_symmetry_multiplicity
 _atom_site_fract_x
 _atom_site_fract_y
 _atom_site_fract_z
 _atom_site_occupancy
  Ac  Ac0  1  0.666667  0.333333  0.829591  1
  Ac  Ac1  1  0.666667  0.333333  0.169225  1
  Th  Th2  1  0.666667  0.333333  0.495909  1
  Zn  Zn3  1  0.000000  0.000000  0.606888  1
  Ag  Ag4  1  0.333333  0.666667  0.995348  1
  Ag  Ag5  1  0.000000  0.000000  0.385544  1
  Pb  Pb6  1  0.333333  0.666667  0.670380  1
  Pb  Pb7  1  0.333333  0.666667  0.326666  1
  Pb  Pb8  1  0.000000  0.000000  0.998350  1
