# generated using pymatgen
data_Er4Si2TcB8
_symmetry_space_group_name_H-M   'P 1'
_cell_length_a   7.05928100
_cell_length_b   7.05928100
_cell_length_c   7.53387400
_cell_angle_alpha   90.00000000
_cell_angle_beta   90.00000000
_cell_angle_gamma   90.00000000
_symmetry_Int_Tables_number   1
_chemical_formula_structural   Er4Si2TcB8
_chemical_formula_sum   'Er8 Si4 Tc2 B16'
_cell_volume   375.43892000
_cell_formula_units_Z   2
loop_
 _symmetry_equiv_pos_site_id
 _symmetry_equiv_pos_as_xyz
  1  'x, y, z'
loop_
 _atom_site_type_symbol
 _atom_site_label
 _atom_site_symmetry_multiplicity
 _atom_site_fract_x
 _atom_site_fract_y
 _atom_site_fract_z
 _atom_site_occupancy
  Er  Er0  1  0.679142  0.179142  0.238103  1
  Er  Er1  1  0.320858  0.820858  0.761897  1
  Er  Er2  1  0.320858  0.820858  0.238103  1
  Er  Er3  1  0.820858  0.679142  0.238103  1
  Er  Er4  1  0.820858  0.679142  0.761897  1
  Er  Er5  1  0.679142  0.179142  0.761897  1
  Er  Er6  1  0.179142  0.320858  0.761897  1
  Er  Er7  1  0.179142  0.320858  0.238103  1
  Si  Si8  1  0.123227  0.623227  0.500000  1
  Si  Si9  1  0.876773  0.376773  0.500000  1
  Si  Si10  1  0.376773  0.123227  0.500000  1
  Si  Si11  1  0.623227  0.876773  0.500000  1
  Tc  Tc12  1  0.000000  0.000000  0.500000  1
  Tc  Tc13  1  0.500000  0.500000  0.500000  1
  B  B14  1  0.172274  0.039682  0.000000  1
  B  B15  1  0.827726  0.960318  0.000000  1
  B  B16  1  0.960318  0.172274  0.000000  1
  B  B17  1  0.327726  0.539682  0.000000  1
  B  B18  1  0.039682  0.827726  0.000000  1
  B  B19  1  0.672274  0.460318  0.000000  1
  B  B20  1  0.539682  0.672274  0.000000  1
  B  B21  1  0.460318  0.327726  0.000000  1
  B  B22  1  0.089790  0.589790  0.000000  1
  B  B23  1  0.910210  0.410210  0.000000  1
  B  B24  1  0.410210  0.089790  0.000000  1
  B  B25  1  0.589790  0.910210  0.000000  1
  B  B26  1  0.000000  0.000000  0.176906  1
  B  B27  1  0.000000  0.000000  0.823094  1
  B  B28  1  0.500000  0.500000  0.823094  1
  B  B29  1  0.500000  0.500000  0.176906  1
