# generated using pymatgen
data_La10Mg3AlOs6
_symmetry_space_group_name_H-M   'P 1'
_cell_length_a   8.73041056
_cell_length_b   8.79700496
_cell_length_c   8.73041078
_cell_angle_alpha   109.62582018
_cell_angle_beta   109.31618714
_cell_angle_gamma   109.62581095
_symmetry_Int_Tables_number   1
_chemical_formula_structural   La10Mg3AlOs6
_chemical_formula_sum   'La10 Mg3 Al1 Os6'
_cell_volume   515.16947571
_cell_formula_units_Z   1
loop_
 _symmetry_equiv_pos_site_id
 _symmetry_equiv_pos_as_xyz
  1  'x, y, z'
loop_
 _atom_site_type_symbol
 _atom_site_label
 _atom_site_symmetry_multiplicity
 _atom_site_fract_x
 _atom_site_fract_y
 _atom_site_fract_z
 _atom_site_occupancy
  La  La0  1  0.247521  0.682467  0.436507  1
  La  La1  1  0.750741  0.818578  0.071652  1
  La  La2  1  0.428349  0.246927  0.679089  1
  La  La3  1  0.688985  0.434947  0.252479  1
  La  La4  1  0.063494  0.745961  0.811015  1
  La  La5  1  0.820911  0.067837  0.749259  1
  La  La6  1  0.208168  0.208564  0.207644  1
  La  La7  1  0.499477  0.000396  0.291832  1
  La  La8  1  0.292356  0.500921  0.000524  1
  La  La9  1  0.000000  0.285536  0.500001  1
  Mg  Mg10  1  0.500004  0.000766  0.910478  1
  Mg  Mg11  1  0.589522  0.590287  0.589525  1
  Mg  Mg12  1  0.910475  0.500763  0.999997  1
  Al  Al13  1  0.000000  0.912378  0.500001  1
  Os  Os14  1  0.237219  0.119725  0.860595  1
  Os  Os15  1  0.748243  0.369165  0.616944  1
  Os  Os16  1  0.883055  0.252223  0.131298  1
  Os  Os17  1  0.123377  0.882507  0.262783  1
  Os  Os18  1  0.639404  0.759130  0.376622  1
  Os  Os19  1  0.368701  0.620923  0.751757  1
