# generated using pymatgen
data_Er20Cd6PdRu
_symmetry_space_group_name_H-M   'P 1'
_cell_length_a   9.54176000
_cell_length_b   9.54176038
_cell_length_c   9.75027300
_cell_angle_alpha   90.00000000
_cell_angle_beta   90.00000000
_cell_angle_gamma   119.99999867
_symmetry_Int_Tables_number   1
_chemical_formula_structural   Er20Cd6PdRu
_chemical_formula_sum   'Er20 Cd6 Pd1 Ru1'
_cell_volume   768.78412752
_cell_formula_units_Z   1
loop_
 _symmetry_equiv_pos_site_id
 _symmetry_equiv_pos_as_xyz
  1  'x, y, z'
loop_
 _atom_site_type_symbol
 _atom_site_label
 _atom_site_symmetry_multiplicity
 _atom_site_fract_x
 _atom_site_fract_y
 _atom_site_fract_z
 _atom_site_occupancy
  Er  Er0  1  0.000000  0.000000  0.499312  1
  Er  Er1  1  0.000000  0.000000  0.000688  1
  Er  Er2  1  0.208020  0.791980  0.443112  1
  Er  Er3  1  0.208020  0.416041  0.443112  1
  Er  Er4  1  0.583959  0.791980  0.443112  1
  Er  Er5  1  0.790316  0.209684  0.559972  1
  Er  Er6  1  0.790316  0.580630  0.559972  1
  Er  Er7  1  0.419370  0.209684  0.559972  1
  Er  Er8  1  0.790316  0.209684  0.940028  1
  Er  Er9  1  0.790316  0.580630  0.940028  1
  Er  Er10  1  0.419370  0.209684  0.940028  1
  Er  Er11  1  0.208020  0.791980  0.056888  1
  Er  Er12  1  0.208020  0.416041  0.056888  1
  Er  Er13  1  0.583959  0.791980  0.056888  1
  Er  Er14  1  0.542994  0.457006  0.250000  1
  Er  Er15  1  0.542994  0.085988  0.250000  1
  Er  Er16  1  0.914012  0.457006  0.250000  1
  Er  Er17  1  0.458798  0.541202  0.750000  1
  Er  Er18  1  0.458798  0.917597  0.750000  1
  Er  Er19  1  0.082403  0.541202  0.750000  1
  Cd  Cd20  1  0.885188  0.114812  0.250000  1
  Cd  Cd21  1  0.885188  0.770378  0.250000  1
  Cd  Cd22  1  0.229622  0.114812  0.250000  1
  Cd  Cd23  1  0.114775  0.885225  0.750000  1
  Cd  Cd24  1  0.114775  0.229548  0.750000  1
  Cd  Cd25  1  0.770452  0.885225  0.750000  1
  Pd  Pd26  1  0.333333  0.666667  0.250000  1
  Ru  Ru27  1  0.666667  0.333333  0.750000  1
