# generated using pymatgen
data_Ac6HgAu7
_symmetry_space_group_name_H-M   'P 1'
_cell_length_a   8.72664839
_cell_length_b   8.72664682
_cell_length_c   8.72664843
_cell_angle_alpha   113.86607838
_cell_angle_beta   113.86608154
_cell_angle_gamma   113.86609338
_symmetry_Int_Tables_number   1
_chemical_formula_structural   Ac6HgAu7
_chemical_formula_sum   'Ac6 Hg1 Au7'
_cell_volume   407.74021707
_cell_formula_units_Z   1
loop_
 _symmetry_equiv_pos_site_id
 _symmetry_equiv_pos_as_xyz
  1  'x, y, z'
loop_
 _atom_site_type_symbol
 _atom_site_label
 _atom_site_symmetry_multiplicity
 _atom_site_fract_x
 _atom_site_fract_y
 _atom_site_fract_z
 _atom_site_occupancy
  Ac  Ac0  1  0.999069  0.259107  0.392046  1
  Ac  Ac1  1  0.259107  0.392046  0.999069  1
  Ac  Ac2  1  0.392046  0.999069  0.259107  1
  Ac  Ac3  1  0.000931  0.740893  0.607954  1
  Ac  Ac4  1  0.740893  0.607954  0.000931  1
  Ac  Ac5  1  0.607954  0.000931  0.740893  1
  Hg  Hg6  1  0.500000  0.500000  0.500000  1
  Au  Au7  1  0.000000  0.000000  0.000000  1
  Au  Au8  1  0.082962  0.563924  0.240759  1
  Au  Au9  1  0.563924  0.240759  0.082962  1
  Au  Au10  1  0.240759  0.082962  0.563924  1
  Au  Au11  1  0.917038  0.436076  0.759241  1
  Au  Au12  1  0.436076  0.759241  0.917038  1
  Au  Au13  1  0.759241  0.917038  0.436076  1
