# generated using pymatgen
data_Lu3Sn3IrPtRh
_symmetry_space_group_name_H-M   'P 1'
_cell_length_a   7.69306300
_cell_length_b   7.69306399
_cell_length_c   3.61320700
_cell_angle_alpha   90.00000000
_cell_angle_beta   90.00000000
_cell_angle_gamma   120.00000519
_symmetry_Int_Tables_number   1
_chemical_formula_structural   Lu3Sn3IrPtRh
_chemical_formula_sum   'Lu3 Sn3 Ir1 Pt1 Rh1'
_cell_volume   185.19194194
_cell_formula_units_Z   1
loop_
 _symmetry_equiv_pos_site_id
 _symmetry_equiv_pos_as_xyz
  1  'x, y, z'
loop_
 _atom_site_type_symbol
 _atom_site_label
 _atom_site_symmetry_multiplicity
 _atom_site_fract_x
 _atom_site_fract_y
 _atom_site_fract_z
 _atom_site_occupancy
  Lu  Lu0  1  0.394793  0.402874  0.500000  1
  Lu  Lu1  1  0.597126  0.991919  0.500000  1
  Lu  Lu2  1  0.008081  0.605207  0.500000  1
  Sn  Sn3  1  0.732679  0.731906  0.000000  1
  Sn  Sn4  1  0.268094  0.000773  0.000000  1
  Sn  Sn5  1  0.999227  0.267321  0.000000  1
  Ir  Ir6  1  0.333333  0.666667  0.000000  1
  Pt  Pt7  1  0.666667  0.333333  0.000000  1
  Rh  Rh8  1  0.000000  0.000000  0.500000  1
