# generated using pymatgen
data_Sr3Yb3(TmGe2)4
_symmetry_space_group_name_H-M   'P 1'
_cell_length_a   7.51672700
_cell_length_b   7.99280322
_cell_length_c   15.35646662
_cell_angle_alpha   90.22243514
_cell_angle_beta   90.00000000
_cell_angle_gamma   90.00000000
_symmetry_Int_Tables_number   1
_chemical_formula_structural   Sr3Yb3(TmGe2)4
_chemical_formula_sum   'Sr6 Yb6 Tm8 Ge16'
_cell_volume   922.60525863
_cell_formula_units_Z   2
loop_
 _symmetry_equiv_pos_site_id
 _symmetry_equiv_pos_as_xyz
  1  'x, y, z'
loop_
 _atom_site_type_symbol
 _atom_site_label
 _atom_site_symmetry_multiplicity
 _atom_site_fract_x
 _atom_site_fract_y
 _atom_site_fract_z
 _atom_site_occupancy
  Sr  Sr0  1  0.984002  0.819199  0.404367  1
  Sr  Sr1  1  0.484002  0.680801  0.095633  1
  Sr  Sr2  1  0.515917  0.320301  0.593423  1
  Sr  Sr3  1  0.015917  0.179699  0.906577  1
  Sr  Sr4  1  0.017140  0.179504  0.594385  1
  Sr  Sr5  1  0.517140  0.320496  0.905615  1
  Yb  Yb6  1  0.481657  0.686230  0.403464  1
  Yb  Yb7  1  0.981657  0.813770  0.096536  1
  Yb  Yb8  1  0.344213  0.014817  0.749997  1
  Yb  Yb9  1  0.844213  0.485183  0.750003  1
  Yb  Yb10  1  0.156199  0.517578  0.250314  1
  Yb  Yb11  1  0.656199  0.982422  0.249686  1
  Tm  Tm12  1  0.318685  0.171517  0.121932  1
  Tm  Tm13  1  0.818685  0.328483  0.378068  1
  Tm  Tm14  1  0.178510  0.674851  0.879067  1
  Tm  Tm15  1  0.678510  0.825149  0.620933  1
  Tm  Tm16  1  0.320263  0.172035  0.376527  1
  Tm  Tm17  1  0.820263  0.327965  0.123473  1
  Tm  Tm18  1  0.181173  0.672794  0.621362  1
  Tm  Tm19  1  0.681173  0.827206  0.878638  1
  Ge  Ge20  1  0.850498  0.538921  0.538730  1
  Ge  Ge21  1  0.350498  0.961079  0.961270  1
  Ge  Ge22  1  0.648633  0.033815  0.457666  1
  Ge  Ge23  1  0.148633  0.466185  0.042334  1
  Ge  Ge24  1  0.157045  0.464023  0.458299  1
  Ge  Ge25  1  0.657045  0.035977  0.041701  1
  Ge  Ge26  1  0.350151  0.955492  0.537124  1
  Ge  Ge27  1  0.850151  0.544508  0.962876  1
  Ge  Ge28  1  0.974287  0.868997  0.749752  1
  Ge  Ge29  1  0.474287  0.631003  0.750248  1
  Ge  Ge30  1  0.524263  0.371600  0.250808  1
  Ge  Ge31  1  0.024263  0.128400  0.249192  1
  Ge  Ge32  1  0.232867  0.397226  0.750220  1
  Ge  Ge33  1  0.732867  0.102774  0.749780  1
  Ge  Ge34  1  0.264494  0.893317  0.248101  1
  Ge  Ge35  1  0.764494  0.606683  0.251899  1
