# generated using pymatgen
data_Nd8Y11TmSi16
_symmetry_space_group_name_H-M   'P 1'
_cell_length_a   7.76639103
_cell_length_b   7.76639103
_cell_length_c   14.45846209
_cell_angle_alpha   90.00911091
_cell_angle_beta   89.99088909
_cell_angle_gamma   90.00514978
_symmetry_Int_Tables_number   1
_chemical_formula_structural   Nd8Y11TmSi16
_chemical_formula_sum   'Nd8 Y11 Tm1 Si16'
_cell_volume   872.08856966
_cell_formula_units_Z   1
loop_
 _symmetry_equiv_pos_site_id
 _symmetry_equiv_pos_as_xyz
  1  'x, y, z'
loop_
 _atom_site_type_symbol
 _atom_site_label
 _atom_site_symmetry_multiplicity
 _atom_site_fract_x
 _atom_site_fract_y
 _atom_site_fract_z
 _atom_site_occupancy
  Nd  Nd0  1  0.635753  0.990573  0.455764  1
  Nd  Nd1  1  0.363965  0.009519  0.955612  1
  Nd  Nd2  1  0.990573  0.635753  0.544236  1
  Nd  Nd3  1  0.490333  0.864277  0.205909  1
  Nd  Nd4  1  0.509190  0.136048  0.705219  1
  Nd  Nd5  1  0.864277  0.490333  0.794091  1
  Nd  Nd6  1  0.136048  0.509190  0.294781  1
  Nd  Nd7  1  0.009519  0.363965  0.044388  1
  Y  Y8  1  0.488506  0.364342  0.125099  1
  Y  Y9  1  0.988931  0.135912  0.624854  1
  Y  Y10  1  0.864254  0.011349  0.874571  1
  Y  Y11  1  0.135912  0.988931  0.375146  1
  Y  Y12  1  0.511235  0.635465  0.624367  1
  Y  Y13  1  0.364342  0.488506  0.874901  1
  Y  Y14  1  0.635465  0.511235  0.375633  1
  Y  Y15  1  0.011349  0.864254  0.125429  1
  Y  Y16  1  0.185331  0.814804  0.749798  1
  Y  Y17  1  0.814804  0.185331  0.250202  1
  Y  Y18  1  0.685240  0.685240  0.000000  1
  Tm  Tm19  1  0.315082  0.315082  0.500000  1
  Si  Si20  1  0.288855  0.933407  0.561187  1
  Si  Si21  1  0.711531  0.068059  0.061360  1
  Si  Si22  1  0.933407  0.288855  0.438813  1
  Si  Si23  1  0.431081  0.212289  0.312609  1
  Si  Si24  1  0.568094  0.788231  0.811061  1
  Si  Si25  1  0.212289  0.431081  0.687391  1
  Si  Si26  1  0.788231  0.568094  0.188939  1
  Si  Si27  1  0.068059  0.711531  0.938640  1
  Si  Si28  1  0.799593  0.841513  0.692201  1
  Si  Si29  1  0.200210  0.158735  0.192933  1
  Si  Si30  1  0.841513  0.799593  0.307799  1
  Si  Si31  1  0.340789  0.699314  0.442923  1
  Si  Si32  1  0.658514  0.299675  0.942544  1
  Si  Si33  1  0.699314  0.340789  0.557077  1
  Si  Si34  1  0.299675  0.658514  0.057456  1
  Si  Si35  1  0.158735  0.200210  0.807067  1
