# generated using pymatgen
data_LaPrDy2(Ga3Ir)6
_symmetry_space_group_name_H-M   'P 1'
_cell_length_a   7.64410590
_cell_length_b   7.65047501
_cell_length_c   9.58044400
_cell_angle_alpha   90.00000000
_cell_angle_beta   90.00000000
_cell_angle_gamma   119.77759439
_symmetry_Int_Tables_number   1
_chemical_formula_structural   LaPrDy2(Ga3Ir)6
_chemical_formula_sum   'La1 Pr1 Dy2 Ga18 Ir6'
_cell_volume   486.29556405
_cell_formula_units_Z   1
loop_
 _symmetry_equiv_pos_site_id
 _symmetry_equiv_pos_as_xyz
  1  'x, y, z'
loop_
 _atom_site_type_symbol
 _atom_site_label
 _atom_site_symmetry_multiplicity
 _atom_site_fract_x
 _atom_site_fract_y
 _atom_site_fract_z
 _atom_site_occupancy
  La  La0  1  0.996014  0.668112  0.250000  1
  Pr  Pr1  1  0.668557  0.996027  0.250000  1
  Dy  Dy2  1  0.001925  0.331727  0.750000  1
  Dy  Dy3  1  0.330768  0.001327  0.750000  1
  Ga  Ga4  1  0.130652  0.131035  0.250000  1
  Ga  Ga5  1  0.873800  0.875018  0.750000  1
  Ga  Ga6  1  0.003168  0.333819  0.074330  1
  Ga  Ga7  1  0.000942  0.665695  0.915492  1
  Ga  Ga8  1  0.000942  0.665695  0.584508  1
  Ga  Ga9  1  0.335121  0.003207  0.425662  1
  Ga  Ga10  1  0.003168  0.333819  0.425670  1
  Ga  Ga11  1  0.665854  0.001813  0.583145  1
  Ga  Ga12  1  0.665854  0.001813  0.916855  1
  Ga  Ga13  1  0.335121  0.003207  0.074338  1
  Ga  Ga14  1  0.331450  0.331276  0.566378  1
  Ga  Ga15  1  0.664594  0.665148  0.444835  1
  Ga  Ga16  1  0.664594  0.665148  0.055165  1
  Ga  Ga17  1  0.331450  0.331276  0.933622  1
  Ga  Ga18  1  0.340279  0.543754  0.250000  1
  Ga  Ga19  1  0.658818  0.451072  0.750000  1
  Ga  Ga20  1  0.541965  0.337664  0.250000  1
  Ga  Ga21  1  0.452257  0.660413  0.750000  1
  Ir  Ir22  1  0.671603  0.329845  0.998330  1
  Ir  Ir23  1  0.328344  0.670656  0.998079  1
  Ir  Ir24  1  0.328344  0.670656  0.501921  1
  Ir  Ir25  1  0.671603  0.329845  0.501670  1
  Ir  Ir26  1  0.001407  0.000464  0.997790  1
  Ir  Ir27  1  0.001407  0.000464  0.502210  1
