# generated using pymatgen
data_Er2Si5PdPt2
_symmetry_space_group_name_H-M   'P 1'
_cell_length_a   8.15272501
_cell_length_b   8.15272491
_cell_length_c   8.15255727
_cell_angle_alpha   136.79145980
_cell_angle_beta   104.22301009
_cell_angle_gamma   91.45871659
_symmetry_Int_Tables_number   1
_chemical_formula_structural   Er2Si5PdPt2
_chemical_formula_sum   'Er4 Si10 Pd2 Pt4'
_cell_volume   342.12085213
_cell_formula_units_Z   2
loop_
 _symmetry_equiv_pos_site_id
 _symmetry_equiv_pos_as_xyz
  1  'x, y, z'
loop_
 _atom_site_type_symbol
 _atom_site_label
 _atom_site_symmetry_multiplicity
 _atom_site_fract_x
 _atom_site_fract_y
 _atom_site_fract_z
 _atom_site_occupancy
  Er  Er0  1  0.641230  0.869866  0.771345  1
  Er  Er1  1  0.358770  0.130134  0.228655  1
  Er  Er2  1  0.098522  0.369885  0.728655  1
  Er  Er3  1  0.901478  0.630114  0.271345  1
  Si  Si4  1  0.273457  0.023457  0.750000  1
  Si  Si5  1  0.726543  0.976543  0.250000  1
  Si  Si6  1  0.726540  0.476540  0.750000  1
  Si  Si7  1  0.273460  0.523460  0.250000  1
  Si  Si8  1  0.459352  0.611839  0.847506  1
  Si  Si9  1  0.540648  0.388161  0.152494  1
  Si  Si10  1  0.764334  0.111847  0.652494  1
  Si  Si11  1  0.235666  0.888153  0.347506  1
  Si  Si12  1  0.999992  0.749992  0.750000  1
  Si  Si13  1  0.000008  0.250008  0.250000  1
  Pd  Pd14  1  0.500006  0.750006  0.250000  1
  Pd  Pd15  1  0.499994  0.249994  0.750000  1
  Pt  Pt16  1  0.251146  0.638353  0.612805  1
  Pt  Pt17  1  0.748854  0.361647  0.387195  1
  Pt  Pt18  1  0.025548  0.138342  0.887195  1
  Pt  Pt19  1  0.974452  0.861658  0.112805  1
