# generated using pymatgen
data_Y4Lu4B24MoOs3
_symmetry_space_group_name_H-M   'P 1'
_cell_length_a   3.62626200
_cell_length_b   9.11833659
_cell_length_c   11.52031800
_cell_angle_alpha   89.90752635
_cell_angle_beta   90.00000000
_cell_angle_gamma   90.00000000
_symmetry_Int_Tables_number   1
_chemical_formula_structural   Y4Lu4B24MoOs3
_chemical_formula_sum   'Y4 Lu4 B24 Mo1 Os3'
_cell_volume   380.92431950
_cell_formula_units_Z   1
loop_
 _symmetry_equiv_pos_site_id
 _symmetry_equiv_pos_as_xyz
  1  'x, y, z'
loop_
 _atom_site_type_symbol
 _atom_site_label
 _atom_site_symmetry_multiplicity
 _atom_site_fract_x
 _atom_site_fract_y
 _atom_site_fract_z
 _atom_site_occupancy
  Y  Y0  1  0.000000  0.321606  0.413097  1
  Y  Y1  1  0.000000  0.678232  0.584861  1
  Y  Y2  1  0.000000  0.819723  0.087403  1
  Y  Y3  1  0.000000  0.178468  0.914585  1
  Lu  Lu4  1  0.000000  0.945146  0.372835  1
  Lu  Lu5  1  0.000000  0.057272  0.628276  1
  Lu  Lu6  1  0.000000  0.443651  0.126874  1
  Lu  Lu7  1  0.000000  0.556506  0.871503  1
  B  B8  1  0.500000  0.551505  0.435011  1
  B  B9  1  0.500000  0.445720  0.568304  1
  B  B10  1  0.500000  0.054050  0.067313  1
  B  B11  1  0.500000  0.945735  0.932819  1
  B  B12  1  0.500000  0.752175  0.420934  1
  B  B13  1  0.500000  0.250671  0.581572  1
  B  B14  1  0.500000  0.249778  0.080806  1
  B  B15  1  0.500000  0.750005  0.918564  1
  B  B16  1  0.500000  0.794875  0.265057  1
  B  B17  1  0.500000  0.208106  0.734231  1
  B  B18  1  0.500000  0.291393  0.232800  1
  B  B19  1  0.500000  0.708699  0.765923  1
  B  B20  1  0.500000  0.630438  0.183009  1
  B  B21  1  0.500000  0.369197  0.815252  1
  B  B22  1  0.500000  0.130369  0.314170  1
  B  B23  1  0.500000  0.870244  0.685216  1
  B  B24  1  0.500000  0.982889  0.213322  1
  B  B25  1  0.500000  0.017493  0.787271  1
  B  B26  1  0.500000  0.478295  0.285763  1
  B  B27  1  0.500000  0.516944  0.713696  1
  B  B28  1  0.500000  0.602641  0.026989  1
  B  B29  1  0.500000  0.396818  0.970853  1
  B  B30  1  0.500000  0.103710  0.471965  1
  B  B31  1  0.500000  0.898922  0.529387  1
  Mo  Mo32  1  0.000000  0.638223  0.320589  1
  Os  Os33  1  0.000000  0.360422  0.681193  1
  Os  Os34  1  0.000000  0.138363  0.178369  1
  Os  Os35  1  0.000000  0.861716  0.820189  1
