# generated using pymatgen
data_Li4Nd3HoSi8
_symmetry_space_group_name_H-M   'P 1'
_cell_length_a   3.85211400
_cell_length_b   7.68838289
_cell_length_c   10.38679164
_cell_angle_alpha   89.86575370
_cell_angle_beta   90.00000000
_cell_angle_gamma   90.00000000
_symmetry_Int_Tables_number   1
_chemical_formula_structural   Li4Nd3HoSi8
_chemical_formula_sum   'Li4 Nd3 Ho1 Si8'
_cell_volume   307.61985456
_cell_formula_units_Z   1
loop_
 _symmetry_equiv_pos_site_id
 _symmetry_equiv_pos_as_xyz
  1  'x, y, z'
loop_
 _atom_site_type_symbol
 _atom_site_label
 _atom_site_symmetry_multiplicity
 _atom_site_fract_x
 _atom_site_fract_y
 _atom_site_fract_z
 _atom_site_occupancy
  Li  Li0  1  0.250000  0.993944  0.389597  1
  Li  Li1  1  0.750000  0.004702  0.610345  1
  Li  Li2  1  0.250000  0.494609  0.107339  1
  Li  Li3  1  0.750000  0.510151  0.890631  1
  Nd  Nd4  1  0.750000  0.862822  0.135672  1
  Nd  Nd5  1  0.250000  0.637444  0.637105  1
  Nd  Nd6  1  0.750000  0.359466  0.364417  1
  Ho  Ho7  1  0.250000  0.134550  0.864090  1
  Si  Si8  1  0.750000  0.271199  0.063650  1
  Si  Si9  1  0.250000  0.733308  0.929940  1
  Si  Si10  1  0.750000  0.772204  0.430469  1
  Si  Si11  1  0.250000  0.222520  0.575110  1
  Si  Si12  1  0.750000  0.843683  0.822507  1
  Si  Si13  1  0.250000  0.164075  0.173715  1
  Si  Si14  1  0.750000  0.332519  0.683199  1
  Si  Si15  1  0.250000  0.662809  0.322213  1
