# generated using pymatgen
data_Nd6Cu2Ir15Rh
_symmetry_space_group_name_H-M   'P 1'
_cell_length_a   5.37991600
_cell_length_b   5.37992935
_cell_length_c   17.39157700
_cell_angle_alpha   90.00000000
_cell_angle_beta   90.00000000
_cell_angle_gamma   119.99963761
_symmetry_Int_Tables_number   1
_chemical_formula_structural   Nd6Cu2Ir15Rh
_chemical_formula_sum   'Nd6 Cu2 Ir15 Rh1'
_cell_volume   435.93651567
_cell_formula_units_Z   1
loop_
 _symmetry_equiv_pos_site_id
 _symmetry_equiv_pos_as_xyz
  1  'x, y, z'
loop_
 _atom_site_type_symbol
 _atom_site_label
 _atom_site_symmetry_multiplicity
 _atom_site_fract_x
 _atom_site_fract_y
 _atom_site_fract_z
 _atom_site_occupancy
  Nd  Nd0  1  0.333340  0.666673  0.541285  1
  Nd  Nd1  1  0.666676  0.333339  0.038371  1
  Nd  Nd2  1  0.666676  0.333339  0.461629  1
  Nd  Nd3  1  0.333340  0.666673  0.958715  1
  Nd  Nd4  1  0.333294  0.666642  0.750000  1
  Nd  Nd5  1  0.666688  0.333338  0.250000  1
  Cu  Cu6  1  0.999981  0.000039  0.750000  1
  Cu  Cu7  1  0.333356  0.666680  0.250000  1
  Ir  Ir8  1  0.168463  0.336908  0.127962  1
  Ir  Ir9  1  0.833947  0.667888  0.627629  1
  Ir  Ir10  1  0.663105  0.831550  0.127960  1
  Ir  Ir11  1  0.168463  0.831548  0.127960  1
  Ir  Ir12  1  0.833951  0.166066  0.627621  1
  Ir  Ir13  1  0.332098  0.166054  0.627620  1
  Ir  Ir14  1  0.833947  0.667888  0.872371  1
  Ir  Ir15  1  0.833951  0.166066  0.872379  1
  Ir  Ir16  1  0.332098  0.166054  0.872380  1
  Ir  Ir17  1  0.663105  0.831550  0.372040  1
  Ir  Ir18  1  0.168463  0.831548  0.372040  1
  Ir  Ir19  1  0.168463  0.336908  0.372038  1
  Ir  Ir20  1  0.000010  0.999999  0.250000  1
  Ir  Ir21  1  0.000002  0.999999  0.001335  1
  Ir  Ir22  1  0.000002  0.999999  0.498665  1
  Rh  Rh23  1  0.666586  0.333256  0.750000  1
