# generated using pymatgen
data_AcSe23
_symmetry_space_group_name_H-M   'P 1'
_cell_length_a   5.59404733
_cell_length_b   11.01381249
_cell_length_c   16.64893700
_cell_angle_alpha   89.20965011
_cell_angle_beta   81.18780113
_cell_angle_gamma   83.25466655
_symmetry_Int_Tables_number   1
_chemical_formula_structural   AcSe23
_chemical_formula_sum   'Ac1 Se23'
_cell_volume   1006.63660184
_cell_formula_units_Z   1
loop_
 _symmetry_equiv_pos_site_id
 _symmetry_equiv_pos_as_xyz
  1  'x, y, z'
loop_
 _atom_site_type_symbol
 _atom_site_label
 _atom_site_symmetry_multiplicity
 _atom_site_fract_x
 _atom_site_fract_y
 _atom_site_fract_z
 _atom_site_occupancy
  Ac  Ac0  1  0.595282  0.262955  0.413708  1
  Se  Se1  1  0.546876  0.840896  0.380457  1
  Se  Se2  1  0.953491  0.304218  0.146434  1
  Se  Se3  1  0.132258  0.127127  0.404551  1
  Se  Se4  1  0.261544  0.816840  0.498150  1
  Se  Se5  1  0.153034  0.237479  0.017267  1
  Se  Se6  1  0.755202  0.745752  0.006786  1
  Se  Se7  1  0.114234  0.322249  0.339746  1
  Se  Se8  1  0.764511  0.639715  0.361832  1
  Se  Se9  1  0.732672  0.143407  0.207863  1
  Se  Se10  1  0.199692  0.874125  0.117852  1
  Se  Se11  1  0.679029  0.619088  0.622305  1
  Se  Se12  1  0.279731  0.354277  0.593342  1
  Se  Se13  1  0.234777  0.870272  0.853874  1
  Se  Se14  1  0.727770  0.132859  0.882355  1
  Se  Se15  1  0.991877  0.700250  0.111031  1
  Se  Se16  1  0.471981  0.818641  0.610498  1
  Se  Se17  1  0.557680  0.176677  0.588848  1
  Se  Se18  1  0.018850  0.699096  0.882804  1
  Se  Se19  1  0.920702  0.301500  0.913394  1
  Se  Se20  1  0.467840  0.519191  0.338480  1
  Se  Se21  1  0.042855  0.987230  0.238414  1
  Se  Se22  1  0.399892  0.492564  0.687297  1
  Se  Se23  1  0.998219  0.013589  0.782713  1
