# generated using pymatgen
data_Li8Er8Sn3Sb5
_symmetry_space_group_name_H-M   'P 1'
_cell_length_a   9.38919788
_cell_length_b   9.39114216
_cell_length_c   7.01277901
_cell_angle_alpha   89.99999916
_cell_angle_beta   89.93912913
_cell_angle_gamma   120.00684667
_symmetry_Int_Tables_number   1
_chemical_formula_structural   Li8Er8Sn3Sb5
_chemical_formula_sum   'Li8 Er8 Sn3 Sb5'
_cell_volume   535.47277900
_cell_formula_units_Z   1
loop_
 _symmetry_equiv_pos_site_id
 _symmetry_equiv_pos_as_xyz
  1  'x, y, z'
loop_
 _atom_site_type_symbol
 _atom_site_label
 _atom_site_symmetry_multiplicity
 _atom_site_fract_x
 _atom_site_fract_y
 _atom_site_fract_z
 _atom_site_occupancy
  Li  Li0  1  0.832323  0.166378  0.726622  1
  Li  Li1  1  0.832323  0.665945  0.726622  1
  Li  Li2  1  0.335076  0.167539  0.723842  1
  Li  Li3  1  0.167399  0.833052  0.224903  1
  Li  Li4  1  0.167399  0.334347  0.224903  1
  Li  Li5  1  0.665097  0.832547  0.223906  1
  Li  Li6  1  0.666273  0.333136  0.312055  1
  Li  Li7  1  0.334126  0.667063  0.810754  1
  Er  Er8  1  0.492105  0.511677  0.506813  1
  Er  Er9  1  0.492105  0.980429  0.506813  1
  Er  Er10  1  0.017792  0.508897  0.506211  1
  Er  Er11  1  0.510182  0.492411  0.004476  1
  Er  Er12  1  0.510182  0.017769  0.004476  1
  Er  Er13  1  0.982254  0.491126  0.005322  1
  Er  Er14  1  0.997338  0.998668  0.499765  1
  Er  Er15  1  0.998087  0.999043  0.997347  1
  Sn  Sn16  1  0.667229  0.833616  0.764196  1
  Sn  Sn17  1  0.667317  0.333658  0.740307  1
  Sn  Sn18  1  0.332359  0.666180  0.240532  1
  Sb  Sb19  1  0.834114  0.166963  0.261585  1
  Sb  Sb20  1  0.834114  0.667151  0.261585  1
  Sb  Sb21  1  0.332545  0.166272  0.262027  1
  Sb  Sb22  1  0.166132  0.833381  0.761479  1
  Sb  Sb23  1  0.166132  0.332752  0.761479  1
