# generated using pymatgen
data_Ho16In6PdRu
_symmetry_space_group_name_H-M   'P 1'
_cell_length_a   10.42097900
_cell_length_b   10.42098051
_cell_length_c   6.99236800
_cell_angle_alpha   90.00000000
_cell_angle_beta   90.00000000
_cell_angle_gamma   119.99999838
_symmetry_Int_Tables_number   1
_chemical_formula_structural   Ho16In6PdRu
_chemical_formula_sum   'Ho16 In6 Pd1 Ru1'
_cell_volume   657.61546782
_cell_formula_units_Z   1
loop_
 _symmetry_equiv_pos_site_id
 _symmetry_equiv_pos_as_xyz
  1  'x, y, z'
loop_
 _atom_site_type_symbol
 _atom_site_label
 _atom_site_symmetry_multiplicity
 _atom_site_fract_x
 _atom_site_fract_y
 _atom_site_fract_z
 _atom_site_occupancy
  Ho  Ho0  1  0.529811  0.059622  0.510570  1
  Ho  Ho1  1  0.940378  0.470189  0.510570  1
  Ho  Ho2  1  0.529811  0.470189  0.510570  1
  Ho  Ho3  1  0.466029  0.932060  0.007240  1
  Ho  Ho4  1  0.067940  0.533971  0.007240  1
  Ho  Ho5  1  0.466029  0.533971  0.007240  1
  Ho  Ho6  1  0.176844  0.353688  0.714047  1
  Ho  Ho7  1  0.646312  0.823156  0.714047  1
  Ho  Ho8  1  0.176844  0.823156  0.714047  1
  Ho  Ho9  1  0.825107  0.650215  0.212564  1
  Ho  Ho10  1  0.349785  0.174893  0.212564  1
  Ho  Ho11  1  0.825107  0.174893  0.212564  1
  Ho  Ho12  1  0.666667  0.333333  0.882761  1
  Ho  Ho13  1  0.333333  0.666667  0.385810  1
  Ho  Ho14  1  0.000000  0.000000  0.490520  1
  Ho  Ho15  1  0.000000  0.000000  0.993853  1
  In  In16  1  0.837521  0.675043  0.751198  1
  In  In17  1  0.324957  0.162479  0.751198  1
  In  In18  1  0.837521  0.162479  0.751198  1
  In  In19  1  0.162921  0.325842  0.252204  1
  In  In20  1  0.674158  0.837079  0.252204  1
  In  In21  1  0.162921  0.837079  0.252204  1
  Pd  Pd22  1  0.666667  0.333333  0.280874  1
  Ru  Ru23  1  0.333333  0.666667  0.780760  1
