# generated using pymatgen
data_Er4MoW3N8
_symmetry_space_group_name_H-M   'P 1'
_cell_length_a   3.18566700
_cell_length_b   5.68202443
_cell_length_c   10.52040180
_cell_angle_alpha   89.95520024
_cell_angle_beta   90.00000000
_cell_angle_gamma   90.00000000
_symmetry_Int_Tables_number   1
_chemical_formula_structural   Er4MoW3N8
_chemical_formula_sum   'Er4 Mo1 W3 N8'
_cell_volume   190.43013181
_cell_formula_units_Z   1
loop_
 _symmetry_equiv_pos_site_id
 _symmetry_equiv_pos_as_xyz
  1  'x, y, z'
loop_
 _atom_site_type_symbol
 _atom_site_label
 _atom_site_symmetry_multiplicity
 _atom_site_fract_x
 _atom_site_fract_y
 _atom_site_fract_z
 _atom_site_occupancy
  Er  Er0  1  0.250000  0.079947  0.853541  1
  Er  Er1  1  0.250000  0.579349  0.645432  1
  Er  Er2  1  0.750000  0.919735  0.145007  1
  Er  Er3  1  0.750000  0.420223  0.354312  1
  Mo  Mo4  1  0.750000  0.067390  0.594256  1
  W  W5  1  0.250000  0.431840  0.095483  1
  W  W6  1  0.250000  0.932991  0.405151  1
  W  W7  1  0.750000  0.568436  0.905084  1
  N  N8  1  0.250000  0.163694  0.248294  1
  N  N9  1  0.250000  0.665437  0.252200  1
  N  N10  1  0.750000  0.833605  0.752817  1
  N  N11  1  0.750000  0.338529  0.750309  1
  N  N12  1  0.250000  0.764848  0.994088  1
  N  N13  1  0.250000  0.262016  0.504663  1
  N  N14  1  0.750000  0.235713  0.006589  1
  N  N15  1  0.750000  0.736247  0.492773  1
