# generated using pymatgen
data_Cs4CrSe4
_symmetry_space_group_name_H-M   'P 1'
_cell_length_a   8.31743184
_cell_length_b   8.31743162
_cell_length_c   27.97563700
_cell_angle_alpha   97.90906220
_cell_angle_beta   97.90906253
_cell_angle_gamma   56.73378060
_symmetry_Int_Tables_number   1
_chemical_formula_structural   Cs4CrSe4
_chemical_formula_sum   'Cs16 Cr4 Se16'
_cell_volume   1598.29362229
_cell_formula_units_Z   4
loop_
 _symmetry_equiv_pos_site_id
 _symmetry_equiv_pos_as_xyz
  1  'x, y, z'
loop_
 _atom_site_type_symbol
 _atom_site_label
 _atom_site_symmetry_multiplicity
 _atom_site_fract_x
 _atom_site_fract_y
 _atom_site_fract_z
 _atom_site_occupancy
  Cs  Cs0  1  0.000000  0.000000  0.000000  1
  Cs  Cs1  1  0.358756  0.321361  0.019274  1
  Cs  Cs2  1  0.086324  0.694318  0.155198  1
  Cs  Cs3  1  0.349427  0.082528  0.167851  1
  Cs  Cs4  1  0.774656  0.225344  0.250000  1
  Cs  Cs5  1  0.917472  0.650573  0.332149  1
  Cs  Cs6  1  0.305682  0.913676  0.344802  1
  Cs  Cs7  1  0.678639  0.641245  0.480726  1
  Cs  Cs8  1  0.000000  0.000000  0.500000  1
  Cs  Cs9  1  0.321361  0.358756  0.519274  1
  Cs  Cs10  1  0.694319  0.086324  0.655198  1
  Cs  Cs11  1  0.082528  0.349427  0.667851  1
  Cs  Cs12  1  0.225344  0.774656  0.750000  1
  Cs  Cs13  1  0.650573  0.917472  0.832149  1
  Cs  Cs14  1  0.913676  0.305681  0.844802  1
  Cs  Cs15  1  0.641245  0.678639  0.980726  1
  Cr  Cr16  1  0.710569  0.470988  0.121362  1
  Cr  Cr17  1  0.529012  0.289431  0.378638  1
  Cr  Cr18  1  0.470988  0.710570  0.621363  1
  Cr  Cr19  1  0.289431  0.529012  0.878637  1
  Se  Se20  1  0.964456  0.404703  0.078045  1
  Se  Se21  1  0.416573  0.695817  0.082620  1
  Se  Se22  1  0.718792  0.184742  0.122310  1
  Se  Se23  1  0.743268  0.601415  0.199229  1
  Se  Se24  1  0.398585  0.256732  0.300771  1
  Se  Se25  1  0.815258  0.281208  0.377691  1
  Se  Se26  1  0.304183  0.583427  0.417380  1
  Se  Se27  1  0.595296  0.035543  0.421955  1
  Se  Se28  1  0.404703  0.964456  0.578045  1
  Se  Se29  1  0.695817  0.416573  0.582620  1
  Se  Se30  1  0.184742  0.718792  0.622309  1
  Se  Se31  1  0.601415  0.743268  0.699229  1
  Se  Se32  1  0.256732  0.398585  0.800771  1
  Se  Se33  1  0.281208  0.815258  0.877691  1
  Se  Se34  1  0.583427  0.304183  0.917380  1
  Se  Se35  1  0.035543  0.595296  0.921955  1
