# generated using pymatgen
data_SmLu3(WN2)4
_symmetry_space_group_name_H-M   'P 1'
_cell_length_a   3.16904200
_cell_length_b   5.66595257
_cell_length_c   10.48174700
_cell_angle_alpha   90.15440481
_cell_angle_beta   90.00000000
_cell_angle_gamma   90.00000000
_symmetry_Int_Tables_number   1
_chemical_formula_structural   SmLu3(WN2)4
_chemical_formula_sum   'Sm1 Lu3 W4 N8'
_cell_volume   188.20580987
_cell_formula_units_Z   1
loop_
 _symmetry_equiv_pos_site_id
 _symmetry_equiv_pos_as_xyz
  1  'x, y, z'
loop_
 _atom_site_type_symbol
 _atom_site_label
 _atom_site_symmetry_multiplicity
 _atom_site_fract_x
 _atom_site_fract_y
 _atom_site_fract_z
 _atom_site_occupancy
  Sm  Sm0  1  0.750000  0.418997  0.354348  1
  Lu  Lu1  1  0.250000  0.078902  0.854748  1
  Lu  Lu2  1  0.250000  0.578852  0.647364  1
  Lu  Lu3  1  0.750000  0.921133  0.143584  1
  W  W4  1  0.250000  0.433694  0.093095  1
  W  W5  1  0.250000  0.930126  0.404439  1
  W  W6  1  0.750000  0.568286  0.904207  1
  W  W7  1  0.750000  0.067028  0.597193  1
  N  N8  1  0.250000  0.157863  0.244603  1
  N  N9  1  0.250000  0.673109  0.246565  1
  N  N10  1  0.750000  0.835526  0.753639  1
  N  N11  1  0.750000  0.336590  0.748374  1
  N  N12  1  0.250000  0.768915  0.993100  1
  N  N13  1  0.250000  0.261599  0.511900  1
  N  N14  1  0.750000  0.232671  0.004115  1
  N  N15  1  0.750000  0.736707  0.498726  1
