# generated using pymatgen
data_Sm6Mn2Co15NiP12
_symmetry_space_group_name_H-M   'P 1'
_cell_length_a   3.73512100
_cell_length_b   10.62183200
_cell_length_c   12.32468100
_cell_angle_alpha   90.00000000
_cell_angle_beta   90.00000000
_cell_angle_gamma   90.00000000
_symmetry_Int_Tables_number   1
_chemical_formula_structural   Sm6Mn2Co15NiP12
_chemical_formula_sum   'Sm6 Mn2 Co15 Ni1 P12'
_cell_volume   488.96727121
_cell_formula_units_Z   1
loop_
 _symmetry_equiv_pos_site_id
 _symmetry_equiv_pos_as_xyz
  1  'x, y, z'
loop_
 _atom_site_type_symbol
 _atom_site_label
 _atom_site_symmetry_multiplicity
 _atom_site_fract_x
 _atom_site_fract_y
 _atom_site_fract_z
 _atom_site_occupancy
  Sm  Sm0  1  0.000000  0.500000  0.519731  1
  Sm  Sm1  1  0.500000  0.000000  0.478336  1
  Sm  Sm2  1  0.500000  0.817882  0.205282  1
  Sm  Sm3  1  0.500000  0.182118  0.205282  1
  Sm  Sm4  1  0.000000  0.683421  0.795773  1
  Sm  Sm5  1  0.000000  0.316579  0.795773  1
  Mn  Mn6  1  0.500000  0.500000  0.156918  1
  Mn  Mn7  1  0.000000  0.000000  0.842415  1
  Co  Co8  1  0.000000  0.000000  0.296887  1
  Co  Co9  1  0.000000  0.500000  0.987322  1
  Co  Co10  1  0.500000  0.000000  0.013466  1
  Co  Co11  1  0.500000  0.333115  0.994954  1
  Co  Co12  1  0.500000  0.666885  0.994954  1
  Co  Co13  1  0.000000  0.166277  0.004882  1
  Co  Co14  1  0.000000  0.833723  0.004882  1
  Co  Co15  1  0.500000  0.296511  0.430171  1
  Co  Co16  1  0.500000  0.703489  0.430171  1
  Co  Co17  1  0.000000  0.203243  0.569789  1
  Co  Co18  1  0.000000  0.796757  0.569789  1
  Co  Co19  1  0.500000  0.880384  0.710652  1
  Co  Co20  1  0.500000  0.119616  0.710652  1
  Co  Co21  1  0.000000  0.619485  0.289583  1
  Co  Co22  1  0.000000  0.380515  0.289583  1
  Ni  Ni23  1  0.500000  0.500000  0.702627  1
  P  P24  1  0.500000  0.500000  0.886276  1
  P  P25  1  0.000000  0.000000  0.115359  1
  P  P26  1  0.500000  0.500000  0.341759  1
  P  P27  1  0.000000  0.000000  0.657741  1
  P  P28  1  0.500000  0.307195  0.614108  1
  P  P29  1  0.500000  0.692805  0.614108  1
  P  P30  1  0.000000  0.191517  0.384892  1
  P  P31  1  0.000000  0.808483  0.384892  1
  P  P32  1  0.500000  0.848085  0.895070  1
  P  P33  1  0.500000  0.151915  0.895070  1
  P  P34  1  0.000000  0.652766  0.105426  1
  P  P35  1  0.000000  0.347234  0.105426  1
