# generated using pymatgen
data_YNb6Sn5Bi
_symmetry_space_group_name_H-M   'P 1'
_cell_length_a   5.83521200
_cell_length_b   5.83521301
_cell_length_c   9.62092200
_cell_angle_alpha   90.00000000
_cell_angle_beta   90.00000000
_cell_angle_gamma   119.99999425
_symmetry_Int_Tables_number   1
_chemical_formula_structural   YNb6Sn5Bi
_chemical_formula_sum   'Y1 Nb6 Sn5 Bi1'
_cell_volume   283.70089393
_cell_formula_units_Z   1
loop_
 _symmetry_equiv_pos_site_id
 _symmetry_equiv_pos_as_xyz
  1  'x, y, z'
loop_
 _atom_site_type_symbol
 _atom_site_label
 _atom_site_symmetry_multiplicity
 _atom_site_fract_x
 _atom_site_fract_y
 _atom_site_fract_z
 _atom_site_occupancy
  Y  Y0  1  0.000000  0.000000  0.993364  1
  Nb  Nb1  1  0.000000  0.500000  0.754719  1
  Nb  Nb2  1  0.500000  0.500000  0.754719  1
  Nb  Nb3  1  0.500000  0.000000  0.754719  1
  Nb  Nb4  1  0.000000  0.500000  0.251900  1
  Nb  Nb5  1  0.500000  0.500000  0.251900  1
  Nb  Nb6  1  0.500000  0.000000  0.251900  1
  Sn  Sn7  1  0.666667  0.333333  0.502001  1
  Sn  Sn8  1  0.333333  0.666667  0.502001  1
  Sn  Sn9  1  0.666667  0.333333  0.002820  1
  Sn  Sn10  1  0.333333  0.666667  0.002820  1
  Sn  Sn11  1  0.000000  0.000000  0.325294  1
  Bi  Bi12  1  0.000000  0.000000  0.651842  1
