# generated using pymatgen
data_Tm8Si(Pd3Pt5)3
_symmetry_space_group_name_H-M   'P 1'
_cell_length_a   8.21243000
_cell_length_b   8.19970500
_cell_length_c   8.24019200
_cell_angle_alpha   90.00000000
_cell_angle_beta   90.00000000
_cell_angle_gamma   90.00000000
_symmetry_Int_Tables_number   1
_chemical_formula_structural   Tm8Si(Pd3Pt5)3
_chemical_formula_sum   'Tm8 Si1 Pd9 Pt15'
_cell_volume   554.89043665
_cell_formula_units_Z   1
loop_
 _symmetry_equiv_pos_site_id
 _symmetry_equiv_pos_as_xyz
  1  'x, y, z'
loop_
 _atom_site_type_symbol
 _atom_site_label
 _atom_site_symmetry_multiplicity
 _atom_site_fract_x
 _atom_site_fract_y
 _atom_site_fract_z
 _atom_site_occupancy
  Tm  Tm0  1  0.252974  0.252907  0.252988  1
  Tm  Tm1  1  0.747211  0.747041  0.747106  1
  Tm  Tm2  1  0.747211  0.747041  0.252894  1
  Tm  Tm3  1  0.747026  0.252907  0.747012  1
  Tm  Tm4  1  0.252974  0.252907  0.747012  1
  Tm  Tm5  1  0.252789  0.747041  0.252894  1
  Tm  Tm6  1  0.252789  0.747041  0.747106  1
  Tm  Tm7  1  0.747026  0.252907  0.252988  1
  Si  Si8  1  0.000000  0.000151  0.000000  1
  Pd  Pd9  1  0.500000  0.999976  0.258593  1
  Pd  Pd10  1  0.258646  0.000119  0.500000  1
  Pd  Pd11  1  0.500000  0.999976  0.741407  1
  Pd  Pd12  1  0.741354  0.000119  0.500000  1
  Pd  Pd13  1  0.000000  0.500115  0.257994  1
  Pd  Pd14  1  0.000000  0.500115  0.742006  1
  Pd  Pd15  1  0.500000  0.747399  0.500000  1
  Pd  Pd16  1  0.500000  0.500159  0.252649  1
  Pd  Pd17  1  0.500000  0.500159  0.747351  1
  Pt  Pt18  1  0.258029  0.500096  0.000000  1
  Pt  Pt19  1  0.741971  0.500096  0.000000  1
  Pt  Pt20  1  0.000000  0.257829  0.500000  1
  Pt  Pt21  1  0.500000  0.257875  0.000000  1
  Pt  Pt22  1  0.000000  0.741949  0.500000  1
  Pt  Pt23  1  0.500000  0.742098  0.000000  1
  Pt  Pt24  1  0.252067  0.499912  0.500000  1
  Pt  Pt25  1  0.747933  0.499912  0.500000  1
  Pt  Pt26  1  0.500000  0.252490  0.500000  1
  Pt  Pt27  1  0.282248  0.999861  0.000000  1
  Pt  Pt28  1  0.717752  0.999861  0.000000  1
  Pt  Pt29  1  0.000000  0.282135  0.000000  1
  Pt  Pt30  1  0.000000  0.718165  0.000000  1
  Pt  Pt31  1  0.000000  0.999820  0.281835  1
  Pt  Pt32  1  0.000000  0.999820  0.718165  1
