# generated using pymatgen
data_Hf18BeFe(Re3W)2
_symmetry_space_group_name_H-M   'P 1'
_cell_length_a   8.50880600
_cell_length_b   8.60777162
_cell_length_c   8.60777101
_cell_angle_alpha   120.00186897
_cell_angle_beta   90.00000000
_cell_angle_gamma   90.00000000
_symmetry_Int_Tables_number   1
_chemical_formula_structural   Hf18BeFe(Re3W)2
_chemical_formula_sum   'Hf18 Be1 Fe1 Re6 W2'
_cell_volume   545.97469570
_cell_formula_units_Z   1
loop_
 _symmetry_equiv_pos_site_id
 _symmetry_equiv_pos_as_xyz
  1  'x, y, z'
loop_
 _atom_site_type_symbol
 _atom_site_label
 _atom_site_symmetry_multiplicity
 _atom_site_fract_x
 _atom_site_fract_y
 _atom_site_fract_z
 _atom_site_occupancy
  Hf  Hf0  1  0.553647  0.802583  0.605164  1
  Hf  Hf1  1  0.553657  0.802567  0.197433  1
  Hf  Hf2  1  0.553647  0.394836  0.197417  1
  Hf  Hf3  1  0.441995  0.201652  0.403305  1
  Hf  Hf4  1  0.441987  0.201662  0.798338  1
  Hf  Hf5  1  0.441995  0.596695  0.798348  1
  Hf  Hf6  1  0.058005  0.201652  0.403305  1
  Hf  Hf7  1  0.058013  0.201662  0.798338  1
  Hf  Hf8  1  0.058005  0.596695  0.798348  1
  Hf  Hf9  1  0.946353  0.802583  0.605164  1
  Hf  Hf10  1  0.946343  0.802567  0.197433  1
  Hf  Hf11  1  0.946353  0.394836  0.197417  1
  Hf  Hf12  1  0.750000  0.460532  0.921091  1
  Hf  Hf13  1  0.750000  0.460539  0.539461  1
  Hf  Hf14  1  0.750000  0.078909  0.539467  1
  Hf  Hf15  1  0.250000  0.540053  0.080104  1
  Hf  Hf16  1  0.250000  0.540052  0.459948  1
  Hf  Hf17  1  0.250000  0.919896  0.459946  1
  Be  Be18  1  0.750000  0.666640  0.333360  1
  Fe  Fe19  1  0.250000  0.333373  0.666627  1
  Re  Re20  1  0.750000  0.111756  0.223504  1
  Re  Re21  1  0.750000  0.111751  0.888249  1
  Re  Re22  1  0.750000  0.776496  0.888244  1
  Re  Re23  1  0.250000  0.888183  0.776329  1
  Re  Re24  1  0.250000  0.888167  0.111833  1
  Re  Re25  1  0.250000  0.223671  0.111817  1
  W  W26  1  0.500989  0.999995  0.000005  1
  W  W27  1  0.999011  0.999995  0.000005  1
