# generated using pymatgen
data_Sr3Nd(Sn2Pd)4
_symmetry_space_group_name_H-M   'P 1'
_cell_length_a   9.06743908
_cell_length_b   9.06743834
_cell_length_c   9.82895900
_cell_angle_alpha   90.00000000
_cell_angle_beta   90.00000000
_cell_angle_gamma   149.13723038
_symmetry_Int_Tables_number   1
_chemical_formula_structural   Sr3Nd(Sn2Pd)4
_chemical_formula_sum   'Sr3 Nd1 Sn8 Pd4'
_cell_volume   414.55317389
_cell_formula_units_Z   1
loop_
 _symmetry_equiv_pos_site_id
 _symmetry_equiv_pos_as_xyz
  1  'x, y, z'
loop_
 _atom_site_type_symbol
 _atom_site_label
 _atom_site_symmetry_multiplicity
 _atom_site_fract_x
 _atom_site_fract_y
 _atom_site_fract_z
 _atom_site_occupancy
  Sr  Sr0  1  0.500371  0.499629  0.501243  1
  Sr  Sr1  1  0.500371  0.499629  0.998757  1
  Sr  Sr2  1  0.700091  0.299909  0.750000  1
  Nd  Nd3  1  0.297345  0.702655  0.250000  1
  Sn  Sn4  1  0.908052  0.091948  0.750000  1
  Sn  Sn5  1  0.925075  0.074925  0.250000  1
  Sn  Sn6  1  0.091675  0.908325  0.250000  1
  Sn  Sn7  1  0.072061  0.927939  0.750000  1
  Sn  Sn8  1  0.696768  0.303232  0.405658  1
  Sn  Sn9  1  0.304606  0.695394  0.593148  1
  Sn  Sn10  1  0.304606  0.695394  0.906852  1
  Sn  Sn11  1  0.696768  0.303232  0.094342  1
  Pd  Pd12  1  0.151024  0.848976  0.504566  1
  Pd  Pd13  1  0.850081  0.149919  0.007203  1
  Pd  Pd14  1  0.151024  0.848976  0.995434  1
  Pd  Pd15  1  0.850081  0.149919  0.492797  1
