# generated using pymatgen
data_Tb4Er12Cd4Ru3Pt
_symmetry_space_group_name_H-M   'P 1'
_cell_length_a   9.60955080
_cell_length_b   9.62173498
_cell_length_c   9.62173630
_cell_angle_alpha   59.58464437
_cell_angle_beta   59.43479933
_cell_angle_gamma   59.43480329
_symmetry_Int_Tables_number   1
_chemical_formula_structural   Tb4Er12Cd4Ru3Pt
_chemical_formula_sum   'Tb4 Er12 Cd4 Ru3 Pt1'
_cell_volume   621.68908408
_cell_formula_units_Z   1
loop_
 _symmetry_equiv_pos_site_id
 _symmetry_equiv_pos_as_xyz
  1  'x, y, z'
loop_
 _atom_site_type_symbol
 _atom_site_label
 _atom_site_symmetry_multiplicity
 _atom_site_fract_x
 _atom_site_fract_y
 _atom_site_fract_z
 _atom_site_occupancy
  Tb  Tb0  1  0.557821  0.938563  0.565383  1
  Tb  Tb1  1  0.937919  0.560842  0.939200  1
  Tb  Tb2  1  0.557821  0.565383  0.938563  1
  Tb  Tb3  1  0.937919  0.939200  0.560842  1
  Er  Er4  1  0.345149  0.350536  0.350536  1
  Er  Er5  1  0.345805  0.350513  0.955169  1
  Er  Er6  1  0.345805  0.955169  0.350513  1
  Er  Er7  1  0.962105  0.346260  0.346260  1
  Er  Er8  1  0.814931  0.188463  0.188463  1
  Er  Er9  1  0.186045  0.811916  0.811916  1
  Er  Er10  1  0.188133  0.811180  0.187930  1
  Er  Er11  1  0.814746  0.188933  0.806144  1
  Er  Er12  1  0.188133  0.187930  0.811180  1
  Er  Er13  1  0.814746  0.806144  0.188933  1
  Er  Er14  1  0.938248  0.560352  0.560352  1
  Er  Er15  1  0.557279  0.939063  0.939063  1
  Cd  Cd16  1  0.580724  0.579822  0.579822  1
  Cd  Cd17  1  0.580591  0.580506  0.258562  1
  Cd  Cd18  1  0.580591  0.258562  0.580506  1
  Cd  Cd19  1  0.257146  0.580521  0.580521  1
  Ru  Ru20  1  0.144521  0.138630  0.138630  1
  Ru  Ru21  1  0.144426  0.141433  0.577734  1
  Ru  Ru22  1  0.144426  0.577734  0.141433  1
  Pt  Pt23  1  0.574970  0.142345  0.142345  1
