# generated using pymatgen
data_Y4Co8P12Ir11Ru
_symmetry_space_group_name_H-M   'P 1'
_cell_length_a   3.87796200
_cell_length_b   10.60528382
_cell_length_c   12.21768839
_cell_angle_alpha   89.90276187
_cell_angle_beta   90.00000000
_cell_angle_gamma   90.00000000
_symmetry_Int_Tables_number   1
_chemical_formula_structural   Y4Co8P12Ir11Ru
_chemical_formula_sum   'Y4 Co8 P12 Ir11 Ru1'
_cell_volume   502.47477445
_cell_formula_units_Z   1
loop_
 _symmetry_equiv_pos_site_id
 _symmetry_equiv_pos_as_xyz
  1  'x, y, z'
loop_
 _atom_site_type_symbol
 _atom_site_label
 _atom_site_symmetry_multiplicity
 _atom_site_fract_x
 _atom_site_fract_y
 _atom_site_fract_z
 _atom_site_occupancy
  Y  Y0  1  0.250000  0.915034  0.212073  1
  Y  Y1  1  0.750000  0.084260  0.788812  1
  Y  Y2  1  0.750000  0.416254  0.289794  1
  Y  Y3  1  0.250000  0.585292  0.709438  1
  Co  Co4  1  0.250000  0.615916  0.197395  1
  Co  Co5  1  0.750000  0.383369  0.802656  1
  Co  Co6  1  0.750000  0.115583  0.303106  1
  Co  Co7  1  0.250000  0.883314  0.697740  1
  Co  Co8  1  0.250000  0.036794  0.433228  1
  Co  Co9  1  0.750000  0.964040  0.566695  1
  Co  Co10  1  0.750000  0.536792  0.066104  1
  Co  Co11  1  0.250000  0.463552  0.933341  1
  P  P12  1  0.250000  0.066833  0.610271  1
  P  P13  1  0.750000  0.930327  0.390848  1
  P  P14  1  0.750000  0.567350  0.888908  1
  P  P15  1  0.250000  0.432505  0.110826  1
  P  P16  1  0.250000  0.225560  0.370096  1
  P  P17  1  0.750000  0.774011  0.628174  1
  P  P18  1  0.750000  0.725395  0.130207  1
  P  P19  1  0.250000  0.274316  0.870104  1
  P  P20  1  0.250000  0.901536  0.877366  1
  P  P21  1  0.750000  0.097986  0.122945  1
  P  P22  1  0.750000  0.402111  0.621909  1
  P  P23  1  0.250000  0.601293  0.380165  1
  Ir  Ir24  1  0.750000  0.223122  0.509301  1
  Ir  Ir25  1  0.750000  0.276821  0.009199  1
  Ir  Ir26  1  0.250000  0.723042  0.990964  1
  Ir  Ir27  1  0.250000  0.089613  0.976891  1
  Ir  Ir28  1  0.750000  0.909975  0.023226  1
  Ir  Ir29  1  0.750000  0.590384  0.521479  1
  Ir  Ir30  1  0.250000  0.409679  0.476839  1
  Ir  Ir31  1  0.250000  0.272142  0.678400  1
  Ir  Ir32  1  0.750000  0.726126  0.321428  1
  Ir  Ir33  1  0.750000  0.772027  0.821193  1
  Ir  Ir34  1  0.250000  0.227120  0.178198  1
  Ru  Ru35  1  0.250000  0.780523  0.490678  1
