# generated using pymatgen
data_Hf6Zr2Co12Si15Ge
_symmetry_space_group_name_H-M   'P 1'
_cell_length_a   5.22237491
_cell_length_b   6.77480302
_cell_length_c   13.69912701
_cell_angle_alpha   90.06576300
_cell_angle_beta   89.94491777
_cell_angle_gamma   90.00532789
_symmetry_Int_Tables_number   1
_chemical_formula_structural   Hf6Zr2Co12Si15Ge
_chemical_formula_sum   'Hf6 Zr2 Co12 Si15 Ge1'
_cell_volume   484.68225814
_cell_formula_units_Z   1
loop_
 _symmetry_equiv_pos_site_id
 _symmetry_equiv_pos_as_xyz
  1  'x, y, z'
loop_
 _atom_site_type_symbol
 _atom_site_label
 _atom_site_symmetry_multiplicity
 _atom_site_fract_x
 _atom_site_fract_y
 _atom_site_fract_z
 _atom_site_occupancy
  Hf  Hf0  1  0.267914  0.099940  0.645823  1
  Hf  Hf1  1  0.768262  0.399203  0.645888  1
  Hf  Hf2  1  0.230845  0.600649  0.354907  1
  Hf  Hf3  1  0.731168  0.898819  0.355083  1
  Hf  Hf4  1  0.268574  0.898990  0.852775  1
  Hf  Hf5  1  0.768528  0.600123  0.853532  1
  Zr  Zr6  1  0.231971  0.402270  0.146992  1
  Zr  Zr7  1  0.731657  0.100722  0.147718  1
  Co  Co8  1  0.991114  0.281794  0.977421  1
  Co  Co9  1  0.505996  0.225021  0.481760  1
  Co  Co10  1  0.776065  0.999223  0.749630  1
  Co  Co11  1  0.498410  0.232805  0.977264  1
  Co  Co12  1  0.724401  0.501171  0.252590  1
  Co  Co13  1  0.494379  0.774667  0.518823  1
  Co  Co14  1  0.005849  0.274737  0.481690  1
  Co  Co15  1  0.003018  0.721865  0.017828  1
  Co  Co16  1  0.224617  0.994171  0.255353  1
  Co  Co17  1  0.276334  0.500435  0.749355  1
  Co  Co18  1  0.507292  0.768715  0.018130  1
  Co  Co19  1  0.994300  0.724669  0.518828  1
  Si  Si20  1  0.717741  0.518668  0.432573  1
  Si  Si21  1  0.782562  0.019157  0.567764  1
  Si  Si22  1  0.482298  0.752743  0.189035  1
  Si  Si23  1  0.020179  0.253666  0.810558  1
  Si  Si24  1  0.520021  0.245992  0.810424  1
  Si  Si25  1  0.217727  0.980556  0.433182  1
  Si  Si26  1  0.282195  0.521004  0.930759  1
  Si  Si27  1  0.978277  0.744765  0.189027  1
  Si  Si28  1  0.718042  0.480534  0.068162  1
  Si  Si29  1  0.282652  0.480438  0.567813  1
  Si  Si30  1  0.479787  0.245877  0.313050  1
  Si  Si31  1  0.019456  0.745560  0.687673  1
  Si  Si32  1  0.779056  0.981052  0.931392  1
  Si  Si33  1  0.520211  0.753915  0.687637  1
  Si  Si34  1  0.980868  0.253476  0.312993  1
  Ge  Ge35  1  0.218235  0.022609  0.066570  1
