# generated using pymatgen
data_Nb6ZnIn5Rh12
_symmetry_space_group_name_H-M   'P 1'
_cell_length_a   4.16408300
_cell_length_b   7.48079600
_cell_length_c   12.56032900
_cell_angle_alpha   90.00000000
_cell_angle_beta   90.00000000
_cell_angle_gamma   90.00000000
_symmetry_Int_Tables_number   1
_chemical_formula_structural   Nb6ZnIn5Rh12
_chemical_formula_sum   'Nb6 Zn1 In5 Rh12'
_cell_volume   391.26248102
_cell_formula_units_Z   1
loop_
 _symmetry_equiv_pos_site_id
 _symmetry_equiv_pos_as_xyz
  1  'x, y, z'
loop_
 _atom_site_type_symbol
 _atom_site_label
 _atom_site_symmetry_multiplicity
 _atom_site_fract_x
 _atom_site_fract_y
 _atom_site_fract_z
 _atom_site_occupancy
  Nb  Nb0  1  0.000000  0.499999  0.990545  1
  Nb  Nb1  1  0.500007  0.000000  0.164760  1
  Nb  Nb2  1  0.000000  0.499999  0.333320  1
  Nb  Nb3  1  0.499999  0.000000  0.501914  1
  Nb  Nb4  1  0.000000  0.499999  0.676121  1
  Nb  Nb5  1  0.499992  0.000000  0.833321  1
  Zn  Zn6  1  0.499994  0.499999  0.833347  1
  In  In7  1  0.000000  0.000000  0.998874  1
  In  In8  1  0.500004  0.499999  0.164309  1
  In  In9  1  0.000000  0.000000  0.333342  1
  In  In10  1  0.499999  0.499999  0.502333  1
  In  In11  1  0.000000  0.000000  0.667770  1
  Rh  Rh12  1  0.499999  0.255464  0.995908  1
  Rh  Rh13  1  0.499999  0.744536  0.995908  1
  Rh  Rh14  1  0.000000  0.250909  0.165759  1
  Rh  Rh15  1  0.000000  0.749092  0.165759  1
  Rh  Rh16  1  0.500009  0.249779  0.333329  1
  Rh  Rh17  1  0.500009  0.750221  0.333329  1
  Rh  Rh18  1  0.000000  0.250951  0.500920  1
  Rh  Rh19  1  0.000000  0.749049  0.500920  1
  Rh  Rh20  1  0.499992  0.255495  0.670766  1
  Rh  Rh21  1  0.499992  0.744505  0.670766  1
  Rh  Rh22  1  0.000000  0.257503  0.833339  1
  Rh  Rh23  1  0.000000  0.742498  0.833339  1
