# generated using pymatgen
data_Y5Tm3(ScIn3)2
_symmetry_space_group_name_H-M   'P 1'
_cell_length_a   9.05229129
_cell_length_b   9.05229229
_cell_length_c   9.05049500
_cell_angle_alpha   96.47989182
_cell_angle_beta   96.47264976
_cell_angle_gamma   140.75622864
_symmetry_Int_Tables_number   1
_chemical_formula_structural   Y5Tm3(ScIn3)2
_chemical_formula_sum   'Y5 Tm3 Sc2 In6'
_cell_volume   441.91671323
_cell_formula_units_Z   1
loop_
 _symmetry_equiv_pos_site_id
 _symmetry_equiv_pos_as_xyz
  1  'x, y, z'
loop_
 _atom_site_type_symbol
 _atom_site_label
 _atom_site_symmetry_multiplicity
 _atom_site_fract_x
 _atom_site_fract_y
 _atom_site_fract_z
 _atom_site_occupancy
  Y  Y0  1  0.718148  0.417056  0.135205  1
  Y  Y1  1  0.281021  0.582507  0.863528  1
  Y  Y2  1  0.582695  0.718573  0.301267  1
  Y  Y3  1  0.218652  0.082754  0.301404  1
  Y  Y4  1  0.917641  0.218135  0.135778  1
  Tm  Tm5  1  0.782506  0.917199  0.699706  1
  Tm  Tm6  1  0.418050  0.282166  0.700217  1
  Tm  Tm7  1  0.081269  0.781826  0.863095  1
  Sc  Sc8  1  0.750223  0.250372  0.500568  1
  Sc  Sc9  1  0.250195  0.750344  0.500568  1
  In  In10  1  0.844218  0.657276  0.501493  1
  In  In11  1  0.343156  0.843897  0.187053  1
  In  In12  1  0.749721  0.749095  0.998564  1
  In  In13  1  0.655981  0.156063  0.812046  1
  In  In14  1  0.157056  0.343894  0.500950  1
  In  In15  1  0.249469  0.248843  0.998564  1
