# generated using pymatgen
data_Y9ErIn4(HgPd)4
_symmetry_space_group_name_H-M   'P 1'
_cell_length_a   3.63824100
_cell_length_b   8.04547863
_cell_length_c   18.32499648
_cell_angle_alpha   90.04569770
_cell_angle_beta   90.00000000
_cell_angle_gamma   90.00000000
_symmetry_Int_Tables_number   1
_chemical_formula_structural   Y9ErIn4(HgPd)4
_chemical_formula_sum   'Y9 Er1 In4 Hg4 Pd4'
_cell_volume   536.39795206
_cell_formula_units_Z   1
loop_
 _symmetry_equiv_pos_site_id
 _symmetry_equiv_pos_as_xyz
  1  'x, y, z'
loop_
 _atom_site_type_symbol
 _atom_site_label
 _atom_site_symmetry_multiplicity
 _atom_site_fract_x
 _atom_site_fract_y
 _atom_site_fract_z
 _atom_site_occupancy
  Y  Y0  1  0.000000  0.499371  0.499642  1
  Y  Y1  1  0.000000  0.999930  0.000069  1
  Y  Y2  1  0.000000  0.742406  0.284599  1
  Y  Y3  1  0.000000  0.257452  0.715409  1
  Y  Y4  1  0.000000  0.757468  0.784633  1
  Y  Y5  1  0.000000  0.242484  0.215534  1
  Y  Y6  1  0.000000  0.609431  0.083547  1
  Y  Y7  1  0.000000  0.390493  0.916767  1
  Y  Y8  1  0.000000  0.890767  0.582878  1
  Er  Er9  1  0.000000  0.108086  0.415549  1
  In  In10  1  0.500000  0.581678  0.649213  1
  In  In11  1  0.500000  0.417478  0.350860  1
  In  In12  1  0.500000  0.918894  0.149509  1
  In  In13  1  0.500000  0.081463  0.850787  1
  Hg  Hg14  1  0.500000  0.713009  0.933054  1
  Hg  Hg15  1  0.500000  0.286890  0.067169  1
  Hg  Hg16  1  0.500000  0.788791  0.432957  1
  Hg  Hg17  1  0.500000  0.212632  0.566464  1
  Pd  Pd18  1  0.500000  0.529702  0.198129  1
  Pd  Pd19  1  0.500000  0.470325  0.802057  1
  Pd  Pd20  1  0.500000  0.970316  0.697984  1
  Pd  Pd21  1  0.500000  0.030933  0.303189  1
