# generated using pymatgen
data_CaSn(SbRh2)3
_symmetry_space_group_name_H-M   'P 1'
_cell_length_a   7.73323200
_cell_length_b   7.66913056
_cell_length_c   4.00806000
_cell_angle_alpha   90.00000000
_cell_angle_beta   90.00000000
_cell_angle_gamma   120.27688001
_symmetry_Int_Tables_number   1
_chemical_formula_structural   CaSn(SbRh2)3
_chemical_formula_sum   'Ca1 Sn1 Sb3 Rh6'
_cell_volume   205.28326648
_cell_formula_units_Z   1
loop_
 _symmetry_equiv_pos_site_id
 _symmetry_equiv_pos_as_xyz
  1  'x, y, z'
loop_
 _atom_site_type_symbol
 _atom_site_label
 _atom_site_symmetry_multiplicity
 _atom_site_fract_x
 _atom_site_fract_y
 _atom_site_fract_z
 _atom_site_occupancy
  Ca  Ca0  1  0.000030  0.000061  0.000000  1
  Sn  Sn1  1  0.190788  0.381576  0.500000  1
  Sb  Sb2  1  0.666822  0.333644  0.000000  1
  Sb  Sb3  1  0.189375  0.808382  0.500000  1
  Sb  Sb4  1  0.619008  0.808382  0.500000  1
  Rh  Rh5  1  0.068655  0.536803  0.000000  1
  Rh  Rh6  1  0.468148  0.536803  0.000000  1
  Rh  Rh7  1  0.464431  0.928861  0.000000  1
  Rh  Rh8  1  0.404550  0.200602  0.500000  1
  Rh  Rh9  1  0.796054  0.200602  0.500000  1
  Rh  Rh10  1  0.798810  0.597622  0.500000  1
