# generated using pymatgen
data_Er2TcB6
_symmetry_space_group_name_H-M   'P 1'
_cell_length_a   3.65923500
_cell_length_b   9.12103800
_cell_length_c   11.49424000
_cell_angle_alpha   90.00000000
_cell_angle_beta   90.00000000
_cell_angle_gamma   90.00000000
_symmetry_Int_Tables_number   1
_chemical_formula_structural   Er2TcB6
_chemical_formula_sum   'Er8 Tc4 B24'
_cell_volume   383.63200120
_cell_formula_units_Z   4
loop_
 _symmetry_equiv_pos_site_id
 _symmetry_equiv_pos_as_xyz
  1  'x, y, z'
loop_
 _atom_site_type_symbol
 _atom_site_label
 _atom_site_symmetry_multiplicity
 _atom_site_fract_x
 _atom_site_fract_y
 _atom_site_fract_z
 _atom_site_occupancy
  Er  Er0  1  0.000000  0.323827  0.414006  1
  Er  Er1  1  0.000000  0.676173  0.585994  1
  Er  Er2  1  0.000000  0.823827  0.085994  1
  Er  Er3  1  0.000000  0.176173  0.914006  1
  Er  Er4  1  0.000000  0.943312  0.369766  1
  Er  Er5  1  0.000000  0.056688  0.630234  1
  Er  Er6  1  0.000000  0.443312  0.130234  1
  Er  Er7  1  0.000000  0.556688  0.869766  1
  Tc  Tc8  1  0.000000  0.639152  0.320558  1
  Tc  Tc9  1  0.000000  0.360848  0.679442  1
  Tc  Tc10  1  0.000000  0.139152  0.179442  1
  Tc  Tc11  1  0.000000  0.860848  0.820558  1
  B  B12  1  0.500000  0.553453  0.433223  1
  B  B13  1  0.500000  0.446547  0.566777  1
  B  B14  1  0.500000  0.053453  0.066777  1
  B  B15  1  0.500000  0.946547  0.933223  1
  B  B16  1  0.500000  0.749401  0.419236  1
  B  B17  1  0.500000  0.250599  0.580764  1
  B  B18  1  0.500000  0.249401  0.080764  1
  B  B19  1  0.500000  0.750599  0.919236  1
  B  B20  1  0.500000  0.792765  0.265422  1
  B  B21  1  0.500000  0.207235  0.734578  1
  B  B22  1  0.500000  0.292765  0.234578  1
  B  B23  1  0.500000  0.707235  0.765422  1
  B  B24  1  0.500000  0.631208  0.185422  1
  B  B25  1  0.500000  0.368792  0.814578  1
  B  B26  1  0.500000  0.131208  0.314578  1
  B  B27  1  0.500000  0.868792  0.685422  1
  B  B28  1  0.500000  0.982100  0.211765  1
  B  B29  1  0.500000  0.017900  0.788235  1
  B  B30  1  0.500000  0.482100  0.288235  1
  B  B31  1  0.500000  0.517900  0.711765  1
  B  B32  1  0.500000  0.600487  0.028114  1
  B  B33  1  0.500000  0.399513  0.971886  1
  B  B34  1  0.500000  0.100487  0.471886  1
  B  B35  1  0.500000  0.899513  0.528114  1
