# generated using pymatgen
data_Zr10BeAl2GeSb4
_symmetry_space_group_name_H-M   'P 1'
_cell_length_a   8.56713301
_cell_length_b   8.60190860
_cell_length_c   5.81163614
_cell_angle_alpha   90.02533115
_cell_angle_beta   89.98728019
_cell_angle_gamma   120.13437692
_symmetry_Int_Tables_number   1
_chemical_formula_structural   Zr10BeAl2GeSb4
_chemical_formula_sum   'Zr10 Be1 Al2 Ge1 Sb4'
_cell_volume   370.39889219
_cell_formula_units_Z   1
loop_
 _symmetry_equiv_pos_site_id
 _symmetry_equiv_pos_as_xyz
  1  'x, y, z'
loop_
 _atom_site_type_symbol
 _atom_site_label
 _atom_site_symmetry_multiplicity
 _atom_site_fract_x
 _atom_site_fract_y
 _atom_site_fract_z
 _atom_site_occupancy
  Zr  Zr0  1  0.663351  0.330642  0.994917  1
  Zr  Zr1  1  0.336649  0.667291  0.994917  1
  Zr  Zr2  1  0.336032  0.667107  0.505845  1
  Zr  Zr3  1  0.663968  0.331074  0.505845  1
  Zr  Zr4  1  0.726047  0.734493  0.759575  1
  Zr  Zr5  1  0.273953  0.008445  0.759575  1
  Zr  Zr6  1  0.000000  0.265697  0.762089  1
  Zr  Zr7  1  0.253122  0.251720  0.237447  1
  Zr  Zr8  1  0.746878  0.998596  0.237447  1
  Zr  Zr9  1  0.000000  0.745704  0.242622  1
  Be  Be10  1  0.000000  0.000186  0.973506  1
  Al  Al11  1  0.386747  0.387807  0.749479  1
  Al  Al12  1  0.613253  0.001060  0.749479  1
  Ge  Ge13  1  0.000000  0.000990  0.519422  1
  Sb  Sb14  1  0.000000  0.615683  0.750043  1
  Sb  Sb15  1  0.601685  0.601259  0.252448  1
  Sb  Sb16  1  0.398315  0.999575  0.252448  1
  Sb  Sb17  1  0.000000  0.392672  0.252899  1
