# generated using pymatgen
data_Rb2Sr3Tc2N7
_symmetry_space_group_name_H-M   'P 1'
_cell_length_a   6.53153321
_cell_length_b   9.57361785
_cell_length_c   9.48918000
_cell_angle_alpha   117.53885829
_cell_angle_beta   95.32878631
_cell_angle_gamma   88.09593010
_symmetry_Int_Tables_number   1
_chemical_formula_structural   Rb2Sr3Tc2N7
_chemical_formula_sum   'Rb4 Sr6 Tc4 N14'
_cell_volume   523.82724300
_cell_formula_units_Z   2
loop_
 _symmetry_equiv_pos_site_id
 _symmetry_equiv_pos_as_xyz
  1  'x, y, z'
loop_
 _atom_site_type_symbol
 _atom_site_label
 _atom_site_symmetry_multiplicity
 _atom_site_fract_x
 _atom_site_fract_y
 _atom_site_fract_z
 _atom_site_occupancy
  Rb  Rb0  1  0.856917  0.594726  0.312189  1
  Rb  Rb1  1  0.277346  0.989219  0.558846  1
  Rb  Rb2  1  0.713746  0.418687  0.861934  1
  Rb  Rb3  1  0.287763  0.599529  0.161526  1
  Sr  Sr4  1  0.406656  0.799689  0.935889  1
  Sr  Sr5  1  0.586742  0.206373  0.044025  1
  Sr  Sr6  1  0.163769  0.416705  0.687974  1
  Sr  Sr7  1  0.906762  0.833343  0.748625  1
  Sr  Sr8  1  0.100055  0.170599  0.244562  1
  Sr  Sr9  1  0.740895  0.009842  0.450301  1
  Tc  Tc10  1  0.586772  0.353787  0.479681  1
  Tc  Tc11  1  0.435857  0.627294  0.525939  1
  Tc  Tc12  1  0.101937  0.192757  0.909571  1
  Tc  Tc13  1  0.878231  0.815476  0.079272  1
  N  N14  1  0.522768  0.544547  0.676356  1
  N  N15  1  0.489414  0.430231  0.326672  1
  N  N16  1  0.173625  0.677213  0.551332  1
  N  N17  1  0.851240  0.294027  0.478898  1
  N  N18  1  0.418203  0.199890  0.455994  1
  N  N19  1  0.594549  0.783849  0.542770  1
  N  N20  1  0.919143  0.097561  0.732205  1
  N  N21  1  0.036074  0.917574  0.266718  1
  N  N22  1  0.237136  0.046814  0.958706  1
  N  N23  1  0.759502  0.958104  0.018509  1
  N  N24  1  0.300560  0.305967  0.880987  1
  N  N25  1  0.960974  0.312933  0.079192  1
  N  N26  1  0.032380  0.676547  0.917149  1
  N  N27  1  0.660986  0.726719  0.114182  1
