# generated using pymatgen
data_ErLu3(ScPt)4
_symmetry_space_group_name_H-M   'P 1'
_cell_length_a   4.57719400
_cell_length_b   6.88872902
_cell_length_c   8.36227346
_cell_angle_alpha   90.08240046
_cell_angle_beta   90.00000000
_cell_angle_gamma   90.00000000
_symmetry_Int_Tables_number   1
_chemical_formula_structural   ErLu3(ScPt)4
_chemical_formula_sum   'Er1 Lu3 Sc4 Pt4'
_cell_volume   263.67098258
_cell_formula_units_Z   1
loop_
 _symmetry_equiv_pos_site_id
 _symmetry_equiv_pos_as_xyz
  1  'x, y, z'
loop_
 _atom_site_type_symbol
 _atom_site_label
 _atom_site_symmetry_multiplicity
 _atom_site_fract_x
 _atom_site_fract_y
 _atom_site_fract_z
 _atom_site_occupancy
  Er  Er0  1  0.750000  0.517898  0.825985  1
  Lu  Lu1  1  0.250000  0.981038  0.326489  1
  Lu  Lu2  1  0.250000  0.481199  0.174035  1
  Lu  Lu3  1  0.750000  0.018899  0.672774  1
  Sc  Sc4  1  0.250000  0.357812  0.570144  1
  Sc  Sc5  1  0.250000  0.858502  0.928566  1
  Sc  Sc6  1  0.750000  0.642359  0.428015  1
  Sc  Sc7  1  0.750000  0.141540  0.072216  1
  Pt  Pt8  1  0.250000  0.247730  0.897795  1
  Pt  Pt9  1  0.250000  0.749996  0.602212  1
  Pt  Pt10  1  0.750000  0.751761  0.104593  1
  Pt  Pt11  1  0.750000  0.251266  0.397177  1
