# generated using pymatgen
data_Er3TmCu2(Si2Ru)2
_symmetry_space_group_name_H-M   'P 1'
_cell_length_a   4.19281400
_cell_length_b   6.89199018
_cell_length_c   7.33562494
_cell_angle_alpha   91.23236535
_cell_angle_beta   90.00000000
_cell_angle_gamma   90.00000000
_symmetry_Int_Tables_number   1
_chemical_formula_structural   Er3TmCu2(Si2Ru)2
_chemical_formula_sum   'Er3 Tm1 Cu2 Si4 Ru2'
_cell_volume   211.92729680
_cell_formula_units_Z   1
loop_
 _symmetry_equiv_pos_site_id
 _symmetry_equiv_pos_as_xyz
  1  'x, y, z'
loop_
 _atom_site_type_symbol
 _atom_site_label
 _atom_site_symmetry_multiplicity
 _atom_site_fract_x
 _atom_site_fract_y
 _atom_site_fract_z
 _atom_site_occupancy
  Er  Er0  1  0.250000  0.995150  0.798328  1
  Er  Er1  1  0.750000  0.004864  0.202016  1
  Er  Er2  1  0.250000  0.493756  0.688634  1
  Tm  Tm3  1  0.750000  0.506630  0.310107  1
  Cu  Cu4  1  0.750000  0.832500  0.573096  1
  Cu  Cu5  1  0.250000  0.167146  0.426278  1
  Si  Si6  1  0.250000  0.297296  0.092969  1
  Si  Si7  1  0.750000  0.702823  0.907713  1
  Si  Si8  1  0.250000  0.793972  0.389790  1
  Si  Si9  1  0.750000  0.205874  0.609984  1
  Ru  Ru10  1  0.750000  0.345751  0.935710  1
  Ru  Ru11  1  0.250000  0.654239  0.065374  1
