# generated using pymatgen
data_Lu13Th3(NiAg)4
_symmetry_space_group_name_H-M   'P 1'
_cell_length_a   9.34860517
_cell_length_b   9.35167948
_cell_length_c   9.35167900
_cell_angle_alpha   59.99999817
_cell_angle_beta   59.98911923
_cell_angle_gamma   59.98911460
_symmetry_Int_Tables_number   1
_chemical_formula_structural   Lu13Th3(NiAg)4
_chemical_formula_sum   'Lu13 Th3 Ni4 Ag4'
_cell_volume   578.01559901
_cell_formula_units_Z   1
loop_
 _symmetry_equiv_pos_site_id
 _symmetry_equiv_pos_as_xyz
  1  'x, y, z'
loop_
 _atom_site_type_symbol
 _atom_site_label
 _atom_site_symmetry_multiplicity
 _atom_site_fract_x
 _atom_site_fract_y
 _atom_site_fract_z
 _atom_site_occupancy
  Lu  Lu0  1  0.941814  0.352729  0.352729  1
  Lu  Lu1  1  0.812560  0.187902  0.187902  1
  Lu  Lu2  1  0.187645  0.813960  0.813960  1
  Lu  Lu3  1  0.187645  0.813960  0.184435  1
  Lu  Lu4  1  0.812560  0.187902  0.811636  1
  Lu  Lu5  1  0.187645  0.184435  0.813960  1
  Lu  Lu6  1  0.812560  0.811636  0.187902  1
  Lu  Lu7  1  0.933474  0.565561  0.565561  1
  Lu  Lu8  1  0.567040  0.933255  0.933255  1
  Lu  Lu9  1  0.567040  0.933255  0.566452  1
  Lu  Lu10  1  0.933474  0.565561  0.935403  1
  Lu  Lu11  1  0.567040  0.566452  0.933255  1
  Lu  Lu12  1  0.933474  0.935403  0.565561  1
  Th  Th13  1  0.348278  0.353619  0.353619  1
  Th  Th14  1  0.348278  0.353619  0.944483  1
  Th  Th15  1  0.348278  0.944483  0.353619  1
  Ni  Ni16  1  0.143309  0.141585  0.141585  1
  Ni  Ni17  1  0.143309  0.141585  0.573522  1
  Ni  Ni18  1  0.143309  0.573522  0.141585  1
  Ni  Ni19  1  0.571129  0.142957  0.142957  1
  Ag  Ag20  1  0.590335  0.582254  0.582254  1
  Ag  Ag21  1  0.590335  0.582254  0.245157  1
  Ag  Ag22  1  0.590335  0.245157  0.582254  1
  Ag  Ag23  1  0.239134  0.586956  0.586956  1
