# generated using pymatgen
data_Tc3Te4I
_symmetry_space_group_name_H-M   'P 1'
_cell_length_a   12.82836100
_cell_length_b   7.05930318
_cell_length_c   12.09851659
_cell_angle_alpha   66.05720115
_cell_angle_beta   90.00000000
_cell_angle_gamma   90.00000000
_symmetry_Int_Tables_number   1
_chemical_formula_structural   Tc3Te4I
_chemical_formula_sum   'Tc12 Te16 I4'
_cell_volume   1001.35501088
_cell_formula_units_Z   4
loop_
 _symmetry_equiv_pos_site_id
 _symmetry_equiv_pos_as_xyz
  1  'x, y, z'
loop_
 _atom_site_type_symbol
 _atom_site_label
 _atom_site_symmetry_multiplicity
 _atom_site_fract_x
 _atom_site_fract_y
 _atom_site_fract_z
 _atom_site_occupancy
  Tc  Tc0  1  0.567498  0.025198  0.353041  1
  Tc  Tc1  1  0.932502  0.025198  0.853041  1
  Tc  Tc2  1  0.432502  0.974802  0.646959  1
  Tc  Tc3  1  0.067498  0.974802  0.146959  1
  Tc  Tc4  1  0.366065  0.971005  0.436910  1
  Tc  Tc5  1  0.133935  0.971005  0.936910  1
  Tc  Tc6  1  0.633935  0.028995  0.563090  1
  Tc  Tc7  1  0.866065  0.028995  0.063090  1
  Tc  Tc8  1  0.517171  0.709969  0.561149  1
  Tc  Tc9  1  0.982829  0.709969  0.061149  1
  Tc  Tc10  1  0.482829  0.290031  0.438851  1
  Tc  Tc11  1  0.017171  0.290031  0.938851  1
  Te  Te12  1  0.447891  0.720363  0.339252  1
  Te  Te13  1  0.052109  0.720363  0.839252  1
  Te  Te14  1  0.552109  0.279637  0.660748  1
  Te  Te15  1  0.947891  0.279637  0.160748  1
  Te  Te16  1  0.321660  0.651867  0.648622  1
  Te  Te17  1  0.178340  0.651867  0.148622  1
  Te  Te18  1  0.678340  0.348133  0.351378  1
  Te  Te19  1  0.821660  0.348133  0.851378  1
  Te  Te20  1  0.416260  0.288523  0.226879  1
  Te  Te21  1  0.083740  0.288523  0.726879  1
  Te  Te22  1  0.583740  0.711477  0.773121  1
  Te  Te23  1  0.916260  0.711477  0.273121  1
  Te  Te24  1  0.715187  0.758242  0.482586  1
  Te  Te25  1  0.784813  0.758242  0.982586  1
  Te  Te26  1  0.284813  0.241758  0.517414  1
  Te  Te27  1  0.215187  0.241758  0.017414  1
  I  I28  1  0.154701  0.913009  0.376500  1
  I  I29  1  0.345299  0.913009  0.876500  1
  I  I30  1  0.845299  0.086991  0.623500  1
  I  I31  1  0.654701  0.086991  0.123500  1
