# generated using pymatgen
data_K4ScAuO5
_symmetry_space_group_name_H-M   'P 1'
_cell_length_a   6.31633516
_cell_length_b   6.31633530
_cell_length_c   10.91143200
_cell_angle_alpha   90.00000000
_cell_angle_beta   90.00000000
_cell_angle_gamma   114.73029358
_symmetry_Int_Tables_number   1
_chemical_formula_structural   K4ScAuO5
_chemical_formula_sum   'K8 Sc2 Au2 O10'
_cell_volume   395.39870851
_cell_formula_units_Z   2
loop_
 _symmetry_equiv_pos_site_id
 _symmetry_equiv_pos_as_xyz
  1  'x, y, z'
loop_
 _atom_site_type_symbol
 _atom_site_label
 _atom_site_symmetry_multiplicity
 _atom_site_fract_x
 _atom_site_fract_y
 _atom_site_fract_z
 _atom_site_occupancy
  K  K0  1  0.380526  0.026648  0.250000  1
  K  K1  1  0.026648  0.380526  0.250000  1
  K  K2  1  0.660563  0.339437  0.000000  1
  K  K3  1  0.660563  0.339437  0.500000  1
  K  K4  1  0.339437  0.660563  0.000000  1
  K  K5  1  0.619474  0.973352  0.750000  1
  K  K6  1  0.339437  0.660563  0.500000  1
  K  K7  1  0.973352  0.619474  0.750000  1
  Sc  Sc8  1  0.766700  0.766700  0.250000  1
  Sc  Sc9  1  0.233300  0.233300  0.750000  1
  Au  Au10  1  0.000000  0.000000  0.000000  1
  Au  Au11  1  0.000000  0.000000  0.500000  1
  O  O12  1  0.004058  0.262533  0.612989  1
  O  O13  1  0.262533  0.004058  0.887011  1
  O  O14  1  0.737467  0.995942  0.387011  1
  O  O15  1  0.737467  0.995942  0.112989  1
  O  O16  1  0.483738  0.483738  0.250000  1
  O  O17  1  0.516262  0.516262  0.750000  1
  O  O18  1  0.995942  0.737467  0.387011  1
  O  O19  1  0.262533  0.004058  0.612989  1
  O  O20  1  0.995942  0.737467  0.112989  1
  O  O21  1  0.004058  0.262533  0.887011  1
