# generated using pymatgen
data_Tb4Mg3ZnRh4
_symmetry_space_group_name_H-M   'P 1'
_cell_length_a   4.10785600
_cell_length_b   7.09357092
_cell_length_c   8.43893409
_cell_angle_alpha   90.05835537
_cell_angle_beta   90.00000000
_cell_angle_gamma   90.00000000
_symmetry_Int_Tables_number   1
_chemical_formula_structural   Tb4Mg3ZnRh4
_chemical_formula_sum   'Tb4 Mg3 Zn1 Rh4'
_cell_volume   245.90507741
_cell_formula_units_Z   1
loop_
 _symmetry_equiv_pos_site_id
 _symmetry_equiv_pos_as_xyz
  1  'x, y, z'
loop_
 _atom_site_type_symbol
 _atom_site_label
 _atom_site_symmetry_multiplicity
 _atom_site_fract_x
 _atom_site_fract_y
 _atom_site_fract_z
 _atom_site_occupancy
  Tb  Tb0  1  0.250000  0.533125  0.185226  1
  Tb  Tb1  1  0.750000  0.460471  0.818274  1
  Tb  Tb2  1  0.250000  0.047705  0.326959  1
  Tb  Tb3  1  0.750000  0.963239  0.676017  1
  Mg  Mg4  1  0.250000  0.136547  0.938762  1
  Mg  Mg5  1  0.750000  0.863091  0.061427  1
  Mg  Mg6  1  0.250000  0.631343  0.557060  1
  Zn  Zn7  1  0.750000  0.365338  0.438157  1
  Rh  Rh8  1  0.750000  0.748118  0.373307  1
  Rh  Rh9  1  0.250000  0.253797  0.623139  1
  Rh  Rh10  1  0.750000  0.249156  0.130613  1
  Rh  Rh11  1  0.250000  0.748071  0.871059  1
