# generated using pymatgen
data_Mn2Be8AlV
_symmetry_space_group_name_H-M   'P 1'
_cell_length_a   4.25353600
_cell_length_b   4.25353580
_cell_length_c   6.94317200
_cell_angle_alpha   90.00000000
_cell_angle_beta   90.00000000
_cell_angle_gamma   120.00000156
_symmetry_Int_Tables_number   1
_chemical_formula_structural   Mn2Be8AlV
_chemical_formula_sum   'Mn2 Be8 Al1 V1'
_cell_volume   108.78994419
_cell_formula_units_Z   1
loop_
 _symmetry_equiv_pos_site_id
 _symmetry_equiv_pos_as_xyz
  1  'x, y, z'
loop_
 _atom_site_type_symbol
 _atom_site_label
 _atom_site_symmetry_multiplicity
 _atom_site_fract_x
 _atom_site_fract_y
 _atom_site_fract_z
 _atom_site_occupancy
  Mn  Mn0  1  0.666667  0.333333  0.924690  1
  Mn  Mn1  1  0.333333  0.666667  0.452912  1
  Be  Be2  1  0.000000  0.000000  0.996507  1
  Be  Be3  1  0.000000  0.000000  0.490462  1
  Be  Be4  1  0.829691  0.659380  0.250634  1
  Be  Be5  1  0.169584  0.830416  0.750312  1
  Be  Be6  1  0.660832  0.830416  0.750312  1
  Be  Be7  1  0.340620  0.170309  0.250634  1
  Be  Be8  1  0.829691  0.170309  0.250634  1
  Be  Be9  1  0.169584  0.339168  0.750312  1
  Al  Al10  1  0.333333  0.666667  0.065452  1
  V  V11  1  0.666667  0.333333  0.567138  1
