# generated using pymatgen
data_Sm2Dy2Ni13C4
_symmetry_space_group_name_H-M   'P 1'
_cell_length_a   8.41445392
_cell_length_b   8.41445445
_cell_length_c   3.88616700
_cell_angle_alpha   90.00000000
_cell_angle_beta   90.00000000
_cell_angle_gamma   90.79241722
_symmetry_Int_Tables_number   1
_chemical_formula_structural   Sm2Dy2Ni13C4
_chemical_formula_sum   'Sm2 Dy2 Ni13 C4'
_cell_volume   275.12611965
_cell_formula_units_Z   1
loop_
 _symmetry_equiv_pos_site_id
 _symmetry_equiv_pos_as_xyz
  1  'x, y, z'
loop_
 _atom_site_type_symbol
 _atom_site_label
 _atom_site_symmetry_multiplicity
 _atom_site_fract_x
 _atom_site_fract_y
 _atom_site_fract_z
 _atom_site_occupancy
  Sm  Sm0  1  0.652309  0.652309  0.500000  1
  Sm  Sm1  1  0.347691  0.347691  0.500000  1
  Dy  Dy2  1  0.812704  0.187296  0.500000  1
  Dy  Dy3  1  0.187296  0.812704  0.500000  1
  Ni  Ni4  1  0.500000  0.000000  0.500000  1
  Ni  Ni5  1  0.000000  0.500000  0.500000  1
  Ni  Ni6  1  0.000000  0.000000  0.000000  1
  Ni  Ni7  1  0.429385  0.785306  0.000000  1
  Ni  Ni8  1  0.570615  0.214694  0.000000  1
  Ni  Ni9  1  0.214694  0.570615  0.000000  1
  Ni  Ni10  1  0.785306  0.429385  0.000000  1
  Ni  Ni11  1  0.709759  0.928651  0.000000  1
  Ni  Ni12  1  0.290241  0.071349  0.000000  1
  Ni  Ni13  1  0.071349  0.290241  0.000000  1
  Ni  Ni14  1  0.928651  0.709759  0.000000  1
  Ni  Ni15  1  0.878197  0.878197  0.500000  1
  Ni  Ni16  1  0.121803  0.121803  0.500000  1
  C  C17  1  0.442974  0.557026  0.000000  1
  C  C18  1  0.557026  0.442974  0.000000  1
  C  C19  1  0.500000  0.000000  0.000000  1
  C  C20  1  0.000000  0.500000  0.000000  1
