# generated using pymatgen
data_Er5ZrAl18
_symmetry_space_group_name_H-M   'P 1'
_cell_length_a   14.44894080
_cell_length_b   14.44894114
_cell_length_c   14.44894349
_cell_angle_alpha   24.26663740
_cell_angle_beta   24.26663616
_cell_angle_gamma   24.26663762
_symmetry_Int_Tables_number   1
_chemical_formula_structural   Er5ZrAl18
_chemical_formula_sum   'Er5 Zr1 Al18'
_cell_volume   447.84501447
_cell_formula_units_Z   1
loop_
 _symmetry_equiv_pos_site_id
 _symmetry_equiv_pos_as_xyz
  1  'x, y, z'
loop_
 _atom_site_type_symbol
 _atom_site_label
 _atom_site_symmetry_multiplicity
 _atom_site_fract_x
 _atom_site_fract_y
 _atom_site_fract_z
 _atom_site_occupancy
  Er  Er0  1  0.889788  0.889788  0.889788  1
  Er  Er1  1  0.390567  0.390567  0.390567  1
  Er  Er2  1  0.999710  0.999710  0.999710  1
  Er  Er3  1  0.500124  0.500124  0.500124  1
  Er  Er4  1  0.609542  0.609542  0.609542  1
  Zr  Zr5  1  0.110140  0.110140  0.110140  1
  Al  Al6  1  0.920663  0.372381  0.372381  1
  Al  Al7  1  0.416050  0.875761  0.875761  1
  Al  Al8  1  0.372381  0.372381  0.920663  1
  Al  Al9  1  0.875761  0.875761  0.416050  1
  Al  Al10  1  0.372381  0.920663  0.372381  1
  Al  Al11  1  0.875761  0.416050  0.875761  1
  Al  Al12  1  0.579615  0.127194  0.127194  1
  Al  Al13  1  0.083781  0.625483  0.625483  1
  Al  Al14  1  0.127194  0.127194  0.579615  1
  Al  Al15  1  0.625483  0.625483  0.083781  1
  Al  Al16  1  0.127194  0.579615  0.127194  1
  Al  Al17  1  0.625483  0.083781  0.625483  1
  Al  Al18  1  0.499476  0.499476  0.001259  1
  Al  Al19  1  0.001495  0.001495  0.495179  1
  Al  Al20  1  0.499476  0.001259  0.499476  1
  Al  Al21  1  0.001495  0.495179  0.001495  1
  Al  Al22  1  0.001259  0.499476  0.499476  1
  Al  Al23  1  0.495179  0.001495  0.001495  1
