# generated using pymatgen
data_Dy3ErCo12(P3Rh2)4
_symmetry_space_group_name_H-M   'P 1'
_cell_length_a   3.73075000
_cell_length_b   10.46899000
_cell_length_c   12.11345500
_cell_angle_alpha   89.99962338
_cell_angle_beta   90.00000000
_cell_angle_gamma   90.00000000
_symmetry_Int_Tables_number   1
_chemical_formula_structural   Dy3ErCo12(P3Rh2)4
_chemical_formula_sum   'Dy3 Er1 Co12 P12 Rh8'
_cell_volume   473.11744617
_cell_formula_units_Z   1
loop_
 _symmetry_equiv_pos_site_id
 _symmetry_equiv_pos_as_xyz
  1  'x, y, z'
loop_
 _atom_site_type_symbol
 _atom_site_label
 _atom_site_symmetry_multiplicity
 _atom_site_fract_x
 _atom_site_fract_y
 _atom_site_fract_z
 _atom_site_occupancy
  Dy  Dy0  1  0.250000  0.584069  0.710970  1
  Dy  Dy1  1  0.250000  0.916093  0.211019  1
  Dy  Dy2  1  0.750000  0.415873  0.289010  1
  Er  Er3  1  0.750000  0.083881  0.789291  1
  Co  Co4  1  0.250000  0.220346  0.178277  1
  Co  Co5  1  0.250000  0.278691  0.678407  1
  Co  Co6  1  0.750000  0.779483  0.821562  1
  Co  Co7  1  0.750000  0.720882  0.321691  1
  Co  Co8  1  0.250000  0.883102  0.697376  1
  Co  Co9  1  0.250000  0.617603  0.196931  1
  Co  Co10  1  0.750000  0.117467  0.303067  1
  Co  Co11  1  0.750000  0.381800  0.802841  1
  Co  Co12  1  0.250000  0.462283  0.931121  1
  Co  Co13  1  0.250000  0.037315  0.431977  1
  Co  Co14  1  0.750000  0.537024  0.068540  1
  Co  Co15  1  0.750000  0.963623  0.569452  1
  P  P16  1  0.250000  0.421587  0.110240  1
  P  P17  1  0.250000  0.078455  0.611294  1
  P  P18  1  0.750000  0.577891  0.889534  1
  P  P19  1  0.750000  0.922007  0.390081  1
  P  P20  1  0.250000  0.273691  0.861546  1
  P  P21  1  0.250000  0.225453  0.362077  1
  P  P22  1  0.750000  0.725494  0.137840  1
  P  P23  1  0.750000  0.774738  0.637924  1
  P  P24  1  0.250000  0.604781  0.379417  1
  P  P25  1  0.250000  0.895850  0.879188  1
  P  P26  1  0.750000  0.395403  0.620497  1
  P  P27  1  0.750000  0.104495  0.120653  1
  Rh  Rh28  1  0.250000  0.711674  0.986265  1
  Rh  Rh29  1  0.250000  0.788443  0.486996  1
  Rh  Rh30  1  0.750000  0.288062  0.013386  1
  Rh  Rh31  1  0.750000  0.212056  0.512845  1
  Rh  Rh32  1  0.250000  0.406801  0.479730  1
  Rh  Rh33  1  0.250000  0.093332  0.978209  1
  Rh  Rh34  1  0.750000  0.593599  0.520339  1
  Rh  Rh35  1  0.750000  0.906655  0.020408  1
