# generated using pymatgen
data_Ho2LuHf(Al3Ir)6
_symmetry_space_group_name_H-M   'P 1'
_cell_length_a   7.53105511
_cell_length_b   7.52568612
_cell_length_c   9.39430800
_cell_angle_alpha   90.00000000
_cell_angle_beta   90.00000000
_cell_angle_gamma   119.60076903
_symmetry_Int_Tables_number   1
_chemical_formula_structural   Ho2LuHf(Al3Ir)6
_chemical_formula_sum   'Ho2 Lu1 Hf1 Al18 Ir6'
_cell_volume   462.94613577
_cell_formula_units_Z   1
loop_
 _symmetry_equiv_pos_site_id
 _symmetry_equiv_pos_as_xyz
  1  'x, y, z'
loop_
 _atom_site_type_symbol
 _atom_site_label
 _atom_site_symmetry_multiplicity
 _atom_site_fract_x
 _atom_site_fract_y
 _atom_site_fract_z
 _atom_site_occupancy
  Ho  Ho0  1  0.005447  0.327390  0.750000  1
  Ho  Ho1  1  0.328857  0.006422  0.750000  1
  Lu  Lu2  1  0.671734  0.995783  0.250000  1
  Hf  Hf3  1  0.996954  0.672748  0.250000  1
  Al  Al4  1  0.126044  0.123846  0.250000  1
  Al  Al5  1  0.870243  0.869298  0.750000  1
  Al  Al6  1  0.999783  0.337348  0.079422  1
  Al  Al7  1  0.999037  0.664836  0.928698  1
  Al  Al8  1  0.999037  0.664836  0.571302  1
  Al  Al9  1  0.333360  0.998264  0.420416  1
  Al  Al10  1  0.999783  0.337348  0.420578  1
  Al  Al11  1  0.664381  0.998210  0.573926  1
  Al  Al12  1  0.664381  0.998210  0.926074  1
  Al  Al13  1  0.333360  0.998264  0.079584  1
  Al  Al14  1  0.333789  0.333992  0.551100  1
  Al  Al15  1  0.669047  0.667333  0.441838  1
  Al  Al16  1  0.669047  0.667333  0.058162  1
  Al  Al17  1  0.333789  0.333992  0.948900  1
  Al  Al18  1  0.336755  0.550081  0.250000  1
  Al  Al19  1  0.660631  0.452091  0.750000  1
  Al  Al20  1  0.554918  0.343811  0.250000  1
  Al  Al21  1  0.451016  0.659785  0.750000  1
  Ir  Ir22  1  0.672717  0.328007  0.001283  1
  Ir  Ir23  1  0.327581  0.672607  0.002064  1
  Ir  Ir24  1  0.327581  0.672607  0.497936  1
  Ir  Ir25  1  0.672717  0.328007  0.498717  1
  Ir  Ir26  1  0.999008  0.998775  0.001579  1
  Ir  Ir27  1  0.999008  0.998775  0.498421  1
