# generated using pymatgen
data_Cs3SbPBr9
_symmetry_space_group_name_H-M   'P 1'
_cell_length_a   8.04300800
_cell_length_b   8.04300778
_cell_length_c   9.71271400
_cell_angle_alpha   90.00000000
_cell_angle_beta   90.00000000
_cell_angle_gamma   120.00000089
_symmetry_Int_Tables_number   1
_chemical_formula_structural   Cs3SbPBr9
_chemical_formula_sum   'Cs3 Sb1 P1 Br9'
_cell_volume   544.13695018
_cell_formula_units_Z   1
loop_
 _symmetry_equiv_pos_site_id
 _symmetry_equiv_pos_as_xyz
  1  'x, y, z'
loop_
 _atom_site_type_symbol
 _atom_site_label
 _atom_site_symmetry_multiplicity
 _atom_site_fract_x
 _atom_site_fract_y
 _atom_site_fract_z
 _atom_site_occupancy
  Cs  Cs0  1  0.666667  0.333333  0.684518  1
  Cs  Cs1  1  0.333333  0.666667  0.324958  1
  Cs  Cs2  1  0.000000  0.000000  0.989932  1
  Sb  Sb3  1  0.333333  0.666667  0.824108  1
  P  P4  1  0.666667  0.333333  0.197474  1
  Br  Br5  1  0.657574  0.828787  0.664919  1
  Br  Br6  1  0.811981  0.188019  0.323773  1
  Br  Br7  1  0.171213  0.342426  0.664919  1
  Br  Br8  1  0.501766  0.003532  0.004311  1
  Br  Br9  1  0.811981  0.623963  0.323773  1
  Br  Br10  1  0.376037  0.188019  0.323773  1
  Br  Br11  1  0.171213  0.828787  0.664919  1
  Br  Br12  1  0.501766  0.498234  0.004311  1
  Br  Br13  1  0.996468  0.498234  0.004311  1
