# generated using pymatgen
data_Yb11Ho8MgSn16
_symmetry_space_group_name_H-M   'P 1'
_cell_length_a   7.78419698
_cell_length_b   8.38900947
_cell_length_c   15.96638000
_cell_angle_alpha   90.00000000
_cell_angle_beta   90.00000000
_cell_angle_gamma   90.06229974
_symmetry_Int_Tables_number   1
_chemical_formula_structural   Yb11Ho8MgSn16
_chemical_formula_sum   'Yb11 Ho8 Mg1 Sn16'
_cell_volume   1042.63117476
_cell_formula_units_Z   1
loop_
 _symmetry_equiv_pos_site_id
 _symmetry_equiv_pos_as_xyz
  1  'x, y, z'
loop_
 _atom_site_type_symbol
 _atom_site_label
 _atom_site_symmetry_multiplicity
 _atom_site_fract_x
 _atom_site_fract_y
 _atom_site_fract_z
 _atom_site_occupancy
  Yb  Yb0  1  0.506025  0.685881  0.594401  1
  Yb  Yb1  1  0.003789  0.810567  0.906459  1
  Yb  Yb2  1  0.493801  0.311722  0.092293  1
  Yb  Yb3  1  0.995223  0.186451  0.408118  1
  Yb  Yb4  1  0.493801  0.311722  0.407707  1
  Yb  Yb5  1  0.995223  0.186451  0.091882  1
  Yb  Yb6  1  0.506025  0.685881  0.905599  1
  Yb  Yb7  1  0.003789  0.810567  0.593541  1
  Yb  Yb8  1  0.340569  0.991172  0.750000  1
  Yb  Yb9  1  0.162079  0.488796  0.250000  1
  Yb  Yb10  1  0.662183  0.010360  0.250000  1
  Ho  Ho11  1  0.676109  0.167579  0.622948  1
  Ho  Ho12  1  0.174628  0.337305  0.876434  1
  Ho  Ho13  1  0.324756  0.834122  0.121412  1
  Ho  Ho14  1  0.824181  0.666105  0.378800  1
  Ho  Ho15  1  0.324756  0.834122  0.378588  1
  Ho  Ho16  1  0.824181  0.666105  0.121200  1
  Ho  Ho17  1  0.676109  0.167579  0.877052  1
  Ho  Ho18  1  0.174628  0.337305  0.623566  1
  Mg  Mg19  1  0.841609  0.507128  0.750000  1
  Sn  Sn20  1  0.669771  0.963608  0.459890  1
  Sn  Sn21  1  0.170183  0.536561  0.040089  1
  Sn  Sn22  1  0.329080  0.036773  0.958112  1
  Sn  Sn23  1  0.830326  0.463285  0.542454  1
  Sn  Sn24  1  0.329080  0.036773  0.541888  1
  Sn  Sn25  1  0.830326  0.463285  0.957546  1
  Sn  Sn26  1  0.669771  0.963608  0.040110  1
  Sn  Sn27  1  0.170183  0.536561  0.459911  1
  Sn  Sn28  1  0.482162  0.386770  0.750000  1
  Sn  Sn29  1  0.972890  0.123959  0.750000  1
  Sn  Sn30  1  0.526747  0.627628  0.250000  1
  Sn  Sn31  1  0.026254  0.871615  0.250000  1
  Sn  Sn32  1  0.722977  0.862763  0.750000  1
  Sn  Sn33  1  0.208931  0.630979  0.750000  1
  Sn  Sn34  1  0.278955  0.127234  0.250000  1
  Sn  Sn35  1  0.778903  0.371678  0.250000  1
