# generated using pymatgen
data_Pm2ZnTc3
_symmetry_space_group_name_H-M   'P 1'
_cell_length_a   5.60254441
_cell_length_b   5.60254374
_cell_length_c   5.60254401
_cell_angle_alpha   56.91006457
_cell_angle_beta   56.91006676
_cell_angle_gamma   56.91006464
_symmetry_Int_Tables_number   1
_chemical_formula_structural   Pm2ZnTc3
_chemical_formula_sum   'Pm2 Zn1 Tc3'
_cell_volume   115.48521711
_cell_formula_units_Z   1
loop_
 _symmetry_equiv_pos_site_id
 _symmetry_equiv_pos_as_xyz
  1  'x, y, z'
loop_
 _atom_site_type_symbol
 _atom_site_label
 _atom_site_symmetry_multiplicity
 _atom_site_fract_x
 _atom_site_fract_y
 _atom_site_fract_z
 _atom_site_occupancy
  Pm  Pm0  1  0.746133  0.746133  0.746133  1
  Pm  Pm1  1  0.503867  0.503867  0.503867  1
  Zn  Zn2  1  0.125000  0.125000  0.125000  1
  Tc  Tc3  1  0.625000  0.125000  0.125000  1
  Tc  Tc4  1  0.125000  0.625000  0.125000  1
  Tc  Tc5  1  0.125000  0.125000  0.625000  1
