# generated using pymatgen
data_Li4Ac2YErSn4
_symmetry_space_group_name_H-M   'P 1'
_cell_length_a   9.59132300
_cell_length_b   9.56978296
_cell_length_c   7.91137036
_cell_angle_alpha   90.01884955
_cell_angle_beta   90.00000000
_cell_angle_gamma   120.07448168
_symmetry_Int_Tables_number   1
_chemical_formula_structural   Li4Ac2YErSn4
_chemical_formula_sum   'Li8 Ac4 Y2 Er2 Sn8'
_cell_volume   628.40044173
_cell_formula_units_Z   2
loop_
 _symmetry_equiv_pos_site_id
 _symmetry_equiv_pos_as_xyz
  1  'x, y, z'
loop_
 _atom_site_type_symbol
 _atom_site_label
 _atom_site_symmetry_multiplicity
 _atom_site_fract_x
 _atom_site_fract_y
 _atom_site_fract_z
 _atom_site_occupancy
  Li  Li0  1  0.166753  0.333507  0.319432  1
  Li  Li1  1  0.166540  0.833003  0.318205  1
  Li  Li2  1  0.666463  0.833003  0.318205  1
  Li  Li3  1  0.666956  0.333911  0.327435  1
  Li  Li4  1  0.832699  0.665400  0.681789  1
  Li  Li5  1  0.334412  0.167502  0.683366  1
  Li  Li6  1  0.833090  0.167502  0.683366  1
  Li  Li7  1  0.333109  0.666219  0.692273  1
  Ac  Ac8  1  0.000127  0.000255  0.001636  1
  Ac  Ac9  1  0.500848  0.001697  0.002276  1
  Ac  Ac10  1  0.501247  0.498978  0.002729  1
  Ac  Ac11  1  0.997731  0.498978  0.002729  1
  Y  Y12  1  0.999962  0.999924  0.502837  1
  Y  Y13  1  0.498732  0.997461  0.502271  1
  Er  Er14  1  0.002819  0.501470  0.501965  1
  Er  Er15  1  0.498652  0.501470  0.501965  1
  Sn  Sn16  1  0.332893  0.665787  0.277746  1
  Sn  Sn17  1  0.833109  0.666219  0.281314  1
  Sn  Sn18  1  0.333942  0.167564  0.280578  1
  Sn  Sn19  1  0.833621  0.167564  0.280578  1
  Sn  Sn20  1  0.667132  0.334263  0.721954  1
  Sn  Sn21  1  0.166955  0.333909  0.723453  1
  Sn  Sn22  1  0.166016  0.832207  0.724940  1
  Sn  Sn23  1  0.666192  0.832207  0.724940  1
