# generated using pymatgen
data_Th4B16Ir3Ru
_symmetry_space_group_name_H-M   'P 1'
_cell_length_a   7.07884059
_cell_length_b   7.07884080
_cell_length_c   7.07884100
_cell_angle_alpha   112.36674096
_cell_angle_beta   111.64879230
_cell_angle_gamma   104.51007233
_symmetry_Int_Tables_number   1
_chemical_formula_structural   Th4B16Ir3Ru
_chemical_formula_sum   'Th4 B16 Ir3 Ru1'
_cell_volume   271.53454547
_cell_formula_units_Z   1
loop_
 _symmetry_equiv_pos_site_id
 _symmetry_equiv_pos_as_xyz
  1  'x, y, z'
loop_
 _atom_site_type_symbol
 _atom_site_label
 _atom_site_symmetry_multiplicity
 _atom_site_fract_x
 _atom_site_fract_y
 _atom_site_fract_z
 _atom_site_occupancy
  Th  Th0  1  0.211690  0.213229  0.998461  1
  Th  Th1  1  0.785233  0.786771  0.998461  1
  Th  Th2  1  0.754801  0.252675  0.502125  1
  Th  Th3  1  0.249451  0.747325  0.502125  1
  B  B4  1  0.107923  0.264937  0.372860  1
  B  B5  1  0.893099  0.736037  0.629136  1
  B  B6  1  0.893099  0.263963  0.157063  1
  B  B7  1  0.107923  0.735063  0.842985  1
  B  B8  1  0.736333  0.893093  0.629427  1
  B  B9  1  0.264016  0.107241  0.371255  1
  B  B10  1  0.736333  0.106907  0.843240  1
  B  B11  1  0.264016  0.892759  0.156776  1
  B  B12  1  0.414217  0.415028  0.526861  1
  B  B13  1  0.887372  0.887178  0.472502  1
  B  B14  1  0.585323  0.112822  0.000192  1
  B  B15  1  0.111833  0.584972  0.999190  1
  B  B16  1  0.585323  0.585131  0.472502  1
  B  B17  1  0.111833  0.112644  0.526861  1
  B  B18  1  0.887372  0.414869  0.000192  1
  B  B19  1  0.414217  0.887356  0.999190  1
  Ir  Ir20  1  0.499175  0.260110  0.759285  1
  Ir  Ir21  1  0.499175  0.739890  0.239065  1
  Ir  Ir22  1  0.738676  0.500000  0.238676  1
  Ru  Ru23  1  0.261571  0.500000  0.761571  1
