# generated using pymatgen
data_SmZr3(Si3Ni5)4
_symmetry_space_group_name_H-M   'P 1'
_cell_length_a   3.73981800
_cell_length_b   6.61303296
_cell_length_c   18.43913744
_cell_angle_alpha   90.12154705
_cell_angle_beta   90.00000000
_cell_angle_gamma   90.00000000
_symmetry_Int_Tables_number   1
_chemical_formula_structural   SmZr3(Si3Ni5)4
_chemical_formula_sum   'Sm1 Zr3 Si12 Ni20'
_cell_volume   456.02723344
_cell_formula_units_Z   1
loop_
 _symmetry_equiv_pos_site_id
 _symmetry_equiv_pos_as_xyz
  1  'x, y, z'
loop_
 _atom_site_type_symbol
 _atom_site_label
 _atom_site_symmetry_multiplicity
 _atom_site_fract_x
 _atom_site_fract_y
 _atom_site_fract_z
 _atom_site_occupancy
  Sm  Sm0  1  0.250000  0.877072  0.142939  1
  Zr  Zr1  1  0.250000  0.621815  0.643223  1
  Zr  Zr2  1  0.750000  0.378944  0.357986  1
  Zr  Zr3  1  0.750000  0.120177  0.855269  1
  Si  Si4  1  0.250000  0.852786  0.922698  1
  Si  Si5  1  0.750000  0.160760  0.074213  1
  Si  Si6  1  0.750000  0.351243  0.577662  1
  Si  Si7  1  0.250000  0.646675  0.424781  1
  Si  Si8  1  0.750000  0.622043  0.759991  1
  Si  Si9  1  0.250000  0.377399  0.241153  1
  Si  Si10  1  0.250000  0.406415  0.910010  1
  Si  Si11  1  0.750000  0.578955  0.083356  1
  Si  Si12  1  0.750000  0.906465  0.586093  1
  Si  Si13  1  0.250000  0.095135  0.416079  1
  Si  Si14  1  0.250000  0.121409  0.738548  1
  Si  Si15  1  0.750000  0.877515  0.265364  1
  Ni  Ni16  1  0.250000  0.134987  0.992966  1
  Ni  Ni17  1  0.750000  0.380305  0.980947  1
  Ni  Ni18  1  0.750000  0.120761  0.487793  1
  Ni  Ni19  1  0.250000  0.613771  0.010167  1
  Ni  Ni20  1  0.250000  0.360932  0.116302  1
  Ni  Ni21  1  0.750000  0.646520  0.883815  1
  Ni  Ni22  1  0.750000  0.855994  0.388590  1
  Ni  Ni23  1  0.250000  0.142332  0.614804  1
  Ni  Ni24  1  0.250000  0.071832  0.296287  1
  Ni  Ni25  1  0.750000  0.928995  0.706501  1
  Ni  Ni26  1  0.750000  0.567676  0.207613  1
  Ni  Ni27  1  0.250000  0.430236  0.790479  1
  Ni  Ni28  1  0.750000  0.629203  0.506446  1
  Ni  Ni29  1  0.250000  0.370232  0.496484  1
  Ni  Ni30  1  0.250000  0.817915  0.798594  1
  Ni  Ni31  1  0.750000  0.186190  0.202727  1
  Ni  Ni32  1  0.750000  0.316943  0.700273  1
  Ni  Ni33  1  0.250000  0.680807  0.302193  1
  Ni  Ni34  1  0.250000  0.879777  0.513951  1
  Ni  Ni35  1  0.750000  0.869787  0.003699  1
