# generated using pymatgen
data_NdLu3(Si5Os3)2
_symmetry_space_group_name_H-M   'P 1'
_cell_length_a   8.13547248
_cell_length_b   8.11462727
_cell_length_c   5.78297113
_cell_angle_alpha   70.60777478
_cell_angle_beta   70.52300937
_cell_angle_gamma   94.05714221
_symmetry_Int_Tables_number   1
_chemical_formula_structural   NdLu3(Si5Os3)2
_chemical_formula_sum   'Nd1 Lu3 Si10 Os6'
_cell_volume   332.36147421
_cell_formula_units_Z   1
loop_
 _symmetry_equiv_pos_site_id
 _symmetry_equiv_pos_as_xyz
  1  'x, y, z'
loop_
 _atom_site_type_symbol
 _atom_site_label
 _atom_site_symmetry_multiplicity
 _atom_site_fract_x
 _atom_site_fract_y
 _atom_site_fract_z
 _atom_site_occupancy
  Nd  Nd0  1  0.867324  0.602350  0.753394  1
  Lu  Lu1  1  0.400566  0.128935  0.746079  1
  Lu  Lu2  1  0.130415  0.399830  0.245729  1
  Lu  Lu3  1  0.601109  0.867672  0.255774  1
  Si  Si4  1  0.072506  0.261929  0.832328  1
  Si  Si5  1  0.736671  0.937026  0.666341  1
  Si  Si6  1  0.932021  0.739442  0.165162  1
  Si  Si7  1  0.260158  0.068743  0.333533  1
  Si  Si8  1  0.207962  0.795310  0.751263  1
  Si  Si9  1  0.794356  0.206913  0.247315  1
  Si  Si10  1  0.508924  0.482991  0.754021  1
  Si  Si11  1  0.485721  0.511345  0.249885  1
  Si  Si12  1  0.773921  0.223104  0.751726  1
  Si  Si13  1  0.227460  0.774491  0.246607  1
  Os  Os14  1  0.258369  0.544960  0.630244  1
  Os  Os15  1  0.456848  0.744895  0.867077  1
  Os  Os16  1  0.742872  0.454105  0.371578  1
  Os  Os17  1  0.541952  0.251459  0.133796  1
  Os  Os18  1  0.003004  0.000203  0.748824  1
  Os  Os19  1  0.997841  0.004295  0.249325  1
