# generated using pymatgen
data_Na2Zr6MnBr15
_symmetry_space_group_name_H-M   'P 1'
_cell_length_a   9.80850525
_cell_length_b   9.80850426
_cell_length_c   9.80850420
_cell_angle_alpha   108.39614275
_cell_angle_beta   108.39613871
_cell_angle_gamma   111.64346542
_symmetry_Int_Tables_number   1
_chemical_formula_structural   Na2Zr6MnBr15
_chemical_formula_sum   'Na2 Zr6 Mn1 Br15'
_cell_volume   725.63142469
_cell_formula_units_Z   1
loop_
 _symmetry_equiv_pos_site_id
 _symmetry_equiv_pos_as_xyz
  1  'x, y, z'
loop_
 _atom_site_type_symbol
 _atom_site_label
 _atom_site_symmetry_multiplicity
 _atom_site_fract_x
 _atom_site_fract_y
 _atom_site_fract_z
 _atom_site_occupancy
  Na  Na0  1  0.250000  0.750000  0.500000  1
  Na  Na1  1  0.750000  0.250000  0.500000  1
  Zr  Zr2  1  0.773416  0.773416  0.000000  1
  Zr  Zr3  1  0.000000  0.213346  0.213346  1
  Zr  Zr4  1  0.213346  0.000000  0.213346  1
  Zr  Zr5  1  0.226584  0.226584  0.000000  1
  Zr  Zr6  1  0.000000  0.786654  0.786654  1
  Zr  Zr7  1  0.786654  0.000000  0.786654  1
  Mn  Mn8  1  0.000000  0.000000  0.000000  1
  Br  Br9  1  0.500000  0.500000  0.000000  1
  Br  Br10  1  0.000000  0.500000  0.500000  1
  Br  Br11  1  0.500000  0.000000  0.500000  1
  Br  Br12  1  0.236382  0.236382  0.472764  1
  Br  Br13  1  0.991015  0.753328  0.237687  1
  Br  Br14  1  0.753328  0.991015  0.237687  1
  Br  Br15  1  0.236382  0.763618  0.000000  1
  Br  Br16  1  0.484358  0.246672  0.237687  1
  Br  Br17  1  0.246672  0.008985  0.762313  1
  Br  Br18  1  0.763618  0.236382  0.000000  1
  Br  Br19  1  0.008985  0.246672  0.762313  1
  Br  Br20  1  0.246672  0.484358  0.237687  1
  Br  Br21  1  0.763618  0.763618  0.527236  1
  Br  Br22  1  0.515642  0.753328  0.762313  1
  Br  Br23  1  0.753328  0.515642  0.762313  1
