# generated using pymatgen
data_Tb7Ho13(Bi2P)4
_symmetry_space_group_name_H-M   'P 1'
_cell_length_a   7.99670810
_cell_length_b   8.97333600
_cell_length_c   12.16878416
_cell_angle_alpha   90.00000000
_cell_angle_beta   90.01839531
_cell_angle_gamma   90.00000000
_symmetry_Int_Tables_number   1
_chemical_formula_structural   Tb7Ho13(Bi2P)4
_chemical_formula_sum   'Tb7 Ho13 Bi8 P4'
_cell_volume   873.19720926
_cell_formula_units_Z   1
loop_
 _symmetry_equiv_pos_site_id
 _symmetry_equiv_pos_as_xyz
  1  'x, y, z'
loop_
 _atom_site_type_symbol
 _atom_site_label
 _atom_site_symmetry_multiplicity
 _atom_site_fract_x
 _atom_site_fract_y
 _atom_site_fract_z
 _atom_site_occupancy
  Tb  Tb0  1  0.850248  0.750000  0.794163  1
  Tb  Tb1  1  0.150025  0.250000  0.206227  1
  Tb  Tb2  1  0.350044  0.250000  0.706151  1
  Tb  Tb3  1  0.650127  0.750000  0.293699  1
  Tb  Tb4  1  0.375470  0.750000  0.700097  1
  Tb  Tb5  1  0.624431  0.250000  0.299784  1
  Tb  Tb6  1  0.875369  0.250000  0.799834  1
  Ho  Ho7  1  0.124469  0.750000  0.199929  1
  Ho  Ho8  1  0.958495  0.750000  0.501798  1
  Ho  Ho9  1  0.041605  0.250000  0.497848  1
  Ho  Ho10  1  0.458361  0.250000  0.998045  1
  Ho  Ho11  1  0.541532  0.750000  0.002079  1
  Ho  Ho12  1  0.682201  0.050540  0.563777  1
  Ho  Ho13  1  0.317770  0.949228  0.436089  1
  Ho  Ho14  1  0.182359  0.949383  0.936341  1
  Ho  Ho15  1  0.317770  0.550772  0.436089  1
  Ho  Ho16  1  0.817806  0.050691  0.063856  1
  Ho  Ho17  1  0.682201  0.449460  0.563777  1
  Ho  Ho18  1  0.817806  0.449309  0.063856  1
  Ho  Ho19  1  0.182359  0.550617  0.936341  1
  Bi  Bi20  1  0.576672  0.490725  0.827579  1
  Bi  Bi21  1  0.422616  0.509799  0.172462  1
  Bi  Bi22  1  0.076670  0.509386  0.672434  1
  Bi  Bi23  1  0.422616  0.990201  0.172462  1
  Bi  Bi24  1  0.923818  0.491155  0.327188  1
  Bi  Bi25  1  0.576672  0.009275  0.827579  1
  Bi  Bi26  1  0.923818  0.008845  0.327188  1
  Bi  Bi27  1  0.076670  0.990614  0.672434  1
  P  P28  1  0.575504  0.750000  0.513062  1
  P  P29  1  0.424212  0.250000  0.486756  1
  P  P30  1  0.075405  0.250000  0.986921  1
  P  P31  1  0.924877  0.750000  0.014157  1
