# generated using pymatgen
data_K8Sr4ZrTiBi8
_symmetry_space_group_name_H-M   'P 1'
_cell_length_a   11.19595423
_cell_length_b   11.19595346
_cell_length_c   8.41466000
_cell_angle_alpha   88.41623692
_cell_angle_beta   88.41623777
_cell_angle_gamma   60.32202887
_symmetry_Int_Tables_number   1
_chemical_formula_structural   K8Sr4ZrTiBi8
_chemical_formula_sum   'K8 Sr4 Zr1 Ti1 Bi8'
_cell_volume   915.94111109
_cell_formula_units_Z   1
loop_
 _symmetry_equiv_pos_site_id
 _symmetry_equiv_pos_as_xyz
  1  'x, y, z'
loop_
 _atom_site_type_symbol
 _atom_site_label
 _atom_site_symmetry_multiplicity
 _atom_site_fract_x
 _atom_site_fract_y
 _atom_site_fract_z
 _atom_site_occupancy
  K  K0  1  0.944235  0.526664  0.372430  1
  K  K1  1  0.526664  0.944235  0.372430  1
  K  K2  1  0.720147  0.133923  0.185824  1
  K  K3  1  0.133923  0.720147  0.185824  1
  K  K4  1  0.142601  0.142601  0.206750  1
  K  K5  1  0.277302  0.864794  0.691503  1
  K  K6  1  0.864794  0.277302  0.691503  1
  K  K7  1  0.854153  0.854153  0.652607  1
  Sr  Sr8  1  0.527992  0.527992  0.371610  1
  Sr  Sr9  1  0.049070  0.479083  0.877564  1
  Sr  Sr10  1  0.479083  0.049070  0.877564  1
  Sr  Sr11  1  0.479837  0.479837  0.869564  1
  Zr  Zr12  1  0.335195  0.335195  0.489759  1
  Ti  Ti13  1  0.664649  0.664649  0.983085  1
  Bi  Bi14  1  0.393683  0.798834  0.093042  1
  Bi  Bi15  1  0.798834  0.393683  0.093042  1
  Bi  Bi16  1  0.802804  0.802804  0.060236  1
  Bi  Bi17  1  0.612245  0.203130  0.603048  1
  Bi  Bi18  1  0.203130  0.612245  0.603048  1
  Bi  Bi19  1  0.198127  0.198127  0.625892  1
  Bi  Bi20  1  0.336804  0.336804  0.140084  1
  Bi  Bi21  1  0.655339  0.655339  0.656410  1
