# generated using pymatgen
data_Nd3Gd(WN3)4
_symmetry_space_group_name_H-M   'P 1'
_cell_length_a   7.39136854
_cell_length_b   7.39136803
_cell_length_c   6.34612254
_cell_angle_alpha   75.26266096
_cell_angle_beta   75.26267299
_cell_angle_gamma   83.40762682
_symmetry_Int_Tables_number   1
_chemical_formula_structural   Nd3Gd(WN3)4
_chemical_formula_sum   'Nd3 Gd1 W4 N12'
_cell_volume   323.80169828
_cell_formula_units_Z   1
loop_
 _symmetry_equiv_pos_site_id
 _symmetry_equiv_pos_as_xyz
  1  'x, y, z'
loop_
 _atom_site_type_symbol
 _atom_site_label
 _atom_site_symmetry_multiplicity
 _atom_site_fract_x
 _atom_site_fract_y
 _atom_site_fract_z
 _atom_site_occupancy
  Nd  Nd0  1  0.697812  0.302188  0.750000  1
  Nd  Nd1  1  0.089507  0.910493  0.750000  1
  Nd  Nd2  1  0.302835  0.697165  0.250000  1
  Gd  Gd3  1  0.908026  0.091974  0.250000  1
  W  W4  1  0.380717  0.200891  0.241647  1
  W  W5  1  0.620410  0.798805  0.755065  1
  W  W6  1  0.799109  0.619283  0.258353  1
  W  W7  1  0.201195  0.379590  0.744935  1
  N  N8  1  0.619233  0.112398  0.156830  1
  N  N9  1  0.360458  0.341384  0.469805  1
  N  N10  1  0.001182  0.222682  0.854490  1
  N  N11  1  0.383575  0.886521  0.847496  1
  N  N12  1  0.777318  0.998818  0.645510  1
  N  N13  1  0.113479  0.616425  0.652504  1
  N  N14  1  0.887602  0.380767  0.343170  1
  N  N15  1  0.635060  0.651612  0.534035  1
  N  N16  1  0.658616  0.639542  0.030195  1
  N  N17  1  0.348388  0.364940  0.965965  1
  N  N18  1  0.995510  0.780032  0.157705  1
  N  N19  1  0.219968  0.004490  0.342295  1
