# generated using pymatgen
data_Tb4TmTh3(MgRu)2
_symmetry_space_group_name_H-M   'P 1'
_cell_length_a   9.75153169
_cell_length_b   9.83689077
_cell_length_c   9.84347631
_cell_angle_alpha   59.40484019
_cell_angle_beta   60.26395929
_cell_angle_gamma   60.33118352
_symmetry_Int_Tables_number   1
_chemical_formula_structural   Tb4TmTh3(MgRu)2
_chemical_formula_sum   'Tb8 Tm2 Th6 Mg4 Ru4'
_cell_volume   667.56560244
_cell_formula_units_Z   2
loop_
 _symmetry_equiv_pos_site_id
 _symmetry_equiv_pos_as_xyz
  1  'x, y, z'
loop_
 _atom_site_type_symbol
 _atom_site_label
 _atom_site_symmetry_multiplicity
 _atom_site_fract_x
 _atom_site_fract_y
 _atom_site_fract_z
 _atom_site_occupancy
  Tb  Tb0  1  0.438323  0.438323  0.061677  1
  Tb  Tb1  1  0.061677  0.061677  0.438323  1
  Tb  Tb2  1  0.183703  0.816297  0.816297  1
  Tb  Tb3  1  0.816297  0.183703  0.183703  1
  Tb  Tb4  1  0.812337  0.187663  0.812337  1
  Tb  Tb5  1  0.187663  0.812337  0.187663  1
  Tb  Tb6  1  0.812398  0.812398  0.187602  1
  Tb  Tb7  1  0.187602  0.187602  0.812398  1
  Tm  Tm8  1  0.439327  0.060673  0.439327  1
  Tm  Tm9  1  0.060673  0.439327  0.060673  1
  Th  Th10  1  0.591192  0.600237  0.598388  1
  Th  Th11  1  0.600237  0.591192  0.210185  1
  Th  Th12  1  0.598388  0.210185  0.591192  1
  Th  Th13  1  0.210185  0.598388  0.600237  1
  Th  Th14  1  0.066642  0.433358  0.433358  1
  Th  Th15  1  0.433358  0.066642  0.066642  1
  Mg  Mg16  1  0.831904  0.828799  0.829323  1
  Mg  Mg17  1  0.828799  0.831904  0.509974  1
  Mg  Mg18  1  0.829323  0.509974  0.831904  1
  Mg  Mg19  1  0.509974  0.829323  0.828799  1
  Ru  Ru20  1  0.378381  0.397139  0.399914  1
  Ru  Ru21  1  0.397139  0.378381  0.824567  1
  Ru  Ru22  1  0.399914  0.824567  0.378381  1
  Ru  Ru23  1  0.824567  0.399914  0.397139  1
