# generated using pymatgen
data_Zr4Ti2Re5Mo
_symmetry_space_group_name_H-M   'P 1'
_cell_length_a   5.32188655
_cell_length_b   5.32891322
_cell_length_c   8.81972400
_cell_angle_alpha   90.00000000
_cell_angle_beta   90.00000000
_cell_angle_gamma   120.04369353
_symmetry_Int_Tables_number   1
_chemical_formula_structural   Zr4Ti2Re5Mo
_chemical_formula_sum   'Zr4 Ti2 Re5 Mo1'
_cell_volume   216.52024244
_cell_formula_units_Z   1
loop_
 _symmetry_equiv_pos_site_id
 _symmetry_equiv_pos_as_xyz
  1  'x, y, z'
loop_
 _atom_site_type_symbol
 _atom_site_label
 _atom_site_symmetry_multiplicity
 _atom_site_fract_x
 _atom_site_fract_y
 _atom_site_fract_z
 _atom_site_occupancy
  Zr  Zr0  1  0.332927  0.666464  0.435340  1
  Zr  Zr1  1  0.666822  0.333410  0.938399  1
  Zr  Zr2  1  0.666822  0.333410  0.561601  1
  Zr  Zr3  1  0.332927  0.666464  0.064660  1
  Ti  Ti4  1  0.001932  0.000966  0.498781  1
  Ti  Ti5  1  0.001932  0.000966  0.001219  1
  Re  Re6  1  0.337882  0.168941  0.250000  1
  Re  Re7  1  0.830281  0.169663  0.250000  1
  Re  Re8  1  0.168487  0.338492  0.750000  1
  Re  Re9  1  0.168487  0.829994  0.750000  1
  Re  Re10  1  0.830281  0.660619  0.250000  1
  Mo  Mo11  1  0.661220  0.830610  0.750000  1
