# generated using pymatgen
data_Lu6Al41Cr6
_symmetry_space_group_name_H-M   'P 1'
_cell_length_a   10.84593400
_cell_length_b   10.84593368
_cell_length_c   17.42144800
_cell_angle_alpha   90.00000000
_cell_angle_beta   90.00000000
_cell_angle_gamma   120.00000098
_symmetry_Int_Tables_number   1
_chemical_formula_structural   Lu6Al41Cr6
_chemical_formula_sum   'Lu12 Al82 Cr12'
_cell_volume   1774.79737671
_cell_formula_units_Z   2
loop_
 _symmetry_equiv_pos_site_id
 _symmetry_equiv_pos_as_xyz
  1  'x, y, z'
loop_
 _atom_site_type_symbol
 _atom_site_label
 _atom_site_symmetry_multiplicity
 _atom_site_fract_x
 _atom_site_fract_y
 _atom_site_fract_z
 _atom_site_occupancy
  Lu  Lu0  1  0.000000  0.533401  0.402414  1
  Lu  Lu1  1  0.466599  0.466599  0.402414  1
  Lu  Lu2  1  0.533401  0.000000  0.402414  1
  Lu  Lu3  1  0.000000  0.466599  0.597586  1
  Lu  Lu4  1  0.533401  0.533401  0.597586  1
  Lu  Lu5  1  0.466599  0.000000  0.597586  1
  Lu  Lu6  1  0.000000  0.464410  0.904252  1
  Lu  Lu7  1  0.535590  0.535590  0.904252  1
  Lu  Lu8  1  0.464410  0.000000  0.904252  1
  Lu  Lu9  1  0.000000  0.535590  0.095748  1
  Lu  Lu10  1  0.464410  0.464410  0.095748  1
  Lu  Lu11  1  0.535590  0.000000  0.095748  1
  Al  Al12  1  0.000000  0.749265  0.972421  1
  Al  Al13  1  0.250735  0.250735  0.972421  1
  Al  Al14  1  0.749265  0.000000  0.972421  1
  Al  Al15  1  0.000000  0.250735  0.027579  1
  Al  Al16  1  0.749265  0.749265  0.027579  1
  Al  Al17  1  0.250735  0.000000  0.027579  1
  Al  Al18  1  0.000000  0.251935  0.469766  1
  Al  Al19  1  0.748065  0.748065  0.469766  1
  Al  Al20  1  0.251935  0.000000  0.469766  1
  Al  Al21  1  0.000000  0.748065  0.530234  1
  Al  Al22  1  0.251935  0.251935  0.530234  1
  Al  Al23  1  0.748065  0.000000  0.530234  1
  Al  Al24  1  0.608040  0.766423  0.335006  1
  Al  Al25  1  0.233577  0.841618  0.335006  1
  Al  Al26  1  0.158382  0.391960  0.335006  1
  Al  Al27  1  0.391960  0.158382  0.335006  1
  Al  Al28  1  0.766423  0.608040  0.335006  1
  Al  Al29  1  0.841618  0.233577  0.335006  1
  Al  Al30  1  0.391960  0.233577  0.664994  1
  Al  Al31  1  0.766423  0.158382  0.664994  1
  Al  Al32  1  0.841618  0.608040  0.664994  1
  Al  Al33  1  0.608040  0.841618  0.664994  1
  Al  Al34  1  0.233577  0.391960  0.664994  1
  Al  Al35  1  0.158382  0.766423  0.664994  1
  Al  Al36  1  0.400273  0.234878  0.840472  1
  Al  Al37  1  0.765122  0.165395  0.840472  1
  Al  Al38  1  0.834605  0.599727  0.840472  1
  Al  Al39  1  0.599727  0.834605  0.840472  1
  Al  Al40  1  0.234878  0.400273  0.840472  1
  Al  Al41  1  0.165395  0.765122  0.840472  1
  Al  Al42  1  0.599727  0.765122  0.159528  1
  Al  Al43  1  0.234878  0.834605  0.159528  1
  Al  Al44  1  0.165395  0.400273  0.159528  1
  Al  Al45  1  0.400273  0.165395  0.159528  1
  Al  Al46  1  0.765122  0.599727  0.159528  1
  Al  Al47  1  0.834605  0.234878  0.159528  1
  Al  Al48  1  0.000000  0.150574  0.247941  1
  Al  Al49  1  0.849426  0.849426  0.247941  1
  Al  Al50  1  0.150574  0.000000  0.247941  1
  Al  Al51  1  0.000000  0.849426  0.752059  1
  Al  Al52  1  0.150574  0.150574  0.752059  1
  Al  Al53  1  0.849426  0.000000  0.752059  1
  Al  Al54  1  0.453710  0.850348  0.245952  1
  Al  Al55  1  0.149652  0.603362  0.245952  1
  Al  Al56  1  0.396638  0.546290  0.245952  1
  Al  Al57  1  0.546290  0.396638  0.245952  1
  Al  Al58  1  0.850348  0.453710  0.245952  1
  Al  Al59  1  0.603362  0.149652  0.245952  1
  Al  Al60  1  0.546290  0.149652  0.754048  1
  Al  Al61  1  0.850348  0.396638  0.754048  1
  Al  Al62  1  0.603362  0.453710  0.754048  1
  Al  Al63  1  0.453710  0.603362  0.754048  1
  Al  Al64  1  0.149652  0.546290  0.754048  1
  Al  Al65  1  0.396638  0.850348  0.754048  1
  Al  Al66  1  0.505841  0.752921  0.500000  1
  Al  Al67  1  0.247079  0.752921  0.500000  1
  Al  Al68  1  0.247079  0.494159  0.500000  1
  Al  Al69  1  0.494159  0.247079  0.500000  1
  Al  Al70  1  0.752921  0.505841  0.500000  1
  Al  Al71  1  0.752921  0.247079  0.500000  1
  Al  Al72  1  0.504219  0.252110  0.000000  1
  Al  Al73  1  0.747890  0.252110  0.000000  1
  Al  Al74  1  0.747890  0.495781  0.000000  1
  Al  Al75  1  0.495781  0.747890  0.000000  1
  Al  Al76  1  0.252110  0.504219  0.000000  1
  Al  Al77  1  0.252110  0.747890  0.000000  1
  Al  Al78  1  0.000000  0.845333  0.384065  1
  Al  Al79  1  0.154667  0.154667  0.384065  1
  Al  Al80  1  0.845333  0.000000  0.384065  1
  Al  Al81  1  0.000000  0.154667  0.615935  1
  Al  Al82  1  0.845333  0.845333  0.615935  1
  Al  Al83  1  0.154667  0.000000  0.615935  1
  Al  Al84  1  0.000000  0.154566  0.884458  1
  Al  Al85  1  0.845434  0.845434  0.884458  1
  Al  Al86  1  0.154566  0.000000  0.884458  1
  Al  Al87  1  0.000000  0.845434  0.115542  1
  Al  Al88  1  0.154566  0.154566  0.115542  1
  Al  Al89  1  0.845434  0.000000  0.115542  1
  Al  Al90  1  0.333333  0.666667  0.373583  1
  Al  Al91  1  0.666667  0.333333  0.373583  1
  Al  Al92  1  0.666667  0.333333  0.626417  1
  Al  Al93  1  0.333333  0.666667  0.626417  1
  Cr  Cr94  1  0.000000  0.000000  0.500000  1
  Cr  Cr95  1  0.000000  0.000000  0.000000  1
  Cr  Cr96  1  0.000000  0.737539  0.251477  1
  Cr  Cr97  1  0.262461  0.262461  0.251477  1
  Cr  Cr98  1  0.737539  0.000000  0.251477  1
  Cr  Cr99  1  0.000000  0.262461  0.748523  1
  Cr  Cr100  1  0.737539  0.737539  0.748523  1
  Cr  Cr101  1  0.262461  0.000000  0.748523  1
  Cr  Cr102  1  0.666667  0.333333  0.866010  1
  Cr  Cr103  1  0.333333  0.666667  0.866010  1
  Cr  Cr104  1  0.333333  0.666667  0.133990  1
  Cr  Cr105  1  0.666667  0.333333  0.133990  1
