# generated using pymatgen
data_DyY3Te4
_symmetry_space_group_name_H-M   'P 1'
_cell_length_a   4.32829500
_cell_length_b   4.32829661
_cell_length_c   15.12767200
_cell_angle_alpha   90.00000000
_cell_angle_beta   90.00000000
_cell_angle_gamma   119.99999531
_symmetry_Int_Tables_number   1
_chemical_formula_structural   DyY3Te4
_chemical_formula_sum   'Dy1 Y3 Te4'
_cell_volume   245.43507046
_cell_formula_units_Z   1
loop_
 _symmetry_equiv_pos_site_id
 _symmetry_equiv_pos_as_xyz
  1  'x, y, z'
loop_
 _atom_site_type_symbol
 _atom_site_label
 _atom_site_symmetry_multiplicity
 _atom_site_fract_x
 _atom_site_fract_y
 _atom_site_fract_z
 _atom_site_occupancy
  Dy  Dy0  1  0.333333  0.666667  0.616799  1
  Y  Y1  1  0.333333  0.666667  0.881968  1
  Y  Y2  1  0.666667  0.333333  0.118014  1
  Y  Y3  1  0.666667  0.333333  0.383304  1
  Te  Te4  1  0.333333  0.666667  0.250551  1
  Te  Te5  1  0.666667  0.333333  0.748945  1
  Te  Te6  1  0.000000  0.000000  0.500390  1
  Te  Te7  1  0.000000  0.000000  0.000030  1
