# generated using pymatgen
data_Lu4Al24Ir(PdPt)4
_symmetry_space_group_name_H-M   'P 1'
_cell_length_a   7.50535017
_cell_length_b   7.53173169
_cell_length_c   13.11642588
_cell_angle_alpha   84.72444593
_cell_angle_beta   79.16760790
_cell_angle_gamma   59.87908823
_symmetry_Int_Tables_number   1
_chemical_formula_structural   Lu4Al24Ir(PdPt)4
_chemical_formula_sum   'Lu4 Al24 Ir1 Pd4 Pt4'
_cell_volume   629.89973575
_cell_formula_units_Z   1
loop_
 _symmetry_equiv_pos_site_id
 _symmetry_equiv_pos_as_xyz
  1  'x, y, z'
loop_
 _atom_site_type_symbol
 _atom_site_label
 _atom_site_symmetry_multiplicity
 _atom_site_fract_x
 _atom_site_fract_y
 _atom_site_fract_z
 _atom_site_occupancy
  Lu  Lu0  1  0.393936  0.168539  0.808391  1
  Lu  Lu1  1  0.606064  0.831461  0.191609  1
  Lu  Lu2  1  0.733577  0.498645  0.808389  1
  Lu  Lu3  1  0.266423  0.501355  0.191611  1
  Al  Al4  1  0.685913  0.831419  0.944479  1
  Al  Al5  1  0.314087  0.168581  0.055521  1
  Al  Al6  1  0.146552  0.832577  0.562057  1
  Al  Al7  1  0.853448  0.167423  0.437943  1
  Al  Al8  1  0.480906  0.165572  0.559441  1
  Al  Al9  1  0.519094  0.834428  0.440559  1
  Al  Al10  1  0.217678  0.165983  0.326722  1
  Al  Al11  1  0.782322  0.834017  0.673278  1
  Al  Al12  1  0.435780  0.506648  0.673060  1
  Al  Al13  1  0.564220  0.493352  0.326940  1
  Al  Al14  1  0.108959  0.160817  0.671232  1
  Al  Al15  1  0.891041  0.839183  0.328768  1
  Al  Al16  1  0.350960  0.498842  0.944597  1
  Al  Al17  1  0.649040  0.501158  0.055403  1
  Al  Al18  1  0.015860  0.171404  0.953191  1
  Al  Al19  1  0.984140  0.828596  0.046809  1
  Al  Al20  1  0.186901  0.499441  0.441437  1
  Al  Al21  1  0.813099  0.500559  0.558563  1
  Al  Al22  1  0.732864  0.163752  0.182577  1
  Al  Al23  1  0.267136  0.836248  0.817423  1
  Al  Al24  1  0.060834  0.628066  0.817569  1
  Al  Al25  1  0.939166  0.371934  0.182431  1
  Al  Al26  1  0.854078  0.043452  0.817031  1
  Al  Al27  1  0.145922  0.956548  0.182969  1
  Ir  Ir28  1  0.000000  0.500000  0.000000  1
  Pd  Pd29  1  0.119501  0.490664  0.640020  1
  Pd  Pd30  1  0.880499  0.509336  0.359980  1
  Pd  Pd31  1  0.656647  0.171761  0.999655  1
  Pd  Pd32  1  0.343353  0.828239  0.000345  1
  Pt  Pt33  1  0.536798  0.166922  0.361312  1
  Pt  Pt34  1  0.463202  0.833078  0.638688  1
  Pt  Pt35  1  0.777567  0.175643  0.637532  1
  Pt  Pt36  1  0.222433  0.824357  0.362468  1
