# generated using pymatgen
data_Er5TcMoC7
_symmetry_space_group_name_H-M   'P 1'
_cell_length_a   8.29407757
_cell_length_b   8.29407752
_cell_length_c   3.40773000
_cell_angle_alpha   90.00000000
_cell_angle_beta   90.00000000
_cell_angle_gamma   122.16508259
_symmetry_Int_Tables_number   1
_chemical_formula_structural   Er5TcMoC7
_chemical_formula_sum   'Er5 Tc1 Mo1 C7'
_cell_volume   198.44375327
_cell_formula_units_Z   1
loop_
 _symmetry_equiv_pos_site_id
 _symmetry_equiv_pos_as_xyz
  1  'x, y, z'
loop_
 _atom_site_type_symbol
 _atom_site_label
 _atom_site_symmetry_multiplicity
 _atom_site_fract_x
 _atom_site_fract_y
 _atom_site_fract_z
 _atom_site_occupancy
  Er  Er0  1  0.501178  0.498822  0.000000  1
  Er  Er1  1  0.075628  0.334796  0.500000  1
  Er  Er2  1  0.921982  0.662778  0.500000  1
  Er  Er3  1  0.665204  0.924372  0.500000  1
  Er  Er4  1  0.337222  0.078018  0.500000  1
  Tc  Tc5  1  0.713003  0.286997  0.000000  1
  Mo  Mo6  1  0.286107  0.713893  0.000000  1
  C  C7  1  0.625113  0.374887  0.500000  1
  C  C8  1  0.376728  0.623272  0.500000  1
  C  C9  1  0.999841  0.000159  0.000000  1
  C  C10  1  0.168558  0.169363  0.000000  1
  C  C11  1  0.830637  0.831442  0.000000  1
  C  C12  1  0.998856  0.500059  0.000000  1
  C  C13  1  0.499941  0.001144  0.000000  1
