# generated using pymatgen
data_Pr16In3AgIr4
_symmetry_space_group_name_H-M   'P 1'
_cell_length_a   10.03117829
_cell_length_b   10.03117772
_cell_length_c   10.03117858
_cell_angle_alpha   60.03822522
_cell_angle_beta   60.03823448
_cell_angle_gamma   60.03822484
_symmetry_Int_Tables_number   1
_chemical_formula_structural   Pr16In3AgIr4
_chemical_formula_sum   'Pr16 In3 Ag1 Ir4'
_cell_volume   714.35978779
_cell_formula_units_Z   1
loop_
 _symmetry_equiv_pos_site_id
 _symmetry_equiv_pos_as_xyz
  1  'x, y, z'
loop_
 _atom_site_type_symbol
 _atom_site_label
 _atom_site_symmetry_multiplicity
 _atom_site_fract_x
 _atom_site_fract_y
 _atom_site_fract_z
 _atom_site_occupancy
  Pr  Pr0  1  0.348318  0.348318  0.348318  1
  Pr  Pr1  1  0.349563  0.349563  0.952594  1
  Pr  Pr2  1  0.349563  0.952594  0.349563  1
  Pr  Pr3  1  0.952594  0.349563  0.349563  1
  Pr  Pr4  1  0.808086  0.191176  0.191176  1
  Pr  Pr5  1  0.189244  0.808489  0.808489  1
  Pr  Pr6  1  0.191176  0.808086  0.191176  1
  Pr  Pr7  1  0.808489  0.189244  0.808489  1
  Pr  Pr8  1  0.191176  0.191176  0.808086  1
  Pr  Pr9  1  0.808489  0.808489  0.189244  1
  Pr  Pr10  1  0.941411  0.559823  0.559823  1
  Pr  Pr11  1  0.556221  0.941793  0.941793  1
  Pr  Pr12  1  0.559823  0.941411  0.559823  1
  Pr  Pr13  1  0.941793  0.556221  0.941793  1
  Pr  Pr14  1  0.559823  0.559823  0.941411  1
  Pr  Pr15  1  0.941793  0.941793  0.556221  1
  In  In16  1  0.580867  0.580867  0.258523  1
  In  In17  1  0.580867  0.258523  0.580867  1
  In  In18  1  0.258523  0.580867  0.580867  1
  Ag  Ag19  1  0.580585  0.580585  0.580585  1
  Ir  Ir20  1  0.142144  0.142144  0.142144  1
  Ir  Ir21  1  0.142108  0.142108  0.575233  1
  Ir  Ir22  1  0.142108  0.575233  0.142108  1
  Ir  Ir23  1  0.575233  0.142108  0.142108  1
