# generated using pymatgen
data_Hf7Ti3(Sn3C)2
_symmetry_space_group_name_H-M   'P 1'
_cell_length_a   8.30940200
_cell_length_b   8.30940181
_cell_length_c   5.67954700
_cell_angle_alpha   90.00000000
_cell_angle_beta   90.00000000
_cell_angle_gamma   120.00000077
_symmetry_Int_Tables_number   1
_chemical_formula_structural   Hf7Ti3(Sn3C)2
_chemical_formula_sum   'Hf7 Ti3 Sn6 C2'
_cell_volume   339.61264832
_cell_formula_units_Z   1
loop_
 _symmetry_equiv_pos_site_id
 _symmetry_equiv_pos_as_xyz
  1  'x, y, z'
loop_
 _atom_site_type_symbol
 _atom_site_label
 _atom_site_symmetry_multiplicity
 _atom_site_fract_x
 _atom_site_fract_y
 _atom_site_fract_z
 _atom_site_occupancy
  Hf  Hf0  1  0.333333  0.666667  0.000000  1
  Hf  Hf1  1  0.218975  0.998511  0.750716  1
  Hf  Hf2  1  0.779536  0.998511  0.249284  1
  Hf  Hf3  1  0.001489  0.220464  0.750716  1
  Hf  Hf4  1  0.001489  0.781025  0.249284  1
  Hf  Hf5  1  0.779536  0.781025  0.750716  1
  Hf  Hf6  1  0.218975  0.220464  0.249284  1
  Ti  Ti7  1  0.333333  0.666667  0.500000  1
  Ti  Ti8  1  0.666667  0.333333  0.500000  1
  Ti  Ti9  1  0.666667  0.333333  0.000000  1
  Sn  Sn10  1  0.594594  0.005234  0.745427  1
  Sn  Sn11  1  0.410641  0.005234  0.254573  1
  Sn  Sn12  1  0.994766  0.589359  0.745427  1
  Sn  Sn13  1  0.994766  0.405406  0.254573  1
  Sn  Sn14  1  0.410641  0.405406  0.745427  1
  Sn  Sn15  1  0.594594  0.589359  0.254573  1
  C  C16  1  0.000000  0.000000  0.500000  1
  C  C17  1  0.000000  0.000000  0.000000  1
