# generated using pymatgen
data_Tb5Ge5P7Ir19
_symmetry_space_group_name_H-M   'P 1'
_cell_length_a   12.94003452
_cell_length_b   12.95984407
_cell_length_c   3.99298000
_cell_angle_alpha   90.00000000
_cell_angle_beta   90.00000000
_cell_angle_gamma   120.34506395
_symmetry_Int_Tables_number   1
_chemical_formula_structural   Tb5Ge5P7Ir19
_chemical_formula_sum   'Tb5 Ge5 P7 Ir19'
_cell_volume   577.88626096
_cell_formula_units_Z   1
loop_
 _symmetry_equiv_pos_site_id
 _symmetry_equiv_pos_as_xyz
  1  'x, y, z'
loop_
 _atom_site_type_symbol
 _atom_site_label
 _atom_site_symmetry_multiplicity
 _atom_site_fract_x
 _atom_site_fract_y
 _atom_site_fract_z
 _atom_site_occupancy
  Tb  Tb0  1  0.666146  0.329887  0.000000  1
  Tb  Tb1  1  0.332942  0.668617  0.000000  1
  Tb  Tb2  1  0.817829  0.815540  0.500000  1
  Tb  Tb3  1  0.181633  0.003104  0.500000  1
  Tb  Tb4  1  0.001029  0.182099  0.500000  1
  Ge  Ge5  1  0.677262  0.155831  0.500000  1
  Ge  Ge6  1  0.837852  0.516451  0.500000  1
  Ge  Ge7  1  0.638525  0.640304  0.000000  1
  Ge  Ge8  1  0.357924  0.999675  0.000000  1
  Ge  Ge9  1  0.001175  0.360536  0.000000  1
  P  P10  1  0.480503  0.314585  0.500000  1
  P  P11  1  0.175718  0.694234  0.500000  1
  P  P12  1  0.517481  0.824546  0.500000  1
  P  P13  1  0.305355  0.486312  0.500000  1
  P  P14  1  0.178834  0.183653  0.000000  1
  P  P15  1  0.822301  0.994719  0.000000  1
  P  P16  1  0.001746  0.823140  0.000000  1
  Ir  Ir17  1  0.809733  0.168928  0.000000  1
  Ir  Ir18  1  0.825208  0.633921  0.000000  1
  Ir  Ir19  1  0.372404  0.203137  0.000000  1
  Ir  Ir20  1  0.177284  0.793207  0.000000  1
  Ir  Ir21  1  0.613587  0.821196  0.000000  1
  Ir  Ir22  1  0.207508  0.384796  0.000000  1
  Ir  Ir23  1  0.452579  0.448231  0.000000  1
  Ir  Ir24  1  0.552761  0.011377  0.000000  1
  Ir  Ir25  1  0.988878  0.543872  0.000000  1
  Ir  Ir26  1  0.284255  0.288449  0.500000  1
  Ir  Ir27  1  0.724279  0.990528  0.500000  1
  Ir  Ir28  1  0.007073  0.729244  0.500000  1
  Ir  Ir29  1  0.869135  0.348176  0.500000  1
  Ir  Ir30  1  0.638736  0.504327  0.500000  1
  Ir  Ir31  1  0.478795  0.133540  0.500000  1
  Ir  Ir32  1  0.367903  0.869664  0.500000  1
  Ir  Ir33  1  0.501487  0.633086  0.500000  1
  Ir  Ir34  1  0.130106  0.499055  0.500000  1
  Ir  Ir35  1  0.004035  0.002032  0.000000  1
