# generated using pymatgen
data_TbYFe(Co2B)3
_symmetry_space_group_name_H-M   'P 1'
_cell_length_a   5.06824700
_cell_length_b   5.06677701
_cell_length_c   12.61744700
_cell_angle_alpha   89.99992678
_cell_angle_beta   90.00020831
_cell_angle_gamma   120.01278959
_symmetry_Int_Tables_number   1
_chemical_formula_structural   TbYFe(Co2B)3
_chemical_formula_sum   'Tb2 Y2 Fe2 Co12 B6'
_cell_volume   280.56642592
_cell_formula_units_Z   2
loop_
 _symmetry_equiv_pos_site_id
 _symmetry_equiv_pos_as_xyz
  1  'x, y, z'
loop_
 _atom_site_type_symbol
 _atom_site_label
 _atom_site_symmetry_multiplicity
 _atom_site_fract_x
 _atom_site_fract_y
 _atom_site_fract_z
 _atom_site_occupancy
  Tb  Tb0  1  0.999986  0.000000  0.260450  1
  Tb  Tb1  1  0.999997  0.999999  0.739462  1
  Y  Y2  1  0.999987  0.000001  0.000043  1
  Y  Y3  1  0.999993  0.999999  0.499955  1
  Fe  Fe4  1  0.333336  0.666678  0.000064  1
  Fe  Fe5  1  0.666650  0.333334  0.000056  1
  Co  Co6  1  0.499986  0.999999  0.155567  1
  Co  Co7  1  0.499986  0.499999  0.155584  1
  Co  Co8  1  0.999986  0.500000  0.155560  1
  Co  Co9  1  0.499996  0.999999  0.844518  1
  Co  Co10  1  0.499995  0.500000  0.844509  1
  Co  Co11  1  0.999996  0.500000  0.844513  1
  Co  Co12  1  0.499991  0.000000  0.384937  1
  Co  Co13  1  0.499991  0.499999  0.384928  1
  Co  Co14  1  0.999989  0.499998  0.384919  1
  Co  Co15  1  0.499995  0.000001  0.615028  1
  Co  Co16  1  0.499995  0.499999  0.615017  1
  Co  Co17  1  0.999993  0.499999  0.615014  1
  B  B18  1  0.333327  0.666716  0.499966  1
  B  B19  1  0.666656  0.333283  0.499966  1
  B  B20  1  0.333367  0.666713  0.268492  1
  B  B21  1  0.666610  0.333286  0.268489  1
  B  B22  1  0.666687  0.333347  0.731482  1
  B  B23  1  0.333304  0.666652  0.731479  1
