# generated using pymatgen
data_HoEr7B24MoRh3
_symmetry_space_group_name_H-M   'P 1'
_cell_length_a   3.64689300
_cell_length_b   9.14614735
_cell_length_c   11.50720609
_cell_angle_alpha   90.22829327
_cell_angle_beta   90.00000000
_cell_angle_gamma   90.00000000
_symmetry_Int_Tables_number   1
_chemical_formula_structural   HoEr7B24MoRh3
_chemical_formula_sum   'Ho1 Er7 B24 Mo1 Rh3'
_cell_volume   383.82005104
_cell_formula_units_Z   1
loop_
 _symmetry_equiv_pos_site_id
 _symmetry_equiv_pos_as_xyz
  1  'x, y, z'
loop_
 _atom_site_type_symbol
 _atom_site_label
 _atom_site_symmetry_multiplicity
 _atom_site_fract_x
 _atom_site_fract_y
 _atom_site_fract_z
 _atom_site_occupancy
  Ho  Ho0  1  0.500000  0.319009  0.410597  1
  Er  Er1  1  0.500000  0.676856  0.585170  1
  Er  Er2  1  0.500000  0.178276  0.916773  1
  Er  Er3  1  0.500000  0.824006  0.086878  1
  Er  Er4  1  0.500000  0.444935  0.125518  1
  Er  Er5  1  0.500000  0.557046  0.871824  1
  Er  Er6  1  0.500000  0.055821  0.628971  1
  Er  Er7  1  0.500000  0.945012  0.374174  1
  B  B8  1  0.000000  0.107418  0.472596  1
  B  B9  1  0.000000  0.890983  0.530834  1
  B  B10  1  0.000000  0.394300  0.968910  1
  B  B11  1  0.000000  0.609649  0.028754  1
  B  B12  1  0.000000  0.132170  0.316971  1
  B  B13  1  0.000000  0.866533  0.683999  1
  B  B14  1  0.000000  0.368274  0.816009  1
  B  B15  1  0.000000  0.633215  0.183832  1
  B  B16  1  0.000000  0.051658  0.064544  1
  B  B17  1  0.000000  0.946690  0.933081  1
  B  B18  1  0.000000  0.445324  0.565523  1
  B  B19  1  0.000000  0.553082  0.433824  1
  B  B20  1  0.000000  0.483446  0.287035  1
  B  B21  1  0.000000  0.517274  0.711898  1
  B  B22  1  0.000000  0.017395  0.787640  1
  B  B23  1  0.000000  0.979840  0.213999  1
  B  B24  1  0.000000  0.250896  0.078202  1
  B  B25  1  0.000000  0.751452  0.919781  1
  B  B26  1  0.000000  0.250123  0.579600  1
  B  B27  1  0.000000  0.748556  0.421296  1
  B  B28  1  0.000000  0.295541  0.235658  1
  B  B29  1  0.000000  0.706089  0.763774  1
  B  B30  1  0.000000  0.207690  0.736108  1
  B  B31  1  0.000000  0.792207  0.266257  1
  Mo  Mo32  1  0.500000  0.138177  0.178974  1
  Rh  Rh33  1  0.500000  0.860758  0.820679  1
  Rh  Rh34  1  0.500000  0.361370  0.678937  1
  Rh  Rh35  1  0.500000  0.638930  0.321384  1
