# generated using pymatgen
data_Hf4Si4Ir3Rh
_symmetry_space_group_name_H-M   'P 1'
_cell_length_a   3.95928800
_cell_length_b   6.49458693
_cell_length_c   7.41928633
_cell_angle_alpha   90.10874823
_cell_angle_beta   90.00000000
_cell_angle_gamma   90.00000000
_symmetry_Int_Tables_number   1
_chemical_formula_structural   Hf4Si4Ir3Rh
_chemical_formula_sum   'Hf4 Si4 Ir3 Rh1'
_cell_volume   190.77874074
_cell_formula_units_Z   1
loop_
 _symmetry_equiv_pos_site_id
 _symmetry_equiv_pos_as_xyz
  1  'x, y, z'
loop_
 _atom_site_type_symbol
 _atom_site_label
 _atom_site_symmetry_multiplicity
 _atom_site_fract_x
 _atom_site_fract_y
 _atom_site_fract_z
 _atom_site_occupancy
  Hf  Hf0  1  0.250000  0.519434  0.181984  1
  Hf  Hf1  1  0.750000  0.478946  0.818376  1
  Hf  Hf2  1  0.250000  0.019218  0.318543  1
  Hf  Hf3  1  0.750000  0.981831  0.680959  1
  Si  Si4  1  0.250000  0.776412  0.879527  1
  Si  Si5  1  0.750000  0.223196  0.120354  1
  Si  Si6  1  0.250000  0.275491  0.618536  1
  Si  Si7  1  0.750000  0.724874  0.381470  1
  Ir  Ir8  1  0.750000  0.844999  0.063881  1
  Ir  Ir9  1  0.250000  0.155799  0.936130  1
  Ir  Ir10  1  0.750000  0.347152  0.435118  1
  Rh  Rh11  1  0.250000  0.652647  0.565122  1
