# generated using pymatgen
data_Lu6Sc4Si5Se
_symmetry_space_group_name_H-M   'P 1'
_cell_length_a   8.13365800
_cell_length_b   8.16434723
_cell_length_c   5.89961800
_cell_angle_alpha   90.00000000
_cell_angle_beta   90.00000000
_cell_angle_gamma   119.87574941
_symmetry_Int_Tables_number   1
_chemical_formula_structural   Lu6Sc4Si5Se
_chemical_formula_sum   'Lu6 Sc4 Si5 Se1'
_cell_volume   339.70683719
_cell_formula_units_Z   1
loop_
 _symmetry_equiv_pos_site_id
 _symmetry_equiv_pos_as_xyz
  1  'x, y, z'
loop_
 _atom_site_type_symbol
 _atom_site_label
 _atom_site_symmetry_multiplicity
 _atom_site_fract_x
 _atom_site_fract_y
 _atom_site_fract_z
 _atom_site_occupancy
  Lu  Lu0  1  0.757978  0.000000  0.750000  1
  Lu  Lu1  1  0.755589  0.754468  0.250000  1
  Lu  Lu2  1  0.001121  0.245532  0.250000  1
  Lu  Lu3  1  0.993839  0.750183  0.750000  1
  Lu  Lu4  1  0.243656  0.249817  0.750000  1
  Lu  Lu5  1  0.244827  0.000000  0.250000  1
  Sc  Sc6  1  0.670555  0.338575  0.001573  1
  Sc  Sc7  1  0.331979  0.661425  0.498427  1
  Sc  Sc8  1  0.331979  0.661425  0.001573  1
  Sc  Sc9  1  0.670555  0.338575  0.498427  1
  Si  Si10  1  0.398192  0.395451  0.250000  1
  Si  Si11  1  0.002740  0.604549  0.250000  1
  Si  Si12  1  0.998974  0.397774  0.750000  1
  Si  Si13  1  0.601201  0.602226  0.750000  1
  Si  Si14  1  0.605198  0.000000  0.250000  1
  Se  Se15  1  0.391617  0.000000  0.750000  1
