# generated using pymatgen
data_Ho2ErNbIn2Ir3
_symmetry_space_group_name_H-M   'P 1'
_cell_length_a   7.31400406
_cell_length_b   7.04469293
_cell_length_c   4.24809700
_cell_angle_alpha   90.00000000
_cell_angle_beta   90.00000000
_cell_angle_gamma   118.76731580
_symmetry_Int_Tables_number   1
_chemical_formula_structural   Ho2ErNbIn2Ir3
_chemical_formula_sum   'Ho2 Er1 Nb1 In2 Ir3'
_cell_volume   191.86860448
_cell_formula_units_Z   1
loop_
 _symmetry_equiv_pos_site_id
 _symmetry_equiv_pos_as_xyz
  1  'x, y, z'
loop_
 _atom_site_type_symbol
 _atom_site_label
 _atom_site_symmetry_multiplicity
 _atom_site_fract_x
 _atom_site_fract_y
 _atom_site_fract_z
 _atom_site_occupancy
  Ho  Ho0  1  0.411597  0.997873  0.000000  1
  Ho  Ho1  1  0.000008  0.403283  0.000000  1
  Er  Er2  1  0.588891  0.586465  0.000000  1
  Nb  Nb3  1  0.999857  0.752772  0.500000  1
  In  In4  1  0.250037  0.251583  0.500000  1
  In  In5  1  0.750007  0.001395  0.500000  1
  Ir  Ir6  1  0.999668  0.963218  0.000000  1
  Ir  Ir7  1  0.685517  0.364742  0.500000  1
  Ir  Ir8  1  0.314418  0.678670  0.500000  1
