# generated using pymatgen
data_Ba2HoAg5Se6
_symmetry_space_group_name_H-M   'P 1'
_cell_length_a   4.38608700
_cell_length_b   7.60494862
_cell_length_c   11.64405776
_cell_angle_alpha   94.11738325
_cell_angle_beta   90.00000000
_cell_angle_gamma   106.76043452
_symmetry_Int_Tables_number   1
_chemical_formula_structural   Ba2HoAg5Se6
_chemical_formula_sum   'Ba2 Ho1 Ag5 Se6'
_cell_volume   370.85213732
_cell_formula_units_Z   1
loop_
 _symmetry_equiv_pos_site_id
 _symmetry_equiv_pos_as_xyz
  1  'x, y, z'
loop_
 _atom_site_type_symbol
 _atom_site_label
 _atom_site_symmetry_multiplicity
 _atom_site_fract_x
 _atom_site_fract_y
 _atom_site_fract_z
 _atom_site_occupancy
  Ba  Ba0  1  0.254107  0.508213  0.703940  1
  Ba  Ba1  1  0.745893  0.491787  0.296060  1
  Ho  Ho2  1  0.500000  0.000000  0.500000  1
  Ag  Ag3  1  0.019269  0.038539  0.254008  1
  Ag  Ag4  1  0.980731  0.961461  0.745992  1
  Ag  Ag5  1  0.354902  0.709805  0.037758  1
  Ag  Ag6  1  0.645098  0.290195  0.962242  1
  Ag  Ag7  1  0.000000  0.000000  0.000000  1
  Se  Se8  1  0.126299  0.252598  0.454212  1
  Se  Se9  1  0.873701  0.747402  0.545788  1
  Se  Se10  1  0.159584  0.319168  0.100822  1
  Se  Se11  1  0.840416  0.680832  0.899178  1
  Se  Se12  1  0.413016  0.826033  0.265700  1
  Se  Se13  1  0.586984  0.173967  0.734300  1
