# generated using pymatgen
data_K2Zr3VSe8
_symmetry_space_group_name_H-M   'P 1'
_cell_length_a   6.53862500
_cell_length_b   7.61875004
_cell_length_c   16.45166173
_cell_angle_alpha   89.89698833
_cell_angle_beta   90.00000000
_cell_angle_gamma   90.00000000
_symmetry_Int_Tables_number   1
_chemical_formula_structural   K2Zr3VSe8
_chemical_formula_sum   'K4 Zr6 V2 Se16'
_cell_volume   819.55711540
_cell_formula_units_Z   2
loop_
 _symmetry_equiv_pos_site_id
 _symmetry_equiv_pos_as_xyz
  1  'x, y, z'
loop_
 _atom_site_type_symbol
 _atom_site_label
 _atom_site_symmetry_multiplicity
 _atom_site_fract_x
 _atom_site_fract_y
 _atom_site_fract_z
 _atom_site_occupancy
  K  K0  1  0.345654  0.000000  0.000000  1
  K  K1  1  0.654346  0.500000  0.500000  1
  K  K2  1  0.028618  0.000000  0.500000  1
  K  K3  1  0.971382  0.500000  0.000000  1
  Zr  Zr4  1  0.001058  0.008557  0.248470  1
  Zr  Zr5  1  0.001058  0.991443  0.751530  1
  Zr  Zr6  1  0.998942  0.491443  0.251530  1
  Zr  Zr7  1  0.998942  0.508557  0.748470  1
  Zr  Zr8  1  0.500000  0.750000  0.250000  1
  Zr  Zr9  1  0.500000  0.250000  0.750000  1
  V  V10  1  0.500000  0.250000  0.250000  1
  V  V11  1  0.500000  0.750000  0.750000  1
  Se  Se12  1  0.822340  0.247478  0.347098  1
  Se  Se13  1  0.822340  0.752522  0.652902  1
  Se  Se14  1  0.163913  0.748767  0.152823  1
  Se  Se15  1  0.163913  0.251233  0.847177  1
  Se  Se16  1  0.177660  0.252522  0.152902  1
  Se  Se17  1  0.177660  0.747478  0.847098  1
  Se  Se18  1  0.836087  0.751233  0.347177  1
  Se  Se19  1  0.836087  0.248767  0.652823  1
  Se  Se20  1  0.664717  0.006735  0.155047  1
  Se  Se21  1  0.664717  0.993265  0.844953  1
  Se  Se22  1  0.335283  0.493265  0.344953  1
  Se  Se23  1  0.335283  0.506735  0.655047  1
  Se  Se24  1  0.339952  0.007381  0.343540  1
  Se  Se25  1  0.339952  0.992619  0.656460  1
  Se  Se26  1  0.660048  0.492619  0.156460  1
  Se  Se27  1  0.660048  0.507381  0.843540  1
