# generated using pymatgen
data_K2Te4Pd3
_symmetry_space_group_name_H-M   'P 1'
_cell_length_a   6.87777804
_cell_length_b   6.87778127
_cell_length_c   7.70704000
_cell_angle_alpha   102.28133322
_cell_angle_beta   102.28135614
_cell_angle_gamma   121.57774329
_symmetry_Int_Tables_number   1
_chemical_formula_structural   K2Te4Pd3
_chemical_formula_sum   'K2 Te4 Pd3'
_cell_volume   279.53604777
_cell_formula_units_Z   1
loop_
 _symmetry_equiv_pos_site_id
 _symmetry_equiv_pos_as_xyz
  1  'x, y, z'
loop_
 _atom_site_type_symbol
 _atom_site_label
 _atom_site_symmetry_multiplicity
 _atom_site_fract_x
 _atom_site_fract_y
 _atom_site_fract_z
 _atom_site_occupancy
  K  K0  1  0.637920  0.637920  0.275824  1
  K  K1  1  0.362080  0.362080  0.724176  1
  Te  Te2  1  0.708164  0.036107  0.744487  1
  Te  Te3  1  0.291836  0.963893  0.255513  1
  Te  Te4  1  0.963893  0.291836  0.255513  1
  Te  Te5  1  0.036107  0.708164  0.744487  1
  Pd  Pd6  1  0.000000  0.000000  0.000000  1
  Pd  Pd7  1  0.500000  0.000000  0.000000  1
  Pd  Pd8  1  0.000000  0.500000  0.000000  1
