# generated using pymatgen
data_TmBi2(P3Pd10)2
_symmetry_space_group_name_H-M   'P 1'
_cell_length_a   8.67341052
_cell_length_b   8.67341038
_cell_length_c   8.67341100
_cell_angle_alpha   60.00000144
_cell_angle_beta   60.00000199
_cell_angle_gamma   60.00000077
_symmetry_Int_Tables_number   1
_chemical_formula_structural   TmBi2(P3Pd10)2
_chemical_formula_sum   'Tm1 Bi2 P6 Pd20'
_cell_volume   461.37572443
_cell_formula_units_Z   1
loop_
 _symmetry_equiv_pos_site_id
 _symmetry_equiv_pos_as_xyz
  1  'x, y, z'
loop_
 _atom_site_type_symbol
 _atom_site_label
 _atom_site_symmetry_multiplicity
 _atom_site_fract_x
 _atom_site_fract_y
 _atom_site_fract_z
 _atom_site_occupancy
  Tm  Tm0  1  0.000000  0.000000  0.000000  1
  Bi  Bi1  1  0.250000  0.250000  0.250000  1
  Bi  Bi2  1  0.750000  0.750000  0.750000  1
  P  P3  1  0.735811  0.264189  0.264189  1
  P  P4  1  0.264189  0.735811  0.735811  1
  P  P5  1  0.264189  0.735811  0.264189  1
  P  P6  1  0.735811  0.264189  0.735811  1
  P  P7  1  0.264189  0.264189  0.735811  1
  P  P8  1  0.735811  0.735811  0.264189  1
  Pd  Pd9  1  0.384227  0.384227  0.384227  1
  Pd  Pd10  1  0.615773  0.615773  0.615773  1
  Pd  Pd11  1  0.384227  0.384227  0.847319  1
  Pd  Pd12  1  0.384227  0.847319  0.384227  1
  Pd  Pd13  1  0.615773  0.615773  0.152681  1
  Pd  Pd14  1  0.615773  0.152681  0.615773  1
  Pd  Pd15  1  0.847319  0.384227  0.384227  1
  Pd  Pd16  1  0.152681  0.615773  0.615773  1
  Pd  Pd17  1  0.342611  0.000000  0.000000  1
  Pd  Pd18  1  0.657389  0.000000  0.000000  1
  Pd  Pd19  1  0.000000  0.342611  0.657389  1
  Pd  Pd20  1  0.000000  0.657389  0.342611  1
  Pd  Pd21  1  0.000000  0.342611  0.000000  1
  Pd  Pd22  1  0.657389  0.000000  0.342611  1
  Pd  Pd23  1  0.000000  0.657389  0.000000  1
  Pd  Pd24  1  0.342611  0.000000  0.657389  1
  Pd  Pd25  1  0.000000  0.000000  0.342611  1
  Pd  Pd26  1  0.000000  0.000000  0.657389  1
  Pd  Pd27  1  0.657389  0.342611  0.000000  1
  Pd  Pd28  1  0.342611  0.657389  0.000000  1
