# generated using pymatgen
data_Tb8Zr12Si15Os
_symmetry_space_group_name_H-M   'P 1'
_cell_length_a   7.36201618
_cell_length_b   7.36412744
_cell_length_c   13.57094351
_cell_angle_alpha   89.78467990
_cell_angle_beta   89.78002844
_cell_angle_gamma   90.06465513
_symmetry_Int_Tables_number   1
_chemical_formula_structural   Tb8Zr12Si15Os
_chemical_formula_sum   'Tb8 Zr12 Si15 Os1'
_cell_volume   735.73523457
_cell_formula_units_Z   1
loop_
 _symmetry_equiv_pos_site_id
 _symmetry_equiv_pos_as_xyz
  1  'x, y, z'
loop_
 _atom_site_type_symbol
 _atom_site_label
 _atom_site_symmetry_multiplicity
 _atom_site_fract_x
 _atom_site_fract_y
 _atom_site_fract_z
 _atom_site_occupancy
  Tb  Tb0  1  0.997537  0.347797  0.213865  1
  Tb  Tb1  1  0.004109  0.653727  0.713668  1
  Tb  Tb2  1  0.157238  0.496155  0.462680  1
  Tb  Tb3  1  0.503384  0.844661  0.035148  1
  Tb  Tb4  1  0.846220  0.502452  0.964277  1
  Tb  Tb5  1  0.496899  0.157445  0.535649  1
  Tb  Tb6  1  0.345312  0.997243  0.785764  1
  Tb  Tb7  1  0.653016  0.003448  0.285090  1
  Zr  Zr8  1  0.176082  0.175162  0.998523  1
  Zr  Zr9  1  0.826657  0.825354  0.500364  1
  Zr  Zr10  1  0.325067  0.667904  0.252764  1
  Zr  Zr11  1  0.674740  0.325305  0.750281  1
  Zr  Zr12  1  0.154677  0.004493  0.373096  1
  Zr  Zr13  1  0.851747  0.003582  0.874968  1
  Zr  Zr14  1  0.503728  0.649559  0.626344  1
  Zr  Zr15  1  0.352194  0.496484  0.873119  1
  Zr  Zr16  1  0.494098  0.346685  0.128132  1
  Zr  Zr17  1  0.642922  0.498518  0.377469  1
  Zr  Zr18  1  0.997207  0.147891  0.625661  1
  Zr  Zr19  1  0.000131  0.849155  0.124302  1
  Si  Si20  1  0.639884  0.706717  0.818045  1
  Si  Si21  1  0.207647  0.861274  0.566762  1
  Si  Si22  1  0.138599  0.794135  0.933454  1
  Si  Si23  1  0.795151  0.137819  0.065463  1
  Si  Si24  1  0.861176  0.202452  0.435594  1
  Si  Si25  1  0.294047  0.360861  0.683874  1
  Si  Si26  1  0.703868  0.640594  0.183267  1
  Si  Si27  1  0.290935  0.046416  0.183543  1
  Si  Si28  1  0.704785  0.949588  0.686653  1
  Si  Si29  1  0.450785  0.798350  0.439746  1
  Si  Si30  1  0.205700  0.552400  0.060396  1
  Si  Si31  1  0.549910  0.203940  0.936440  1
  Si  Si32  1  0.796219  0.450370  0.564779  1
  Si  Si33  1  0.050149  0.295608  0.813167  1
  Si  Si34  1  0.945344  0.709552  0.312938  1
  Os  Os35  1  0.362836  0.296903  0.314714  1
