# generated using pymatgen
data_CeSm2Th5(ReC2)4
_symmetry_space_group_name_H-M   'P 1'
_cell_length_a   5.33196600
_cell_length_b   6.68499542
_cell_length_c   10.02762502
_cell_angle_alpha   89.84127813
_cell_angle_beta   90.00000000
_cell_angle_gamma   90.00000000
_symmetry_Int_Tables_number   1
_chemical_formula_structural   CeSm2Th5(ReC2)4
_chemical_formula_sum   'Ce1 Sm2 Th5 Re4 C8'
_cell_volume   357.42498218
_cell_formula_units_Z   1
loop_
 _symmetry_equiv_pos_site_id
 _symmetry_equiv_pos_as_xyz
  1  'x, y, z'
loop_
 _atom_site_type_symbol
 _atom_site_label
 _atom_site_symmetry_multiplicity
 _atom_site_fract_x
 _atom_site_fract_y
 _atom_site_fract_z
 _atom_site_occupancy
  Ce  Ce0  1  0.250000  0.187152  0.951718  1
  Sm  Sm1  1  0.750000  0.315822  0.449976  1
  Sm  Sm2  1  0.250000  0.684111  0.549674  1
  Th  Th3  1  0.750000  0.472693  0.780143  1
  Th  Th4  1  0.250000  0.026466  0.280904  1
  Th  Th5  1  0.750000  0.973690  0.716912  1
  Th  Th6  1  0.250000  0.523781  0.220519  1
  Th  Th7  1  0.750000  0.811479  0.047748  1
  Re  Re8  1  0.750000  0.771066  0.362751  1
  Re  Re9  1  0.250000  0.727128  0.861548  1
  Re  Re10  1  0.250000  0.229386  0.638118  1
  Re  Re11  1  0.750000  0.273939  0.137484  1
  C  C12  1  0.250000  0.965181  0.742799  1
  C  C13  1  0.750000  0.533862  0.242893  1
  C  C14  1  0.250000  0.465396  0.758070  1
  C  C15  1  0.750000  0.036800  0.258304  1
  C  C16  1  0.250000  0.322178  0.450270  1
  C  C17  1  0.750000  0.168037  0.947938  1
  C  C18  1  0.250000  0.833790  0.052176  1
  C  C19  1  0.750000  0.678045  0.550056  1
