# generated using pymatgen
data_Pr6GePI6
_symmetry_space_group_name_H-M   'P 1'
_cell_length_a   10.87299413
_cell_length_b   10.87299452
_cell_length_c   10.85301806
_cell_angle_alpha   109.46228085
_cell_angle_beta   109.46228145
_cell_angle_gamma   109.56352981
_symmetry_Int_Tables_number   1
_chemical_formula_structural   Pr6GePI6
_chemical_formula_sum   'Pr12 Ge2 P2 I12'
_cell_volume   986.79524228
_cell_formula_units_Z   2
loop_
 _symmetry_equiv_pos_site_id
 _symmetry_equiv_pos_as_xyz
  1  'x, y, z'
loop_
 _atom_site_type_symbol
 _atom_site_label
 _atom_site_symmetry_multiplicity
 _atom_site_fract_x
 _atom_site_fract_y
 _atom_site_fract_z
 _atom_site_occupancy
  Pr  Pr0  1  0.462679  0.485805  0.228013  1
  Pr  Pr1  1  0.757792  0.234666  0.271987  1
  Pr  Pr2  1  0.757327  0.022125  0.486197  1
  Pr  Pr3  1  0.228871  0.464072  0.486197  1
  Pr  Pr4  1  0.265334  0.742208  0.228013  1
  Pr  Pr5  1  0.035928  0.271129  0.013803  1
  Pr  Pr6  1  0.014195  0.037321  0.271987  1
  Pr  Pr7  1  0.477875  0.742673  0.013803  1
  Pr  Pr8  1  0.484481  0.234481  0.468962  1
  Pr  Pr9  1  0.020465  0.479535  0.750000  1
  Pr  Pr10  1  0.265519  0.015519  0.031038  1
  Pr  Pr11  1  0.229535  0.270465  0.750000  1
  Ge  Ge12  1  0.249407  0.250593  0.250000  1
  Ge  Ge13  1  0.500593  0.999407  0.250000  1
  P  P14  1  0.001191  0.251191  0.502382  1
  P  P15  1  0.248809  0.498809  0.997618  1
  I  I16  1  0.249758  0.756972  0.741927  1
  I  I17  1  0.515044  0.507830  0.758073  1
  I  I18  1  0.985381  0.742224  0.992724  1
  I  I19  1  0.743028  0.250242  0.758073  1
  I  I20  1  0.992170  0.984956  0.741927  1
  I  I21  1  0.249500  0.992655  0.507276  1
  I  I22  1  0.757776  0.514619  0.507276  1
  I  I23  1  0.507345  0.250500  0.992724  1
  I  I24  1  0.758002  0.741998  0.250000  1
  I  I25  1  0.743008  0.993008  0.986016  1
  I  I26  1  0.991998  0.508002  0.250000  1
  I  I27  1  0.506992  0.756992  0.513984  1
