# generated using pymatgen
data_Dy3Ho5MgCdPt2
_symmetry_space_group_name_H-M   'P 1'
_cell_length_a   9.69398568
_cell_length_b   9.69398478
_cell_length_c   9.71260800
_cell_angle_alpha   59.93642295
_cell_angle_beta   59.93642605
_cell_angle_gamma   59.86358601
_symmetry_Int_Tables_number   1
_chemical_formula_structural   Dy3Ho5MgCdPt2
_chemical_formula_sum   'Dy6 Ho10 Mg2 Cd2 Pt4'
_cell_volume   644.10800006
_cell_formula_units_Z   2
loop_
 _symmetry_equiv_pos_site_id
 _symmetry_equiv_pos_as_xyz
  1  'x, y, z'
loop_
 _atom_site_type_symbol
 _atom_site_label
 _atom_site_symmetry_multiplicity
 _atom_site_fract_x
 _atom_site_fract_y
 _atom_site_fract_z
 _atom_site_occupancy
  Dy  Dy0  1  0.936942  0.565012  0.564828  1
  Dy  Dy1  1  0.565012  0.936942  0.933219  1
  Dy  Dy2  1  0.565012  0.936942  0.564828  1
  Dy  Dy3  1  0.936942  0.565011  0.933219  1
  Dy  Dy4  1  0.566801  0.566801  0.933199  1
  Dy  Dy5  1  0.936335  0.936335  0.563664  1
  Ho  Ho6  1  0.350976  0.350976  0.350170  1
  Ho  Ho7  1  0.350976  0.350976  0.947879  1
  Ho  Ho8  1  0.351143  0.947659  0.350599  1
  Ho  Ho9  1  0.947659  0.351143  0.350599  1
  Ho  Ho10  1  0.811303  0.188963  0.188943  1
  Ho  Ho11  1  0.188963  0.811303  0.810793  1
  Ho  Ho12  1  0.188963  0.811303  0.188943  1
  Ho  Ho13  1  0.811303  0.188963  0.810793  1
  Ho  Ho14  1  0.191033  0.191033  0.808967  1
  Ho  Ho15  1  0.812632  0.812632  0.187368  1
  Mg  Mg16  1  0.576390  0.576390  0.580976  1
  Mg  Mg17  1  0.576390  0.576390  0.266243  1
  Cd  Cd18  1  0.582250  0.253181  0.582285  1
  Cd  Cd19  1  0.253181  0.582250  0.582285  1
  Pt  Pt20  1  0.143034  0.143034  0.143060  1
  Pt  Pt21  1  0.143034  0.143034  0.570874  1
  Pt  Pt22  1  0.142337  0.571394  0.143135  1
  Pt  Pt23  1  0.571394  0.142337  0.143135  1
