# generated using pymatgen
data_Nb12Ga5Rh3N4
_symmetry_space_group_name_H-M   'P 1'
_cell_length_a   7.05004335
_cell_length_b   7.05004274
_cell_length_c   7.05004300
_cell_angle_alpha   90.09819873
_cell_angle_beta   89.90180128
_cell_angle_gamma   89.90179905
_symmetry_Int_Tables_number   1
_chemical_formula_structural   Nb12Ga5Rh3N4
_chemical_formula_sum   'Nb12 Ga5 Rh3 N4'
_cell_volume   350.40749587
_cell_formula_units_Z   1
loop_
 _symmetry_equiv_pos_site_id
 _symmetry_equiv_pos_as_xyz
  1  'x, y, z'
loop_
 _atom_site_type_symbol
 _atom_site_label
 _atom_site_symmetry_multiplicity
 _atom_site_fract_x
 _atom_site_fract_y
 _atom_site_fract_z
 _atom_site_occupancy
  Nb  Nb0  1  0.794743  0.957947  0.372786  1
  Nb  Nb1  1  0.706101  0.041504  0.873814  1
  Nb  Nb2  1  0.205151  0.457901  0.124866  1
  Nb  Nb3  1  0.291747  0.544508  0.624455  1
  Nb  Nb4  1  0.958496  0.373814  0.793899  1
  Nb  Nb5  1  0.042053  0.872786  0.705257  1
  Nb  Nb6  1  0.455492  0.124455  0.208253  1
  Nb  Nb7  1  0.542099  0.624866  0.294849  1
  Nb  Nb8  1  0.375134  0.794849  0.957901  1
  Nb  Nb9  1  0.875545  0.708253  0.044508  1
  Nb  Nb10  1  0.127214  0.205257  0.457947  1
  Nb  Nb11  1  0.626186  0.293899  0.541504  1
  Ga  Ga12  1  0.178187  0.821813  0.321813  1
  Ga  Ga13  1  0.315220  0.173947  0.818847  1
  Ga  Ga14  1  0.826053  0.318847  0.184780  1
  Ga  Ga15  1  0.681153  0.684780  0.673947  1
  Ga  Ga16  1  0.571498  0.428502  0.928502  1
  Rh  Rh17  1  0.428221  0.928242  0.569966  1
  Rh  Rh18  1  0.930034  0.571779  0.428242  1
  Rh  Rh19  1  0.071758  0.069966  0.071779  1
  N  N20  1  0.876048  0.123952  0.623952  1
  N  N21  1  0.625050  0.875635  0.127552  1
  N  N22  1  0.124365  0.627552  0.874950  1
  N  N23  1  0.372448  0.374950  0.375635  1
