# generated using pymatgen
data_Dy8Ho12Sn15Te
_symmetry_space_group_name_H-M   'P 1'
_cell_length_a   8.04459435
_cell_length_b   8.15175899
_cell_length_c   15.39476200
_cell_angle_alpha   90.10368655
_cell_angle_beta   90.42791001
_cell_angle_gamma   89.95311200
_symmetry_Int_Tables_number   1
_chemical_formula_structural   Dy8Ho12Sn15Te
_chemical_formula_sum   'Dy8 Ho12 Sn15 Te1'
_cell_volume   1009.52132210
_cell_formula_units_Z   1
loop_
 _symmetry_equiv_pos_site_id
 _symmetry_equiv_pos_as_xyz
  1  'x, y, z'
loop_
 _atom_site_type_symbol
 _atom_site_label
 _atom_site_symmetry_multiplicity
 _atom_site_fract_x
 _atom_site_fract_y
 _atom_site_fract_z
 _atom_site_occupancy
  Dy  Dy0  1  0.531738  0.330664  0.897982  1
  Dy  Dy1  1  0.021770  0.178471  0.597419  1
  Dy  Dy2  1  0.478841  0.677907  0.402450  1
  Dy  Dy3  1  0.966944  0.818283  0.101044  1
  Dy  Dy4  1  0.477242  0.670599  0.099054  1
  Dy  Dy5  1  0.978789  0.821300  0.402395  1
  Dy  Dy6  1  0.521285  0.321096  0.597545  1
  Dy  Dy7  1  0.020783  0.181778  0.899398  1
  Ho  Ho8  1  0.372682  0.837352  0.878357  1
  Ho  Ho9  1  0.868020  0.663209  0.622962  1
  Ho  Ho10  1  0.632760  0.162118  0.376343  1
  Ho  Ho11  1  0.126992  0.341639  0.122580  1
  Ho  Ho12  1  0.631617  0.162249  0.120947  1
  Ho  Ho13  1  0.133292  0.337450  0.376431  1
  Ho  Ho14  1  0.367640  0.838135  0.623149  1
  Ho  Ho15  1  0.870585  0.662634  0.877862  1
  Ho  Ho16  1  0.199306  0.502488  0.749432  1
  Ho  Ho17  1  0.698871  0.997866  0.750138  1
  Ho  Ho18  1  0.801041  0.497731  0.250789  1
  Ho  Ho19  1  0.301313  0.001416  0.254474  1
  Sn  Sn20  1  0.793780  0.461955  0.458400  1
  Sn  Sn21  1  0.707047  0.962844  0.541443  1
  Sn  Sn22  1  0.212528  0.534969  0.958380  1
  Sn  Sn23  1  0.713855  0.966095  0.957734  1
  Sn  Sn24  1  0.206955  0.537597  0.541321  1
  Sn  Sn25  1  0.293944  0.037264  0.458689  1
  Sn  Sn26  1  0.790525  0.464006  0.042054  1
  Sn  Sn27  1  0.565896  0.621393  0.750054  1
  Sn  Sn28  1  0.066705  0.880203  0.751935  1
  Sn  Sn29  1  0.434826  0.378196  0.247675  1
  Sn  Sn30  1  0.935034  0.119832  0.247778  1
  Sn  Sn31  1  0.332107  0.148245  0.750597  1
  Sn  Sn32  1  0.833079  0.353001  0.748717  1
  Sn  Sn33  1  0.665148  0.851717  0.249495  1
  Sn  Sn34  1  0.167776  0.648379  0.249643  1
  Te  Te35  1  0.279287  0.029924  0.045331  1
