# generated using pymatgen
data_Y8Th4Tc3Os
_symmetry_space_group_name_H-M   'P 1'
_cell_length_a   6.42080919
_cell_length_b   7.35348179
_cell_length_c   9.57452600
_cell_angle_alpha   90.00000000
_cell_angle_beta   90.00000000
_cell_angle_gamma   89.93866117
_symmetry_Int_Tables_number   1
_chemical_formula_structural   Y8Th4Tc3Os
_chemical_formula_sum   'Y8 Th4 Tc3 Os1'
_cell_volume   452.06389107
_cell_formula_units_Z   1
loop_
 _symmetry_equiv_pos_site_id
 _symmetry_equiv_pos_as_xyz
  1  'x, y, z'
loop_
 _atom_site_type_symbol
 _atom_site_label
 _atom_site_symmetry_multiplicity
 _atom_site_fract_x
 _atom_site_fract_y
 _atom_site_fract_z
 _atom_site_occupancy
  Y  Y0  1  0.329333  0.673801  0.066610  1
  Y  Y1  1  0.168564  0.174499  0.431910  1
  Y  Y2  1  0.666841  0.327546  0.567161  1
  Y  Y3  1  0.829755  0.824905  0.932204  1
  Y  Y4  1  0.666841  0.327546  0.932839  1
  Y  Y5  1  0.829755  0.824905  0.567796  1
  Y  Y6  1  0.329333  0.673801  0.433390  1
  Y  Y7  1  0.168564  0.174499  0.068090  1
  Th  Th8  1  0.853025  0.551224  0.250000  1
  Th  Th9  1  0.644886  0.049354  0.250000  1
  Th  Th10  1  0.147828  0.447586  0.750000  1
  Th  Th11  1  0.349615  0.952331  0.750000  1
  Tc  Tc12  1  0.011933  0.870704  0.250000  1
  Tc  Tc13  1  0.487373  0.370754  0.250000  1
  Tc  Tc14  1  0.986926  0.130259  0.750000  1
  Os  Os15  1  0.529427  0.626285  0.750000  1
