# generated using pymatgen
data_Sm4Cd3Au10
_symmetry_space_group_name_H-M   'P 1'
_cell_length_a   8.67183088
_cell_length_b   8.67183016
_cell_length_c   10.32100900
_cell_angle_alpha   89.92784368
_cell_angle_beta   89.92785029
_cell_angle_gamma   108.13317981
_symmetry_Int_Tables_number   1
_chemical_formula_structural   Sm4Cd3Au10
_chemical_formula_sum   'Sm8 Cd6 Au20'
_cell_volume   737.59802580
_cell_formula_units_Z   2
loop_
 _symmetry_equiv_pos_site_id
 _symmetry_equiv_pos_as_xyz
  1  'x, y, z'
loop_
 _atom_site_type_symbol
 _atom_site_label
 _atom_site_symmetry_multiplicity
 _atom_site_fract_x
 _atom_site_fract_y
 _atom_site_fract_z
 _atom_site_occupancy
  Sm  Sm0  1  0.197142  0.197142  0.706016  1
  Sm  Sm1  1  0.802858  0.802858  0.293984  1
  Sm  Sm2  1  0.700624  0.299376  0.000000  1
  Sm  Sm3  1  0.299376  0.700624  0.000000  1
  Sm  Sm4  1  0.799480  0.200520  0.500000  1
  Sm  Sm5  1  0.200520  0.799480  0.500000  1
  Sm  Sm6  1  0.303349  0.303349  0.206095  1
  Sm  Sm7  1  0.696651  0.696651  0.793905  1
  Cd  Cd8  1  0.019814  0.519571  0.249881  1
  Cd  Cd9  1  0.980186  0.480429  0.750119  1
  Cd  Cd10  1  0.480429  0.980186  0.750119  1
  Cd  Cd11  1  0.519571  0.019814  0.249881  1
  Cd  Cd12  1  0.000000  0.000000  0.000000  1
  Cd  Cd13  1  0.500000  0.500000  0.500000  1
  Au  Au14  1  0.098485  0.098485  0.405985  1
  Au  Au15  1  0.901515  0.901515  0.594015  1
  Au  Au16  1  0.401587  0.401587  0.906103  1
  Au  Au17  1  0.598413  0.598413  0.093897  1
  Au  Au18  1  0.883401  0.164873  0.210759  1
  Au  Au19  1  0.116599  0.835127  0.789241  1
  Au  Au20  1  0.616341  0.334634  0.710787  1
  Au  Au21  1  0.665366  0.383659  0.289213  1
  Au  Au22  1  0.383659  0.665366  0.289213  1
  Au  Au23  1  0.334634  0.616341  0.710787  1
  Au  Au24  1  0.835127  0.116599  0.789241  1
  Au  Au25  1  0.164873  0.883401  0.210759  1
  Au  Au26  1  0.930716  0.652328  0.013784  1
  Au  Au27  1  0.069284  0.347672  0.986216  1
  Au  Au28  1  0.569049  0.847541  0.513957  1
  Au  Au29  1  0.152459  0.430951  0.486043  1
  Au  Au30  1  0.430951  0.152459  0.486043  1
  Au  Au31  1  0.847541  0.569049  0.513957  1
  Au  Au32  1  0.347672  0.069284  0.986216  1
  Au  Au33  1  0.652328  0.930716  0.013784  1
