# generated using pymatgen
data_Rb2U3Cl7O5
_symmetry_space_group_name_H-M   'P 1'
_cell_length_a   9.43337000
_cell_length_b   10.01538770
_cell_length_c   11.74885200
_cell_angle_alpha   108.91833773
_cell_angle_beta   90.00000000
_cell_angle_gamma   118.09557978
_symmetry_Int_Tables_number   1
_chemical_formula_structural   Rb2U3Cl7O5
_chemical_formula_sum   'Rb4 U6 Cl14 O10'
_cell_volume   910.68390439
_cell_formula_units_Z   2
loop_
 _symmetry_equiv_pos_site_id
 _symmetry_equiv_pos_as_xyz
  1  'x, y, z'
loop_
 _atom_site_type_symbol
 _atom_site_label
 _atom_site_symmetry_multiplicity
 _atom_site_fract_x
 _atom_site_fract_y
 _atom_site_fract_z
 _atom_site_occupancy
  Rb  Rb0  1  0.801927  0.550228  0.138327  1
  Rb  Rb1  1  0.251699  0.449771  0.361673  1
  Rb  Rb2  1  0.748300  0.550228  0.638328  1
  Rb  Rb3  1  0.198072  0.449772  0.861672  1
  U  U4  1  0.784778  0.992525  0.042860  1
  U  U5  1  0.435810  0.000000  0.250000  1
  U  U6  1  0.792252  0.007475  0.457140  1
  U  U7  1  0.207748  0.992525  0.542859  1
  U  U8  1  0.564190  0.000000  0.750000  1
  U  U9  1  0.215222  0.007475  0.957141  1
  Cl  Cl10  1  0.365329  0.325373  0.044524  1
  Cl  Cl11  1  0.946672  0.310227  0.138137  1
  Cl  Cl12  1  0.268875  0.681581  0.162769  1
  Cl  Cl13  1  0.928677  0.000000  0.250000  1
  Cl  Cl14  1  0.587294  0.318420  0.337231  1
  Cl  Cl15  1  0.636444  0.689773  0.361863  1
  Cl  Cl16  1  0.039957  0.674628  0.455476  1
  Cl  Cl17  1  0.960045  0.325373  0.544523  1
  Cl  Cl18  1  0.363555  0.310227  0.638137  1
  Cl  Cl19  1  0.412705  0.681580  0.662769  1
  Cl  Cl20  1  0.071324  0.000000  0.750000  1
  Cl  Cl21  1  0.731125  0.318420  0.837231  1
  Cl  Cl22  1  0.053328  0.689773  0.861863  1
  Cl  Cl23  1  0.634671  0.674627  0.955477  1
  O  O24  1  0.000000  0.000000  0.000000  1
  O  O25  1  0.285185  0.001849  0.121678  1
  O  O26  1  0.593658  0.993577  0.119183  1
  O  O27  1  0.600081  0.006423  0.380817  1
  O  O28  1  0.283336  0.998151  0.378322  1
  O  O29  1  0.000000  0.000000  0.500000  1
  O  O30  1  0.716664  0.001850  0.621679  1
  O  O31  1  0.399919  0.993577  0.619183  1
  O  O32  1  0.406342  0.006423  0.880817  1
  O  O33  1  0.714815  0.998151  0.878322  1
