# generated using pymatgen
data_LuMn4FeP3
_symmetry_space_group_name_H-M   'P 1'
_cell_length_a   3.56328000
_cell_length_b   10.52867100
_cell_length_c   12.15406300
_cell_angle_alpha   90.00000000
_cell_angle_beta   90.00000000
_cell_angle_gamma   90.00000000
_symmetry_Int_Tables_number   1
_chemical_formula_structural   LuMn4FeP3
_chemical_formula_sum   'Lu4 Mn16 Fe4 P12'
_cell_volume   455.97915399
_cell_formula_units_Z   4
loop_
 _symmetry_equiv_pos_site_id
 _symmetry_equiv_pos_as_xyz
  1  'x, y, z'
loop_
 _atom_site_type_symbol
 _atom_site_label
 _atom_site_symmetry_multiplicity
 _atom_site_fract_x
 _atom_site_fract_y
 _atom_site_fract_z
 _atom_site_occupancy
  Lu  Lu0  1  0.250000  0.583307  0.708275  1
  Lu  Lu1  1  0.250000  0.916693  0.208275  1
  Lu  Lu2  1  0.750000  0.416693  0.291725  1
  Lu  Lu3  1  0.750000  0.083307  0.791725  1
  Mn  Mn4  1  0.250000  0.710657  0.986236  1
  Mn  Mn5  1  0.250000  0.789343  0.486236  1
  Mn  Mn6  1  0.750000  0.289343  0.013764  1
  Mn  Mn7  1  0.750000  0.210657  0.513764  1
  Mn  Mn8  1  0.250000  0.408805  0.492143  1
  Mn  Mn9  1  0.250000  0.091195  0.992143  1
  Mn  Mn10  1  0.750000  0.591195  0.507857  1
  Mn  Mn11  1  0.750000  0.908805  0.007857  1
  Mn  Mn12  1  0.250000  0.218646  0.175594  1
  Mn  Mn13  1  0.250000  0.281354  0.675594  1
  Mn  Mn14  1  0.750000  0.781354  0.824406  1
  Mn  Mn15  1  0.750000  0.718646  0.324406  1
  Mn  Mn16  1  0.250000  0.877412  0.698058  1
  Mn  Mn17  1  0.250000  0.622588  0.198058  1
  Mn  Mn18  1  0.750000  0.122588  0.301942  1
  Mn  Mn19  1  0.750000  0.377412  0.801942  1
  Fe  Fe20  1  0.250000  0.463281  0.931522  1
  Fe  Fe21  1  0.250000  0.036719  0.431522  1
  Fe  Fe22  1  0.750000  0.536719  0.068478  1
  Fe  Fe23  1  0.750000  0.963281  0.568478  1
  P  P24  1  0.250000  0.421429  0.111350  1
  P  P25  1  0.250000  0.078571  0.611350  1
  P  P26  1  0.750000  0.578571  0.888650  1
  P  P27  1  0.750000  0.921429  0.388650  1
  P  P28  1  0.250000  0.262879  0.871490  1
  P  P29  1  0.250000  0.237121  0.371490  1
  P  P30  1  0.750000  0.737121  0.128510  1
  P  P31  1  0.750000  0.762879  0.628510  1
  P  P32  1  0.250000  0.592455  0.385622  1
  P  P33  1  0.250000  0.907545  0.885622  1
  P  P34  1  0.750000  0.407545  0.614378  1
  P  P35  1  0.750000  0.092455  0.114378  1
