# generated using pymatgen
data_Lu8Cd2CoRu
_symmetry_space_group_name_H-M   'P 1'
_cell_length_a   9.43568527
_cell_length_b   9.37405845
_cell_length_c   9.37362486
_cell_angle_alpha   59.61467251
_cell_angle_beta   59.78379181
_cell_angle_gamma   59.77925351
_symmetry_Int_Tables_number   1
_chemical_formula_structural   Lu8Cd2CoRu
_chemical_formula_sum   'Lu16 Cd4 Co2 Ru2'
_cell_volume   582.61177476
_cell_formula_units_Z   2
loop_
 _symmetry_equiv_pos_site_id
 _symmetry_equiv_pos_as_xyz
  1  'x, y, z'
loop_
 _atom_site_type_symbol
 _atom_site_label
 _atom_site_symmetry_multiplicity
 _atom_site_fract_x
 _atom_site_fract_y
 _atom_site_fract_z
 _atom_site_occupancy
  Lu  Lu0  1  0.439153  0.437772  0.057545  1
  Lu  Lu1  1  0.590574  0.598850  0.598830  1
  Lu  Lu2  1  0.187182  0.812818  0.812818  1
  Lu  Lu3  1  0.065530  0.057545  0.437772  1
  Lu  Lu4  1  0.438805  0.061195  0.061195  1
  Lu  Lu5  1  0.813948  0.188396  0.809295  1
  Lu  Lu6  1  0.439146  0.057556  0.437780  1
  Lu  Lu7  1  0.593942  0.209931  0.602231  1
  Lu  Lu8  1  0.813938  0.809275  0.188398  1
  Lu  Lu9  1  0.211744  0.598830  0.598850  1
  Lu  Lu10  1  0.809368  0.190632  0.190632  1
  Lu  Lu11  1  0.061335  0.438665  0.438665  1
  Lu  Lu12  1  0.188361  0.809295  0.188396  1
  Lu  Lu13  1  0.593896  0.602231  0.209931  1
  Lu  Lu14  1  0.188390  0.188398  0.809275  1
  Lu  Lu15  1  0.065518  0.437780  0.057556  1
  Cd  Cd16  1  0.831337  0.829754  0.507566  1
  Cd  Cd17  1  0.831405  0.830140  0.830138  1
  Cd  Cd18  1  0.508315  0.830138  0.830140  1
  Cd  Cd19  1  0.831342  0.507566  0.829754  1
  Co  Co20  1  0.389219  0.829207  0.392347  1
  Co  Co21  1  0.389228  0.392347  0.829207  1
  Ru  Ru22  1  0.390081  0.390831  0.390847  1
  Ru  Ru23  1  0.828242  0.390847  0.390831  1
