# generated using pymatgen
data_Na2(ZrS2)5
_symmetry_space_group_name_H-M   'P 1'
_cell_length_a   6.30153300
_cell_length_b   10.21987579
_cell_length_c   8.01921833
_cell_angle_alpha   62.52843984
_cell_angle_beta   66.75937516
_cell_angle_gamma   89.93244797
_symmetry_Int_Tables_number   1
_chemical_formula_structural   Na2(ZrS2)5
_chemical_formula_sum   'Na2 Zr5 S10'
_cell_volume   410.53897734
_cell_formula_units_Z   1
loop_
 _symmetry_equiv_pos_site_id
 _symmetry_equiv_pos_as_xyz
  1  'x, y, z'
loop_
 _atom_site_type_symbol
 _atom_site_label
 _atom_site_symmetry_multiplicity
 _atom_site_fract_x
 _atom_site_fract_y
 _atom_site_fract_z
 _atom_site_occupancy
  Na  Na0  1  0.792330  0.085800  0.414179  1
  Na  Na1  1  0.007670  0.514200  0.985821  1
  Zr  Zr2  1  0.400000  0.800000  0.200000  1
  Zr  Zr3  1  0.799149  0.601336  0.403440  1
  Zr  Zr4  1  0.200279  0.399766  0.594684  1
  Zr  Zr5  1  0.599721  0.200234  0.805316  1
  Zr  Zr6  1  0.000851  0.998664  0.996560  1
  S  S7  1  0.981921  0.842729  0.369109  1
  S  S8  1  0.581607  0.041750  0.171135  1
  S  S9  1  0.178013  0.243088  0.970636  1
  S  S10  1  0.781661  0.442532  0.770979  1
  S  S11  1  0.380577  0.641795  0.568999  1
  S  S12  1  0.419423  0.958205  0.831001  1
  S  S13  1  0.018339  0.157468  0.629021  1
  S  S14  1  0.621987  0.356912  0.429364  1
  S  S15  1  0.218393  0.558250  0.228865  1
  S  S16  1  0.818079  0.757271  0.030891  1
