# generated using pymatgen
data_Ac4LaPb4
_symmetry_space_group_name_H-M   'P 1'
_cell_length_a   8.90766300
_cell_length_b   8.99103800
_cell_length_c   17.16003600
_cell_angle_alpha   90.00000000
_cell_angle_beta   90.00000000
_cell_angle_gamma   90.00000000
_symmetry_Int_Tables_number   1
_chemical_formula_structural   Ac4LaPb4
_chemical_formula_sum   'Ac16 La4 Pb16'
_cell_volume   1374.33246596
_cell_formula_units_Z   4
loop_
 _symmetry_equiv_pos_site_id
 _symmetry_equiv_pos_as_xyz
  1  'x, y, z'
loop_
 _atom_site_type_symbol
 _atom_site_label
 _atom_site_symmetry_multiplicity
 _atom_site_fract_x
 _atom_site_fract_y
 _atom_site_fract_z
 _atom_site_occupancy
  Ac  Ac0  1  0.879129  0.658032  0.117574  1
  Ac  Ac1  1  0.379129  0.841968  0.382426  1
  Ac  Ac2  1  0.620871  0.158032  0.882426  1
  Ac  Ac3  1  0.120871  0.341968  0.617574  1
  Ac  Ac4  1  0.120871  0.341968  0.882426  1
  Ac  Ac5  1  0.620871  0.158032  0.617574  1
  Ac  Ac6  1  0.379129  0.841968  0.117574  1
  Ac  Ac7  1  0.879129  0.658032  0.382426  1
  Ac  Ac8  1  0.029487  0.178467  0.101246  1
  Ac  Ac9  1  0.529487  0.321533  0.398754  1
  Ac  Ac10  1  0.470513  0.678467  0.898754  1
  Ac  Ac11  1  0.970513  0.821533  0.601246  1
  Ac  Ac12  1  0.970513  0.821533  0.898754  1
  Ac  Ac13  1  0.470513  0.678467  0.601246  1
  Ac  Ac14  1  0.529487  0.321533  0.101246  1
  Ac  Ac15  1  0.029487  0.178467  0.398754  1
  La  La16  1  0.711927  0.998192  0.250000  1
  La  La17  1  0.211927  0.501808  0.250000  1
  La  La18  1  0.788073  0.498192  0.750000  1
  La  La19  1  0.288073  0.001808  0.750000  1
  Pb  Pb20  1  0.076153  0.879780  0.250000  1
  Pb  Pb21  1  0.576153  0.620220  0.250000  1
  Pb  Pb22  1  0.423847  0.379780  0.750000  1
  Pb  Pb23  1  0.923847  0.120220  0.750000  1
  Pb  Pb24  1  0.835504  0.353792  0.250000  1
  Pb  Pb25  1  0.335504  0.146208  0.250000  1
  Pb  Pb26  1  0.664496  0.853792  0.750000  1
  Pb  Pb27  1  0.164496  0.646208  0.750000  1
  Pb  Pb28  1  0.779801  0.468515  0.954613  1
  Pb  Pb29  1  0.279801  0.031485  0.545387  1
  Pb  Pb30  1  0.720199  0.968515  0.045387  1
  Pb  Pb31  1  0.220199  0.531485  0.454613  1
  Pb  Pb32  1  0.220199  0.531485  0.045387  1
  Pb  Pb33  1  0.720199  0.968515  0.454613  1
  Pb  Pb34  1  0.279801  0.031485  0.954613  1
  Pb  Pb35  1  0.779801  0.468515  0.545387  1
