# generated using pymatgen
data_Zr16Fe4RhAu3
_symmetry_space_group_name_H-M   'P 1'
_cell_length_a   8.76205605
_cell_length_b   8.76205664
_cell_length_c   8.76205768
_cell_angle_alpha   60.43012834
_cell_angle_beta   60.43011895
_cell_angle_gamma   60.43013052
_symmetry_Int_Tables_number   1
_chemical_formula_structural   Zr16Fe4RhAu3
_chemical_formula_sum   'Zr16 Fe4 Rh1 Au3'
_cell_volume   480.29315750
_cell_formula_units_Z   1
loop_
 _symmetry_equiv_pos_site_id
 _symmetry_equiv_pos_as_xyz
  1  'x, y, z'
loop_
 _atom_site_type_symbol
 _atom_site_label
 _atom_site_symmetry_multiplicity
 _atom_site_fract_x
 _atom_site_fract_y
 _atom_site_fract_z
 _atom_site_occupancy
  Zr  Zr0  1  0.055826  0.648097  0.648097  1
  Zr  Zr1  1  0.648097  0.055826  0.648097  1
  Zr  Zr2  1  0.648097  0.648097  0.055826  1
  Zr  Zr3  1  0.646667  0.646667  0.646667  1
  Zr  Zr4  1  0.811386  0.811386  0.189437  1
  Zr  Zr5  1  0.189331  0.189331  0.811147  1
  Zr  Zr6  1  0.811386  0.189437  0.811386  1
  Zr  Zr7  1  0.189331  0.811147  0.189331  1
  Zr  Zr8  1  0.189437  0.811386  0.811386  1
  Zr  Zr9  1  0.811147  0.189331  0.189331  1
  Zr  Zr10  1  0.441014  0.441014  0.066063  1
  Zr  Zr11  1  0.060713  0.060713  0.441341  1
  Zr  Zr12  1  0.441014  0.066063  0.441014  1
  Zr  Zr13  1  0.060713  0.441341  0.060713  1
  Zr  Zr14  1  0.066063  0.441014  0.441014  1
  Zr  Zr15  1  0.441341  0.060713  0.060713  1
  Fe  Fe16  1  0.425678  0.857488  0.857488  1
  Fe  Fe17  1  0.857488  0.425678  0.857488  1
  Fe  Fe18  1  0.857488  0.857488  0.425678  1
  Fe  Fe19  1  0.858607  0.858607  0.858607  1
  Rh  Rh20  1  0.407819  0.407819  0.407819  1
  Au  Au21  1  0.757233  0.412060  0.412060  1
  Au  Au22  1  0.412060  0.757233  0.412060  1
  Au  Au23  1  0.412060  0.412060  0.757233  1
