# generated using pymatgen
data_DyHo3(Ga10Ru3)2
_symmetry_space_group_name_H-M   'P 1'
_cell_length_a   8.90797319
_cell_length_b   8.90797319
_cell_length_c   6.44357100
_cell_angle_alpha   90.00000000
_cell_angle_beta   90.00000000
_cell_angle_gamma   90.08042531
_symmetry_Int_Tables_number   1
_chemical_formula_structural   DyHo3(Ga10Ru3)2
_chemical_formula_sum   'Dy1 Ho3 Ga20 Ru6'
_cell_volume   511.30965479
_cell_formula_units_Z   1
loop_
 _symmetry_equiv_pos_site_id
 _symmetry_equiv_pos_as_xyz
  1  'x, y, z'
loop_
 _atom_site_type_symbol
 _atom_site_label
 _atom_site_symmetry_multiplicity
 _atom_site_fract_x
 _atom_site_fract_y
 _atom_site_fract_z
 _atom_site_occupancy
  Dy  Dy0  1  0.182941  0.682941  0.000000  1
  Ho  Ho1  1  0.817065  0.317065  0.000000  1
  Ho  Ho2  1  0.683006  0.817022  0.000000  1
  Ho  Ho3  1  0.317022  0.183006  0.000000  1
  Ga  Ga4  1  0.060857  0.206482  0.706374  1
  Ga  Ga5  1  0.938787  0.793758  0.706268  1
  Ga  Ga6  1  0.561136  0.293659  0.706399  1
  Ga  Ga7  1  0.439222  0.706246  0.706137  1
  Ga  Ga8  1  0.793659  0.061136  0.706399  1
  Ga  Ga9  1  0.206246  0.939222  0.706137  1
  Ga  Ga10  1  0.706482  0.560857  0.706374  1
  Ga  Ga11  1  0.293758  0.438787  0.706268  1
  Ga  Ga12  1  0.938787  0.793758  0.293732  1
  Ga  Ga13  1  0.060857  0.206482  0.293626  1
  Ga  Ga14  1  0.439222  0.706246  0.293863  1
  Ga  Ga15  1  0.561136  0.293659  0.293601  1
  Ga  Ga16  1  0.206246  0.939222  0.293863  1
  Ga  Ga17  1  0.793659  0.061136  0.293601  1
  Ga  Ga18  1  0.293758  0.438787  0.293732  1
  Ga  Ga19  1  0.706482  0.560857  0.293626  1
  Ga  Ga20  1  0.999675  0.499675  0.711279  1
  Ga  Ga21  1  0.499977  0.999977  0.711748  1
  Ga  Ga22  1  0.999675  0.499675  0.288721  1
  Ga  Ga23  1  0.499977  0.999977  0.288252  1
  Ru  Ru24  1  0.178345  0.678345  0.500000  1
  Ru  Ru25  1  0.821663  0.321663  0.500000  1
  Ru  Ru26  1  0.678279  0.821816  0.500000  1
  Ru  Ru27  1  0.321816  0.178279  0.500000  1
  Ru  Ru28  1  0.999866  0.000398  0.000000  1
  Ru  Ru29  1  0.500398  0.499866  0.000000  1
