# generated using pymatgen
data_MnBMoO4
_symmetry_space_group_name_H-M   'P 1'
_cell_length_a   3.37448100
_cell_length_b   9.69704700
_cell_length_c   9.88468500
_cell_angle_alpha   90.00000000
_cell_angle_beta   90.00000000
_cell_angle_gamma   90.00000000
_symmetry_Int_Tables_number   1
_chemical_formula_structural   MnBMoO4
_chemical_formula_sum   'Mn4 B4 Mo4 O16'
_cell_volume   323.45161339
_cell_formula_units_Z   4
loop_
 _symmetry_equiv_pos_site_id
 _symmetry_equiv_pos_as_xyz
  1  'x, y, z'
loop_
 _atom_site_type_symbol
 _atom_site_label
 _atom_site_symmetry_multiplicity
 _atom_site_fract_x
 _atom_site_fract_y
 _atom_site_fract_z
 _atom_site_occupancy
  Mn  Mn0  1  0.250000  0.183985  0.087666  1
  Mn  Mn1  1  0.750000  0.683985  0.412334  1
  Mn  Mn2  1  0.250000  0.316015  0.587666  1
  Mn  Mn3  1  0.750000  0.816015  0.912334  1
  B  B4  1  0.250000  0.871367  0.174322  1
  B  B5  1  0.750000  0.371367  0.325678  1
  B  B6  1  0.250000  0.628633  0.674322  1
  B  B7  1  0.750000  0.128633  0.825678  1
  Mo  Mo8  1  0.250000  0.565468  0.127064  1
  Mo  Mo9  1  0.750000  0.065468  0.372936  1
  Mo  Mo10  1  0.250000  0.934532  0.627064  1
  Mo  Mo11  1  0.750000  0.434532  0.872936  1
  O  O12  1  0.250000  0.386056  0.000005  1
  O  O13  1  0.250000  0.866706  0.036834  1
  O  O14  1  0.250000  0.003232  0.237770  1
  O  O15  1  0.250000  0.752252  0.253834  1
  O  O16  1  0.750000  0.252252  0.246166  1
  O  O17  1  0.750000  0.503232  0.262230  1
  O  O18  1  0.750000  0.366706  0.463166  1
  O  O19  1  0.750000  0.886056  0.499995  1
  O  O20  1  0.250000  0.113944  0.500005  1
  O  O21  1  0.250000  0.633294  0.536834  1
  O  O22  1  0.250000  0.496768  0.737770  1
  O  O23  1  0.250000  0.747748  0.753834  1
  O  O24  1  0.750000  0.247748  0.746166  1
  O  O25  1  0.750000  0.996768  0.762230  1
  O  O26  1  0.750000  0.133294  0.963166  1
  O  O27  1  0.750000  0.613944  0.999995  1
