# generated using pymatgen
data_Ca2InPd3
_symmetry_space_group_name_H-M   'P 1'
_cell_length_a   5.46618642
_cell_length_b   5.46618675
_cell_length_c   5.46618603
_cell_angle_alpha   63.67347620
_cell_angle_beta   63.67347285
_cell_angle_gamma   63.67346930
_symmetry_Int_Tables_number   1
_chemical_formula_structural   Ca2InPd3
_chemical_formula_sum   'Ca2 In1 Pd3'
_cell_volume   124.85674856
_cell_formula_units_Z   1
loop_
 _symmetry_equiv_pos_site_id
 _symmetry_equiv_pos_as_xyz
  1  'x, y, z'
loop_
 _atom_site_type_symbol
 _atom_site_label
 _atom_site_symmetry_multiplicity
 _atom_site_fract_x
 _atom_site_fract_y
 _atom_site_fract_z
 _atom_site_occupancy
  Ca  Ca0  1  0.873867  0.873867  0.873867  1
  Ca  Ca1  1  0.126133  0.126133  0.126133  1
  In  In2  1  0.500000  0.500000  0.500000  1
  Pd  Pd3  1  0.500000  0.500000  0.000000  1
  Pd  Pd4  1  0.000000  0.500000  0.500000  1
  Pd  Pd5  1  0.500000  0.000000  0.500000  1
