# generated using pymatgen
data_Pr6RhAu7
_symmetry_space_group_name_H-M   'P 1'
_cell_length_a   8.40617085
_cell_length_b   8.40617225
_cell_length_c   8.40617122
_cell_angle_alpha   114.50382256
_cell_angle_beta   114.50381620
_cell_angle_gamma   114.50383058
_symmetry_Int_Tables_number   1
_chemical_formula_structural   Pr6RhAu7
_chemical_formula_sum   'Pr6 Rh1 Au7'
_cell_volume   346.99862401
_cell_formula_units_Z   1
loop_
 _symmetry_equiv_pos_site_id
 _symmetry_equiv_pos_as_xyz
  1  'x, y, z'
loop_
 _atom_site_type_symbol
 _atom_site_label
 _atom_site_symmetry_multiplicity
 _atom_site_fract_x
 _atom_site_fract_y
 _atom_site_fract_z
 _atom_site_occupancy
  Pr  Pr0  1  0.736037  0.616033  0.985537  1
  Pr  Pr1  1  0.985537  0.736037  0.616033  1
  Pr  Pr2  1  0.616033  0.985537  0.736037  1
  Pr  Pr3  1  0.263963  0.383967  0.014463  1
  Pr  Pr4  1  0.014463  0.263963  0.383967  1
  Pr  Pr5  1  0.383967  0.014463  0.263963  1
  Rh  Rh6  1  0.000000  0.000000  0.000000  1
  Au  Au7  1  0.568717  0.234094  0.070623  1
  Au  Au8  1  0.070623  0.568717  0.234094  1
  Au  Au9  1  0.234094  0.070623  0.568717  1
  Au  Au10  1  0.431283  0.765906  0.929377  1
  Au  Au11  1  0.929377  0.431283  0.765906  1
  Au  Au12  1  0.765906  0.929377  0.431283  1
  Au  Au13  1  0.500000  0.500000  0.500000  1
