# generated using pymatgen
data_ErLu2Mg3Ga2Ag
_symmetry_space_group_name_H-M   'P 1'
_cell_length_a   7.31991660
_cell_length_b   7.30446847
_cell_length_c   4.29073900
_cell_angle_alpha   90.00000000
_cell_angle_beta   90.00000000
_cell_angle_gamma   119.93023309
_symmetry_Int_Tables_number   1
_chemical_formula_structural   ErLu2Mg3Ga2Ag
_chemical_formula_sum   'Er1 Lu2 Mg3 Ga2 Ag1'
_cell_volume   198.82105242
_cell_formula_units_Z   1
loop_
 _symmetry_equiv_pos_site_id
 _symmetry_equiv_pos_as_xyz
  1  'x, y, z'
loop_
 _atom_site_type_symbol
 _atom_site_label
 _atom_site_symmetry_multiplicity
 _atom_site_fract_x
 _atom_site_fract_y
 _atom_site_fract_z
 _atom_site_occupancy
  Er  Er0  1  0.000000  0.576542  0.500000  1
  Lu  Lu1  1  0.422842  0.422364  0.500000  1
  Lu  Lu2  1  0.577158  0.999522  0.500000  1
  Mg  Mg3  1  0.751220  0.751011  0.000000  1
  Mg  Mg4  1  0.248780  0.999791  0.000000  1
  Mg  Mg5  1  0.000000  0.248938  0.000000  1
  Ga  Ga6  1  0.665154  0.332224  0.000000  1
  Ga  Ga7  1  0.334846  0.667072  0.000000  1
  Ag  Ag8  1  0.000000  0.002533  0.500000  1
