# generated using pymatgen
data_Gd2DyHo3Ta2O14
_symmetry_space_group_name_H-M   'P 1'
_cell_length_a   6.49593249
_cell_length_b   6.49779334
_cell_length_c   7.49802107
_cell_angle_alpha   90.00694818
_cell_angle_beta   90.01090604
_cell_angle_gamma   108.58367444
_symmetry_Int_Tables_number   1
_chemical_formula_structural   Gd2DyHo3Ta2O14
_chemical_formula_sum   'Gd2 Dy1 Ho3 Ta2 O14'
_cell_volume   299.98386218
_cell_formula_units_Z   1
loop_
 _symmetry_equiv_pos_site_id
 _symmetry_equiv_pos_as_xyz
  1  'x, y, z'
loop_
 _atom_site_type_symbol
 _atom_site_label
 _atom_site_symmetry_multiplicity
 _atom_site_fract_x
 _atom_site_fract_y
 _atom_site_fract_z
 _atom_site_occupancy
  Gd  Gd0  1  0.531239  0.531493  0.500144  1
  Gd  Gd1  1  0.468407  0.468400  0.999860  1
  Dy  Dy2  1  0.000078  0.535275  0.241619  1
  Ho  Ho3  1  0.999574  0.465061  0.741704  1
  Ho  Ho4  1  0.534755  0.000467  0.758228  1
  Ho  Ho5  1  0.465299  0.999603  0.258264  1
  Ta  Ta6  1  0.002161  0.001999  0.500261  1
  Ta  Ta7  1  0.997876  0.997964  0.999781  1
  O  O8  1  0.931526  0.068199  0.749998  1
  O  O9  1  0.068333  0.932158  0.249993  1
  O  O10  1  0.359269  0.642168  0.249968  1
  O  O11  1  0.642071  0.357916  0.750047  1
  O  O12  1  0.368037  0.631939  0.749984  1
  O  O13  1  0.630519  0.367395  0.250139  1
  O  O14  1  0.327483  0.078982  0.974893  1
  O  O15  1  0.672640  0.920906  0.474927  1
  O  O16  1  0.308747  0.050751  0.544543  1
  O  O17  1  0.691440  0.949220  0.044519  1
  O  O18  1  0.051286  0.308698  0.456237  1
  O  O19  1  0.948999  0.691440  0.954910  1
  O  O20  1  0.920583  0.672623  0.525655  1
  O  O21  1  0.079679  0.327341  0.024326  1
