# generated using pymatgen
data_Hf16Mo3Pt5
_symmetry_space_group_name_H-M   'P 1'
_cell_length_a   8.86131172
_cell_length_b   8.85472166
_cell_length_c   8.85472100
_cell_angle_alpha   59.99999872
_cell_angle_beta   60.02459673
_cell_angle_gamma   60.02460563
_symmetry_Int_Tables_number   1
_chemical_formula_structural   Hf16Mo3Pt5
_chemical_formula_sum   'Hf16 Mo3 Pt5'
_cell_volume   491.46681555
_cell_formula_units_Z   1
loop_
 _symmetry_equiv_pos_site_id
 _symmetry_equiv_pos_as_xyz
  1  'x, y, z'
loop_
 _atom_site_type_symbol
 _atom_site_label
 _atom_site_symmetry_multiplicity
 _atom_site_fract_x
 _atom_site_fract_y
 _atom_site_fract_z
 _atom_site_occupancy
  Hf  Hf0  1  0.154551  0.615150  0.615150  1
  Hf  Hf1  1  0.614871  0.152186  0.616471  1
  Hf  Hf2  1  0.614871  0.616471  0.152186  1
  Hf  Hf3  1  0.614871  0.616471  0.616471  1
  Hf  Hf4  1  0.818315  0.817195  0.182245  1
  Hf  Hf5  1  0.176397  0.186848  0.818378  1
  Hf  Hf6  1  0.818315  0.182245  0.817195  1
  Hf  Hf7  1  0.176397  0.818378  0.186848  1
  Hf  Hf8  1  0.176397  0.818378  0.818378  1
  Hf  Hf9  1  0.818315  0.182245  0.182245  1
  Hf  Hf10  1  0.451125  0.443013  0.052932  1
  Hf  Hf11  1  0.046008  0.046296  0.453847  1
  Hf  Hf12  1  0.451125  0.052932  0.443013  1
  Hf  Hf13  1  0.046008  0.453847  0.046296  1
  Hf  Hf14  1  0.046008  0.453847  0.453847  1
  Hf  Hf15  1  0.451125  0.052932  0.052932  1
  Mo  Mo16  1  0.839917  0.488828  0.835627  1
  Mo  Mo17  1  0.839917  0.835627  0.488828  1
  Mo  Mo18  1  0.839917  0.835627  0.835627  1
  Pt  Pt19  1  0.808726  0.397092  0.397092  1
  Pt  Pt20  1  0.398580  0.809096  0.396162  1
  Pt  Pt21  1  0.398580  0.396162  0.809096  1
  Pt  Pt22  1  0.398580  0.396162  0.396162  1
  Pt  Pt23  1  0.501092  0.832969  0.832969  1
