# generated using pymatgen
data_Ba20In3Si8Cl
_symmetry_space_group_name_H-M   'P 1'
_cell_length_a   8.60131900
_cell_length_b   8.60131900
_cell_length_c   17.53492200
_cell_angle_alpha   90.00000000
_cell_angle_beta   90.00000000
_cell_angle_gamma   90.00000000
_symmetry_Int_Tables_number   1
_chemical_formula_structural   Ba20In3Si8Cl
_chemical_formula_sum   'Ba20 In3 Si8 Cl1'
_cell_volume   1297.28067290
_cell_formula_units_Z   1
loop_
 _symmetry_equiv_pos_site_id
 _symmetry_equiv_pos_as_xyz
  1  'x, y, z'
loop_
 _atom_site_type_symbol
 _atom_site_label
 _atom_site_symmetry_multiplicity
 _atom_site_fract_x
 _atom_site_fract_y
 _atom_site_fract_z
 _atom_site_occupancy
  Ba  Ba0  1  0.321402  0.672515  0.111629  1
  Ba  Ba1  1  0.172515  0.178598  0.111629  1
  Ba  Ba2  1  0.500000  0.000000  0.742739  1
  Ba  Ba3  1  0.328480  0.681958  0.386881  1
  Ba  Ba4  1  0.668775  0.684191  0.890785  1
  Ba  Ba5  1  0.181958  0.171520  0.386881  1
  Ba  Ba6  1  0.671520  0.318042  0.386881  1
  Ba  Ba7  1  0.170082  0.819371  0.619128  1
  Ba  Ba8  1  0.331225  0.315809  0.890785  1
  Ba  Ba9  1  0.184191  0.831225  0.890785  1
  Ba  Ba10  1  0.500000  0.000000  0.237969  1
  Ba  Ba11  1  0.829918  0.180629  0.619128  1
  Ba  Ba12  1  0.319371  0.329918  0.619128  1
  Ba  Ba13  1  0.818042  0.828480  0.386881  1
  Ba  Ba14  1  0.815809  0.168775  0.890785  1
  Ba  Ba15  1  0.827485  0.821402  0.111629  1
  Ba  Ba16  1  0.000000  0.500000  0.247319  1
  Ba  Ba17  1  0.000000  0.500000  0.772689  1
  Ba  Ba18  1  0.678598  0.327485  0.111629  1
  Ba  Ba19  1  0.680629  0.670082  0.619128  1
  In  In20  1  0.000000  0.500000  0.994156  1
  In  In21  1  0.500000  0.000000  0.009940  1
  In  In22  1  0.500000  0.000000  0.512958  1
  Si  Si23  1  0.101703  0.099466  0.752832  1
  Si  Si24  1  0.400534  0.601703  0.752832  1
  Si  Si25  1  0.601202  0.600775  0.251785  1
  Si  Si26  1  0.100775  0.898798  0.251785  1
  Si  Si27  1  0.599466  0.398297  0.752832  1
  Si  Si28  1  0.898297  0.900534  0.752832  1
  Si  Si29  1  0.398798  0.399225  0.251785  1
  Si  Si30  1  0.899225  0.101202  0.251785  1
  Cl  Cl31  1  0.000000  0.500000  0.430067  1
