# generated using pymatgen
data_Dy2Ho8Tl7InPd4
_symmetry_space_group_name_H-M   'P 1'
_cell_length_a   3.63541600
_cell_length_b   8.21184500
_cell_length_c   18.34021991
_cell_angle_alpha   89.92278664
_cell_angle_beta   90.00000000
_cell_angle_gamma   90.00000000
_symmetry_Int_Tables_number   1
_chemical_formula_structural   Dy2Ho8Tl7InPd4
_chemical_formula_sum   'Dy2 Ho8 Tl7 In1 Pd4'
_cell_volume   547.51875711
_cell_formula_units_Z   1
loop_
 _symmetry_equiv_pos_site_id
 _symmetry_equiv_pos_as_xyz
  1  'x, y, z'
loop_
 _atom_site_type_symbol
 _atom_site_label
 _atom_site_symmetry_multiplicity
 _atom_site_fract_x
 _atom_site_fract_y
 _atom_site_fract_z
 _atom_site_occupancy
  Dy  Dy0  1  0.000000  0.500051  0.500253  1
  Dy  Dy1  1  0.000000  0.000907  0.998764  1
  Ho  Ho2  1  0.000000  0.740263  0.282140  1
  Ho  Ho3  1  0.000000  0.260175  0.718035  1
  Ho  Ho4  1  0.000000  0.759642  0.782634  1
  Ho  Ho5  1  0.000000  0.240171  0.217508  1
  Ho  Ho6  1  0.000000  0.616422  0.085327  1
  Ho  Ho7  1  0.000000  0.383101  0.914716  1
  Ho  Ho8  1  0.000000  0.884068  0.586412  1
  Ho  Ho9  1  0.000000  0.115846  0.414255  1
  Tl  Tl10  1  0.500000  0.707708  0.934061  1
  Tl  Tl11  1  0.500000  0.294473  0.064883  1
  Tl  Tl12  1  0.500000  0.794537  0.435209  1
  Tl  Tl13  1  0.500000  0.204947  0.565105  1
  Tl  Tl14  1  0.500000  0.584355  0.650234  1
  Tl  Tl15  1  0.500000  0.415536  0.350397  1
  Tl  Tl16  1  0.500000  0.915864  0.149051  1
  In  In17  1  0.500000  0.084863  0.849234  1
  Pd  Pd18  1  0.500000  0.525554  0.196593  1
  Pd  Pd19  1  0.500000  0.471228  0.803632  1
  Pd  Pd20  1  0.500000  0.975356  0.698544  1
  Pd  Pd21  1  0.500000  0.024932  0.303015  1
