# generated using pymatgen
data_Sc6Sn6IrRu11
_symmetry_space_group_name_H-M   'P 1'
_cell_length_a   4.53177904
_cell_length_b   6.44338506
_cell_length_c   13.65546101
_cell_angle_alpha   89.99863531
_cell_angle_beta   89.99589153
_cell_angle_gamma   89.98490118
_symmetry_Int_Tables_number   1
_chemical_formula_structural   Sc6Sn6IrRu11
_chemical_formula_sum   'Sc6 Sn6 Ir1 Ru11'
_cell_volume   398.73941045
_cell_formula_units_Z   1
loop_
 _symmetry_equiv_pos_site_id
 _symmetry_equiv_pos_as_xyz
  1  'x, y, z'
loop_
 _atom_site_type_symbol
 _atom_site_label
 _atom_site_symmetry_multiplicity
 _atom_site_fract_x
 _atom_site_fract_y
 _atom_site_fract_z
 _atom_site_occupancy
  Sc  Sc0  1  0.000014  0.998934  0.999987  1
  Sc  Sc1  1  0.499789  0.500516  0.167602  1
  Sc  Sc2  1  0.999831  0.000084  0.333535  1
  Sc  Sc3  1  0.500010  0.498949  0.499997  1
  Sc  Sc4  1  0.000172  0.000062  0.666457  1
  Sc  Sc5  1  0.500182  0.500537  0.832391  1
  Sn  Sn6  1  0.000007  0.503942  0.000005  1
  Sn  Sn7  1  0.499841  0.998092  0.168147  1
  Sn  Sn8  1  0.999833  0.499687  0.333156  1
  Sn  Sn9  1  0.500013  0.000472  0.499997  1
  Sn  Sn10  1  0.000154  0.499683  0.666845  1
  Sn  Sn11  1  0.500140  0.998081  0.831853  1
  Ir  Ir12  1  0.500019  0.249532  0.000000  1
  Ru  Ru13  1  0.499992  0.751690  0.000012  1
  Ru  Ru14  1  0.999868  0.250665  0.165806  1
  Ru  Ru15  1  0.999860  0.749379  0.166233  1
  Ru  Ru16  1  0.499838  0.249350  0.332771  1
  Ru  Ru17  1  0.499858  0.750402  0.333771  1
  Ru  Ru18  1  0.000025  0.250832  0.499999  1
  Ru  Ru19  1  0.999998  0.749332  0.499991  1
  Ru  Ru20  1  0.500133  0.249331  0.667222  1
  Ru  Ru21  1  0.500128  0.750412  0.666236  1
  Ru  Ru22  1  0.000131  0.250668  0.834206  1
  Ru  Ru23  1  0.000157  0.749376  0.833778  1
