# generated using pymatgen
data_TbDyB6MoW
_symmetry_space_group_name_H-M   'P 1'
_cell_length_a   3.17033900
_cell_length_b   5.46896028
_cell_length_c   6.85156511
_cell_angle_alpha   77.77610460
_cell_angle_beta   90.00000000
_cell_angle_gamma   90.00000000
_symmetry_Int_Tables_number   1
_chemical_formula_structural   TbDyB6MoW
_chemical_formula_sum   'Tb1 Dy1 B6 Mo1 W1'
_cell_volume   116.10220262
_cell_formula_units_Z   1
loop_
 _symmetry_equiv_pos_site_id
 _symmetry_equiv_pos_as_xyz
  1  'x, y, z'
loop_
 _atom_site_type_symbol
 _atom_site_label
 _atom_site_symmetry_multiplicity
 _atom_site_fract_x
 _atom_site_fract_y
 _atom_site_fract_z
 _atom_site_occupancy
  Tb  Tb0  1  0.250000  0.325404  0.708067  1
  Dy  Dy1  1  0.750000  0.675395  0.290683  1
  B  B2  1  0.250000  0.919247  0.524336  1
  B  B3  1  0.750000  0.079942  0.474184  1
  B  B4  1  0.250000  0.912701  0.005076  1
  B  B5  1  0.750000  0.087085  0.996191  1
  B  B6  1  0.250000  0.583200  0.007052  1
  B  B7  1  0.750000  0.416687  0.994119  1
  Mo  Mo8  1  0.750000  0.812217  0.780896  1
  W  W9  1  0.250000  0.188123  0.219395  1
