# generated using pymatgen
data_HoEr5Al7Pt16
_symmetry_space_group_name_H-M   'P 1'
_cell_length_a   8.95742417
_cell_length_b   8.95742385
_cell_length_c   8.96143400
_cell_angle_alpha   59.98518942
_cell_angle_beta   59.98519061
_cell_angle_gamma   60.02962288
_symmetry_Int_Tables_number   1
_chemical_formula_structural   HoEr5Al7Pt16
_chemical_formula_sum   'Ho1 Er5 Al7 Pt16'
_cell_volume   508.42700875
_cell_formula_units_Z   1
loop_
 _symmetry_equiv_pos_site_id
 _symmetry_equiv_pos_as_xyz
  1  'x, y, z'
loop_
 _atom_site_type_symbol
 _atom_site_label
 _atom_site_symmetry_multiplicity
 _atom_site_fract_x
 _atom_site_fract_y
 _atom_site_fract_z
 _atom_site_occupancy
  Ho  Ho0  1  0.713176  0.713176  0.286824  1
  Er  Er1  1  0.286445  0.713457  0.286543  1
  Er  Er2  1  0.713457  0.286445  0.286543  1
  Er  Er3  1  0.286555  0.286555  0.713445  1
  Er  Er4  1  0.713457  0.286445  0.713555  1
  Er  Er5  1  0.286445  0.713457  0.713555  1
  Al  Al6  1  0.999967  0.999967  0.000033  1
  Al  Al7  1  0.999962  0.999962  0.500038  1
  Al  Al8  1  0.499848  0.000136  0.500152  1
  Al  Al9  1  0.000136  0.499848  0.500152  1
  Al  Al10  1  0.499962  0.499962  0.000038  1
  Al  Al11  1  0.000136  0.499848  0.999864  1
  Al  Al12  1  0.499848  0.000136  0.999864  1
  Pt  Pt13  1  0.881225  0.881225  0.356998  1
  Pt  Pt14  1  0.881065  0.356864  0.881035  1
  Pt  Pt15  1  0.356864  0.881065  0.881035  1
  Pt  Pt16  1  0.881225  0.881225  0.880551  1
  Pt  Pt17  1  0.118965  0.118965  0.643136  1
  Pt  Pt18  1  0.119449  0.643002  0.118775  1
  Pt  Pt19  1  0.643002  0.119449  0.118775  1
  Pt  Pt20  1  0.118965  0.118965  0.118935  1
  Pt  Pt21  1  0.661741  0.661741  0.014342  1
  Pt  Pt22  1  0.661670  0.014773  0.661779  1
  Pt  Pt23  1  0.014773  0.661670  0.661779  1
  Pt  Pt24  1  0.661741  0.661741  0.662176  1
  Pt  Pt25  1  0.338221  0.338221  0.985227  1
  Pt  Pt26  1  0.337824  0.985658  0.338259  1
  Pt  Pt27  1  0.985658  0.337824  0.338259  1
  Pt  Pt28  1  0.338221  0.338221  0.338330  1
