# generated using pymatgen
data_Ho20Sn3Bi5Ru4
_symmetry_space_group_name_H-M   'P 1'
_cell_length_a   7.88689463
_cell_length_b   9.01485104
_cell_length_c   12.29952880
_cell_angle_alpha   90.00844659
_cell_angle_beta   90.13678779
_cell_angle_gamma   90.00721106
_symmetry_Int_Tables_number   1
_chemical_formula_structural   Ho20Sn3Bi5Ru4
_chemical_formula_sum   'Ho20 Sn3 Bi5 Ru4'
_cell_volume   874.48390713
_cell_formula_units_Z   1
loop_
 _symmetry_equiv_pos_site_id
 _symmetry_equiv_pos_as_xyz
  1  'x, y, z'
loop_
 _atom_site_type_symbol
 _atom_site_label
 _atom_site_symmetry_multiplicity
 _atom_site_fract_x
 _atom_site_fract_y
 _atom_site_fract_z
 _atom_site_occupancy
  Ho  Ho0  1  0.841064  0.742560  0.791343  1
  Ho  Ho1  1  0.161273  0.254055  0.207476  1
  Ho  Ho2  1  0.341579  0.257066  0.709771  1
  Ho  Ho3  1  0.655117  0.745867  0.291492  1
  Ho  Ho4  1  0.374579  0.743370  0.692571  1
  Ho  Ho5  1  0.620710  0.254127  0.307522  1
  Ho  Ho6  1  0.874739  0.256246  0.807419  1
  Ho  Ho7  1  0.128860  0.746650  0.190589  1
  Ho  Ho8  1  0.948954  0.746551  0.506032  1
  Ho  Ho9  1  0.053476  0.253276  0.498361  1
  Ho  Ho10  1  0.449178  0.256438  0.995614  1
  Ho  Ho11  1  0.551232  0.743567  0.003932  1
  Ho  Ho12  1  0.674663  0.041159  0.566201  1
  Ho  Ho13  1  0.323665  0.958969  0.433872  1
  Ho  Ho14  1  0.175489  0.959605  0.933427  1
  Ho  Ho15  1  0.325624  0.540310  0.431972  1
  Ho  Ho16  1  0.824982  0.040602  0.066290  1
  Ho  Ho17  1  0.676847  0.460469  0.571271  1
  Ho  Ho18  1  0.820658  0.460333  0.064813  1
  Ho  Ho19  1  0.178249  0.539519  0.931133  1
  Sn  Sn20  1  0.568825  0.494003  0.828688  1
  Sn  Sn21  1  0.431431  0.505901  0.171905  1
  Sn  Sn22  1  0.068282  0.505654  0.670592  1
  Bi  Bi23  1  0.431741  0.993926  0.171441  1
  Bi  Bi24  1  0.930952  0.493220  0.327060  1
  Bi  Bi25  1  0.568719  0.005888  0.828040  1
  Bi  Bi26  1  0.930927  0.006461  0.327713  1
  Bi  Bi27  1  0.068427  0.993784  0.673297  1
  Ru  Ru28  1  0.573687  0.750642  0.509380  1
  Ru  Ru29  1  0.426071  0.249700  0.490685  1
  Ru  Ru30  1  0.072791  0.249653  0.990673  1
  Ru  Ru31  1  0.927212  0.750429  0.009427  1
