# generated using pymatgen
data_Tb10Pr6Cd4Ir3Pd
_symmetry_space_group_name_H-M   'P 1'
_cell_length_a   9.80874338
_cell_length_b   9.80874253
_cell_length_c   9.80874327
_cell_angle_alpha   60.12289122
_cell_angle_beta   60.12289449
_cell_angle_gamma   60.12289282
_symmetry_Int_Tables_number   1
_chemical_formula_structural   Tb10Pr6Cd4Ir3Pd
_chemical_formula_sum   'Tb10 Pr6 Cd4 Ir3 Pd1'
_cell_volume   669.16393404
_cell_formula_units_Z   1
loop_
 _symmetry_equiv_pos_site_id
 _symmetry_equiv_pos_as_xyz
  1  'x, y, z'
loop_
 _atom_site_type_symbol
 _atom_site_label
 _atom_site_symmetry_multiplicity
 _atom_site_fract_x
 _atom_site_fract_y
 _atom_site_fract_z
 _atom_site_occupancy
  Tb  Tb0  1  0.346319  0.346319  0.346319  1
  Tb  Tb1  1  0.352180  0.352180  0.951996  1
  Tb  Tb2  1  0.352180  0.951996  0.352180  1
  Tb  Tb3  1  0.951996  0.352180  0.352180  1
  Tb  Tb4  1  0.805863  0.188467  0.188467  1
  Tb  Tb5  1  0.185924  0.812176  0.812176  1
  Tb  Tb6  1  0.188467  0.805863  0.188467  1
  Tb  Tb7  1  0.812176  0.185924  0.812176  1
  Tb  Tb8  1  0.188467  0.188467  0.805863  1
  Tb  Tb9  1  0.812176  0.812176  0.185924  1
  Pr  Pr10  1  0.941235  0.560059  0.560059  1
  Pr  Pr11  1  0.560930  0.940793  0.940793  1
  Pr  Pr12  1  0.560059  0.941235  0.560059  1
  Pr  Pr13  1  0.940793  0.560930  0.940793  1
  Pr  Pr14  1  0.560059  0.560059  0.941235  1
  Pr  Pr15  1  0.940793  0.940793  0.560930  1
  Cd  Cd16  1  0.579624  0.579624  0.579624  1
  Cd  Cd17  1  0.579182  0.579182  0.261989  1
  Cd  Cd18  1  0.579182  0.261989  0.579182  1
  Cd  Cd19  1  0.261989  0.579182  0.579182  1
  Ir  Ir20  1  0.141731  0.141731  0.574441  1
  Ir  Ir21  1  0.141731  0.574441  0.141731  1
  Ir  Ir22  1  0.574441  0.141731  0.141731  1
  Pd  Pd23  1  0.142498  0.142498  0.142498  1
