# generated using pymatgen
data_LiEr9In3Co
_symmetry_space_group_name_H-M   'P 1'
_cell_length_a   9.35492700
_cell_length_b   9.35492638
_cell_length_c   9.48932600
_cell_angle_alpha   90.00000000
_cell_angle_beta   90.00000000
_cell_angle_gamma   119.99999867
_symmetry_Int_Tables_number   1
_chemical_formula_structural   LiEr9In3Co
_chemical_formula_sum   'Li2 Er18 In6 Co2'
_cell_volume   719.19520149
_cell_formula_units_Z   2
loop_
 _symmetry_equiv_pos_site_id
 _symmetry_equiv_pos_as_xyz
  1  'x, y, z'
loop_
 _atom_site_type_symbol
 _atom_site_label
 _atom_site_symmetry_multiplicity
 _atom_site_fract_x
 _atom_site_fract_y
 _atom_site_fract_z
 _atom_site_occupancy
  Li  Li0  1  0.000000  0.000000  0.500000  1
  Li  Li1  1  0.000000  0.000000  0.000000  1
  Er  Er2  1  0.541988  0.458012  0.250000  1
  Er  Er3  1  0.541988  0.083977  0.250000  1
  Er  Er4  1  0.916023  0.458012  0.250000  1
  Er  Er5  1  0.458012  0.541988  0.750000  1
  Er  Er6  1  0.458012  0.916023  0.750000  1
  Er  Er7  1  0.083977  0.541988  0.750000  1
  Er  Er8  1  0.209109  0.790891  0.435438  1
  Er  Er9  1  0.209109  0.418219  0.435438  1
  Er  Er10  1  0.581781  0.790891  0.435438  1
  Er  Er11  1  0.790891  0.209109  0.564562  1
  Er  Er12  1  0.790891  0.581781  0.564562  1
  Er  Er13  1  0.418219  0.209109  0.564562  1
  Er  Er14  1  0.790891  0.209109  0.935438  1
  Er  Er15  1  0.790891  0.581781  0.935438  1
  Er  Er16  1  0.418219  0.209109  0.935438  1
  Er  Er17  1  0.209109  0.790891  0.064562  1
  Er  Er18  1  0.209109  0.418219  0.064562  1
  Er  Er19  1  0.581781  0.790891  0.064562  1
  In  In20  1  0.891178  0.108822  0.250000  1
  In  In21  1  0.891178  0.782353  0.250000  1
  In  In22  1  0.217647  0.108822  0.250000  1
  In  In23  1  0.108822  0.891178  0.750000  1
  In  In24  1  0.108822  0.217647  0.750000  1
  In  In25  1  0.782353  0.891178  0.750000  1
  Co  Co26  1  0.333333  0.666667  0.250000  1
  Co  Co27  1  0.666667  0.333333  0.750000  1
