# generated using pymatgen
data_DyHoNbIr3
_symmetry_space_group_name_H-M   'P 1'
_cell_length_a   5.26121282
_cell_length_b   5.26121356
_cell_length_c   5.26121298
_cell_angle_alpha   64.76766841
_cell_angle_beta   64.76765996
_cell_angle_gamma   64.76766954
_symmetry_Int_Tables_number   1
_chemical_formula_structural   DyHoNbIr3
_chemical_formula_sum   'Dy1 Ho1 Nb1 Ir3'
_cell_volume   113.72047539
_cell_formula_units_Z   1
loop_
 _symmetry_equiv_pos_site_id
 _symmetry_equiv_pos_as_xyz
  1  'x, y, z'
loop_
 _atom_site_type_symbol
 _atom_site_label
 _atom_site_symmetry_multiplicity
 _atom_site_fract_x
 _atom_site_fract_y
 _atom_site_fract_z
 _atom_site_occupancy
  Dy  Dy0  1  0.251151  0.251151  0.251151  1
  Ho  Ho1  1  0.998525  0.998525  0.998525  1
  Nb  Nb2  1  0.625022  0.625022  0.625022  1
  Ir  Ir3  1  0.625173  0.625173  0.124955  1
  Ir  Ir4  1  0.625173  0.124955  0.625173  1
  Ir  Ir5  1  0.124955  0.625173  0.625173  1
