# generated using pymatgen
data_Ac3SbTe2
_symmetry_space_group_name_H-M   'P 1'
_cell_length_a   8.23202224
_cell_length_b   8.23202282
_cell_length_c   8.23202231
_cell_angle_alpha   146.47451394
_cell_angle_beta   131.58481574
_cell_angle_gamma   60.17396631
_symmetry_Int_Tables_number   1
_chemical_formula_structural   Ac3SbTe2
_chemical_formula_sum   'Ac3 Sb1 Te2'
_cell_volume   228.33287365
_cell_formula_units_Z   1
loop_
 _symmetry_equiv_pos_site_id
 _symmetry_equiv_pos_as_xyz
  1  'x, y, z'
loop_
 _atom_site_type_symbol
 _atom_site_label
 _atom_site_symmetry_multiplicity
 _atom_site_fract_x
 _atom_site_fract_y
 _atom_site_fract_z
 _atom_site_occupancy
  Ac  Ac0  1  0.000000  0.000000  0.000000  1
  Ac  Ac1  1  0.661811  0.661811  0.000000  1
  Ac  Ac2  1  0.338189  0.338189  0.000000  1
  Sb  Sb3  1  0.500000  0.000000  0.500000  1
  Te  Te4  1  0.168471  0.668471  0.500000  1
  Te  Te5  1  0.831529  0.331529  0.500000  1
