# generated using pymatgen
data_LaTbPr4U4O20
_symmetry_space_group_name_H-M   'P 1'
_cell_length_a   6.79298751
_cell_length_b   7.71764423
_cell_length_c   8.65417836
_cell_angle_alpha   101.57744804
_cell_angle_beta   97.71355160
_cell_angle_gamma   107.11166611
_symmetry_Int_Tables_number   1
_chemical_formula_structural   LaTbPr4U4O20
_chemical_formula_sum   'La1 Tb1 Pr4 U4 O20'
_cell_volume   415.64758498
_cell_formula_units_Z   1
loop_
 _symmetry_equiv_pos_site_id
 _symmetry_equiv_pos_as_xyz
  1  'x, y, z'
loop_
 _atom_site_type_symbol
 _atom_site_label
 _atom_site_symmetry_multiplicity
 _atom_site_fract_x
 _atom_site_fract_y
 _atom_site_fract_z
 _atom_site_occupancy
  La  La0  1  0.000000  0.500000  0.500000  1
  Tb  Tb1  1  0.000000  0.000000  0.500000  1
  Pr  Pr2  1  0.612249  0.703876  0.700080  1
  Pr  Pr3  1  0.387751  0.296124  0.299920  1
  Pr  Pr4  1  0.199617  0.898339  0.893452  1
  Pr  Pr5  1  0.800383  0.101661  0.106548  1
  U  U6  1  0.402090  0.804890  0.301852  1
  U  U7  1  0.198501  0.401234  0.901689  1
  U  U8  1  0.801499  0.598766  0.098311  1
  U  U9  1  0.597910  0.195110  0.698148  1
  O  O10  1  0.437124  0.534553  0.132157  1
  O  O11  1  0.557003  0.993908  0.837055  1
  O  O12  1  0.274194  0.151714  0.741942  1
  O  O13  1  0.362705  0.601264  0.437028  1
  O  O14  1  0.054789  0.733753  0.325276  1
  O  O15  1  0.442997  0.006092  0.162945  1
  O  O16  1  0.150682  0.189886  0.028348  1
  O  O17  1  0.562876  0.465447  0.867843  1
  O  O18  1  0.856157  0.341881  0.949443  1
  O  O19  1  0.256377  0.600953  0.765474  1
  O  O20  1  0.954850  0.779523  0.647222  1
  O  O21  1  0.353613  0.056203  0.455230  1
  O  O22  1  0.646387  0.943797  0.544770  1
  O  O23  1  0.045150  0.220477  0.352778  1
  O  O24  1  0.743623  0.399047  0.234526  1
  O  O25  1  0.143843  0.658119  0.050557  1
  O  O26  1  0.849318  0.810114  0.971652  1
  O  O27  1  0.945211  0.266247  0.674724  1
  O  O28  1  0.637295  0.398736  0.562972  1
  O  O29  1  0.725806  0.848286  0.258058  1
