# generated using pymatgen
data_TbTm4InPb2
_symmetry_space_group_name_H-M   'P 1'
_cell_length_a   6.59750300
_cell_length_b   8.95341135
_cell_length_c   8.95891248
_cell_angle_alpha   119.97968819
_cell_angle_beta   90.00015860
_cell_angle_gamma   89.99968947
_symmetry_Int_Tables_number   1
_chemical_formula_structural   TbTm4InPb2
_chemical_formula_sum   'Tb2 Tm8 In2 Pb4'
_cell_volume   458.39820993
_cell_formula_units_Z   2
loop_
 _symmetry_equiv_pos_site_id
 _symmetry_equiv_pos_as_xyz
  1  'x, y, z'
loop_
 _atom_site_type_symbol
 _atom_site_label
 _atom_site_symmetry_multiplicity
 _atom_site_fract_x
 _atom_site_fract_y
 _atom_site_fract_z
 _atom_site_occupancy
  Tb  Tb0  1  0.750001  0.235668  0.000000  1
  Tb  Tb1  1  0.249999  0.765710  0.000000  1
  Tm  Tm2  1  0.496152  0.332910  0.663057  1
  Tm  Tm3  1  0.496152  0.669853  0.336943  1
  Tm  Tm4  1  0.003845  0.669852  0.336943  1
  Tm  Tm5  1  0.003845  0.332908  0.663057  1
  Tm  Tm6  1  0.750002  0.763908  0.763718  1
  Tm  Tm7  1  0.750002  0.000190  0.236282  1
  Tm  Tm8  1  0.250001  0.235466  0.239892  1
  Tm  Tm9  1  0.250001  0.995574  0.760108  1
  In  In10  1  0.250000  0.601790  0.601755  1
  In  In11  1  0.250000  0.000034  0.398245  1
  Pb  Pb12  1  0.750001  0.603143  0.000000  1
  Pb  Pb13  1  0.750000  0.398847  0.397830  1
  Pb  Pb14  1  0.750000  0.001018  0.602170  1
  Pb  Pb15  1  0.250000  0.393130  0.000000  1
