# generated using pymatgen
data_Ba4H9Pd2F3
_symmetry_space_group_name_H-M   'P 1'
_cell_length_a   7.94653634
_cell_length_b   7.94653657
_cell_length_c   6.04640800
_cell_angle_alpha   90.07237558
_cell_angle_beta   89.92761721
_cell_angle_gamma   135.25448719
_symmetry_Int_Tables_number   1
_chemical_formula_structural   Ba4H9Pd2F3
_chemical_formula_sum   'Ba4 H9 Pd2 F3'
_cell_volume   268.78203231
_cell_formula_units_Z   1
loop_
 _symmetry_equiv_pos_site_id
 _symmetry_equiv_pos_as_xyz
  1  'x, y, z'
loop_
 _atom_site_type_symbol
 _atom_site_label
 _atom_site_symmetry_multiplicity
 _atom_site_fract_x
 _atom_site_fract_y
 _atom_site_fract_z
 _atom_site_occupancy
  Ba  Ba0  1  0.356647  0.643870  0.999667  1
  Ba  Ba1  1  0.856459  0.143605  0.499699  1
  Ba  Ba2  1  0.643605  0.356459  0.000301  1
  Ba  Ba3  1  0.143870  0.856647  0.500333  1
  H  H4  1  0.500751  0.000751  0.250000  1
  H  H5  1  0.115248  0.889430  0.001851  1
  H  H6  1  0.610451  0.384850  0.498635  1
  H  H7  1  0.884850  0.110451  0.001365  1
  H  H8  1  0.389430  0.615248  0.498149  1
  H  H9  1  0.801314  0.800892  0.196509  1
  H  H10  1  0.198318  0.198302  0.804635  1
  H  H11  1  0.698302  0.698318  0.695365  1
  H  H12  1  0.300892  0.301314  0.303491  1
  Pd  Pd13  1  0.000137  0.000001  0.000991  1
  Pd  Pd14  1  0.500001  0.500137  0.499009  1
  F  F15  1  0.000227  0.500227  0.250000  1
  F  F16  1  0.499749  0.999749  0.750000  1
  F  F17  1  0.999748  0.499748  0.750000  1
