# generated using pymatgen
data_TbSmU(SnRh)3
_symmetry_space_group_name_H-M   'P 1'
_cell_length_a   7.61953231
_cell_length_b   7.48905932
_cell_length_c   3.94267300
_cell_angle_alpha   90.00000000
_cell_angle_beta   90.00000000
_cell_angle_gamma   120.47140430
_symmetry_Int_Tables_number   1
_chemical_formula_structural   TbSmU(SnRh)3
_chemical_formula_sum   'Tb1 Sm1 U1 Sn3 Rh3'
_cell_volume   193.90737904
_cell_formula_units_Z   1
loop_
 _symmetry_equiv_pos_site_id
 _symmetry_equiv_pos_as_xyz
  1  'x, y, z'
loop_
 _atom_site_type_symbol
 _atom_site_label
 _atom_site_symmetry_multiplicity
 _atom_site_fract_x
 _atom_site_fract_y
 _atom_site_fract_z
 _atom_site_occupancy
  Tb  Tb0  1  0.593202  0.592903  0.500000  1
  Sm  Sm1  1  0.000078  0.407806  0.500000  1
  U  U2  1  0.415024  0.999949  0.500000  1
  Sn  Sn3  1  0.755353  0.998356  0.000000  1
  Sn  Sn4  1  0.988130  0.732916  0.000000  1
  Sn  Sn5  1  0.257835  0.268256  0.000000  1
  Rh  Rh6  1  0.340165  0.707262  0.000000  1
  Rh  Rh7  1  0.631053  0.294045  0.000000  1
  Rh  Rh8  1  0.019163  0.998507  0.500000  1
