# generated using pymatgen
data_La8Yb7Lu5Si16
_symmetry_space_group_name_H-M   'P 1'
_cell_length_a   7.84811925
_cell_length_b   7.84991714
_cell_length_c   14.40687957
_cell_angle_alpha   89.69461182
_cell_angle_beta   89.82688233
_cell_angle_gamma   89.93407189
_symmetry_Int_Tables_number   1
_chemical_formula_structural   La8Yb7Lu5Si16
_chemical_formula_sum   'La8 Yb7 Lu5 Si16'
_cell_volume   887.54863629
_cell_formula_units_Z   1
loop_
 _symmetry_equiv_pos_site_id
 _symmetry_equiv_pos_as_xyz
  1  'x, y, z'
loop_
 _atom_site_type_symbol
 _atom_site_label
 _atom_site_symmetry_multiplicity
 _atom_site_fract_x
 _atom_site_fract_y
 _atom_site_fract_z
 _atom_site_occupancy
  La  La0  1  0.991545  0.641763  0.040518  1
  La  La1  1  0.006305  0.359795  0.542580  1
  La  La2  1  0.642963  0.992883  0.958383  1
  La  La3  1  0.142046  0.509258  0.790751  1
  La  La4  1  0.861215  0.490851  0.290548  1
  La  La5  1  0.506365  0.140282  0.208451  1
  La  La6  1  0.491767  0.857910  0.709387  1
  La  La7  1  0.358173  0.009749  0.460235  1
  Yb  Yb8  1  0.364151  0.495398  0.377577  1
  Yb  Yb9  1  0.862898  0.005432  0.374797  1
  Yb  Yb10  1  0.994322  0.137358  0.123844  1
  Yb  Yb11  1  0.681362  0.684383  0.498679  1
  Yb  Yb12  1  0.818030  0.181912  0.750331  1
  Yb  Yb13  1  0.179809  0.818399  0.250829  1
  Yb  Yb14  1  0.313843  0.315816  0.999717  1
  Lu  Lu15  1  0.005267  0.860556  0.628788  1
  Lu  Lu16  1  0.638100  0.504411  0.874583  1
  Lu  Lu17  1  0.496348  0.361638  0.626615  1
  Lu  Lu18  1  0.504242  0.637924  0.121581  1
  Lu  Lu19  1  0.140154  0.993789  0.872353  1
  Si  Si20  1  0.072479  0.709706  0.447762  1
  Si  Si21  1  0.925322  0.295132  0.938111  1
  Si  Si22  1  0.707391  0.072750  0.562490  1
  Si  Si23  1  0.211909  0.432146  0.190122  1
  Si  Si24  1  0.789833  0.572214  0.691619  1
  Si  Si25  1  0.428202  0.209765  0.808608  1
  Si  Si26  1  0.570614  0.788807  0.303770  1
  Si  Si27  1  0.294866  0.922750  0.055082  1
  Si  Si28  1  0.850698  0.788759  0.812758  1
  Si  Si29  1  0.156824  0.212702  0.309172  1
  Si  Si30  1  0.783884  0.841357  0.185398  1
  Si  Si31  1  0.286232  0.649508  0.568350  1
  Si  Si32  1  0.705054  0.352359  0.058098  1
  Si  Si33  1  0.653849  0.290555  0.444894  1
  Si  Si34  1  0.353342  0.711310  0.935123  1
  Si  Si35  1  0.210597  0.150678  0.688100  1
