# generated using pymatgen
data_Ce5Dy11(CdRu)4
_symmetry_space_group_name_H-M   'P 1'
_cell_length_a   9.55876269
_cell_length_b   9.65506723
_cell_length_c   9.65506804
_cell_angle_alpha   59.99640612
_cell_angle_beta   60.32941449
_cell_angle_gamma   60.32941278
_symmetry_Int_Tables_number   1
_chemical_formula_structural   Ce5Dy11(CdRu)4
_chemical_formula_sum   'Ce5 Dy11 Cd4 Ru4'
_cell_volume   633.18402468
_cell_formula_units_Z   1
loop_
 _symmetry_equiv_pos_site_id
 _symmetry_equiv_pos_as_xyz
  1  'x, y, z'
loop_
 _atom_site_type_symbol
 _atom_site_label
 _atom_site_symmetry_multiplicity
 _atom_site_fract_x
 _atom_site_fract_y
 _atom_site_fract_z
 _atom_site_occupancy
  Ce  Ce0  1  0.814019  0.185981  0.185981  1
  Ce  Ce1  1  0.346131  0.346498  0.961240  1
  Ce  Ce2  1  0.346131  0.961240  0.346498  1
  Ce  Ce3  1  0.959813  0.348833  0.348833  1
  Ce  Ce4  1  0.342522  0.348833  0.348833  1
  Dy  Dy5  1  0.561566  0.560828  0.937946  1
  Dy  Dy6  1  0.939659  0.560828  0.937946  1
  Dy  Dy7  1  0.564636  0.935364  0.935364  1
  Dy  Dy8  1  0.939659  0.937946  0.560828  1
  Dy  Dy9  1  0.561566  0.937946  0.560828  1
  Dy  Dy10  1  0.935092  0.564908  0.564908  1
  Dy  Dy11  1  0.192113  0.187531  0.808476  1
  Dy  Dy12  1  0.811880  0.187531  0.808476  1
  Dy  Dy13  1  0.188082  0.811918  0.811917  1
  Dy  Dy14  1  0.811880  0.808477  0.187531  1
  Dy  Dy15  1  0.192112  0.808476  0.187530  1
  Cd  Cd16  1  0.580594  0.583699  0.255112  1
  Cd  Cd17  1  0.580594  0.255112  0.583699  1
  Cd  Cd18  1  0.257378  0.580631  0.580631  1
  Cd  Cd19  1  0.581359  0.580631  0.580631  1
  Ru  Ru20  1  0.148091  0.141291  0.562527  1
  Ru  Ru21  1  0.148091  0.562527  0.141291  1
  Ru  Ru22  1  0.582988  0.151486  0.151486  1
  Ru  Ru23  1  0.114042  0.151486  0.151486  1
