# generated using pymatgen
data_Y3SnGeRh2
_symmetry_space_group_name_H-M   'P 1'
_cell_length_a   5.67107600
_cell_length_b   8.13266800
_cell_length_c   13.38077200
_cell_angle_alpha   90.00000000
_cell_angle_beta   90.00000000
_cell_angle_gamma   90.00000000
_symmetry_Int_Tables_number   1
_chemical_formula_structural   Y3SnGeRh2
_chemical_formula_sum   'Y12 Sn4 Ge4 Rh8'
_cell_volume   617.13429519
_cell_formula_units_Z   4
loop_
 _symmetry_equiv_pos_site_id
 _symmetry_equiv_pos_as_xyz
  1  'x, y, z'
loop_
 _atom_site_type_symbol
 _atom_site_label
 _atom_site_symmetry_multiplicity
 _atom_site_fract_x
 _atom_site_fract_y
 _atom_site_fract_z
 _atom_site_occupancy
  Y  Y0  1  0.633135  0.255697  0.250000  1
  Y  Y1  1  0.366865  0.744303  0.750000  1
  Y  Y2  1  0.366865  0.755697  0.250000  1
  Y  Y3  1  0.633135  0.244303  0.750000  1
  Y  Y4  1  0.155554  0.396752  0.101546  1
  Y  Y5  1  0.844446  0.603248  0.898454  1
  Y  Y6  1  0.844446  0.603248  0.601546  1
  Y  Y7  1  0.844446  0.896752  0.398454  1
  Y  Y8  1  0.155554  0.396752  0.398454  1
  Y  Y9  1  0.155554  0.103248  0.601546  1
  Y  Y10  1  0.155554  0.103248  0.898454  1
  Y  Y11  1  0.844446  0.896752  0.101546  1
  Sn  Sn12  1  0.667876  0.250000  0.000000  1
  Sn  Sn13  1  0.332124  0.750000  0.000000  1
  Sn  Sn14  1  0.332124  0.750000  0.500000  1
  Sn  Sn15  1  0.667876  0.250000  0.500000  1
  Ge  Ge16  1  0.122414  0.111770  0.250000  1
  Ge  Ge17  1  0.877586  0.888230  0.750000  1
  Ge  Ge18  1  0.877586  0.611770  0.250000  1
  Ge  Ge19  1  0.122414  0.388230  0.750000  1
  Rh  Rh20  1  0.366684  0.041994  0.098894  1
  Rh  Rh21  1  0.633316  0.958006  0.901106  1
  Rh  Rh22  1  0.633316  0.958006  0.598894  1
  Rh  Rh23  1  0.633316  0.541994  0.401106  1
  Rh  Rh24  1  0.366684  0.041994  0.401106  1
  Rh  Rh25  1  0.366684  0.458006  0.598894  1
  Rh  Rh26  1  0.366684  0.458006  0.901106  1
  Rh  Rh27  1  0.633316  0.541994  0.098894  1
