# generated using pymatgen
data_Ho3PaV2(CoB8)2
_symmetry_space_group_name_H-M   'P 1'
_cell_length_a   3.43388000
_cell_length_b   5.94801860
_cell_length_c   11.47944609
_cell_angle_alpha   90.19163671
_cell_angle_beta   90.00000000
_cell_angle_gamma   90.00000000
_symmetry_Int_Tables_number   1
_chemical_formula_structural   Ho3PaV2(CoB8)2
_chemical_formula_sum   'Ho3 Pa1 V2 Co2 B16'
_cell_volume   234.46387360
_cell_formula_units_Z   1
loop_
 _symmetry_equiv_pos_site_id
 _symmetry_equiv_pos_as_xyz
  1  'x, y, z'
loop_
 _atom_site_type_symbol
 _atom_site_label
 _atom_site_symmetry_multiplicity
 _atom_site_fract_x
 _atom_site_fract_y
 _atom_site_fract_z
 _atom_site_occupancy
  Ho  Ho0  1  0.500000  0.873979  0.345786  1
  Ho  Ho1  1  0.500000  0.626931  0.854061  1
  Ho  Ho2  1  0.500000  0.372158  0.148117  1
  Pa  Pa3  1  0.500000  0.126298  0.652961  1
  V  V4  1  0.500000  0.627456  0.585952  1
  V  V5  1  0.500000  0.372769  0.415191  1
  Co  Co6  1  0.500000  0.135400  0.909978  1
  Co  Co7  1  0.500000  0.865576  0.087257  1
  B  B8  1  0.000000  0.474459  0.693862  1
  B  B9  1  0.000000  0.525681  0.305121  1
  B  B10  1  0.000000  0.977188  0.812149  1
  B  B11  1  0.000000  0.021749  0.189108  1
  B  B12  1  0.000000  0.282101  0.818058  1
  B  B13  1  0.000000  0.717925  0.182721  1
  B  B14  1  0.000000  0.785547  0.687841  1
  B  B15  1  0.000000  0.213938  0.310984  1
  B  B16  1  0.000000  0.361306  0.968120  1
  B  B17  1  0.000000  0.638388  0.032686  1
  B  B18  1  0.000000  0.865663  0.533402  1
  B  B19  1  0.000000  0.135639  0.466392  1
  B  B20  1  0.000000  0.386362  0.546499  1
  B  B21  1  0.000000  0.615030  0.452683  1
  B  B22  1  0.000000  0.886737  0.955242  1
  B  B23  1  0.000000  0.111720  0.045828  1
