# generated using pymatgen
data_Er10(AlBi)3
_symmetry_space_group_name_H-M   'P 1'
_cell_length_a   8.88394100
_cell_length_b   8.88355053
_cell_length_c   6.45248200
_cell_angle_alpha   90.00000000
_cell_angle_beta   90.00000000
_cell_angle_gamma   120.00145029
_symmetry_Int_Tables_number   1
_chemical_formula_structural   Er10(AlBi)3
_chemical_formula_sum   'Er10 Al3 Bi3'
_cell_volume   441.00481272
_cell_formula_units_Z   1
loop_
 _symmetry_equiv_pos_site_id
 _symmetry_equiv_pos_as_xyz
  1  'x, y, z'
loop_
 _atom_site_type_symbol
 _atom_site_label
 _atom_site_symmetry_multiplicity
 _atom_site_fract_x
 _atom_site_fract_y
 _atom_site_fract_z
 _atom_site_occupancy
  Er  Er0  1  0.767417  0.752139  0.250000  1
  Er  Er1  1  0.015278  0.247861  0.250000  1
  Er  Er2  1  0.324429  0.667455  0.003999  1
  Er  Er3  1  0.241835  0.227926  0.750000  1
  Er  Er4  1  0.757091  0.000000  0.750000  1
  Er  Er5  1  0.233624  0.000000  0.250000  1
  Er  Er6  1  0.656975  0.332545  0.003999  1
  Er  Er7  1  0.013909  0.772074  0.750000  1
  Er  Er8  1  0.324429  0.667455  0.496001  1
  Er  Er9  1  0.656975  0.332545  0.496001  1
  Al  Al10  1  0.401810  0.000000  0.750000  1
  Al  Al11  1  0.997642  0.600188  0.250000  1
  Al  Al12  1  0.397455  0.399812  0.250000  1
  Bi  Bi13  1  0.995830  0.391925  0.750000  1
  Bi  Bi14  1  0.611399  0.000000  0.250000  1
  Bi  Bi15  1  0.603905  0.608075  0.750000  1
