# generated using pymatgen
data_Ho5In4HgRu
_symmetry_space_group_name_H-M   'P 1'
_cell_length_a   3.59712700
_cell_length_b   8.30100515
_cell_length_c   18.49877142
_cell_angle_alpha   89.59693769
_cell_angle_beta   90.00000000
_cell_angle_gamma   90.00000000
_symmetry_Int_Tables_number   1
_chemical_formula_structural   Ho5In4HgRu
_chemical_formula_sum   'Ho10 In8 Hg2 Ru2'
_cell_volume   552.35538753
_cell_formula_units_Z   2
loop_
 _symmetry_equiv_pos_site_id
 _symmetry_equiv_pos_as_xyz
  1  'x, y, z'
loop_
 _atom_site_type_symbol
 _atom_site_label
 _atom_site_symmetry_multiplicity
 _atom_site_fract_x
 _atom_site_fract_y
 _atom_site_fract_z
 _atom_site_occupancy
  Ho  Ho0  1  0.000000  0.124929  0.422757  1
  Ho  Ho1  1  0.000000  0.875071  0.577243  1
  Ho  Ho2  1  0.000000  0.384592  0.915335  1
  Ho  Ho3  1  0.000000  0.615408  0.084665  1
  Ho  Ho4  1  0.000000  0.269208  0.215690  1
  Ho  Ho5  1  0.000000  0.730792  0.784310  1
  Ho  Ho6  1  0.000000  0.289568  0.724779  1
  Ho  Ho7  1  0.000000  0.710432  0.275221  1
  Ho  Ho8  1  0.000000  0.000000  0.000000  1
  Ho  Ho9  1  0.000000  0.500000  0.500000  1
  In  In10  1  0.500000  0.423435  0.351318  1
  In  In11  1  0.500000  0.576565  0.648682  1
  In  In12  1  0.500000  0.083745  0.854156  1
  In  In13  1  0.500000  0.916255  0.145844  1
  In  In14  1  0.500000  0.292987  0.067288  1
  In  In15  1  0.500000  0.707013  0.932712  1
  In  In16  1  0.500000  0.211960  0.569020  1
  In  In17  1  0.500000  0.788040  0.430980  1
  Hg  Hg18  1  0.500000  0.021419  0.299729  1
  Hg  Hg19  1  0.500000  0.978581  0.700271  1
  Ru  Ru20  1  0.500000  0.479192  0.807047  1
  Ru  Ru21  1  0.500000  0.520808  0.192953  1
