# generated using pymatgen
data_Tm3Lu5Re3B24Ru
_symmetry_space_group_name_H-M   'P 1'
_cell_length_a   3.62098800
_cell_length_b   9.06690987
_cell_length_c   11.43076802
_cell_angle_alpha   90.10076419
_cell_angle_beta   90.00000000
_cell_angle_gamma   90.00000000
_symmetry_Int_Tables_number   1
_chemical_formula_structural   Tm3Lu5Re3B24Ru
_chemical_formula_sum   'Tm3 Lu5 Re3 B24 Ru1'
_cell_volume   375.28492851
_cell_formula_units_Z   1
loop_
 _symmetry_equiv_pos_site_id
 _symmetry_equiv_pos_as_xyz
  1  'x, y, z'
loop_
 _atom_site_type_symbol
 _atom_site_label
 _atom_site_symmetry_multiplicity
 _atom_site_fract_x
 _atom_site_fract_y
 _atom_site_fract_z
 _atom_site_occupancy
  Tm  Tm0  1  0.000000  0.321116  0.414128  1
  Tm  Tm1  1  0.000000  0.677869  0.587719  1
  Tm  Tm2  1  0.000000  0.824178  0.084245  1
  Lu  Lu3  1  0.000000  0.177159  0.913667  1
  Lu  Lu4  1  0.000000  0.942303  0.370124  1
  Lu  Lu5  1  0.000000  0.056017  0.629012  1
  Lu  Lu6  1  0.000000  0.443435  0.129834  1
  Lu  Lu7  1  0.000000  0.556519  0.871367  1
  Re  Re8  1  0.000000  0.361313  0.678811  1
  Re  Re9  1  0.000000  0.138988  0.179819  1
  Re  Re10  1  0.000000  0.861355  0.820529  1
  B  B11  1  0.500000  0.553964  0.433085  1
  B  B12  1  0.500000  0.447082  0.566277  1
  B  B13  1  0.500000  0.053367  0.066158  1
  B  B14  1  0.500000  0.947395  0.933353  1
  B  B15  1  0.500000  0.749868  0.419050  1
  B  B16  1  0.500000  0.249017  0.580564  1
  B  B17  1  0.500000  0.250876  0.080349  1
  B  B18  1  0.500000  0.749904  0.919425  1
  B  B19  1  0.500000  0.792029  0.265010  1
  B  B20  1  0.500000  0.206660  0.734979  1
  B  B21  1  0.500000  0.293200  0.235372  1
  B  B22  1  0.500000  0.706772  0.765440  1
  B  B23  1  0.500000  0.631039  0.184758  1
  B  B24  1  0.500000  0.369579  0.815413  1
  B  B25  1  0.500000  0.130600  0.315932  1
  B  B26  1  0.500000  0.869290  0.684563  1
  B  B27  1  0.500000  0.981236  0.212113  1
  B  B28  1  0.500000  0.019101  0.787584  1
  B  B29  1  0.500000  0.482612  0.287884  1
  B  B30  1  0.500000  0.519101  0.712363  1
  B  B31  1  0.500000  0.600672  0.028474  1
  B  B32  1  0.500000  0.399582  0.972460  1
  B  B33  1  0.500000  0.099098  0.471993  1
  B  B34  1  0.500000  0.898810  0.527638  1
  Ru  Ru35  1  0.000000  0.638899  0.320509  1
