# generated using pymatgen
data_SrLa(In4Pd)2
_symmetry_space_group_name_H-M   'P 1'
_cell_length_a   8.95137076
_cell_length_b   8.95137083
_cell_length_c   7.46648900
_cell_angle_alpha   90.00000000
_cell_angle_beta   90.00000000
_cell_angle_gamma   149.79008730
_symmetry_Int_Tables_number   1
_chemical_formula_structural   SrLa(In4Pd)2
_chemical_formula_sum   'Sr1 La1 In8 Pd2'
_cell_volume   301.03001741
_cell_formula_units_Z   1
loop_
 _symmetry_equiv_pos_site_id
 _symmetry_equiv_pos_as_xyz
  1  'x, y, z'
loop_
 _atom_site_type_symbol
 _atom_site_label
 _atom_site_symmetry_multiplicity
 _atom_site_fract_x
 _atom_site_fract_y
 _atom_site_fract_z
 _atom_site_occupancy
  Sr  Sr0  1  0.123144  0.876856  0.750000  1
  La  La1  1  0.877111  0.122889  0.250000  1
  In  In2  1  0.316482  0.683518  0.951554  1
  In  In3  1  0.684134  0.315866  0.049654  1
  In  In4  1  0.316482  0.683518  0.548446  1
  In  In5  1  0.499569  0.500431  0.003152  1
  In  In6  1  0.684134  0.315866  0.450346  1
  In  In7  1  0.499569  0.500431  0.496848  1
  In  In8  1  0.068530  0.931470  0.250000  1
  In  In9  1  0.930444  0.069556  0.750000  1
  Pd  Pd10  1  0.775682  0.224318  0.750000  1
  Pd  Pd11  1  0.224717  0.775283  0.250000  1
