# generated using pymatgen
data_Yb10Ga2CuPd3
_symmetry_space_group_name_H-M   'P 1'
_cell_length_a   8.81643081
_cell_length_b   8.81643001
_cell_length_c   8.84312035
_cell_angle_alpha   127.89764249
_cell_angle_beta   127.89764545
_cell_angle_gamma   76.57192834
_symmetry_Int_Tables_number   1
_chemical_formula_structural   Yb10Ga2CuPd3
_chemical_formula_sum   'Yb10 Ga2 Cu1 Pd3'
_cell_volume   416.24177396
_cell_formula_units_Z   1
loop_
 _symmetry_equiv_pos_site_id
 _symmetry_equiv_pos_as_xyz
  1  'x, y, z'
loop_
 _atom_site_type_symbol
 _atom_site_label
 _atom_site_symmetry_multiplicity
 _atom_site_fract_x
 _atom_site_fract_y
 _atom_site_fract_z
 _atom_site_occupancy
  Yb  Yb0  1  0.500304  0.501602  0.001906  1
  Yb  Yb1  1  0.998398  0.999696  0.998094  1
  Yb  Yb2  1  0.531687  0.029144  0.839460  1
  Yb  Yb3  1  0.192228  0.689685  0.160540  1
  Yb  Yb4  1  0.029049  0.194870  0.500000  1
  Yb  Yb5  1  0.692852  0.531366  0.500000  1
  Yb  Yb6  1  0.470856  0.968313  0.160540  1
  Yb  Yb7  1  0.810315  0.307772  0.839460  1
  Yb  Yb8  1  0.968634  0.807148  0.500000  1
  Yb  Yb9  1  0.305130  0.470951  0.500000  1
  Ga  Ga10  1  0.250147  0.249853  0.000000  1
  Ga  Ga11  1  0.750147  0.749853  0.000000  1
  Cu  Cu12  1  0.379193  0.120807  0.500000  1
  Pd  Pd13  1  0.129167  0.629545  0.758712  1
  Pd  Pd14  1  0.870455  0.370833  0.241288  1
  Pd  Pd15  1  0.621439  0.878561  0.500000  1
