# generated using pymatgen
data_HgBr14
_symmetry_space_group_name_H-M   'P 1'
_cell_length_a   9.58164923
_cell_length_b   9.58166037
_cell_length_c   9.58165920
_cell_angle_alpha   104.88454695
_cell_angle_beta   104.88454148
_cell_angle_gamma   104.88454541
_symmetry_Int_Tables_number   1
_chemical_formula_structural   HgBr14
_chemical_formula_sum   'Hg1 Br14'
_cell_volume   770.98377820
_cell_formula_units_Z   1
loop_
 _symmetry_equiv_pos_site_id
 _symmetry_equiv_pos_as_xyz
  1  'x, y, z'
loop_
 _atom_site_type_symbol
 _atom_site_label
 _atom_site_symmetry_multiplicity
 _atom_site_fract_x
 _atom_site_fract_y
 _atom_site_fract_z
 _atom_site_occupancy
  Hg  Hg0  1  0.500000  0.500000  0.500000  1
  Br  Br1  1  0.738098  0.261902  0.000000  1
  Br  Br2  1  0.261902  0.738098  0.000000  1
  Br  Br3  1  0.727558  0.727557  0.249891  1
  Br  Br4  1  0.738098  0.000000  0.261902  1
  Br  Br5  1  0.000000  0.738098  0.261902  1
  Br  Br6  1  0.290538  0.290538  0.290538  1
  Br  Br7  1  0.750109  0.272443  0.272442  1
  Br  Br8  1  0.272443  0.750109  0.272443  1
  Br  Br9  1  0.727557  0.249890  0.727557  1
  Br  Br10  1  0.249890  0.727557  0.727558  1
  Br  Br11  1  0.709462  0.709462  0.709462  1
  Br  Br12  1  0.261902  0.000000  0.738098  1
  Br  Br13  1  0.000000  0.261902  0.738098  1
  Br  Br14  1  0.272442  0.272443  0.750109  1
