# generated using pymatgen
data_Ca12Zn5Ga7N4
_symmetry_space_group_name_H-M   'P 1'
_cell_length_a   9.20692084
_cell_length_b   9.22713249
_cell_length_c   9.20692100
_cell_angle_alpha   60.07242921
_cell_angle_beta   59.99999582
_cell_angle_gamma   60.07243681
_symmetry_Int_Tables_number   1
_chemical_formula_structural   Ca12Zn5Ga7N4
_chemical_formula_sum   'Ca12 Zn5 Ga7 N4'
_cell_volume   553.67533930
_cell_formula_units_Z   1
loop_
 _symmetry_equiv_pos_site_id
 _symmetry_equiv_pos_as_xyz
  1  'x, y, z'
loop_
 _atom_site_type_symbol
 _atom_site_label
 _atom_site_symmetry_multiplicity
 _atom_site_fract_x
 _atom_site_fract_y
 _atom_site_fract_z
 _atom_site_occupancy
  Ca  Ca0  1  0.804289  0.196205  0.195218  1
  Ca  Ca1  1  0.195917  0.803998  0.195917  1
  Ca  Ca2  1  0.804169  0.803998  0.195917  1
  Ca  Ca3  1  0.195917  0.803998  0.804169  1
  Ca  Ca4  1  0.804289  0.196205  0.804289  1
  Ca  Ca5  1  0.195218  0.196205  0.804289  1
  Ca  Ca6  1  0.445885  0.054126  0.054103  1
  Ca  Ca7  1  0.053845  0.445738  0.053845  1
  Ca  Ca8  1  0.446573  0.445738  0.053845  1
  Ca  Ca9  1  0.053845  0.445738  0.446573  1
  Ca  Ca10  1  0.445885  0.054126  0.445885  1
  Ca  Ca11  1  0.054103  0.054126  0.445885  1
  Zn  Zn12  1  0.825063  0.524812  0.825063  1
  Zn  Zn13  1  0.625802  0.624041  0.124355  1
  Zn  Zn14  1  0.625802  0.624041  0.625802  1
  Zn  Zn15  1  0.124355  0.624041  0.625802  1
  Zn  Zn16  1  0.625285  0.124145  0.625285  1
  Ga  Ga17  1  0.423802  0.424104  0.728292  1
  Ga  Ga18  1  0.423802  0.424104  0.423802  1
  Ga  Ga19  1  0.728292  0.424104  0.423802  1
  Ga  Ga20  1  0.423708  0.728877  0.423708  1
  Ga  Ga21  1  0.825729  0.825952  0.522590  1
  Ga  Ga22  1  0.825729  0.825952  0.825729  1
  Ga  Ga23  1  0.522590  0.825952  0.825729  1
  N  N24  1  0.125504  0.124921  0.624072  1
  N  N25  1  0.125504  0.124921  0.125504  1
  N  N26  1  0.624072  0.124921  0.125504  1
  N  N27  1  0.125030  0.624910  0.125030  1
