# generated using pymatgen
data_CsMg(ZnAs)3
_symmetry_space_group_name_H-M   'P 1'
_cell_length_a   4.24303500
_cell_length_b   4.33197900
_cell_length_c   10.79994700
_cell_angle_alpha   90.00000000
_cell_angle_beta   90.00000000
_cell_angle_gamma   90.00000000
_symmetry_Int_Tables_number   1
_chemical_formula_structural   CsMg(ZnAs)3
_chemical_formula_sum   'Cs1 Mg1 Zn3 As3'
_cell_volume   198.51100180
_cell_formula_units_Z   1
loop_
 _symmetry_equiv_pos_site_id
 _symmetry_equiv_pos_as_xyz
  1  'x, y, z'
loop_
 _atom_site_type_symbol
 _atom_site_label
 _atom_site_symmetry_multiplicity
 _atom_site_fract_x
 _atom_site_fract_y
 _atom_site_fract_z
 _atom_site_occupancy
  Cs  Cs0  1  0.000000  0.000000  0.499361  1
  Mg  Mg1  1  0.500000  0.000000  0.848173  1
  Zn  Zn2  1  0.000000  0.500000  0.843932  1
  Zn  Zn3  1  0.500000  0.000000  0.154146  1
  Zn  Zn4  1  0.000000  0.500000  0.155304  1
  As  As5  1  0.500000  0.500000  0.715403  1
  As  As6  1  0.500000  0.500000  0.280354  1
  As  As7  1  0.000000  0.000000  0.003327  1
