# generated using pymatgen
data_DyEr2Tm2P12Ru19
_symmetry_space_group_name_H-M   'P 1'
_cell_length_a   12.51752102
_cell_length_b   12.51752202
_cell_length_c   3.96974200
_cell_angle_alpha   90.00000000
_cell_angle_beta   90.00000000
_cell_angle_gamma   120.00670147
_symmetry_Int_Tables_number   1
_chemical_formula_structural   DyEr2Tm2P12Ru19
_chemical_formula_sum   'Dy1 Er2 Tm2 P12 Ru19'
_cell_volume   538.64207697
_cell_formula_units_Z   1
loop_
 _symmetry_equiv_pos_site_id
 _symmetry_equiv_pos_as_xyz
  1  'x, y, z'
loop_
 _atom_site_type_symbol
 _atom_site_label
 _atom_site_symmetry_multiplicity
 _atom_site_fract_x
 _atom_site_fract_y
 _atom_site_fract_z
 _atom_site_occupancy
  Dy  Dy0  1  0.183455  0.183455  0.500000  1
  Er  Er1  1  0.816579  0.999966  0.500000  1
  Er  Er2  1  0.999966  0.816579  0.500000  1
  Tm  Tm3  1  0.333346  0.666686  0.000000  1
  Tm  Tm4  1  0.666686  0.333346  0.000000  1
  P  P5  1  0.816046  0.816046  0.000000  1
  P  P6  1  0.183968  0.999809  0.000000  1
  P  P7  1  0.999809  0.183968  0.000000  1
  P  P8  1  0.171404  0.478353  0.500000  1
  P  P9  1  0.521627  0.693040  0.500000  1
  P  P10  1  0.306988  0.828587  0.500000  1
  P  P11  1  0.693040  0.521627  0.500000  1
  P  P12  1  0.828587  0.306988  0.500000  1
  P  P13  1  0.478353  0.171404  0.500000  1
  P  P14  1  0.372183  0.372183  0.000000  1
  P  P15  1  0.627997  0.999999  0.000000  1
  P  P16  1  0.999999  0.627997  0.000000  1
  Ru  Ru17  1  0.554376  0.554376  0.000000  1
  Ru  Ru18  1  0.445621  0.000014  0.000000  1
  Ru  Ru19  1  0.000014  0.445621  0.000000  1
  Ru  Ru20  1  0.717181  0.717181  0.500000  1
  Ru  Ru21  1  0.282920  0.999818  0.500000  1
  Ru  Ru22  1  0.999818  0.282920  0.500000  1
  Ru  Ru23  1  0.184812  0.377456  0.000000  1
  Ru  Ru24  1  0.622908  0.807767  0.000000  1
  Ru  Ru25  1  0.192240  0.815140  0.000000  1
  Ru  Ru26  1  0.807767  0.622908  0.000000  1
  Ru  Ru27  1  0.815140  0.192240  0.000000  1
  Ru  Ru28  1  0.377456  0.184812  0.000000  1
  Ru  Ru29  1  0.365690  0.492186  0.500000  1
  Ru  Ru30  1  0.507909  0.873506  0.500000  1
  Ru  Ru31  1  0.126492  0.634388  0.500000  1
  Ru  Ru32  1  0.873506  0.507909  0.500000  1
  Ru  Ru33  1  0.634388  0.126492  0.500000  1
  Ru  Ru34  1  0.492186  0.365690  0.500000  1
  Ru  Ru35  1  0.999545  0.999545  0.000000  1
