# generated using pymatgen
data_CaYSc2(B6Os)2
_symmetry_space_group_name_H-M   'P 1'
_cell_length_a   3.55908600
_cell_length_b   8.99481790
_cell_length_c   11.38849402
_cell_angle_alpha   89.93538508
_cell_angle_beta   90.00000000
_cell_angle_gamma   90.00000000
_symmetry_Int_Tables_number   1
_chemical_formula_structural   CaYSc2(B6Os)2
_chemical_formula_sum   'Ca2 Y2 Sc4 B24 Os4'
_cell_volume   364.58339068
_cell_formula_units_Z   2
loop_
 _symmetry_equiv_pos_site_id
 _symmetry_equiv_pos_as_xyz
  1  'x, y, z'
loop_
 _atom_site_type_symbol
 _atom_site_label
 _atom_site_symmetry_multiplicity
 _atom_site_fract_x
 _atom_site_fract_y
 _atom_site_fract_z
 _atom_site_occupancy
  Ca  Ca0  1  0.000000  0.321830  0.414637  1
  Ca  Ca1  1  0.000000  0.678170  0.585363  1
  Y  Y2  1  0.000000  0.820331  0.086265  1
  Y  Y3  1  0.000000  0.179669  0.913735  1
  Sc  Sc4  1  0.000000  0.943408  0.371504  1
  Sc  Sc5  1  0.000000  0.056592  0.628496  1
  Sc  Sc6  1  0.000000  0.444177  0.129279  1
  Sc  Sc7  1  0.000000  0.555823  0.870721  1
  B  B8  1  0.500000  0.554812  0.432105  1
  B  B9  1  0.500000  0.445188  0.567895  1
  B  B10  1  0.500000  0.054748  0.067231  1
  B  B11  1  0.500000  0.945252  0.932769  1
  B  B12  1  0.500000  0.752277  0.417707  1
  B  B13  1  0.500000  0.247723  0.582293  1
  B  B14  1  0.500000  0.252781  0.082138  1
  B  B15  1  0.500000  0.747219  0.917862  1
  B  B16  1  0.500000  0.793766  0.264840  1
  B  B17  1  0.500000  0.206234  0.735160  1
  B  B18  1  0.500000  0.293166  0.234853  1
  B  B19  1  0.500000  0.706834  0.765147  1
  B  B20  1  0.500000  0.628916  0.183085  1
  B  B21  1  0.500000  0.371084  0.816915  1
  B  B22  1  0.500000  0.129070  0.316525  1
  B  B23  1  0.500000  0.870930  0.683475  1
  B  B24  1  0.500000  0.981937  0.214070  1
  B  B25  1  0.500000  0.018063  0.785930  1
  B  B26  1  0.500000  0.482034  0.286056  1
  B  B27  1  0.500000  0.517966  0.713944  1
  B  B28  1  0.500000  0.597380  0.026328  1
  B  B29  1  0.500000  0.402620  0.973672  1
  B  B30  1  0.500000  0.096068  0.473993  1
  B  B31  1  0.500000  0.903932  0.526007  1
  Os  Os32  1  0.000000  0.641523  0.316443  1
  Os  Os33  1  0.000000  0.358477  0.683557  1
  Os  Os34  1  0.000000  0.138909  0.180408  1
  Os  Os35  1  0.000000  0.861091  0.819592  1
