# generated using pymatgen
data_Sr2Ca8Al3InSb12
_symmetry_space_group_name_H-M   'P 1'
_cell_length_a   4.58035800
_cell_length_b   12.20636513
_cell_length_c   14.23781607
_cell_angle_alpha   89.85160014
_cell_angle_beta   90.00000000
_cell_angle_gamma   90.00000000
_symmetry_Int_Tables_number   1
_chemical_formula_structural   Sr2Ca8Al3InSb12
_chemical_formula_sum   'Sr2 Ca8 Al3 In1 Sb12'
_cell_volume   796.02682284
_cell_formula_units_Z   1
loop_
 _symmetry_equiv_pos_site_id
 _symmetry_equiv_pos_as_xyz
  1  'x, y, z'
loop_
 _atom_site_type_symbol
 _atom_site_label
 _atom_site_symmetry_multiplicity
 _atom_site_fract_x
 _atom_site_fract_y
 _atom_site_fract_z
 _atom_site_occupancy
  Sr  Sr0  1  0.000000  0.672766  0.976812  1
  Sr  Sr1  1  0.000000  0.828908  0.478473  1
  Ca  Ca2  1  0.000000  0.406248  0.748775  1
  Ca  Ca3  1  0.000000  0.911378  0.749028  1
  Ca  Ca4  1  0.000000  0.586877  0.250387  1
  Ca  Ca5  1  0.000000  0.173294  0.520376  1
  Ca  Ca6  1  0.000000  0.093189  0.248468  1
  Ca  Ca7  1  0.000000  0.997872  0.999655  1
  Ca  Ca8  1  0.000000  0.322014  0.013459  1
  Ca  Ca9  1  0.000000  0.502561  0.503282  1
  Al  Al10  1  0.500000  0.668538  0.788035  1
  Al  Al11  1  0.500000  0.171545  0.714360  1
  Al  Al12  1  0.500000  0.830770  0.288476  1
  In  In13  1  0.500000  0.331990  0.216427  1
  Sb  Sb14  1  0.500000  0.981017  0.601639  1
  Sb  Sb15  1  0.500000  0.852283  0.897329  1
  Sb  Sb16  1  0.000000  0.660397  0.681926  1
  Sb  Sb17  1  0.500000  0.470873  0.899590  1
  Sb  Sb18  1  0.500000  0.647688  0.398926  1
  Sb  Sb19  1  0.500000  0.148805  0.090491  1
  Sb  Sb20  1  0.500000  0.028357  0.399732  1
  Sb  Sb21  1  0.000000  0.161211  0.822484  1
  Sb  Sb22  1  0.000000  0.840208  0.182038  1
  Sb  Sb23  1  0.500000  0.529467  0.098145  1
  Sb  Sb24  1  0.500000  0.346060  0.596407  1
  Sb  Sb25  1  0.000000  0.335686  0.335284  1
