# generated using pymatgen
data_Cd3CoP6N13
_symmetry_space_group_name_H-M   'P 1'
_cell_length_a   7.11966777
_cell_length_b   7.20697062
_cell_length_c   7.20697200
_cell_angle_alpha   109.71530724
_cell_angle_beta   109.22602003
_cell_angle_gamma   109.22602350
_symmetry_Int_Tables_number   1
_chemical_formula_structural   Cd3CoP6N13
_chemical_formula_sum   'Cd3 Co1 P6 N13'
_cell_volume   285.52797871
_cell_formula_units_Z   1
loop_
 _symmetry_equiv_pos_site_id
 _symmetry_equiv_pos_as_xyz
  1  'x, y, z'
loop_
 _atom_site_type_symbol
 _atom_site_label
 _atom_site_symmetry_multiplicity
 _atom_site_fract_x
 _atom_site_fract_y
 _atom_site_fract_z
 _atom_site_occupancy
  Cd  Cd0  1  0.995407  0.000000  0.716534  1
  Cd  Cd1  1  0.995407  0.716534  0.000000  1
  Cd  Cd2  1  0.278873  0.283466  0.283466  1
  Co  Co3  1  0.676798  0.000000  0.000000  1
  P  P4  1  0.257260  0.750299  0.502182  1
  P  P5  1  0.755078  0.248118  0.497818  1
  P  P6  1  0.755078  0.497818  0.248118  1
  P  P7  1  0.257260  0.502182  0.750299  1
  P  P8  1  0.506961  0.751882  0.249701  1
  P  P9  1  0.506961  0.249701  0.751882  1
  N  N10  1  0.939831  0.000000  0.000000  1
  N  N11  1  0.718232  0.265848  0.265848  1
  N  N12  1  0.281527  0.722815  0.277424  1
  N  N13  1  0.296299  0.562749  0.562749  1
  N  N14  1  0.558712  0.554609  0.277185  1
  N  N15  1  0.452384  0.734152  0.000000  1
  N  N16  1  0.004103  0.722576  0.445391  1
  N  N17  1  0.558712  0.277185  0.554609  1
  N  N18  1  0.733550  0.000000  0.437251  1
  N  N19  1  0.452384  0.000000  0.734152  1
  N  N20  1  0.733550  0.437251  0.000000  1
  N  N21  1  0.281527  0.277424  0.722815  1
  N  N22  1  0.004103  0.445391  0.722576  1
