# generated using pymatgen
data_Mn3Nb4CoP4
_symmetry_space_group_name_H-M   'P 1'
_cell_length_a   3.60051100
_cell_length_b   6.16509784
_cell_length_c   7.06498571
_cell_angle_alpha   90.25398742
_cell_angle_beta   90.00000000
_cell_angle_gamma   90.00000000
_symmetry_Int_Tables_number   1
_chemical_formula_structural   Mn3Nb4CoP4
_chemical_formula_sum   'Mn3 Nb4 Co1 P4'
_cell_volume   156.82349763
_cell_formula_units_Z   1
loop_
 _symmetry_equiv_pos_site_id
 _symmetry_equiv_pos_as_xyz
  1  'x, y, z'
loop_
 _atom_site_type_symbol
 _atom_site_label
 _atom_site_symmetry_multiplicity
 _atom_site_fract_x
 _atom_site_fract_y
 _atom_site_fract_z
 _atom_site_occupancy
  Mn  Mn0  1  0.250000  0.139585  0.440940  1
  Mn  Mn1  1  0.750000  0.355830  0.937071  1
  Mn  Mn2  1  0.250000  0.642378  0.058473  1
  Nb  Nb3  1  0.250000  0.522641  0.674994  1
  Nb  Nb4  1  0.750000  0.475799  0.325151  1
  Nb  Nb5  1  0.250000  0.028817  0.823877  1
  Nb  Nb6  1  0.750000  0.976593  0.175982  1
  Co  Co7  1  0.750000  0.854448  0.562904  1
  P  P8  1  0.250000  0.277246  0.128382  1
  P  P9  1  0.750000  0.726995  0.877459  1
  P  P10  1  0.250000  0.777845  0.377910  1
  P  P11  1  0.750000  0.221822  0.616857  1
