# generated using pymatgen
data_Y13Er7(Bi2Sb)4
_symmetry_space_group_name_H-M   'P 1'
_cell_length_a   8.16438159
_cell_length_b   9.43003533
_cell_length_c   12.01133100
_cell_angle_alpha   89.99890634
_cell_angle_beta   90.04560150
_cell_angle_gamma   89.98489623
_symmetry_Int_Tables_number   1
_chemical_formula_structural   Y13Er7(Bi2Sb)4
_chemical_formula_sum   'Y13 Er7 Bi8 Sb4'
_cell_volume   924.75693467
_cell_formula_units_Z   1
loop_
 _symmetry_equiv_pos_site_id
 _symmetry_equiv_pos_as_xyz
  1  'x, y, z'
loop_
 _atom_site_type_symbol
 _atom_site_label
 _atom_site_symmetry_multiplicity
 _atom_site_fract_x
 _atom_site_fract_y
 _atom_site_fract_z
 _atom_site_occupancy
  Y  Y0  1  0.182798  0.749895  0.718565  1
  Y  Y1  1  0.682889  0.750715  0.782191  1
  Y  Y2  1  0.817372  0.249314  0.281847  1
  Y  Y3  1  0.317204  0.250685  0.217839  1
  Y  Y4  1  0.189359  0.561429  0.441659  1
  Y  Y5  1  0.689961  0.561093  0.058296  1
  Y  Y6  1  0.189992  0.938775  0.441584  1
  Y  Y7  1  0.310302  0.061392  0.942017  1
  Y  Y8  1  0.809739  0.438583  0.558212  1
  Y  Y9  1  0.354482  0.750892  0.212911  1
  Y  Y10  1  0.852720  0.750787  0.286250  1
  Y  Y11  1  0.646635  0.250457  0.786520  1
  Y  Y12  1  0.146779  0.250448  0.713409  1
  Er  Er13  1  0.027662  0.750309  0.988664  1
  Er  Er14  1  0.528459  0.750381  0.511407  1
  Er  Er15  1  0.972263  0.250372  0.011227  1
  Er  Er16  1  0.472416  0.249725  0.488664  1
  Er  Er17  1  0.310942  0.435200  0.941785  1
  Er  Er18  1  0.810230  0.064351  0.558644  1
  Er  Er19  1  0.689080  0.935431  0.057951  1
  Bi  Bi20  1  0.434443  0.003770  0.672627  1
  Bi  Bi21  1  0.934221  0.496527  0.827555  1
  Bi  Bi22  1  0.566141  0.503759  0.327291  1
  Bi  Bi23  1  0.065517  0.996682  0.172455  1
  Bi  Bi24  1  0.566543  0.996632  0.327548  1
  Bi  Bi25  1  0.066225  0.504136  0.172212  1
  Bi  Bi26  1  0.433532  0.496473  0.672675  1
  Bi  Bi27  1  0.933441  0.004207  0.827656  1
  Sb  Sb28  1  0.406582  0.747614  0.958569  1
  Sb  Sb29  1  0.906917  0.752507  0.541189  1
  Sb  Sb30  1  0.593331  0.247790  0.041072  1
  Sb  Sb31  1  0.091819  0.249667  0.459506  1
