# generated using pymatgen
data_Dy6Tm4Sn5Sb
_symmetry_space_group_name_H-M   'P 1'
_cell_length_a   6.46286300
_cell_length_b   8.92929861
_cell_length_c   8.92867121
_cell_angle_alpha   120.00231491
_cell_angle_beta   90.00000000
_cell_angle_gamma   89.99999358
_symmetry_Int_Tables_number   1
_chemical_formula_structural   Dy6Tm4Sn5Sb
_chemical_formula_sum   'Dy6 Tm4 Sn5 Sb1'
_cell_volume   446.22061270
_cell_formula_units_Z   1
loop_
 _symmetry_equiv_pos_site_id
 _symmetry_equiv_pos_as_xyz
  1  'x, y, z'
loop_
 _atom_site_type_symbol
 _atom_site_label
 _atom_site_symmetry_multiplicity
 _atom_site_fract_x
 _atom_site_fract_y
 _atom_site_fract_z
 _atom_site_occupancy
  Dy  Dy0  1  0.750002  0.239122  0.000000  1
  Dy  Dy1  1  0.749998  0.760720  0.759935  1
  Dy  Dy2  1  0.749998  0.000786  0.240065  1
  Dy  Dy3  1  0.249999  0.760449  0.000000  1
  Dy  Dy4  1  0.249998  0.239469  0.239682  1
  Dy  Dy5  1  0.249998  0.999788  0.760318  1
  Tm  Tm6  1  0.499920  0.333034  0.666258  1
  Tm  Tm7  1  0.499920  0.666775  0.333742  1
  Tm  Tm8  1  0.000080  0.666792  0.333740  1
  Tm  Tm9  1  0.000080  0.333053  0.666260  1
  Sn  Sn10  1  0.750002  0.396140  0.395990  1
  Sn  Sn11  1  0.750002  0.000150  0.604010  1
  Sn  Sn12  1  0.250000  0.395734  0.000000  1
  Sn  Sn13  1  0.250000  0.603905  0.604241  1
  Sn  Sn14  1  0.250000  0.999664  0.395759  1
  Sb  Sb15  1  0.749998  0.604419  0.000000  1
