# generated using pymatgen
data_Ho4HfTi3Ir4
_symmetry_space_group_name_H-M   'P 1'
_cell_length_a   4.37461800
_cell_length_b   6.94168072
_cell_length_c   8.16437659
_cell_angle_alpha   89.33362622
_cell_angle_beta   90.00000000
_cell_angle_gamma   90.00000000
_symmetry_Int_Tables_number   1
_chemical_formula_structural   Ho4HfTi3Ir4
_chemical_formula_sum   'Ho4 Hf1 Ti3 Ir4'
_cell_volume   247.91250052
_cell_formula_units_Z   1
loop_
 _symmetry_equiv_pos_site_id
 _symmetry_equiv_pos_as_xyz
  1  'x, y, z'
loop_
 _atom_site_type_symbol
 _atom_site_label
 _atom_site_symmetry_multiplicity
 _atom_site_fract_x
 _atom_site_fract_y
 _atom_site_fract_z
 _atom_site_occupancy
  Ho  Ho0  1  0.750000  0.515573  0.819770  1
  Ho  Ho1  1  0.250000  0.990888  0.318026  1
  Ho  Ho2  1  0.750000  0.018593  0.685797  1
  Ho  Ho3  1  0.250000  0.478076  0.174415  1
  Hf  Hf4  1  0.750000  0.643985  0.427544  1
  Ti  Ti5  1  0.250000  0.861756  0.934597  1
  Ti  Ti6  1  0.250000  0.359659  0.567440  1
  Ti  Ti7  1  0.750000  0.137891  0.065827  1
  Ir  Ir8  1  0.250000  0.724708  0.603171  1
  Ir  Ir9  1  0.250000  0.221246  0.905317  1
  Ir  Ir10  1  0.750000  0.777709  0.091557  1
  Ir  Ir11  1  0.750000  0.269914  0.406538  1
