# generated using pymatgen
data_Er2Ti2Fe4Co6P7
_symmetry_space_group_name_H-M   'P 1'
_cell_length_a   9.11928543
_cell_length_b   9.10673069
_cell_length_c   3.62669900
_cell_angle_alpha   90.00000000
_cell_angle_beta   90.00000000
_cell_angle_gamma   120.30738893
_symmetry_Int_Tables_number   1
_chemical_formula_structural   Er2Ti2Fe4Co6P7
_chemical_formula_sum   'Er2 Ti2 Fe4 Co6 P7'
_cell_volume   260.02307421
_cell_formula_units_Z   1
loop_
 _symmetry_equiv_pos_site_id
 _symmetry_equiv_pos_as_xyz
  1  'x, y, z'
loop_
 _atom_site_type_symbol
 _atom_site_label
 _atom_site_symmetry_multiplicity
 _atom_site_fract_x
 _atom_site_fract_y
 _atom_site_fract_z
 _atom_site_occupancy
  Er  Er0  1  0.997419  0.999495  0.000000  1
  Er  Er1  1  0.334245  0.667784  0.500000  1
  Ti  Ti2  1  0.887386  0.444580  0.500000  1
  Ti  Ti3  1  0.550052  0.436052  0.500000  1
  Fe  Fe4  1  0.823437  0.211115  0.000000  1
  Fe  Fe5  1  0.784004  0.610592  0.000000  1
  Fe  Fe6  1  0.385123  0.170514  0.000000  1
  Fe  Fe7  1  0.571401  0.114408  0.500000  1
  Co  Co8  1  0.099939  0.705413  0.000000  1
  Co  Co9  1  0.297052  0.395698  0.000000  1
  Co  Co10  1  0.606062  0.907890  0.000000  1
  Co  Co11  1  0.054244  0.280415  0.500000  1
  Co  Co12  1  0.718501  0.778124  0.500000  1
  Co  Co13  1  0.231194  0.946512  0.500000  1
  P  P14  1  0.083324  0.444083  0.000000  1
  P  P15  1  0.554873  0.639397  0.000000  1
  P  P16  1  0.369432  0.923969  0.000000  1
  P  P17  1  0.781424  0.049482  0.500000  1
  P  P18  1  0.955659  0.743674  0.500000  1
  P  P19  1  0.253961  0.207923  0.500000  1
  P  P20  1  0.661266  0.322881  0.000000  1
