# generated using pymatgen
data_Tb8Dy12Si15P
_symmetry_space_group_name_H-M   'P 1'
_cell_length_a   7.51201691
_cell_length_b   7.66175207
_cell_length_c   14.64945028
_cell_angle_alpha   89.78179725
_cell_angle_beta   85.98910852
_cell_angle_gamma   89.92396502
_symmetry_Int_Tables_number   1
_chemical_formula_structural   Tb8Dy12Si15P
_chemical_formula_sum   'Tb8 Dy12 Si15 P1'
_cell_volume   841.08055709
_cell_formula_units_Z   1
loop_
 _symmetry_equiv_pos_site_id
 _symmetry_equiv_pos_as_xyz
  1  'x, y, z'
loop_
 _atom_site_type_symbol
 _atom_site_label
 _atom_site_symmetry_multiplicity
 _atom_site_fract_x
 _atom_site_fract_y
 _atom_site_fract_z
 _atom_site_occupancy
  Tb  Tb0  1  0.028472  0.187031  0.102484  1
  Tb  Tb1  1  0.972247  0.814275  0.897095  1
  Tb  Tb2  1  0.472853  0.686366  0.897781  1
  Tb  Tb3  1  0.001953  0.819178  0.599875  1
  Tb  Tb4  1  0.527814  0.314322  0.101769  1
  Tb  Tb5  1  0.994320  0.175534  0.398258  1
  Tb  Tb6  1  0.496573  0.316585  0.400332  1
  Tb  Tb7  1  0.502163  0.680849  0.599127  1
  Dy  Dy8  1  0.169212  0.505984  0.746328  1
  Dy  Dy9  1  0.831421  0.495083  0.255136  1
  Dy  Dy10  1  0.329697  0.003847  0.255018  1
  Dy  Dy11  1  0.669513  0.995540  0.744758  1
  Dy  Dy12  1  0.355455  0.168322  0.618408  1
  Dy  Dy13  1  0.643690  0.835857  0.380515  1
  Dy  Dy14  1  0.145473  0.656824  0.386187  1
  Dy  Dy15  1  0.675265  0.822370  0.122317  1
  Dy  Dy16  1  0.860348  0.337526  0.616431  1
  Dy  Dy17  1  0.324709  0.178016  0.877085  1
  Dy  Dy18  1  0.824214  0.323338  0.877309  1
  Dy  Dy19  1  0.175953  0.677027  0.122032  1
  Si  Si20  1  0.043626  0.109294  0.750823  1
  Si  Si21  1  0.956887  0.890007  0.248452  1
  Si  Si22  1  0.455820  0.607402  0.249086  1
  Si  Si23  1  0.544471  0.392133  0.750129  1
  Si  Si24  1  0.284157  0.873009  0.750682  1
  Si  Si25  1  0.716697  0.127565  0.248459  1
  Si  Si26  1  0.217322  0.371962  0.248908  1
  Si  Si27  1  0.783534  0.627890  0.750836  1
  Si  Si28  1  0.788956  0.534152  0.456514  1
  Si  Si29  1  0.293639  0.962749  0.458170  1
  Si  Si30  1  0.856307  0.528726  0.041625  1
  Si  Si31  1  0.703234  0.037390  0.542713  1
  Si  Si32  1  0.143481  0.472760  0.957452  1
  Si  Si33  1  0.643017  0.028429  0.957459  1
  Si  Si34  1  0.356600  0.972546  0.042209  1
  P  P35  1  0.210908  0.470112  0.548238  1
