# generated using pymatgen
data_CaEu3ZrW3O14
_symmetry_space_group_name_H-M   'P 1'
_cell_length_a   7.56054629
_cell_length_b   7.54561798
_cell_length_c   7.56054663
_cell_angle_alpha   60.04765184
_cell_angle_beta   60.05281194
_cell_angle_gamma   60.04765244
_symmetry_Int_Tables_number   1
_chemical_formula_structural   CaEu3ZrW3O14
_chemical_formula_sum   'Ca1 Eu3 Zr1 W3 O14'
_cell_volume   305.33170805
_cell_formula_units_Z   1
loop_
 _symmetry_equiv_pos_site_id
 _symmetry_equiv_pos_as_xyz
  1  'x, y, z'
loop_
 _atom_site_type_symbol
 _atom_site_label
 _atom_site_symmetry_multiplicity
 _atom_site_fract_x
 _atom_site_fract_y
 _atom_site_fract_z
 _atom_site_occupancy
  Ca  Ca0  1  0.625000  0.125000  0.625000  1
  Eu  Eu1  1  0.625000  0.625000  0.125000  1
  Eu  Eu2  1  0.125000  0.625000  0.625000  1
  Eu  Eu3  1  0.625000  0.625000  0.625000  1
  Zr  Zr4  1  0.125000  0.125000  0.125000  1
  W  W5  1  0.625000  0.125000  0.125000  1
  W  W6  1  0.125000  0.125000  0.625000  1
  W  W7  1  0.125000  0.625000  0.125000  1
  O  O8  1  0.202032  0.802083  0.803627  1
  O  O9  1  0.803627  0.802083  0.202032  1
  O  O10  1  0.803877  0.202020  0.803877  1
  O  O11  1  0.199346  0.791203  0.199346  1
  O  O12  1  0.197728  0.197605  0.792129  1
  O  O13  1  0.792129  0.197605  0.197728  1
  O  O14  1  0.457871  0.052395  0.052272  1
  O  O15  1  0.052272  0.052395  0.457871  1
  O  O16  1  0.050654  0.458797  0.050654  1
  O  O17  1  0.446123  0.047980  0.446123  1
  O  O18  1  0.748500  0.756117  0.748500  1
  O  O19  1  0.446373  0.447917  0.047968  1
  O  O20  1  0.047968  0.447917  0.446373  1
  O  O21  1  0.501500  0.493883  0.501500  1
