# generated using pymatgen
data_CaTmMnFeO6
_symmetry_space_group_name_H-M   'P 1'
_cell_length_a   5.29945312
_cell_length_b   5.52192200
_cell_length_c   7.58626908
_cell_angle_alpha   89.99980371
_cell_angle_beta   90.04550845
_cell_angle_gamma   89.99997930
_symmetry_Int_Tables_number   1
_chemical_formula_structural   CaTmMnFeO6
_chemical_formula_sum   'Ca2 Tm2 Mn2 Fe2 O12'
_cell_volume   221.99818704
_cell_formula_units_Z   2
loop_
 _symmetry_equiv_pos_site_id
 _symmetry_equiv_pos_as_xyz
  1  'x, y, z'
loop_
 _atom_site_type_symbol
 _atom_site_label
 _atom_site_symmetry_multiplicity
 _atom_site_fract_x
 _atom_site_fract_y
 _atom_site_fract_z
 _atom_site_occupancy
  Ca  Ca0  1  0.511455  0.553311  0.249420  1
  Ca  Ca1  1  0.011461  0.946687  0.749419  1
  Tm  Tm2  1  0.980828  0.068088  0.248796  1
  Tm  Tm3  1  0.480818  0.431912  0.748796  1
  Mn  Mn4  1  0.999486  0.502477  0.500034  1
  Mn  Mn5  1  0.499524  0.997526  0.000026  1
  Fe  Fe6  1  0.999326  0.507182  0.999472  1
  Fe  Fe7  1  0.499322  0.992817  0.499455  1
  O  O8  1  0.803380  0.811157  0.053384  1
  O  O9  1  0.712180  0.294302  0.452350  1
  O  O10  1  0.203153  0.216589  0.550442  1
  O  O11  1  0.315526  0.697349  0.945908  1
  O  O12  1  0.212184  0.205695  0.952354  1
  O  O13  1  0.303375  0.688842  0.553379  1
  O  O14  1  0.815526  0.802652  0.445906  1
  O  O15  1  0.703153  0.283412  0.050446  1
  O  O16  1  0.388838  0.971436  0.245404  1
  O  O17  1  0.085813  0.464833  0.254805  1
  O  O18  1  0.585814  0.035168  0.754802  1
  O  O19  1  0.888838  0.528563  0.745404  1
