# generated using pymatgen
data_Pr3In3Cu2Pt
_symmetry_space_group_name_H-M   'P 1'
_cell_length_a   7.73918400
_cell_length_b   7.73918418
_cell_length_c   4.07547000
_cell_angle_alpha   90.00000000
_cell_angle_beta   90.00000000
_cell_angle_gamma   120.00001633
_symmetry_Int_Tables_number   1
_chemical_formula_structural   Pr3In3Cu2Pt
_chemical_formula_sum   'Pr3 In3 Cu2 Pt1'
_cell_volume   211.39690040
_cell_formula_units_Z   1
loop_
 _symmetry_equiv_pos_site_id
 _symmetry_equiv_pos_as_xyz
  1  'x, y, z'
loop_
 _atom_site_type_symbol
 _atom_site_label
 _atom_site_symmetry_multiplicity
 _atom_site_fract_x
 _atom_site_fract_y
 _atom_site_fract_z
 _atom_site_occupancy
  Pr  Pr0  1  0.417034  0.410679  0.500000  1
  Pr  Pr1  1  0.589321  0.006355  0.500000  1
  Pr  Pr2  1  0.993645  0.582966  0.500000  1
  In  In3  1  0.751034  0.756159  0.000000  1
  In  In4  1  0.243841  0.994874  0.000000  1
  In  In5  1  0.005126  0.248966  0.000000  1
  Cu  Cu6  1  0.333333  0.666667  0.000000  1
  Cu  Cu7  1  0.000000  0.000000  0.500000  1
  Pt  Pt8  1  0.666667  0.333333  0.000000  1
