# generated using pymatgen
data_Tb17Tm3(SnBi)8
_symmetry_space_group_name_H-M   'P 1'
_cell_length_a   8.17899808
_cell_length_b   8.21941108
_cell_length_c   15.69078700
_cell_angle_alpha   90.00000000
_cell_angle_beta   90.00000000
_cell_angle_gamma   90.01596748
_symmetry_Int_Tables_number   1
_chemical_formula_structural   Tb17Tm3(SnBi)8
_chemical_formula_sum   'Tb17 Tm3 Sn8 Bi8'
_cell_volume   1054.83739559
_cell_formula_units_Z   1
loop_
 _symmetry_equiv_pos_site_id
 _symmetry_equiv_pos_as_xyz
  1  'x, y, z'
loop_
 _atom_site_type_symbol
 _atom_site_label
 _atom_site_symmetry_multiplicity
 _atom_site_fract_x
 _atom_site_fract_y
 _atom_site_fract_z
 _atom_site_occupancy
  Tb  Tb0  1  0.386624  0.838220  0.876541  1
  Tb  Tb1  1  0.886840  0.661847  0.623411  1
  Tb  Tb2  1  0.613344  0.162238  0.376716  1
  Tb  Tb3  1  0.112920  0.338314  0.123227  1
  Tb  Tb4  1  0.613344  0.162238  0.123284  1
  Tb  Tb5  1  0.112920  0.338314  0.376773  1
  Tb  Tb6  1  0.386624  0.838220  0.623459  1
  Tb  Tb7  1  0.886840  0.661847  0.876589  1
  Tb  Tb8  1  0.553155  0.327726  0.889725  1
  Tb  Tb9  1  0.053446  0.172134  0.610208  1
  Tb  Tb10  1  0.447007  0.672160  0.389824  1
  Tb  Tb11  1  0.946709  0.827450  0.110213  1
  Tb  Tb12  1  0.447007  0.672160  0.110176  1
  Tb  Tb13  1  0.946709  0.827450  0.389787  1
  Tb  Tb14  1  0.553155  0.327726  0.610275  1
  Tb  Tb15  1  0.053446  0.172134  0.889792  1
  Tb  Tb16  1  0.282439  0.998104  0.250000  1
  Tm  Tm17  1  0.218070  0.498192  0.750000  1
  Tm  Tm18  1  0.718142  0.001948  0.750000  1
  Tm  Tm19  1  0.782047  0.502010  0.250000  1
  Sn  Sn20  1  0.582021  0.626378  0.750000  1
  Sn  Sn21  1  0.081902  0.873531  0.750000  1
  Sn  Sn22  1  0.418120  0.374570  0.250000  1
  Sn  Sn23  1  0.916319  0.126850  0.250000  1
  Sn  Sn24  1  0.357598  0.144794  0.750000  1
  Sn  Sn25  1  0.857503  0.355306  0.750000  1
  Sn  Sn26  1  0.644404  0.854807  0.250000  1
  Sn  Sn27  1  0.142096  0.642969  0.250000  1
  Bi  Bi28  1  0.270491  0.020670  0.044277  1
  Bi  Bi29  1  0.770834  0.479468  0.454872  1
  Bi  Bi30  1  0.729051  0.979483  0.545226  1
  Bi  Bi31  1  0.229249  0.520561  0.954738  1
  Bi  Bi32  1  0.729051  0.979483  0.954774  1
  Bi  Bi33  1  0.229249  0.520561  0.545262  1
  Bi  Bi34  1  0.270491  0.020670  0.455723  1
  Bi  Bi35  1  0.770834  0.479468  0.045128  1
