# generated using pymatgen
data_Y12Al3Co8Si5
_symmetry_space_group_name_H-M   'P 1'
_cell_length_a   5.51299400
_cell_length_b   7.78934947
_cell_length_c   12.73903013
_cell_angle_alpha   90.20991324
_cell_angle_beta   90.00000000
_cell_angle_gamma   90.00000000
_symmetry_Int_Tables_number   1
_chemical_formula_structural   Y12Al3Co8Si5
_chemical_formula_sum   'Y12 Al3 Co8 Si5'
_cell_volume   547.04387362
_cell_formula_units_Z   1
loop_
 _symmetry_equiv_pos_site_id
 _symmetry_equiv_pos_as_xyz
  1  'x, y, z'
loop_
 _atom_site_type_symbol
 _atom_site_label
 _atom_site_symmetry_multiplicity
 _atom_site_fract_x
 _atom_site_fract_y
 _atom_site_fract_z
 _atom_site_occupancy
  Y  Y0  1  0.148076  0.602705  0.102291  1
  Y  Y1  1  0.148076  0.897295  0.897709  1
  Y  Y2  1  0.855635  0.105246  0.399414  1
  Y  Y3  1  0.855635  0.394754  0.600586  1
  Y  Y4  1  0.853513  0.399146  0.898064  1
  Y  Y5  1  0.853513  0.100854  0.101936  1
  Y  Y6  1  0.144822  0.898743  0.600865  1
  Y  Y7  1  0.144822  0.601257  0.399135  1
  Y  Y8  1  0.363881  0.246189  0.252581  1
  Y  Y9  1  0.363881  0.253811  0.747419  1
  Y  Y10  1  0.637422  0.745174  0.251526  1
  Y  Y11  1  0.637422  0.754826  0.748474  1
  Al  Al12  1  0.378337  0.250000  0.000000  1
  Al  Al13  1  0.617796  0.750000  0.500000  1
  Al  Al14  1  0.622145  0.750000  0.000000  1
  Co  Co15  1  0.637830  0.469921  0.092765  1
  Co  Co16  1  0.637830  0.030079  0.907235  1
  Co  Co17  1  0.360812  0.980279  0.411437  1
  Co  Co18  1  0.360812  0.519721  0.588563  1
  Co  Co19  1  0.359651  0.529581  0.907265  1
  Co  Co20  1  0.359651  0.970419  0.092735  1
  Co  Co21  1  0.632723  0.035601  0.590049  1
  Co  Co22  1  0.632723  0.464399  0.409951  1
  Si  Si23  1  0.846448  0.396896  0.250618  1
  Si  Si24  1  0.846448  0.103104  0.749382  1
  Si  Si25  1  0.155744  0.897199  0.252641  1
  Si  Si26  1  0.155744  0.602801  0.747359  1
  Si  Si27  1  0.388607  0.250000  0.500000  1
