# generated using pymatgen
data_K3Sr3ScBi4
_symmetry_space_group_name_H-M   'P 1'
_cell_length_a   11.22770700
_cell_length_b   11.22770806
_cell_length_c   8.36739600
_cell_angle_alpha   90.00000000
_cell_angle_beta   90.00000000
_cell_angle_gamma   119.99999393
_symmetry_Int_Tables_number   1
_chemical_formula_structural   K3Sr3ScBi4
_chemical_formula_sum   'K6 Sr6 Sc2 Bi8'
_cell_volume   913.48866699
_cell_formula_units_Z   2
loop_
 _symmetry_equiv_pos_site_id
 _symmetry_equiv_pos_as_xyz
  1  'x, y, z'
loop_
 _atom_site_type_symbol
 _atom_site_label
 _atom_site_symmetry_multiplicity
 _atom_site_fract_x
 _atom_site_fract_y
 _atom_site_fract_z
 _atom_site_occupancy
  K  K0  1  0.726815  0.863407  0.173132  1
  K  K1  1  0.863407  0.136593  0.673132  1
  K  K2  1  0.863407  0.726815  0.673132  1
  K  K3  1  0.136593  0.273185  0.173132  1
  K  K4  1  0.136593  0.863407  0.173132  1
  K  K5  1  0.273185  0.136593  0.673132  1
  Sr  Sr6  1  0.057153  0.528577  0.498748  1
  Sr  Sr7  1  0.471423  0.942847  0.498748  1
  Sr  Sr8  1  0.471423  0.528577  0.498748  1
  Sr  Sr9  1  0.528577  0.471423  0.998748  1
  Sr  Sr10  1  0.528577  0.057153  0.998748  1
  Sr  Sr11  1  0.942847  0.471423  0.998748  1
  Sc  Sc12  1  0.333333  0.666667  0.882497  1
  Sc  Sc13  1  0.666667  0.333333  0.382497  1
  Bi  Bi14  1  0.666667  0.333333  0.733295  1
  Bi  Bi15  1  0.613062  0.806532  0.765921  1
  Bi  Bi16  1  0.806532  0.193468  0.265921  1
  Bi  Bi17  1  0.806532  0.613062  0.265921  1
  Bi  Bi18  1  0.333333  0.666667  0.233295  1
  Bi  Bi19  1  0.193468  0.386938  0.765921  1
  Bi  Bi20  1  0.193468  0.806532  0.765921  1
  Bi  Bi21  1  0.386938  0.193468  0.265921  1
