# generated using pymatgen
data_Ba(SrP)2
_symmetry_space_group_name_H-M   'P 1'
_cell_length_a   5.00463900
_cell_length_b   5.00463967
_cell_length_c   8.00507100
_cell_angle_alpha   90.00000000
_cell_angle_beta   90.00000000
_cell_angle_gamma   120.00000216
_symmetry_Int_Tables_number   1
_chemical_formula_structural   Ba(SrP)2
_chemical_formula_sum   'Ba1 Sr2 P2'
_cell_volume   173.63664299
_cell_formula_units_Z   1
loop_
 _symmetry_equiv_pos_site_id
 _symmetry_equiv_pos_as_xyz
  1  'x, y, z'
loop_
 _atom_site_type_symbol
 _atom_site_label
 _atom_site_symmetry_multiplicity
 _atom_site_fract_x
 _atom_site_fract_y
 _atom_site_fract_z
 _atom_site_occupancy
  Ba  Ba0  1  0.000000  0.000000  0.000000  1
  Sr  Sr1  1  0.666667  0.333333  0.353479  1
  Sr  Sr2  1  0.333333  0.666667  0.646521  1
  P  P3  1  0.666667  0.333333  0.755147  1
  P  P4  1  0.333333  0.666667  0.244853  1
