# generated using pymatgen
data_Tb5Co19(Si5P)2
_symmetry_space_group_name_H-M   'P 1'
_cell_length_a   12.12422300
_cell_length_b   12.15084149
_cell_length_c   3.71667200
_cell_angle_alpha   90.00000000
_cell_angle_beta   90.00000000
_cell_angle_gamma   119.92756235
_symmetry_Int_Tables_number   1
_chemical_formula_structural   Tb5Co19(Si5P)2
_chemical_formula_sum   'Tb5 Co19 Si10 P2'
_cell_volume   474.52782201
_cell_formula_units_Z   1
loop_
 _symmetry_equiv_pos_site_id
 _symmetry_equiv_pos_as_xyz
  1  'x, y, z'
loop_
 _atom_site_type_symbol
 _atom_site_label
 _atom_site_symmetry_multiplicity
 _atom_site_fract_x
 _atom_site_fract_y
 _atom_site_fract_z
 _atom_site_occupancy
  Tb  Tb0  1  0.332703  0.666210  0.000000  1
  Tb  Tb1  1  0.666493  0.333790  0.000000  1
  Tb  Tb2  1  0.185538  0.000000  0.500000  1
  Tb  Tb3  1  0.000921  0.186106  0.500000  1
  Tb  Tb4  1  0.814815  0.813894  0.500000  1
  Co  Co5  1  0.197639  0.373761  0.000000  1
  Co  Co6  1  0.622431  0.819740  0.000000  1
  Co  Co7  1  0.176376  0.802688  0.000000  1
  Co  Co8  1  0.823877  0.626239  0.000000  1
  Co  Co9  1  0.802691  0.180260  0.000000  1
  Co  Co10  1  0.373688  0.197312  0.000000  1
  Co  Co11  1  0.559116  0.000000  0.000000  1
  Co  Co12  1  0.000696  0.559307  0.000000  1
  Co  Co13  1  0.441389  0.440693  0.000000  1
  Co  Co14  1  0.123283  0.479178  0.500000  1
  Co  Co15  1  0.520437  0.642675  0.500000  1
  Co  Co16  1  0.355653  0.876896  0.500000  1
  Co  Co17  1  0.644106  0.520822  0.500000  1
  Co  Co18  1  0.877761  0.357325  0.500000  1
  Co  Co19  1  0.478757  0.123104  0.500000  1
  Co  Co20  1  0.718334  0.000000  0.500000  1
  Co  Co21  1  0.999951  0.721923  0.500000  1
  Co  Co22  1  0.278028  0.278077  0.500000  1
  Co  Co23  1  0.004302  0.000000  0.000000  1
  Si  Si24  1  0.371671  0.000000  0.000000  1
  Si  Si25  1  0.000286  0.371807  0.000000  1
  Si  Si26  1  0.628479  0.628193  0.000000  1
  Si  Si27  1  0.317816  0.477279  0.500000  1
  Si  Si28  1  0.522007  0.839143  0.500000  1
  Si  Si29  1  0.159839  0.682245  0.500000  1
  Si  Si30  1  0.840537  0.522721  0.500000  1
  Si  Si31  1  0.682864  0.160857  0.500000  1
  Si  Si32  1  0.477594  0.317755  0.500000  1
  Si  Si33  1  0.816869  0.000000  0.000000  1
  P  P34  1  0.999999  0.816945  0.000000  1
  P  P35  1  0.183055  0.183055  0.000000  1
