# generated using pymatgen
data_Ac4DyHo5Pt8
_symmetry_space_group_name_H-M   'P 1'
_cell_length_a   7.86228900
_cell_length_b   7.88753500
_cell_length_c   15.01189100
_cell_angle_alpha   90.00000000
_cell_angle_beta   90.00000000
_cell_angle_gamma   90.00000000
_symmetry_Int_Tables_number   1
_chemical_formula_structural   Ac4DyHo5Pt8
_chemical_formula_sum   'Ac8 Dy2 Ho10 Pt16'
_cell_volume   930.94860444
_cell_formula_units_Z   2
loop_
 _symmetry_equiv_pos_site_id
 _symmetry_equiv_pos_as_xyz
  1  'x, y, z'
loop_
 _atom_site_type_symbol
 _atom_site_label
 _atom_site_symmetry_multiplicity
 _atom_site_fract_x
 _atom_site_fract_y
 _atom_site_fract_z
 _atom_site_occupancy
  Ac  Ac0  1  0.508462  0.325733  0.900495  1
  Ac  Ac1  1  0.008462  0.174267  0.599505  1
  Ac  Ac2  1  0.491718  0.674157  0.401051  1
  Ac  Ac3  1  0.991718  0.825843  0.098949  1
  Ac  Ac4  1  0.491718  0.674157  0.098949  1
  Ac  Ac5  1  0.991718  0.825843  0.401051  1
  Ac  Ac6  1  0.508462  0.325733  0.599505  1
  Ac  Ac7  1  0.008462  0.174267  0.900495  1
  Dy  Dy8  1  0.814660  0.496727  0.250000  1
  Dy  Dy9  1  0.314660  0.003273  0.250000  1
  Ho  Ho10  1  0.351442  0.835379  0.876038  1
  Ho  Ho11  1  0.851442  0.664621  0.623962  1
  Ho  Ho12  1  0.648618  0.164919  0.376436  1
  Ho  Ho13  1  0.148618  0.335081  0.123564  1
  Ho  Ho14  1  0.648618  0.164919  0.123564  1
  Ho  Ho15  1  0.148618  0.335081  0.376436  1
  Ho  Ho16  1  0.351442  0.835379  0.623962  1
  Ho  Ho17  1  0.851442  0.664621  0.876038  1
  Ho  Ho18  1  0.185599  0.503714  0.750000  1
  Ho  Ho19  1  0.685599  0.996286  0.750000  1
  Pt  Pt20  1  0.320176  0.039687  0.046090  1
  Pt  Pt21  1  0.820176  0.460313  0.453910  1
  Pt  Pt22  1  0.679874  0.960364  0.547172  1
  Pt  Pt23  1  0.179874  0.539636  0.952828  1
  Pt  Pt24  1  0.679874  0.960364  0.952828  1
  Pt  Pt25  1  0.179874  0.539636  0.547172  1
  Pt  Pt26  1  0.320176  0.039687  0.453910  1
  Pt  Pt27  1  0.820176  0.460313  0.046090  1
  Pt  Pt28  1  0.556240  0.638185  0.750000  1
  Pt  Pt29  1  0.056240  0.861815  0.750000  1
  Pt  Pt30  1  0.443380  0.362187  0.250000  1
  Pt  Pt31  1  0.943380  0.137813  0.250000  1
  Pt  Pt32  1  0.319611  0.129073  0.750000  1
  Pt  Pt33  1  0.819611  0.370927  0.750000  1
  Pt  Pt34  1  0.679924  0.871305  0.250000  1
  Pt  Pt35  1  0.179924  0.628695  0.250000  1
