# generated using pymatgen
data_Sc8Ti9V(Si8Mo)2
_symmetry_space_group_name_H-M   'P 1'
_cell_length_a   6.82649732
_cell_length_b   6.82649717
_cell_length_c   12.52166104
_cell_angle_alpha   89.95102384
_cell_angle_beta   90.04897882
_cell_angle_gamma   89.96705981
_symmetry_Int_Tables_number   1
_chemical_formula_structural   Sc8Ti9V(Si8Mo)2
_chemical_formula_sum   'Sc8 Ti9 V1 Si16 Mo2'
_cell_volume   583.52221273
_cell_formula_units_Z   1
loop_
 _symmetry_equiv_pos_site_id
 _symmetry_equiv_pos_as_xyz
  1  'x, y, z'
loop_
 _atom_site_type_symbol
 _atom_site_label
 _atom_site_symmetry_multiplicity
 _atom_site_fract_x
 _atom_site_fract_y
 _atom_site_fract_z
 _atom_site_occupancy
  Sc  Sc0  1  0.001040  0.660751  0.033174  1
  Sc  Sc1  1  0.841483  0.502387  0.283182  1
  Sc  Sc2  1  0.158105  0.498710  0.781110  1
  Sc  Sc3  1  0.502387  0.841483  0.716818  1
  Sc  Sc4  1  0.498710  0.158105  0.218890  1
  Sc  Sc5  1  0.997450  0.339522  0.532972  1
  Sc  Sc6  1  0.660751  0.001040  0.966826  1
  Sc  Sc7  1  0.339522  0.997450  0.467028  1
  Ti  Ti8  1  0.328776  0.328776  0.000000  1
  Ti  Ti9  1  0.006906  0.149034  0.126341  1
  Ti  Ti10  1  0.349057  0.507151  0.376305  1
  Ti  Ti11  1  0.651370  0.493214  0.873795  1
  Ti  Ti12  1  0.507151  0.349057  0.623695  1
  Ti  Ti13  1  0.493214  0.651370  0.126205  1
  Ti  Ti14  1  0.992479  0.849903  0.625255  1
  Ti  Ti15  1  0.149034  0.006906  0.873659  1
  Ti  Ti16  1  0.849903  0.992479  0.374745  1
  V  V17  1  0.672101  0.672101  0.500000  1
  Si  Si18  1  0.298578  0.955000  0.064958  1
  Si  Si19  1  0.546666  0.796030  0.316952  1
  Si  Si20  1  0.455277  0.202707  0.814158  1
  Si  Si21  1  0.796030  0.546666  0.683048  1
  Si  Si22  1  0.202707  0.455277  0.185842  1
  Si  Si23  1  0.701262  0.042364  0.563459  1
  Si  Si24  1  0.955000  0.298578  0.935042  1
  Si  Si25  1  0.042364  0.701262  0.436541  1
  Si  Si26  1  0.704695  0.363556  0.070268  1
  Si  Si27  1  0.135731  0.205208  0.320933  1
  Si  Si28  1  0.863965  0.794944  0.819996  1
  Si  Si29  1  0.205208  0.135731  0.679067  1
  Si  Si30  1  0.794944  0.863965  0.180004  1
  Si  Si31  1  0.297574  0.636924  0.569644  1
  Si  Si32  1  0.363556  0.704695  0.929732  1
  Si  Si33  1  0.636924  0.297574  0.430356  1
  Mo  Mo34  1  0.172362  0.827720  0.251010  1
  Mo  Mo35  1  0.827720  0.172362  0.748990  1
