# generated using pymatgen
data_EuP12(IrRu)2
_symmetry_space_group_name_H-M   'P 1'
_cell_length_a   7.03343753
_cell_length_b   7.04823824
_cell_length_c   7.03343763
_cell_angle_alpha   109.47242294
_cell_angle_beta   109.39330945
_cell_angle_gamma   109.46271836
_symmetry_Int_Tables_number   1
_chemical_formula_structural   EuP12(IrRu)2
_chemical_formula_sum   'Eu1 P12 Ir2 Ru2'
_cell_volume   268.68885269
_cell_formula_units_Z   1
loop_
 _symmetry_equiv_pos_site_id
 _symmetry_equiv_pos_as_xyz
  1  'x, y, z'
loop_
 _atom_site_type_symbol
 _atom_site_label
 _atom_site_symmetry_multiplicity
 _atom_site_fract_x
 _atom_site_fract_y
 _atom_site_fract_z
 _atom_site_occupancy
  Eu  Eu0  1  0.000000  0.000000  0.000000  1
  P  P1  1  0.355214  0.212029  0.856815  1
  P  P2  1  0.644786  0.787971  0.143185  1
  P  P3  1  0.642420  0.501822  0.859402  1
  P  P4  1  0.357580  0.498178  0.140598  1
  P  P5  1  0.214504  0.860163  0.358508  1
  P  P6  1  0.785496  0.139837  0.641492  1
  P  P7  1  0.501655  0.860163  0.645659  1
  P  P8  1  0.498345  0.139837  0.354341  1
  P  P9  1  0.855378  0.353837  0.214488  1
  P  P10  1  0.144622  0.646163  0.785512  1
  P  P11  1  0.860651  0.646163  0.501541  1
  P  P12  1  0.139349  0.353837  0.498459  1
  Ir  Ir13  1  0.000000  0.500000  0.000000  1
  Ir  Ir14  1  0.500000  0.500000  0.500000  1
  Ru  Ru15  1  0.000000  0.000000  0.500000  1
  Ru  Ru16  1  0.500000  0.000000  0.000000  1
