# generated using pymatgen
data_Dy5Y5TlPb5
_symmetry_space_group_name_H-M   'P 1'
_cell_length_a   9.06204900
_cell_length_b   9.06183828
_cell_length_c   6.69355100
_cell_angle_alpha   90.00000000
_cell_angle_beta   90.00000000
_cell_angle_gamma   120.02751983
_symmetry_Int_Tables_number   1
_chemical_formula_structural   Dy5Y5TlPb5
_chemical_formula_sum   'Dy5 Y5 Tl1 Pb5'
_cell_volume   475.89311532
_cell_formula_units_Z   1
loop_
 _symmetry_equiv_pos_site_id
 _symmetry_equiv_pos_as_xyz
  1  'x, y, z'
loop_
 _atom_site_type_symbol
 _atom_site_label
 _atom_site_symmetry_multiplicity
 _atom_site_fract_x
 _atom_site_fract_y
 _atom_site_fract_z
 _atom_site_occupancy
  Dy  Dy0  1  0.333846  0.663866  0.001601  1
  Dy  Dy1  1  0.663818  0.333859  0.001594  1
  Dy  Dy2  1  0.761776  0.999642  0.750000  1
  Dy  Dy3  1  0.333846  0.663866  0.498399  1
  Dy  Dy4  1  0.663818  0.333859  0.498406  1
  Y  Y5  1  0.237967  0.237860  0.750000  1
  Y  Y6  1  0.239535  0.004266  0.250000  1
  Y  Y7  1  0.999692  0.762011  0.750000  1
  Y  Y8  1  0.760301  0.760390  0.250000  1
  Y  Y9  1  0.004178  0.239328  0.250000  1
  Tl  Tl10  1  0.396590  0.396596  0.250000  1
  Pb  Pb11  1  0.998548  0.394795  0.750000  1
  Pb  Pb12  1  0.605755  0.000351  0.250000  1
  Pb  Pb13  1  0.604851  0.605005  0.750000  1
  Pb  Pb14  1  0.395023  0.998540  0.750000  1
  Pb  Pb15  1  0.000456  0.605765  0.250000  1
