# generated using pymatgen
data_Nd3Sm3CoBr10
_symmetry_space_group_name_H-M   'P 1'
_cell_length_a   7.56596586
_cell_length_b   9.33982634
_cell_length_c   9.55569797
_cell_angle_alpha   107.71855398
_cell_angle_beta   96.31655936
_cell_angle_gamma   104.58614208
_symmetry_Int_Tables_number   1
_chemical_formula_structural   Nd3Sm3CoBr10
_chemical_formula_sum   'Nd3 Sm3 Co1 Br10'
_cell_volume   609.59378518
_cell_formula_units_Z   1
loop_
 _symmetry_equiv_pos_site_id
 _symmetry_equiv_pos_as_xyz
  1  'x, y, z'
loop_
 _atom_site_type_symbol
 _atom_site_label
 _atom_site_symmetry_multiplicity
 _atom_site_fract_x
 _atom_site_fract_y
 _atom_site_fract_z
 _atom_site_occupancy
  Nd  Nd0  1  0.038502  0.715502  0.410771  1
  Nd  Nd1  1  0.961516  0.284253  0.587446  1
  Nd  Nd2  1  0.868586  0.946937  0.744304  1
  Sm  Sm3  1  0.130296  0.052381  0.258234  1
  Sm  Sm4  1  0.353074  0.129864  0.676368  1
  Sm  Sm5  1  0.647146  0.870493  0.323624  1
  Co  Co6  1  0.000033  0.999794  0.499670  1
  Br  Br7  1  0.452677  0.819346  0.581008  1
  Br  Br8  1  0.544992  0.180120  0.418099  1
  Br  Br9  1  0.912178  0.627022  0.669281  1
  Br  Br10  1  0.088047  0.369642  0.328158  1
  Br  Br11  1  0.242613  0.078547  0.949326  1
  Br  Br12  1  0.761253  0.922696  0.054558  1
  Br  Br13  1  0.339533  0.445007  0.767925  1
  Br  Br14  1  0.659812  0.555134  0.231440  1
  Br  Br15  1  0.771104  0.247716  0.841996  1
  Br  Br16  1  0.228637  0.755547  0.157793  1
