# generated using pymatgen
data_TbPrSn5Ir3
_symmetry_space_group_name_H-M   'P 1'
_cell_length_a   13.56222704
_cell_length_b   13.56222740
_cell_length_c   7.24825500
_cell_angle_alpha   90.00000000
_cell_angle_beta   90.00000000
_cell_angle_gamma   160.86255046
_symmetry_Int_Tables_number   1
_chemical_formula_structural   TbPrSn5Ir3
_chemical_formula_sum   'Tb2 Pr2 Sn10 Ir6'
_cell_volume   437.07043382
_cell_formula_units_Z   2
loop_
 _symmetry_equiv_pos_site_id
 _symmetry_equiv_pos_as_xyz
  1  'x, y, z'
loop_
 _atom_site_type_symbol
 _atom_site_label
 _atom_site_symmetry_multiplicity
 _atom_site_fract_x
 _atom_site_fract_y
 _atom_site_fract_z
 _atom_site_occupancy
  Tb  Tb0  1  0.476852  0.523148  0.739637  1
  Tb  Tb1  1  0.523148  0.476852  0.239637  1
  Pr  Pr2  1  0.171724  0.828276  0.753427  1
  Pr  Pr3  1  0.828276  0.171724  0.253427  1
  Sn  Sn4  1  0.879923  0.120077  0.732814  1
  Sn  Sn5  1  0.120077  0.879923  0.232814  1
  Sn  Sn6  1  0.703951  0.296049  0.047509  1
  Sn  Sn7  1  0.296049  0.703951  0.547509  1
  Sn  Sn8  1  0.595967  0.404033  0.609744  1
  Sn  Sn9  1  0.404033  0.595967  0.109744  1
  Sn  Sn10  1  0.953051  0.046949  0.401030  1
  Sn  Sn11  1  0.046949  0.953051  0.901030  1
  Sn  Sn12  1  0.290300  0.709700  0.975973  1
  Sn  Sn13  1  0.709700  0.290300  0.475973  1
  Ir  Ir14  1  0.049946  0.950054  0.518109  1
  Ir  Ir15  1  0.950054  0.049946  0.018109  1
  Ir  Ir16  1  0.777285  0.222715  0.763840  1
  Ir  Ir17  1  0.222715  0.777285  0.263840  1
  Ir  Ir18  1  0.396175  0.603825  0.485915  1
  Ir  Ir19  1  0.603825  0.396175  0.985915  1
