# generated using pymatgen
data_Y3Zn3IrPdPt
_symmetry_space_group_name_H-M   'P 1'
_cell_length_a   7.26940000
_cell_length_b   7.26940661
_cell_length_c   3.88884100
_cell_angle_alpha   90.00000000
_cell_angle_beta   90.00000000
_cell_angle_gamma   120.00017015
_symmetry_Int_Tables_number   1
_chemical_formula_structural   Y3Zn3IrPdPt
_chemical_formula_sum   'Y3 Zn3 Ir1 Pd1 Pt1'
_cell_volume   177.97032850
_cell_formula_units_Z   1
loop_
 _symmetry_equiv_pos_site_id
 _symmetry_equiv_pos_as_xyz
  1  'x, y, z'
loop_
 _atom_site_type_symbol
 _atom_site_label
 _atom_site_symmetry_multiplicity
 _atom_site_fract_x
 _atom_site_fract_y
 _atom_site_fract_z
 _atom_site_occupancy
  Y  Y0  1  0.588001  0.595417  0.000000  1
  Y  Y1  1  0.404583  0.992583  0.000000  1
  Y  Y2  1  0.007417  0.412000  0.000000  1
  Zn  Zn3  1  0.252591  0.254596  0.500000  1
  Zn  Zn4  1  0.745404  0.997994  0.500000  1
  Zn  Zn5  1  0.002005  0.747411  0.500000  1
  Ir  Ir6  1  0.333334  0.666667  0.500000  1
  Pd  Pd7  1  0.000000  0.000000  0.000000  1
  Pt  Pt8  1  0.666666  0.333333  0.500000  1
