# generated using pymatgen
data_CaNdScMnO6
_symmetry_space_group_name_H-M   'P 1'
_cell_length_a   5.49189166
_cell_length_b   5.60120500
_cell_length_c   7.81496263
_cell_angle_alpha   89.99980435
_cell_angle_beta   90.29055610
_cell_angle_gamma   90.00021863
_symmetry_Int_Tables_number   1
_chemical_formula_structural   CaNdScMnO6
_chemical_formula_sum   'Ca2 Nd2 Sc2 Mn2 O12'
_cell_volume   240.39462365
_cell_formula_units_Z   2
loop_
 _symmetry_equiv_pos_site_id
 _symmetry_equiv_pos_as_xyz
  1  'x, y, z'
loop_
 _atom_site_type_symbol
 _atom_site_label
 _atom_site_symmetry_multiplicity
 _atom_site_fract_x
 _atom_site_fract_y
 _atom_site_fract_z
 _atom_site_occupancy
  Ca  Ca0  1  0.489412  0.454857  0.750952  1
  Ca  Ca1  1  0.989412  0.045145  0.250951  1
  Nd  Nd2  1  0.012572  0.952238  0.750052  1
  Nd  Nd3  1  0.512575  0.547763  0.250052  1
  Sc  Sc4  1  0.500347  0.004276  0.499531  1
  Sc  Sc5  1  0.000341  0.495731  0.999516  1
  Mn  Mn6  1  0.500425  0.000927  0.000510  1
  Mn  Mn7  1  0.000428  0.499069  0.500514  1
  O  O8  1  0.087477  0.474691  0.260359  1
  O  O9  1  0.587474  0.025306  0.760363  1
  O  O10  1  0.218986  0.199334  0.954548  1
  O  O11  1  0.718989  0.300665  0.454542  1
  O  O12  1  0.196262  0.217708  0.546633  1
  O  O13  1  0.696257  0.282289  0.046634  1
  O  O14  1  0.301138  0.720107  0.952516  1
  O  O15  1  0.801145  0.779901  0.452516  1
  O  O16  1  0.279860  0.701415  0.545670  1
  O  O17  1  0.779849  0.798582  0.045673  1
  O  O18  1  0.413522  0.975147  0.239236  1
  O  O19  1  0.913527  0.524849  0.739234  1
