# generated using pymatgen
data_PrHg3(Ru2O7)2
_symmetry_space_group_name_H-M   'P 1'
_cell_length_a   7.30716653
_cell_length_b   7.38085485
_cell_length_c   7.30716700
_cell_angle_alpha   60.32971498
_cell_angle_beta   60.00000241
_cell_angle_gamma   60.32971676
_symmetry_Int_Tables_number   1
_chemical_formula_structural   PrHg3(Ru2O7)2
_chemical_formula_sum   'Pr1 Hg3 Ru4 O14'
_cell_volume   280.05040406
_cell_formula_units_Z   1
loop_
 _symmetry_equiv_pos_site_id
 _symmetry_equiv_pos_as_xyz
  1  'x, y, z'
loop_
 _atom_site_type_symbol
 _atom_site_label
 _atom_site_symmetry_multiplicity
 _atom_site_fract_x
 _atom_site_fract_y
 _atom_site_fract_z
 _atom_site_occupancy
  Pr  Pr0  1  0.625000  0.125000  0.625000  1
  Hg  Hg1  1  0.625000  0.625000  0.125000  1
  Hg  Hg2  1  0.125000  0.625000  0.625000  1
  Hg  Hg3  1  0.625000  0.625000  0.625000  1
  Ru  Ru4  1  0.125000  0.125000  0.625000  1
  Ru  Ru5  1  0.125000  0.625000  0.125000  1
  Ru  Ru6  1  0.625000  0.125000  0.125000  1
  Ru  Ru7  1  0.125000  0.125000  0.125000  1
  O  O8  1  0.757658  0.727027  0.757658  1
  O  O9  1  0.492342  0.522973  0.492342  1
  O  O10  1  0.061495  0.436331  0.061495  1
  O  O11  1  0.803546  0.190114  0.803546  1
  O  O12  1  0.047206  0.059886  0.446454  1
  O  O13  1  0.446454  0.059886  0.047206  1
  O  O14  1  0.061495  0.436331  0.440679  1
  O  O15  1  0.440679  0.436331  0.061495  1
  O  O16  1  0.446454  0.059886  0.446454  1
  O  O17  1  0.188505  0.813669  0.809321  1
  O  O18  1  0.803546  0.190114  0.202794  1
  O  O19  1  0.188505  0.813669  0.188505  1
  O  O20  1  0.809321  0.813669  0.188505  1
  O  O21  1  0.202794  0.190114  0.803546  1
