# generated using pymatgen
data_ErGa5Fe6Ge
_symmetry_space_group_name_H-M   'P 1'
_cell_length_a   5.02400952
_cell_length_b   6.54715150
_cell_length_c   6.54715220
_cell_angle_alpha   80.10435690
_cell_angle_beta   67.43825664
_cell_angle_gamma   67.43824847
_symmetry_Int_Tables_number   1
_chemical_formula_structural   ErGa5Fe6Ge
_chemical_formula_sum   'Er1 Ga5 Fe6 Ge1'
_cell_volume   183.57613471
_cell_formula_units_Z   1
loop_
 _symmetry_equiv_pos_site_id
 _symmetry_equiv_pos_as_xyz
  1  'x, y, z'
loop_
 _atom_site_type_symbol
 _atom_site_label
 _atom_site_symmetry_multiplicity
 _atom_site_fract_x
 _atom_site_fract_y
 _atom_site_fract_z
 _atom_site_occupancy
  Er  Er0  1  0.000000  0.002843  0.997157  1
  Ga  Ga1  1  0.000000  0.345747  0.654253  1
  Ga  Ga2  1  0.342625  0.655575  0.659175  1
  Ga  Ga3  1  0.657375  0.340825  0.344425  1
  Ga  Ga4  1  0.320321  0.179153  0.180205  1
  Ga  Ga5  1  0.679679  0.819795  0.820847  1
  Fe  Fe6  1  0.500000  0.243580  0.756420  1
  Fe  Fe7  1  0.500000  0.755250  0.244750  1
  Fe  Fe8  1  0.998808  0.500060  0.001300  1
  Fe  Fe9  1  0.499832  0.500060  0.001300  1
  Fe  Fe10  1  0.001192  0.998700  0.499940  1
  Fe  Fe11  1  0.500168  0.998700  0.499940  1
  Ge  Ge12  1  0.000000  0.659712  0.340288  1
