# generated using pymatgen
data_La6Pr4Zn4Ru5Rh
_symmetry_space_group_name_H-M   'P 1'
_cell_length_a   8.63276906
_cell_length_b   8.66000212
_cell_length_c   8.66000200
_cell_angle_alpha   109.59455506
_cell_angle_beta   109.48926638
_cell_angle_gamma   109.45730974
_symmetry_Int_Tables_number   1
_chemical_formula_structural   La6Pr4Zn4Ru5Rh
_chemical_formula_sum   'La6 Pr4 Zn4 Ru5 Rh1'
_cell_volume   497.59799189
_cell_formula_units_Z   1
loop_
 _symmetry_equiv_pos_site_id
 _symmetry_equiv_pos_as_xyz
  1  'x, y, z'
loop_
 _atom_site_type_symbol
 _atom_site_label
 _atom_site_symmetry_multiplicity
 _atom_site_fract_x
 _atom_site_fract_y
 _atom_site_fract_z
 _atom_site_occupancy
  La  La0  1  0.250000  0.688081  0.438081  1
  La  La1  1  0.750000  0.810467  0.060467  1
  La  La2  1  0.442100  0.252613  0.685937  1
  La  La3  1  0.690552  0.439220  0.251030  1
  La  La4  1  0.057900  0.743837  0.810513  1
  La  La5  1  0.809448  0.060477  0.748668  1
  Pr  Pr6  1  0.219159  0.221391  0.221907  1
  Pr  Pr7  1  0.500186  0.000223  0.278808  1
  Pr  Pr8  1  0.280841  0.502749  0.002232  1
  Pr  Pr9  1  0.999814  0.278623  0.500036  1
  Zn  Zn10  1  0.584943  0.585690  0.584900  1
  Zn  Zn11  1  0.500284  0.998027  0.913663  1
  Zn  Zn12  1  0.915057  0.499959  0.000747  1
  Zn  Zn13  1  0.999716  0.913379  0.497742  1
  Ru  Ru14  1  0.750000  0.377829  0.627829  1
  Ru  Ru15  1  0.872561  0.251337  0.123866  1
  Ru  Ru16  1  0.124127  0.875562  0.250462  1
  Ru  Ru17  1  0.627438  0.751303  0.378775  1
  Ru  Ru18  1  0.375873  0.626335  0.751436  1
  Rh  Rh19  1  0.250000  0.122901  0.872901  1
