# generated using pymatgen
data_La2BeB3Ir4
_symmetry_space_group_name_H-M   'P 1'
_cell_length_a   7.24410393
_cell_length_b   6.32286714
_cell_length_c   5.64001155
_cell_angle_alpha   74.29035879
_cell_angle_beta   56.29068413
_cell_angle_gamma   48.54564866
_symmetry_Int_Tables_number   1
_chemical_formula_structural   La2BeB3Ir4
_chemical_formula_sum   'La2 Be1 B3 Ir4'
_cell_volume   159.11507506
_cell_formula_units_Z   1
loop_
 _symmetry_equiv_pos_site_id
 _symmetry_equiv_pos_as_xyz
  1  'x, y, z'
loop_
 _atom_site_type_symbol
 _atom_site_label
 _atom_site_symmetry_multiplicity
 _atom_site_fract_x
 _atom_site_fract_y
 _atom_site_fract_z
 _atom_site_occupancy
  La  La0  1  0.501387  0.498613  0.501387  1
  La  La1  1  0.749781  0.750219  0.749781  1
  Be  Be2  1  0.178999  0.821001  0.178999  1
  B  B3  1  0.073970  0.426030  0.073970  1
  B  B4  1  0.824044  0.175956  0.824044  1
  B  B5  1  0.426882  0.073118  0.426882  1
  Ir  Ir6  1  0.868393  0.864342  0.124609  1
  Ir  Ir7  1  0.124609  0.142657  0.868393  1
  Ir  Ir8  1  0.387286  0.364981  0.114648  1
  Ir  Ir9  1  0.114648  0.133086  0.387286  1
