# generated using pymatgen
data_ErTm7(Si4W3)4
_symmetry_space_group_name_H-M   'P 1'
_cell_length_a   6.72302406
_cell_length_b   6.90531402
_cell_length_c   12.84537014
_cell_angle_alpha   90.00442734
_cell_angle_beta   90.00120601
_cell_angle_gamma   90.00733951
_symmetry_Int_Tables_number   1
_chemical_formula_structural   ErTm7(Si4W3)4
_chemical_formula_sum   'Er1 Tm7 Si16 W12'
_cell_volume   596.34106458
_cell_formula_units_Z   1
loop_
 _symmetry_equiv_pos_site_id
 _symmetry_equiv_pos_as_xyz
  1  'x, y, z'
loop_
 _atom_site_type_symbol
 _atom_site_label
 _atom_site_symmetry_multiplicity
 _atom_site_fract_x
 _atom_site_fract_y
 _atom_site_fract_z
 _atom_site_occupancy
  Er  Er0  1  0.996211  0.168182  0.093204  1
  Tm  Tm1  1  0.495913  0.331821  0.093233  1
  Tm  Tm2  1  0.995915  0.168219  0.406727  1
  Tm  Tm3  1  0.504088  0.668250  0.593241  1
  Tm  Tm4  1  0.004137  0.831766  0.906647  1
  Tm  Tm5  1  0.504134  0.668143  0.906681  1
  Tm  Tm6  1  0.004065  0.831730  0.593230  1
  Tm  Tm7  1  0.495933  0.331815  0.406886  1
  Si  Si8  1  0.662178  0.040835  0.546643  1
  Si  Si9  1  0.162208  0.459292  0.953251  1
  Si  Si10  1  0.338245  0.958855  0.046565  1
  Si  Si11  1  0.837818  0.540859  0.453395  1
  Si  Si12  1  0.337791  0.959129  0.453424  1
  Si  Si13  1  0.837677  0.541242  0.046550  1
  Si  Si14  1  0.662102  0.040818  0.953238  1
  Si  Si15  1  0.162185  0.459131  0.546633  1
  Si  Si16  1  0.534570  0.371973  0.749927  1
  Si  Si17  1  0.034604  0.128064  0.749992  1
  Si  Si18  1  0.465346  0.628014  0.250070  1
  Si  Si19  1  0.965274  0.871645  0.250128  1
  Si  Si20  1  0.801536  0.635323  0.749927  1
  Si  Si21  1  0.301606  0.864714  0.749969  1
  Si  Si22  1  0.198638  0.365004  0.250183  1
  Si  Si23  1  0.698135  0.135232  0.250135  1
  W  W24  1  0.830614  0.336155  0.625072  1
  W  W25  1  0.330706  0.163906  0.874843  1
  W  W26  1  0.169377  0.663861  0.125090  1
  W  W27  1  0.669303  0.836065  0.374989  1
  W  W28  1  0.169408  0.663850  0.374991  1
  W  W29  1  0.669188  0.835994  0.125184  1
  W  W30  1  0.830522  0.336310  0.874800  1
  W  W31  1  0.330582  0.163886  0.625087  1
  W  W32  1  0.665777  0.998316  0.749955  1
  W  W33  1  0.165709  0.501680  0.749958  1
  W  W34  1  0.334279  0.001482  0.250084  1
  W  W35  1  0.834228  0.498440  0.250066  1
