# generated using pymatgen
data_Tb4CrFe3Br2
_symmetry_space_group_name_H-M   'P 1'
_cell_length_a   3.87391500
_cell_length_b   3.87392813
_cell_length_c   16.89905200
_cell_angle_alpha   89.99979742
_cell_angle_beta   90.00002496
_cell_angle_gamma   119.99888118
_symmetry_Int_Tables_number   1
_chemical_formula_structural   Tb4CrFe3Br2
_chemical_formula_sum   'Tb4 Cr1 Fe3 Br2'
_cell_volume   219.63397283
_cell_formula_units_Z   1
loop_
 _symmetry_equiv_pos_site_id
 _symmetry_equiv_pos_as_xyz
  1  'x, y, z'
loop_
 _atom_site_type_symbol
 _atom_site_label
 _atom_site_symmetry_multiplicity
 _atom_site_fract_x
 _atom_site_fract_y
 _atom_site_fract_z
 _atom_site_occupancy
  Tb  Tb0  1  0.000003  0.999995  0.117611  1
  Tb  Tb1  1  0.999998  0.999986  0.390148  1
  Tb  Tb2  1  0.000000  0.999993  0.609807  1
  Tb  Tb3  1  0.000004  0.000006  0.885079  1
  Cr  Cr4  1  0.666688  0.333358  0.008608  1
  Fe  Fe5  1  0.666661  0.333320  0.494660  1
  Fe  Fe6  1  0.333329  0.666653  0.505147  1
  Fe  Fe7  1  0.333316  0.666697  0.988919  1
  Br  Br8  1  0.333334  0.666661  0.250771  1
  Br  Br9  1  0.666665  0.333328  0.749250  1
