# generated using pymatgen
data_BaAgAs2Pt
_symmetry_space_group_name_H-M   'P 1'
_cell_length_a   4.64784700
_cell_length_b   4.64784700
_cell_length_c   10.52152900
_cell_angle_alpha   90.00000000
_cell_angle_beta   90.00000000
_cell_angle_gamma   90.00000000
_symmetry_Int_Tables_number   1
_chemical_formula_structural   BaAgAs2Pt
_chemical_formula_sum   'Ba2 Ag2 As4 Pt2'
_cell_volume   227.29113805
_cell_formula_units_Z   2
loop_
 _symmetry_equiv_pos_site_id
 _symmetry_equiv_pos_as_xyz
  1  'x, y, z'
loop_
 _atom_site_type_symbol
 _atom_site_label
 _atom_site_symmetry_multiplicity
 _atom_site_fract_x
 _atom_site_fract_y
 _atom_site_fract_z
 _atom_site_occupancy
  Ba  Ba0  1  0.499999  0.499999  0.256729  1
  Ba  Ba1  1  0.000000  0.000000  0.743273  1
  Ag  Ag2  1  0.499999  0.000000  0.000000  1
  Ag  Ag3  1  0.000000  0.499999  0.000000  1
  As  As4  1  0.000000  0.000000  0.147766  1
  As  As5  1  0.499999  0.000000  0.500000  1
  As  As6  1  0.000000  0.499999  0.500000  1
  As  As7  1  0.499999  0.499999  0.852233  1
  Pt  Pt8  1  0.000000  0.000000  0.393100  1
  Pt  Pt9  1  0.499999  0.499999  0.606899  1
