# generated using pymatgen
data_PrNd5Fe2(Co4P3)4
_symmetry_space_group_name_H-M   'P 1'
_cell_length_a   3.76588500
_cell_length_b   10.65444900
_cell_length_c   12.36367400
_cell_angle_alpha   90.00000000
_cell_angle_beta   90.00000000
_cell_angle_gamma   90.00000000
_symmetry_Int_Tables_number   1
_chemical_formula_structural   PrNd5Fe2(Co4P3)4
_chemical_formula_sum   'Pr1 Nd5 Fe2 Co16 P12'
_cell_volume   496.07300423
_cell_formula_units_Z   1
loop_
 _symmetry_equiv_pos_site_id
 _symmetry_equiv_pos_as_xyz
  1  'x, y, z'
loop_
 _atom_site_type_symbol
 _atom_site_label
 _atom_site_symmetry_multiplicity
 _atom_site_fract_x
 _atom_site_fract_y
 _atom_site_fract_z
 _atom_site_occupancy
  Pr  Pr0  1  0.000000  0.500000  0.520888  1
  Nd  Nd1  1  0.500000  0.000000  0.479467  1
  Nd  Nd2  1  0.500000  0.817935  0.205242  1
  Nd  Nd3  1  0.500000  0.182065  0.205242  1
  Nd  Nd4  1  0.000000  0.682208  0.794823  1
  Nd  Nd5  1  0.000000  0.317792  0.794823  1
  Fe  Fe6  1  0.500000  0.500000  0.154725  1
  Fe  Fe7  1  0.000000  0.000000  0.845005  1
  Co  Co8  1  0.500000  0.500000  0.704100  1
  Co  Co9  1  0.000000  0.000000  0.296464  1
  Co  Co10  1  0.000000  0.500000  0.987984  1
  Co  Co11  1  0.500000  0.000000  0.012143  1
  Co  Co12  1  0.500000  0.333223  0.995674  1
  Co  Co13  1  0.500000  0.666777  0.995674  1
  Co  Co14  1  0.000000  0.166613  0.004308  1
  Co  Co15  1  0.000000  0.833387  0.004308  1
  Co  Co16  1  0.500000  0.296056  0.430120  1
  Co  Co17  1  0.500000  0.703944  0.430120  1
  Co  Co18  1  0.000000  0.202588  0.569869  1
  Co  Co19  1  0.000000  0.797412  0.569869  1
  Co  Co20  1  0.500000  0.881106  0.710775  1
  Co  Co21  1  0.500000  0.118894  0.710775  1
  Co  Co22  1  0.000000  0.619221  0.289062  1
  Co  Co23  1  0.000000  0.380779  0.289062  1
  P  P24  1  0.500000  0.500000  0.886679  1
  P  P25  1  0.000000  0.000000  0.113525  1
  P  P26  1  0.500000  0.500000  0.337157  1
  P  P27  1  0.000000  0.000000  0.661922  1
  P  P28  1  0.500000  0.304775  0.614471  1
  P  P29  1  0.500000  0.695225  0.614471  1
  P  P30  1  0.000000  0.193997  0.385701  1
  P  P31  1  0.000000  0.806003  0.385701  1
  P  P32  1  0.500000  0.848438  0.894940  1
  P  P33  1  0.500000  0.151562  0.894940  1
  P  P34  1  0.000000  0.651787  0.104984  1
  P  P35  1  0.000000  0.348213  0.104984  1
