# generated using pymatgen
data_Li2TbNdSi4
_symmetry_space_group_name_H-M   'P 1'
_cell_length_a   3.84426600
_cell_length_b   7.66325152
_cell_length_c   10.35432309
_cell_angle_alpha   89.74011852
_cell_angle_beta   90.00000000
_cell_angle_gamma   90.00000000
_symmetry_Int_Tables_number   1
_chemical_formula_structural   Li2TbNdSi4
_chemical_formula_sum   'Li4 Tb2 Nd2 Si8'
_cell_volume   305.03084334
_cell_formula_units_Z   2
loop_
 _symmetry_equiv_pos_site_id
 _symmetry_equiv_pos_as_xyz
  1  'x, y, z'
loop_
 _atom_site_type_symbol
 _atom_site_label
 _atom_site_symmetry_multiplicity
 _atom_site_fract_x
 _atom_site_fract_y
 _atom_site_fract_z
 _atom_site_occupancy
  Li  Li0  1  0.250000  0.994359  0.389468  1
  Li  Li1  1  0.750000  0.005641  0.610532  1
  Li  Li2  1  0.250000  0.490892  0.107264  1
  Li  Li3  1  0.750000  0.509108  0.892736  1
  Tb  Tb4  1  0.250000  0.135253  0.864788  1
  Tb  Tb5  1  0.750000  0.864747  0.135212  1
  Nd  Nd6  1  0.250000  0.639795  0.636387  1
  Nd  Nd7  1  0.750000  0.360205  0.363613  1
  Si  Si8  1  0.750000  0.266956  0.065480  1
  Si  Si9  1  0.250000  0.733044  0.934520  1
  Si  Si10  1  0.750000  0.776194  0.426189  1
  Si  Si11  1  0.250000  0.223806  0.573811  1
  Si  Si12  1  0.750000  0.842157  0.824911  1
  Si  Si13  1  0.250000  0.157843  0.175089  1
  Si  Si14  1  0.750000  0.334232  0.682451  1
  Si  Si15  1  0.250000  0.665768  0.317549  1
