# generated using pymatgen
data_Tm4Mn4Co15NiP12
_symmetry_space_group_name_H-M   'P 1'
_cell_length_a   3.63933500
_cell_length_b   10.29293504
_cell_length_c   11.79234409
_cell_angle_alpha   89.98763812
_cell_angle_beta   90.00000000
_cell_angle_gamma   90.00000000
_symmetry_Int_Tables_number   1
_chemical_formula_structural   Tm4Mn4Co15NiP12
_chemical_formula_sum   'Tm4 Mn4 Co15 Ni1 P12'
_cell_volume   441.73458096
_cell_formula_units_Z   1
loop_
 _symmetry_equiv_pos_site_id
 _symmetry_equiv_pos_as_xyz
  1  'x, y, z'
loop_
 _atom_site_type_symbol
 _atom_site_label
 _atom_site_symmetry_multiplicity
 _atom_site_fract_x
 _atom_site_fract_y
 _atom_site_fract_z
 _atom_site_occupancy
  Tm  Tm0  1  0.250000  0.582219  0.705330  1
  Tm  Tm1  1  0.250000  0.918710  0.204067  1
  Tm  Tm2  1  0.750000  0.418693  0.294390  1
  Tm  Tm3  1  0.750000  0.081597  0.795949  1
  Mn  Mn4  1  0.250000  0.709503  0.989212  1
  Mn  Mn5  1  0.250000  0.790558  0.488920  1
  Mn  Mn6  1  0.750000  0.289440  0.011655  1
  Mn  Mn7  1  0.750000  0.209001  0.511725  1
  Co  Co8  1  0.250000  0.092745  0.986422  1
  Co  Co9  1  0.750000  0.592508  0.513115  1
  Co  Co10  1  0.750000  0.906600  0.012711  1
  Co  Co11  1  0.250000  0.221153  0.175130  1
  Co  Co12  1  0.250000  0.279390  0.677890  1
  Co  Co13  1  0.750000  0.778252  0.822754  1
  Co  Co14  1  0.750000  0.721742  0.323258  1
  Co  Co15  1  0.250000  0.883416  0.699306  1
  Co  Co16  1  0.250000  0.616235  0.199474  1
  Co  Co17  1  0.750000  0.116547  0.299894  1
  Co  Co18  1  0.750000  0.382934  0.802267  1
  Co  Co19  1  0.250000  0.465512  0.932387  1
  Co  Co20  1  0.250000  0.034584  0.432577  1
  Co  Co21  1  0.750000  0.534620  0.067792  1
  Co  Co22  1  0.750000  0.965537  0.568021  1
  Ni  Ni23  1  0.250000  0.407437  0.486004  1
  P  P24  1  0.250000  0.419081  0.112797  1
  P  P25  1  0.250000  0.080492  0.614176  1
  P  P26  1  0.750000  0.580589  0.886878  1
  P  P27  1  0.750000  0.919421  0.386758  1
  P  P28  1  0.250000  0.267930  0.868876  1
  P  P29  1  0.250000  0.229533  0.364071  1
  P  P30  1  0.750000  0.731845  0.132841  1
  P  P31  1  0.750000  0.768164  0.631939  1
  P  P32  1  0.250000  0.602968  0.390318  1
  P  P33  1  0.250000  0.900806  0.890280  1
  P  P34  1  0.750000  0.400684  0.613002  1
  P  P35  1  0.750000  0.099554  0.107813  1
