# generated using pymatgen
data_Tm16TlCd(Ni2Ag)2
_symmetry_space_group_name_H-M   'P 1'
_cell_length_a   9.40007579
_cell_length_b   9.37841543
_cell_length_c   9.37841434
_cell_angle_alpha   59.97205177
_cell_angle_beta   59.88716919
_cell_angle_gamma   59.88717697
_symmetry_Int_Tables_number   1
_chemical_formula_structural   Tm16TlCd(Ni2Ag)2
_chemical_formula_sum   'Tm16 Tl1 Cd1 Ni4 Ag2'
_cell_volume   583.50017944
_cell_formula_units_Z   1
loop_
 _symmetry_equiv_pos_site_id
 _symmetry_equiv_pos_as_xyz
  1  'x, y, z'
loop_
 _atom_site_type_symbol
 _atom_site_label
 _atom_site_symmetry_multiplicity
 _atom_site_fract_x
 _atom_site_fract_y
 _atom_site_fract_z
 _atom_site_occupancy
  Tm  Tm0  1  0.349423  0.349085  0.349085  1
  Tm  Tm1  1  0.348070  0.349505  0.954294  1
  Tm  Tm2  1  0.348070  0.954294  0.349505  1
  Tm  Tm3  1  0.952061  0.348890  0.348890  1
  Tm  Tm4  1  0.810694  0.189050  0.189050  1
  Tm  Tm5  1  0.188335  0.811297  0.811297  1
  Tm  Tm6  1  0.188781  0.811043  0.188135  1
  Tm  Tm7  1  0.811054  0.188169  0.810795  1
  Tm  Tm8  1  0.188781  0.188135  0.811043  1
  Tm  Tm9  1  0.811054  0.810795  0.188169  1
  Tm  Tm10  1  0.938399  0.563796  0.563796  1
  Tm  Tm11  1  0.562837  0.937083  0.937083  1
  Tm  Tm12  1  0.562909  0.941693  0.563868  1
  Tm  Tm13  1  0.933925  0.564315  0.938558  1
  Tm  Tm14  1  0.562909  0.563868  0.941693  1
  Tm  Tm15  1  0.933925  0.938558  0.564315  1
  Tl  Tl16  1  0.584665  0.582233  0.582233  1
  Cd  Cd17  1  0.257317  0.579064  0.579064  1
  Ni  Ni18  1  0.142607  0.142368  0.142368  1
  Ni  Ni19  1  0.142161  0.142594  0.572092  1
  Ni  Ni20  1  0.142161  0.572092  0.142594  1
  Ni  Ni21  1  0.572786  0.142067  0.142067  1
  Ag  Ag22  1  0.583541  0.581897  0.248113  1
  Ag  Ag23  1  0.583541  0.248113  0.581897  1
