# generated using pymatgen
data_Tm6VFe(Co4P3)4
_symmetry_space_group_name_H-M   'P 1'
_cell_length_a   3.67008900
_cell_length_b   10.49246600
_cell_length_c   12.13510600
_cell_angle_alpha   90.00000000
_cell_angle_beta   90.00000000
_cell_angle_gamma   90.00000000
_symmetry_Int_Tables_number   1
_chemical_formula_structural   Tm6VFe(Co4P3)4
_chemical_formula_sum   'Tm6 V1 Fe1 Co16 P12'
_cell_volume   467.30210882
_cell_formula_units_Z   1
loop_
 _symmetry_equiv_pos_site_id
 _symmetry_equiv_pos_as_xyz
  1  'x, y, z'
loop_
 _atom_site_type_symbol
 _atom_site_label
 _atom_site_symmetry_multiplicity
 _atom_site_fract_x
 _atom_site_fract_y
 _atom_site_fract_z
 _atom_site_occupancy
  Tm  Tm0  1  0.000000  0.500000  0.522624  1
  Tm  Tm1  1  0.500000  0.000000  0.475973  1
  Tm  Tm2  1  0.500000  0.818662  0.203980  1
  Tm  Tm3  1  0.500000  0.181338  0.203980  1
  Tm  Tm4  1  0.000000  0.681262  0.794273  1
  Tm  Tm5  1  0.000000  0.318738  0.794273  1
  V  V6  1  0.000000  0.000000  0.845608  1
  Fe  Fe7  1  0.500000  0.500000  0.157428  1
  Co  Co8  1  0.500000  0.500000  0.702228  1
  Co  Co9  1  0.000000  0.000000  0.299089  1
  Co  Co10  1  0.000000  0.500000  0.986509  1
  Co  Co11  1  0.500000  0.000000  0.013618  1
  Co  Co12  1  0.500000  0.333435  0.993856  1
  Co  Co13  1  0.500000  0.666565  0.993856  1
  Co  Co14  1  0.000000  0.168160  0.007874  1
  Co  Co15  1  0.000000  0.831840  0.007874  1
  Co  Co16  1  0.500000  0.297077  0.431052  1
  Co  Co17  1  0.500000  0.702923  0.431052  1
  Co  Co18  1  0.000000  0.203741  0.568701  1
  Co  Co19  1  0.000000  0.796259  0.568701  1
  Co  Co20  1  0.500000  0.878021  0.707798  1
  Co  Co21  1  0.500000  0.121979  0.707798  1
  Co  Co22  1  0.000000  0.621814  0.291897  1
  Co  Co23  1  0.000000  0.378186  0.291897  1
  P  P24  1  0.500000  0.500000  0.881626  1
  P  P25  1  0.000000  0.000000  0.119319  1
  P  P26  1  0.500000  0.500000  0.344119  1
  P  P27  1  0.000000  0.000000  0.650965  1
  P  P28  1  0.500000  0.312237  0.615867  1
  P  P29  1  0.500000  0.687763  0.615867  1
  P  P30  1  0.000000  0.188697  0.383181  1
  P  P31  1  0.000000  0.811303  0.383181  1
  P  P32  1  0.500000  0.844455  0.892552  1
  P  P33  1  0.500000  0.155545  0.892552  1
  P  P34  1  0.000000  0.651948  0.109417  1
  P  P35  1  0.000000  0.348052  0.109417  1
