# generated using pymatgen
data_ThAl10CoTc
_symmetry_space_group_name_H-M   'P 1'
_cell_length_a   6.87438307
_cell_length_b   6.85704337
_cell_length_c   9.16179200
_cell_angle_alpha   90.00000000
_cell_angle_beta   90.00000000
_cell_angle_gamma   97.46202143
_symmetry_Int_Tables_number   1
_chemical_formula_structural   ThAl10CoTc
_chemical_formula_sum   'Th2 Al20 Co2 Tc2'
_cell_volume   428.21060764
_cell_formula_units_Z   2
loop_
 _symmetry_equiv_pos_site_id
 _symmetry_equiv_pos_as_xyz
  1  'x, y, z'
loop_
 _atom_site_type_symbol
 _atom_site_label
 _atom_site_symmetry_multiplicity
 _atom_site_fract_x
 _atom_site_fract_y
 _atom_site_fract_z
 _atom_site_occupancy
  Th  Th0  1  0.865532  0.116507  0.750000  1
  Th  Th1  1  0.134468  0.883493  0.250000  1
  Al  Al2  1  0.515085  0.772802  0.750000  1
  Al  Al3  1  0.484915  0.227198  0.250000  1
  Al  Al4  1  0.598738  0.863421  0.250000  1
  Al  Al5  1  0.776808  0.769523  0.999228  1
  Al  Al6  1  0.155308  0.834475  0.601552  1
  Al  Al7  1  0.223192  0.230477  0.000772  1
  Al  Al8  1  0.137509  0.412657  0.250000  1
  Al  Al9  1  0.623948  0.378675  0.951142  1
  Al  Al10  1  0.844692  0.165525  0.101552  1
  Al  Al11  1  0.376052  0.621325  0.451142  1
  Al  Al12  1  0.155308  0.834475  0.898448  1
  Al  Al13  1  0.217102  0.479312  0.750000  1
  Al  Al14  1  0.376052  0.621325  0.048858  1
  Al  Al15  1  0.844692  0.165525  0.398448  1
  Al  Al16  1  0.623948  0.378675  0.548858  1
  Al  Al17  1  0.401262  0.136579  0.750000  1
  Al  Al18  1  0.782898  0.520688  0.250000  1
  Al  Al19  1  0.776808  0.769523  0.500772  1
  Al  Al20  1  0.223192  0.230477  0.499228  1
  Al  Al21  1  0.862491  0.587343  0.750000  1
  Co  Co22  1  0.000000  0.500000  0.500000  1
  Co  Co23  1  0.000000  0.500000  0.000000  1
  Tc  Tc24  1  0.500000  0.000000  0.000000  1
  Tc  Tc25  1  0.500000  0.000000  0.500000  1
