# generated using pymatgen
data_Yb2HoErB16
_symmetry_space_group_name_H-M   'P 1'
_cell_length_a   7.10121641
_cell_length_b   7.10877241
_cell_length_c   4.02406900
_cell_angle_alpha   90.00000000
_cell_angle_beta   90.00000000
_cell_angle_gamma   89.96129205
_symmetry_Int_Tables_number   1
_chemical_formula_structural   Yb2HoErB16
_chemical_formula_sum   'Yb2 Ho1 Er1 B16'
_cell_volume   203.13870408
_cell_formula_units_Z   1
loop_
 _symmetry_equiv_pos_site_id
 _symmetry_equiv_pos_as_xyz
  1  'x, y, z'
loop_
 _atom_site_type_symbol
 _atom_site_label
 _atom_site_symmetry_multiplicity
 _atom_site_fract_x
 _atom_site_fract_y
 _atom_site_fract_z
 _atom_site_occupancy
  Yb  Yb0  1  0.183107  0.683108  0.000000  1
  Yb  Yb1  1  0.683117  0.816897  0.000000  1
  Ho  Ho2  1  0.317570  0.182675  0.000000  1
  Er  Er3  1  0.817579  0.317294  0.000000  1
  B  B4  1  0.324378  0.461347  0.500000  1
  B  B5  1  0.676396  0.536913  0.500000  1
  B  B6  1  0.537878  0.323599  0.500000  1
  B  B7  1  0.461954  0.675190  0.500000  1
  B  B8  1  0.999527  0.999041  0.203218  1
  B  B9  1  0.499682  0.500999  0.796776  1
  B  B10  1  0.999527  0.999041  0.796782  1
  B  B11  1  0.499682  0.500999  0.203224  1
  B  B12  1  0.586339  0.086675  0.500000  1
  B  B13  1  0.086194  0.413289  0.500000  1
  B  B14  1  0.913466  0.586080  0.500000  1
  B  B15  1  0.413530  0.913805  0.500000  1
  B  B16  1  0.037632  0.176463  0.500000  1
  B  B17  1  0.176251  0.963001  0.500000  1
  B  B18  1  0.824293  0.038765  0.500000  1
  B  B19  1  0.961898  0.824817  0.500000  1
