# generated using pymatgen
data_Tb4DyIrRh2
_symmetry_space_group_name_H-M   'P 1'
_cell_length_a   10.92256400
_cell_length_b   10.92256400
_cell_length_c   6.38842600
_cell_angle_alpha   90.00000000
_cell_angle_beta   90.00000000
_cell_angle_gamma   90.00000000
_symmetry_Int_Tables_number   1
_chemical_formula_structural   Tb4DyIrRh2
_chemical_formula_sum   'Tb16 Dy4 Ir4 Rh8'
_cell_volume   762.15458171
_cell_formula_units_Z   4
loop_
 _symmetry_equiv_pos_site_id
 _symmetry_equiv_pos_as_xyz
  1  'x, y, z'
loop_
 _atom_site_type_symbol
 _atom_site_label
 _atom_site_symmetry_multiplicity
 _atom_site_fract_x
 _atom_site_fract_y
 _atom_site_fract_z
 _atom_site_occupancy
  Tb  Tb0  1  0.290980  0.089898  0.378286  1
  Tb  Tb1  1  0.290980  0.910102  0.878286  1
  Tb  Tb2  1  0.709020  0.089898  0.878286  1
  Tb  Tb3  1  0.709020  0.910102  0.378286  1
  Tb  Tb4  1  0.588024  0.789880  0.879356  1
  Tb  Tb5  1  0.588024  0.210120  0.379356  1
  Tb  Tb6  1  0.411976  0.789880  0.379356  1
  Tb  Tb7  1  0.411976  0.210120  0.879356  1
  Tb  Tb8  1  0.210120  0.411976  0.620644  1
  Tb  Tb9  1  0.210120  0.588024  0.120644  1
  Tb  Tb10  1  0.789880  0.411976  0.120644  1
  Tb  Tb11  1  0.789880  0.588024  0.620644  1
  Tb  Tb12  1  0.910102  0.709020  0.121714  1
  Tb  Tb13  1  0.910102  0.290980  0.621714  1
  Tb  Tb14  1  0.089898  0.709020  0.621714  1
  Tb  Tb15  1  0.089898  0.290980  0.121714  1
  Dy  Dy16  1  0.000000  0.000000  0.500000  1
  Dy  Dy17  1  0.000000  0.000000  0.000000  1
  Dy  Dy18  1  0.500000  0.500000  0.000000  1
  Dy  Dy19  1  0.500000  0.500000  0.500000  1
  Ir  Ir20  1  0.654185  0.345815  0.750000  1
  Ir  Ir21  1  0.654185  0.654185  0.250000  1
  Ir  Ir22  1  0.345815  0.345815  0.250000  1
  Ir  Ir23  1  0.345815  0.654185  0.750000  1
  Rh  Rh24  1  0.847056  0.152944  0.250000  1
  Rh  Rh25  1  0.847056  0.847056  0.750000  1
  Rh  Rh26  1  0.152944  0.152944  0.750000  1
  Rh  Rh27  1  0.152944  0.847056  0.250000  1
  Rh  Rh28  1  0.500000  0.000000  0.123864  1
  Rh  Rh29  1  0.500000  0.000000  0.623864  1
  Rh  Rh30  1  0.000000  0.500000  0.876136  1
  Rh  Rh31  1  0.000000  0.500000  0.376136  1
