# generated using pymatgen
data_Y20Cd3Tc2Hg3
_symmetry_space_group_name_H-M   'P 1'
_cell_length_a   9.62102200
_cell_length_b   9.62102160
_cell_length_c   9.87536300
_cell_angle_alpha   90.00000000
_cell_angle_beta   90.00000000
_cell_angle_gamma   120.00000138
_symmetry_Int_Tables_number   1
_chemical_formula_structural   Y20Cd3Tc2Hg3
_chemical_formula_sum   'Y20 Cd3 Tc2 Hg3'
_cell_volume   791.63701311
_cell_formula_units_Z   1
loop_
 _symmetry_equiv_pos_site_id
 _symmetry_equiv_pos_as_xyz
  1  'x, y, z'
loop_
 _atom_site_type_symbol
 _atom_site_label
 _atom_site_symmetry_multiplicity
 _atom_site_fract_x
 _atom_site_fract_y
 _atom_site_fract_z
 _atom_site_occupancy
  Y  Y0  1  0.000000  0.000000  0.490252  1
  Y  Y1  1  0.000000  0.000000  0.009748  1
  Y  Y2  1  0.209631  0.790369  0.439903  1
  Y  Y3  1  0.209631  0.419263  0.439903  1
  Y  Y4  1  0.580737  0.790369  0.439903  1
  Y  Y5  1  0.790223  0.209777  0.559186  1
  Y  Y6  1  0.790223  0.580445  0.559186  1
  Y  Y7  1  0.419555  0.209777  0.559186  1
  Y  Y8  1  0.790223  0.209777  0.940814  1
  Y  Y9  1  0.790223  0.580445  0.940814  1
  Y  Y10  1  0.419555  0.209777  0.940814  1
  Y  Y11  1  0.209631  0.790369  0.060097  1
  Y  Y12  1  0.209631  0.419263  0.060097  1
  Y  Y13  1  0.580737  0.790369  0.060097  1
  Y  Y14  1  0.540133  0.459867  0.250000  1
  Y  Y15  1  0.540133  0.080267  0.250000  1
  Y  Y16  1  0.919733  0.459867  0.250000  1
  Y  Y17  1  0.459502  0.540498  0.750000  1
  Y  Y18  1  0.459502  0.919004  0.750000  1
  Y  Y19  1  0.080996  0.540498  0.750000  1
  Cd  Cd20  1  0.113346  0.886654  0.750000  1
  Cd  Cd21  1  0.113346  0.226691  0.750000  1
  Cd  Cd22  1  0.773309  0.886654  0.750000  1
  Tc  Tc23  1  0.333333  0.666667  0.250000  1
  Tc  Tc24  1  0.666667  0.333333  0.750000  1
  Hg  Hg25  1  0.879937  0.120063  0.250000  1
  Hg  Hg26  1  0.879937  0.759875  0.250000  1
  Hg  Hg27  1  0.240125  0.120063  0.250000  1
