# generated using pymatgen
data_Tb2HoTh5(ReC2)4
_symmetry_space_group_name_H-M   'P 1'
_cell_length_a   5.33009200
_cell_length_b   6.66744855
_cell_length_c   9.95492799
_cell_angle_alpha   90.14789987
_cell_angle_beta   90.00000000
_cell_angle_gamma   90.00000000
_symmetry_Int_Tables_number   1
_chemical_formula_structural   Tb2HoTh5(ReC2)4
_chemical_formula_sum   'Tb2 Ho1 Th5 Re4 C8'
_cell_volume   353.77818890
_cell_formula_units_Z   1
loop_
 _symmetry_equiv_pos_site_id
 _symmetry_equiv_pos_as_xyz
  1  'x, y, z'
loop_
 _atom_site_type_symbol
 _atom_site_label
 _atom_site_symmetry_multiplicity
 _atom_site_fract_x
 _atom_site_fract_y
 _atom_site_fract_z
 _atom_site_occupancy
  Tb  Tb0  1  0.750000  0.678171  0.550602  1
  Tb  Tb1  1  0.750000  0.182216  0.947691  1
  Ho  Ho2  1  0.250000  0.323199  0.448265  1
  Th  Th3  1  0.250000  0.470482  0.780395  1
  Th  Th4  1  0.750000  0.028326  0.284789  1
  Th  Th5  1  0.250000  0.973704  0.713378  1
  Th  Th6  1  0.750000  0.524596  0.221366  1
  Th  Th7  1  0.250000  0.814141  0.047491  1
  Re  Re8  1  0.250000  0.273287  0.137711  1
  Re  Re9  1  0.750000  0.229077  0.636046  1
  Re  Re10  1  0.250000  0.772046  0.366061  1
  Re  Re11  1  0.750000  0.729274  0.860676  1
  C  C12  1  0.250000  0.171140  0.948400  1
  C  C13  1  0.750000  0.830497  0.051881  1
  C  C14  1  0.250000  0.670293  0.552252  1
  C  C15  1  0.750000  0.328888  0.448364  1
  C  C16  1  0.250000  0.040566  0.262888  1
  C  C17  1  0.750000  0.462419  0.758624  1
  C  C18  1  0.250000  0.535231  0.244731  1
  C  C19  1  0.750000  0.962447  0.738391  1
