# generated using pymatgen
data_Er3Tm7(CoSb2)2
_symmetry_space_group_name_H-M   'P 1'
_cell_length_a   7.76510800
_cell_length_b   8.71371300
_cell_length_c   12.05067700
_cell_angle_alpha   90.00000000
_cell_angle_beta   90.00000000
_cell_angle_gamma   90.00000000
_symmetry_Int_Tables_number   1
_chemical_formula_structural   Er3Tm7(CoSb2)2
_chemical_formula_sum   'Er6 Tm14 Co4 Sb8'
_cell_volume   815.38402424
_cell_formula_units_Z   2
loop_
 _symmetry_equiv_pos_site_id
 _symmetry_equiv_pos_as_xyz
  1  'x, y, z'
loop_
 _atom_site_type_symbol
 _atom_site_label
 _atom_site_symmetry_multiplicity
 _atom_site_fract_x
 _atom_site_fract_y
 _atom_site_fract_z
 _atom_site_occupancy
  Er  Er0  1  0.550023  0.250000  0.001962  1
  Er  Er1  1  0.050023  0.750000  0.498038  1
  Er  Er2  1  0.622628  0.750000  0.308213  1
  Er  Er3  1  0.122628  0.250000  0.191787  1
  Er  Er4  1  0.377343  0.250000  0.691832  1
  Er  Er5  1  0.877343  0.750000  0.808168  1
  Tm  Tm6  1  0.158069  0.750000  0.204530  1
  Tm  Tm7  1  0.658069  0.250000  0.295470  1
  Tm  Tm8  1  0.842051  0.250000  0.795287  1
  Tm  Tm9  1  0.342051  0.750000  0.704713  1
  Tm  Tm10  1  0.449875  0.750000  0.998093  1
  Tm  Tm11  1  0.949875  0.250000  0.501907  1
  Tm  Tm12  1  0.824133  0.961880  0.065735  1
  Tm  Tm13  1  0.324133  0.038120  0.434265  1
  Tm  Tm14  1  0.175884  0.462238  0.934322  1
  Tm  Tm15  1  0.675884  0.537762  0.565678  1
  Tm  Tm16  1  0.175884  0.037762  0.934322  1
  Tm  Tm17  1  0.675884  0.962238  0.565678  1
  Tm  Tm18  1  0.824133  0.538120  0.065735  1
  Tm  Tm19  1  0.324133  0.461880  0.434265  1
  Co  Co20  1  0.430297  0.750000  0.490639  1
  Co  Co21  1  0.930297  0.250000  0.009361  1
  Co  Co22  1  0.569905  0.250000  0.509408  1
  Co  Co23  1  0.069905  0.750000  0.990592  1
  Sb  Sb24  1  0.931335  0.991653  0.327319  1
  Sb  Sb25  1  0.431335  0.008347  0.172681  1
  Sb  Sb26  1  0.068553  0.491291  0.672693  1
  Sb  Sb27  1  0.568553  0.508709  0.827307  1
  Sb  Sb28  1  0.068553  0.008709  0.672693  1
  Sb  Sb29  1  0.568553  0.991291  0.827307  1
  Sb  Sb30  1  0.931335  0.508347  0.327319  1
  Sb  Sb31  1  0.431335  0.491653  0.172681  1
