# generated using pymatgen
data_Ho16In4CoIrRu2
_symmetry_space_group_name_H-M   'P 1'
_cell_length_a   9.61225750
_cell_length_b   9.57769649
_cell_length_c   9.59985409
_cell_angle_alpha   59.84611056
_cell_angle_beta   59.95725258
_cell_angle_gamma   59.88056241
_symmetry_Int_Tables_number   1
_chemical_formula_structural   Ho16In4CoIrRu2
_chemical_formula_sum   'Ho16 In4 Co1 Ir1 Ru2'
_cell_volume   623.44177556
_cell_formula_units_Z   1
loop_
 _symmetry_equiv_pos_site_id
 _symmetry_equiv_pos_as_xyz
  1  'x, y, z'
loop_
 _atom_site_type_symbol
 _atom_site_label
 _atom_site_symmetry_multiplicity
 _atom_site_fract_x
 _atom_site_fract_y
 _atom_site_fract_z
 _atom_site_occupancy
  Ho  Ho0  1  0.437172  0.441631  0.061085  1
  Ho  Ho1  1  0.655175  0.648338  0.041314  1
  Ho  Ho2  1  0.192254  0.810484  0.190380  1
  Ho  Ho3  1  0.060113  0.441631  0.061085  1
  Ho  Ho4  1  0.190544  0.809974  0.808937  1
  Ho  Ho5  1  0.061354  0.439513  0.437778  1
  Ho  Ho6  1  0.808270  0.195779  0.187681  1
  Ho  Ho7  1  0.654630  0.647931  0.654675  1
  Ho  Ho8  1  0.808270  0.193762  0.810895  1
  Ho  Ho9  1  0.187074  0.193762  0.810895  1
  Ho  Ho10  1  0.042766  0.647931  0.654675  1
  Ho  Ho11  1  0.442219  0.057628  0.057933  1
  Ho  Ho12  1  0.058671  0.059264  0.442170  1
  Ho  Ho13  1  0.651498  0.045624  0.651383  1
  Ho  Ho14  1  0.806882  0.810484  0.190380  1
  Ho  Ho15  1  0.439896  0.059264  0.442170  1
  In  In16  1  0.417186  0.418507  0.417197  1
  In  In17  1  0.416996  0.417887  0.748122  1
  In  In18  1  0.417484  0.747688  0.417345  1
  In  In19  1  0.747111  0.418507  0.417197  1
  Co  Co20  1  0.861456  0.418476  0.858610  1
  Ir  Ir21  1  0.860371  0.858323  0.420933  1
  Ru  Ru22  1  0.420004  0.858808  0.858582  1
  Ru  Ru23  1  0.862604  0.858808  0.858582  1
