# generated using pymatgen
data_V6GaSiIr8
_symmetry_space_group_name_H-M   'P 1'
_cell_length_a   8.73140938
_cell_length_b   8.73140935
_cell_length_c   6.65872000
_cell_angle_alpha   69.32881002
_cell_angle_beta   69.32881262
_cell_angle_gamma   80.61554021
_symmetry_Int_Tables_number   1
_chemical_formula_structural   V6GaSiIr8
_chemical_formula_sum   'V12 Ga2 Si2 Ir16'
_cell_volume   443.95681705
_cell_formula_units_Z   2
loop_
 _symmetry_equiv_pos_site_id
 _symmetry_equiv_pos_as_xyz
  1  'x, y, z'
loop_
 _atom_site_type_symbol
 _atom_site_label
 _atom_site_symmetry_multiplicity
 _atom_site_fract_x
 _atom_site_fract_y
 _atom_site_fract_z
 _atom_site_occupancy
  V  V0  1  0.011880  0.263979  0.281158  1
  V  V1  1  0.263979  0.011880  0.281158  1
  V  V2  1  0.764277  0.516376  0.274937  1
  V  V3  1  0.516376  0.764277  0.274937  1
  V  V4  1  0.123821  0.374069  0.501917  1
  V  V5  1  0.374069  0.123821  0.501917  1
  V  V6  1  0.876179  0.625931  0.498083  1
  V  V7  1  0.625931  0.876179  0.498083  1
  V  V8  1  0.736021  0.988120  0.718842  1
  V  V9  1  0.988120  0.736021  0.718842  1
  V  V10  1  0.483624  0.235723  0.725063  1
  V  V11  1  0.235723  0.483624  0.725063  1
  Ga  Ga12  1  0.621638  0.378362  0.000000  1
  Ga  Ga13  1  0.378362  0.621638  0.000000  1
  Si  Si14  1  0.872206  0.127794  0.000000  1
  Si  Si15  1  0.127794  0.872206  0.000000  1
  Ir  Ir16  1  0.318776  0.318776  0.105029  1
  Ir  Ir17  1  0.046091  0.046091  0.658371  1
  Ir  Ir18  1  0.830289  0.830289  0.092730  1
  Ir  Ir19  1  0.553881  0.553881  0.638318  1
  Ir  Ir20  1  0.446119  0.446119  0.361682  1
  Ir  Ir21  1  0.169711  0.169711  0.907270  1
  Ir  Ir22  1  0.953909  0.953909  0.341629  1
  Ir  Ir23  1  0.681224  0.681224  0.894971  1
  Ir  Ir24  1  0.073234  0.576503  0.098376  1
  Ir  Ir25  1  0.576503  0.073234  0.098376  1
  Ir  Ir26  1  0.800451  0.298270  0.649802  1
  Ir  Ir27  1  0.298270  0.800451  0.649802  1
  Ir  Ir28  1  0.199549  0.701730  0.350198  1
  Ir  Ir29  1  0.701730  0.199549  0.350198  1
  Ir  Ir30  1  0.926766  0.423497  0.901624  1
  Ir  Ir31  1  0.423497  0.926766  0.901624  1
