# generated using pymatgen
data_Er2Sc4Fe15(CoP4)3
_symmetry_space_group_name_H-M   'P 1'
_cell_length_a   3.64324400
_cell_length_b   10.39132580
_cell_length_c   12.01505861
_cell_angle_alpha   89.90079904
_cell_angle_beta   90.00000000
_cell_angle_gamma   90.00000000
_symmetry_Int_Tables_number   1
_chemical_formula_structural   Er2Sc4Fe15(CoP4)3
_chemical_formula_sum   'Er2 Sc4 Fe15 Co3 P12'
_cell_volume   454.86703367
_cell_formula_units_Z   1
loop_
 _symmetry_equiv_pos_site_id
 _symmetry_equiv_pos_as_xyz
  1  'x, y, z'
loop_
 _atom_site_type_symbol
 _atom_site_label
 _atom_site_symmetry_multiplicity
 _atom_site_fract_x
 _atom_site_fract_y
 _atom_site_fract_z
 _atom_site_occupancy
  Er  Er0  1  0.750000  0.250039  0.473456  1
  Er  Er1  1  0.250000  0.749938  0.526590  1
  Sc  Sc2  1  0.250000  0.929461  0.794628  1
  Sc  Sc3  1  0.250000  0.571370  0.794588  1
  Sc  Sc4  1  0.750000  0.070449  0.205377  1
  Sc  Sc5  1  0.750000  0.429684  0.205485  1
  Fe  Fe6  1  0.250000  0.252094  0.846020  1
  Fe  Fe7  1  0.750000  0.749588  0.152564  1
  Fe  Fe8  1  0.750000  0.249501  0.011638  1
  Fe  Fe9  1  0.250000  0.750550  0.987748  1
  Fe  Fe10  1  0.250000  0.421767  0.004393  1
  Fe  Fe11  1  0.250000  0.078750  0.003670  1
  Fe  Fe12  1  0.750000  0.579170  0.995566  1
  Fe  Fe13  1  0.750000  0.921923  0.995762  1
  Fe  Fe14  1  0.250000  0.451395  0.572115  1
  Fe  Fe15  1  0.250000  0.047284  0.570257  1
  Fe  Fe16  1  0.750000  0.547453  0.429904  1
  Fe  Fe17  1  0.750000  0.951407  0.429130  1
  Fe  Fe18  1  0.250000  0.869358  0.290145  1
  Fe  Fe19  1  0.250000  0.629918  0.290450  1
  Fe  Fe20  1  0.750000  0.130309  0.709594  1
  Co  Co21  1  0.250000  0.249847  0.297042  1
  Co  Co22  1  0.750000  0.749650  0.702876  1
  Co  Co23  1  0.750000  0.370481  0.711236  1
  P  P24  1  0.250000  0.249829  0.118089  1
  P  P25  1  0.750000  0.750774  0.881842  1
  P  P26  1  0.250000  0.247670  0.656640  1
  P  P27  1  0.750000  0.749426  0.341924  1
  P  P28  1  0.250000  0.440915  0.382907  1
  P  P29  1  0.250000  0.058078  0.382140  1
  P  P30  1  0.750000  0.559086  0.617397  1
  P  P31  1  0.750000  0.941477  0.617819  1
  P  P32  1  0.250000  0.901908  0.112049  1
  P  P33  1  0.250000  0.597948  0.112286  1
  P  P34  1  0.750000  0.098207  0.887434  1
  P  P35  1  0.750000  0.403296  0.889236  1
