# generated using pymatgen
data_TbY2Al3Ge2Os
_symmetry_space_group_name_H-M   'P 1'
_cell_length_a   6.98777800
_cell_length_b   6.99616307
_cell_length_c   4.25921200
_cell_angle_alpha   90.00000000
_cell_angle_beta   90.00000000
_cell_angle_gamma   119.96037050
_symmetry_Int_Tables_number   1
_chemical_formula_structural   TbY2Al3Ge2Os
_chemical_formula_sum   'Tb1 Y2 Al3 Ge2 Os1'
_cell_volume   180.39820071
_cell_formula_units_Z   1
loop_
 _symmetry_equiv_pos_site_id
 _symmetry_equiv_pos_as_xyz
  1  'x, y, z'
loop_
 _atom_site_type_symbol
 _atom_site_label
 _atom_site_symmetry_multiplicity
 _atom_site_fract_x
 _atom_site_fract_y
 _atom_site_fract_z
 _atom_site_occupancy
  Tb  Tb0  1  0.417560  0.000000  0.000000  1
  Y  Y1  1  0.000005  0.417764  0.000000  1
  Y  Y2  1  0.582240  0.582236  0.000000  1
  Al  Al3  1  0.775657  0.000000  0.499999  1
  Al  Al4  1  0.224590  0.225097  0.499999  1
  Al  Al5  1  0.999494  0.774903  0.499999  1
  Ge  Ge6  1  0.666602  0.333520  0.499999  1
  Ge  Ge7  1  0.333082  0.666480  0.499999  1
  Os  Os8  1  0.000770  0.000000  0.000000  1
