# generated using pymatgen
data_Li5NpO6
_symmetry_space_group_name_H-M   'P 1'
_cell_length_a   5.31874603
_cell_length_b   5.31875314
_cell_length_c   5.15273000
_cell_angle_alpha   100.26577747
_cell_angle_beta   100.26642631
_cell_angle_gamma   119.78263903
_symmetry_Int_Tables_number   1
_chemical_formula_structural   Li5NpO6
_chemical_formula_sum   'Li5 Np1 O6'
_cell_volume   118.25932228
_cell_formula_units_Z   1
loop_
 _symmetry_equiv_pos_site_id
 _symmetry_equiv_pos_as_xyz
  1  'x, y, z'
loop_
 _atom_site_type_symbol
 _atom_site_label
 _atom_site_symmetry_multiplicity
 _atom_site_fract_x
 _atom_site_fract_y
 _atom_site_fract_z
 _atom_site_occupancy
  Li  Li0  1  0.831977  0.168013  0.000000  1
  Li  Li1  1  0.499802  0.500182  0.999993  1
  Li  Li2  1  0.982802  0.017196  0.500003  1
  Li  Li3  1  0.668352  0.331670  0.499984  1
  Li  Li4  1  0.351949  0.648039  0.499996  1
  Np  Np5  1  0.166265  0.833719  0.000007  1
  O  O6  1  0.562829  0.915481  0.243798  1
  O  O7  1  0.932871  0.600261  0.228693  1
  O  O8  1  0.247596  0.228713  0.246245  1
  O  O9  1  0.771313  0.752413  0.753771  1
  O  O10  1  0.399715  0.067112  0.771306  1
  O  O11  1  0.084535  0.437205  0.756213  1
