# generated using pymatgen
data_Ho4AlFe3B16
_symmetry_space_group_name_H-M   'P 1'
_cell_length_a   3.40935400
_cell_length_b   5.90650781
_cell_length_c   11.41718502
_cell_angle_alpha   90.10097810
_cell_angle_beta   90.00000000
_cell_angle_gamma   90.00000000
_symmetry_Int_Tables_number   1
_chemical_formula_structural   Ho4AlFe3B16
_chemical_formula_sum   'Ho4 Al1 Fe3 B16'
_cell_volume   229.91179081
_cell_formula_units_Z   1
loop_
 _symmetry_equiv_pos_site_id
 _symmetry_equiv_pos_as_xyz
  1  'x, y, z'
loop_
 _atom_site_type_symbol
 _atom_site_label
 _atom_site_symmetry_multiplicity
 _atom_site_fract_x
 _atom_site_fract_y
 _atom_site_fract_z
 _atom_site_occupancy
  Ho  Ho0  1  0.000000  0.628322  0.351415  1
  Ho  Ho1  1  0.000000  0.373118  0.649628  1
  Ho  Ho2  1  0.000000  0.125130  0.151679  1
  Ho  Ho3  1  0.000000  0.876139  0.847275  1
  Al  Al4  1  0.000000  0.631663  0.086511  1
  Fe  Fe5  1  0.000000  0.373996  0.912856  1
  Fe  Fe6  1  0.000000  0.133679  0.417056  1
  Fe  Fe7  1  0.000000  0.864834  0.588390  1
  B  B8  1  0.500000  0.788248  0.188292  1
  B  B9  1  0.500000  0.217414  0.815791  1
  B  B10  1  0.500000  0.279875  0.316375  1
  B  B11  1  0.500000  0.717713  0.683087  1
  B  B12  1  0.500000  0.866491  0.029920  1
  B  B13  1  0.500000  0.138144  0.966181  1
  B  B14  1  0.500000  0.360843  0.468106  1
  B  B15  1  0.500000  0.638306  0.531872  1
  B  B16  1  0.500000  0.888587  0.454312  1
  B  B17  1  0.500000  0.111070  0.546500  1
  B  B18  1  0.500000  0.382449  0.043655  1
  B  B19  1  0.500000  0.609693  0.949946  1
  B  B20  1  0.500000  0.977349  0.310166  1
  B  B21  1  0.500000  0.024259  0.690020  1
  B  B22  1  0.500000  0.470879  0.192816  1
  B  B23  1  0.500000  0.521797  0.808150  1
