# generated using pymatgen
data_Dy3Mg2CdGa2Ag
_symmetry_space_group_name_H-M   'P 1'
_cell_length_a   7.39375900
_cell_length_b   7.39036025
_cell_length_c   4.36054500
_cell_angle_alpha   90.00000000
_cell_angle_beta   90.00000000
_cell_angle_gamma   120.01521865
_symmetry_Int_Tables_number   1
_chemical_formula_structural   Dy3Mg2CdGa2Ag
_chemical_formula_sum   'Dy3 Mg2 Cd1 Ga2 Ag1'
_cell_volume   206.31731788
_cell_formula_units_Z   1
loop_
 _symmetry_equiv_pos_site_id
 _symmetry_equiv_pos_as_xyz
  1  'x, y, z'
loop_
 _atom_site_type_symbol
 _atom_site_label
 _atom_site_symmetry_multiplicity
 _atom_site_fract_x
 _atom_site_fract_y
 _atom_site_fract_z
 _atom_site_occupancy
  Dy  Dy0  1  0.574813  0.000000  0.000000  1
  Dy  Dy1  1  0.999834  0.578509  0.000000  1
  Dy  Dy2  1  0.421325  0.421491  0.000000  1
  Mg  Mg3  1  0.001294  0.245372  0.500000  1
  Mg  Mg4  1  0.755922  0.754628  0.500000  1
  Cd  Cd5  1  0.250773  0.000000  0.500000  1
  Ga  Ga6  1  0.333165  0.663715  0.500000  1
  Ga  Ga7  1  0.669451  0.336285  0.500000  1
  Ag  Ag8  1  0.993422  0.000000  0.000000  1
