# generated using pymatgen
data_Tb2YEr2Sb3
_symmetry_space_group_name_H-M   'P 1'
_cell_length_a   8.99200136
_cell_length_b   9.00055141
_cell_length_c   6.27859000
_cell_angle_alpha   90.00000000
_cell_angle_beta   90.00000000
_cell_angle_gamma   120.03146004
_symmetry_Int_Tables_number   1
_chemical_formula_structural   Tb2YEr2Sb3
_chemical_formula_sum   'Tb4 Y2 Er4 Sb6'
_cell_volume   439.92685335
_cell_formula_units_Z   2
loop_
 _symmetry_equiv_pos_site_id
 _symmetry_equiv_pos_as_xyz
  1  'x, y, z'
loop_
 _atom_site_type_symbol
 _atom_site_label
 _atom_site_symmetry_multiplicity
 _atom_site_fract_x
 _atom_site_fract_y
 _atom_site_fract_z
 _atom_site_occupancy
  Tb  Tb0  1  0.752581  0.752537  0.250000  1
  Tb  Tb1  1  0.752581  0.000044  0.750000  1
  Tb  Tb2  1  0.247419  0.247463  0.750000  1
  Tb  Tb3  1  0.247419  0.999956  0.250000  1
  Y  Y4  1  0.000000  0.752465  0.750000  1
  Y  Y5  1  0.000000  0.247535  0.250000  1
  Er  Er6  1  0.333401  0.666701  0.500000  1
  Er  Er7  1  0.666599  0.333299  0.000000  1
  Er  Er8  1  0.666599  0.333299  0.500000  1
  Er  Er9  1  0.333401  0.666701  0.000000  1
  Sb  Sb10  1  0.389202  0.999889  0.750000  1
  Sb  Sb11  1  0.389202  0.389313  0.250000  1
  Sb  Sb12  1  0.000000  0.610566  0.250000  1
  Sb  Sb13  1  0.000000  0.389434  0.750000  1
  Sb  Sb14  1  0.610798  0.610687  0.750000  1
  Sb  Sb15  1  0.610798  0.000111  0.250000  1
