# generated using pymatgen
data_K11Rb(AsSe4)4
_symmetry_space_group_name_H-M   'P 1'
_cell_length_a   9.64671233
_cell_length_b   10.21751215
_cell_length_c   11.04629300
_cell_angle_alpha   90.00000000
_cell_angle_beta   90.00000000
_cell_angle_gamma   89.72427150
_symmetry_Int_Tables_number   1
_chemical_formula_structural   K11Rb(AsSe4)4
_chemical_formula_sum   'K11 Rb1 As4 Se16'
_cell_volume   1088.76968580
_cell_formula_units_Z   1
loop_
 _symmetry_equiv_pos_site_id
 _symmetry_equiv_pos_as_xyz
  1  'x, y, z'
loop_
 _atom_site_type_symbol
 _atom_site_label
 _atom_site_symmetry_multiplicity
 _atom_site_fract_x
 _atom_site_fract_y
 _atom_site_fract_z
 _atom_site_occupancy
  K  K0  1  0.134563  0.077120  0.750000  1
  K  K1  1  0.362870  0.578846  0.250000  1
  K  K2  1  0.863881  0.923385  0.250000  1
  K  K3  1  0.570732  0.194950  0.047531  1
  K  K4  1  0.073213  0.305460  0.453218  1
  K  K5  1  0.427188  0.804633  0.548288  1
  K  K6  1  0.928759  0.696365  0.955126  1
  K  K7  1  0.427188  0.804633  0.951712  1
  K  K8  1  0.928759  0.696365  0.544874  1
  K  K9  1  0.570732  0.194950  0.452469  1
  K  K10  1  0.073213  0.305460  0.046782  1
  Rb  Rb11  1  0.652093  0.414908  0.750000  1
  As  As12  1  0.726888  0.975509  0.750000  1
  As  As13  1  0.229858  0.524736  0.750000  1
  As  As14  1  0.270774  0.023990  0.250000  1
  As  As15  1  0.770848  0.476489  0.250000  1
  Se  Se16  1  0.855257  0.026335  0.572446  1
  Se  Se17  1  0.357853  0.477314  0.928313  1
  Se  Se18  1  0.141548  0.976407  0.072694  1
  Se  Se19  1  0.641270  0.524630  0.427143  1
  Se  Se20  1  0.141548  0.976407  0.427306  1
  Se  Se21  1  0.641270  0.524630  0.072857  1
  Se  Se22  1  0.855257  0.026335  0.927554  1
  Se  Se23  1  0.357853  0.477314  0.571687  1
  Se  Se24  1  0.677788  0.750485  0.750000  1
  Se  Se25  1  0.172296  0.749015  0.750000  1
  Se  Se26  1  0.324953  0.248379  0.250000  1
  Se  Se27  1  0.826258  0.251778  0.250000  1
  Se  Se28  1  0.512468  0.091340  0.750000  1
  Se  Se29  1  0.021529  0.401618  0.750000  1
  Se  Se30  1  0.480826  0.901909  0.250000  1
  Se  Se31  1  0.980468  0.598306  0.250000  1
