# generated using pymatgen
data_Li3Tb2GdSn3
_symmetry_space_group_name_H-M   'P 1'
_cell_length_a   7.32503700
_cell_length_b   7.32751535
_cell_length_c   4.61165600
_cell_angle_alpha   90.00000000
_cell_angle_beta   90.00000000
_cell_angle_gamma   119.98880774
_symmetry_Int_Tables_number   1
_chemical_formula_structural   Li3Tb2GdSn3
_chemical_formula_sum   'Li3 Tb2 Gd1 Sn3'
_cell_volume   214.38927927
_cell_formula_units_Z   1
loop_
 _symmetry_equiv_pos_site_id
 _symmetry_equiv_pos_as_xyz
  1  'x, y, z'
loop_
 _atom_site_type_symbol
 _atom_site_label
 _atom_site_symmetry_multiplicity
 _atom_site_fract_x
 _atom_site_fract_y
 _atom_site_fract_z
 _atom_site_occupancy
  Li  Li0  1  0.769579  0.000000  0.500000  1
  Li  Li1  1  0.230427  0.230459  0.500000  1
  Li  Li2  1  0.999967  0.769539  0.500000  1
  Tb  Tb3  1  0.000005  0.438942  0.000000  1
  Tb  Tb4  1  0.561062  0.561057  0.000000  1
  Gd  Gd5  1  0.439028  0.000000  0.000000  1
  Sn  Sn6  1  0.999869  0.000000  0.000000  1
  Sn  Sn7  1  0.666803  0.333544  0.500000  1
  Sn  Sn8  1  0.333259  0.666456  0.500000  1
