# generated using pymatgen
data_YErTaB2Ru5
_symmetry_space_group_name_H-M   'P 1'
_cell_length_a   9.66610278
_cell_length_b   9.66610278
_cell_length_c   3.12945800
_cell_angle_alpha   90.00000000
_cell_angle_beta   90.00000000
_cell_angle_gamma   90.23759789
_symmetry_Int_Tables_number   1
_chemical_formula_structural   YErTaB2Ru5
_chemical_formula_sum   'Y2 Er2 Ta2 B4 Ru10'
_cell_volume   292.39383424
_cell_formula_units_Z   2
loop_
 _symmetry_equiv_pos_site_id
 _symmetry_equiv_pos_as_xyz
  1  'x, y, z'
loop_
 _atom_site_type_symbol
 _atom_site_label
 _atom_site_symmetry_multiplicity
 _atom_site_fract_x
 _atom_site_fract_y
 _atom_site_fract_z
 _atom_site_occupancy
  Y  Y0  1  0.824713  0.675287  0.000000  1
  Y  Y1  1  0.175287  0.324713  0.000000  1
  Er  Er2  1  0.325253  0.825253  0.000000  1
  Er  Er3  1  0.674747  0.174747  0.000000  1
  Ta  Ta4  1  0.500000  0.500000  0.000000  1
  Ta  Ta5  1  0.000000  0.000000  0.000000  1
  B  B6  1  0.620196  0.879804  0.000000  1
  B  B7  1  0.379804  0.120196  0.000000  1
  B  B8  1  0.120808  0.620808  0.000000  1
  B  B9  1  0.879192  0.379192  0.000000  1
  Ru  Ru10  1  0.568950  0.718791  0.500000  1
  Ru  Ru11  1  0.431050  0.281209  0.500000  1
  Ru  Ru12  1  0.072513  0.782155  0.500000  1
  Ru  Ru13  1  0.927487  0.217845  0.500000  1
  Ru  Ru14  1  0.282155  0.572513  0.500000  1
  Ru  Ru15  1  0.717845  0.427487  0.500000  1
  Ru  Ru16  1  0.218791  0.068950  0.500000  1
  Ru  Ru17  1  0.781209  0.931050  0.500000  1
  Ru  Ru18  1  0.500000  0.000000  0.500000  1
  Ru  Ru19  1  0.000000  0.500000  0.500000  1
