# generated using pymatgen
data_La11Hg9Pt4
_symmetry_space_group_name_H-M   'P 1'
_cell_length_a   13.76101440
_cell_length_b   13.76101456
_cell_length_c   3.84912100
_cell_angle_alpha   90.00000000
_cell_angle_beta   90.00000000
_cell_angle_gamma   112.82149536
_symmetry_Int_Tables_number   1
_chemical_formula_structural   La11Hg9Pt4
_chemical_formula_sum   'La11 Hg9 Pt4'
_cell_volume   671.83155305
_cell_formula_units_Z   1
loop_
 _symmetry_equiv_pos_site_id
 _symmetry_equiv_pos_as_xyz
  1  'x, y, z'
loop_
 _atom_site_type_symbol
 _atom_site_label
 _atom_site_symmetry_multiplicity
 _atom_site_fract_x
 _atom_site_fract_y
 _atom_site_fract_z
 _atom_site_occupancy
  La  La0  1  0.309391  0.309391  0.000000  1
  La  La1  1  0.690609  0.690609  0.000000  1
  La  La2  1  0.000000  0.000000  0.000000  1
  La  La3  1  0.075774  0.417469  0.000000  1
  La  La4  1  0.924226  0.582531  0.000000  1
  La  La5  1  0.417469  0.075774  0.000000  1
  La  La6  1  0.582531  0.924226  0.000000  1
  La  La7  1  0.833620  0.166380  0.000000  1
  La  La8  1  0.166380  0.833620  0.000000  1
  La  La9  1  0.626433  0.373567  0.000000  1
  La  La10  1  0.373567  0.626433  0.000000  1
  Hg  Hg11  1  0.838456  0.365929  0.500000  1
  Hg  Hg12  1  0.161544  0.634071  0.500000  1
  Hg  Hg13  1  0.365929  0.838456  0.500000  1
  Hg  Hg14  1  0.634071  0.161544  0.500000  1
  Hg  Hg15  1  0.070513  0.214053  0.500000  1
  Hg  Hg16  1  0.929487  0.785947  0.500000  1
  Hg  Hg17  1  0.214053  0.070513  0.500000  1
  Hg  Hg18  1  0.785947  0.929487  0.500000  1
  Hg  Hg19  1  0.500000  0.500000  0.500000  1
  Pt  Pt20  1  0.248219  0.449884  0.500000  1
  Pt  Pt21  1  0.751781  0.550116  0.500000  1
  Pt  Pt22  1  0.449884  0.248219  0.500000  1
  Pt  Pt23  1  0.550116  0.751781  0.500000  1
