# generated using pymatgen
data_Tc2Os3Ru2Rh
_symmetry_space_group_name_H-M   'P 1'
_cell_length_a   5.50031600
_cell_length_b   5.50333541
_cell_length_c   4.33516600
_cell_angle_alpha   90.00000000
_cell_angle_beta   90.00000000
_cell_angle_gamma   119.98186447
_symmetry_Int_Tables_number   1
_chemical_formula_structural   Tc2Os3Ru2Rh
_chemical_formula_sum   'Tc2 Os3 Ru2 Rh1'
_cell_volume   113.66567182
_cell_formula_units_Z   1
loop_
 _symmetry_equiv_pos_site_id
 _symmetry_equiv_pos_as_xyz
  1  'x, y, z'
loop_
 _atom_site_type_symbol
 _atom_site_label
 _atom_site_symmetry_multiplicity
 _atom_site_fract_x
 _atom_site_fract_y
 _atom_site_fract_z
 _atom_site_occupancy
  Tc  Tc0  1  0.333028  0.666057  0.750000  1
  Tc  Tc1  1  0.663405  0.326807  0.250000  1
  Os  Os2  1  0.664631  0.836718  0.250000  1
  Os  Os3  1  0.172087  0.836718  0.250000  1
  Os  Os4  1  0.832399  0.664797  0.750000  1
  Ru  Ru5  1  0.334165  0.168600  0.750000  1
  Ru  Ru6  1  0.834436  0.168600  0.750000  1
  Rh  Rh7  1  0.165850  0.331700  0.250000  1
