# generated using pymatgen
data_Dy3Ho3(Ga2Si3)2
_symmetry_space_group_name_H-M   'P 1'
_cell_length_a   5.91919774
_cell_length_b   5.91919760
_cell_length_c   9.35876403
_cell_angle_alpha   90.00529202
_cell_angle_beta   90.00528986
_cell_angle_gamma   102.86481509
_symmetry_Int_Tables_number   1
_chemical_formula_structural   Dy3Ho3(Ga2Si3)2
_chemical_formula_sum   'Dy3 Ho3 Ga4 Si6'
_cell_volume   319.67112248
_cell_formula_units_Z   1
loop_
 _symmetry_equiv_pos_site_id
 _symmetry_equiv_pos_as_xyz
  1  'x, y, z'
loop_
 _atom_site_type_symbol
 _atom_site_label
 _atom_site_symmetry_multiplicity
 _atom_site_fract_x
 _atom_site_fract_y
 _atom_site_fract_z
 _atom_site_occupancy
  Dy  Dy0  1  0.801274  0.198726  0.000000  1
  Dy  Dy1  1  0.198736  0.801264  0.000000  1
  Dy  Dy2  1  0.198672  0.801328  0.500000  1
  Ho  Ho3  1  0.659108  0.659107  0.250041  1
  Ho  Ho4  1  0.340893  0.340892  0.749959  1
  Ho  Ho5  1  0.801362  0.198638  0.500000  1
  Ga  Ga6  1  0.320549  0.320530  0.054217  1
  Ga  Ga7  1  0.679470  0.679451  0.945783  1
  Ga  Ga8  1  0.679480  0.679488  0.554176  1
  Ga  Ga9  1  0.320512  0.320520  0.445824  1
  Si  Si10  1  0.093170  0.486428  0.250083  1
  Si  Si11  1  0.906669  0.513274  0.749843  1
  Si  Si12  1  0.486726  0.093331  0.250157  1
  Si  Si13  1  0.513572  0.906830  0.749917  1
  Si  Si14  1  0.054124  0.054318  0.250133  1
  Si  Si15  1  0.945682  0.945876  0.749867  1
