# generated using pymatgen
data_Y4Al18NiOs4Pd
_symmetry_space_group_name_H-M   'P 1'
_cell_length_a   7.56456350
_cell_length_b   7.56456297
_cell_length_c   9.57518033
_cell_angle_alpha   90.16933475
_cell_angle_beta   90.16933655
_cell_angle_gamma   119.75714845
_symmetry_Int_Tables_number   1
_chemical_formula_structural   Y4Al18NiOs4Pd
_chemical_formula_sum   'Y4 Al18 Ni1 Os4 Pd1'
_cell_volume   475.65860824
_cell_formula_units_Z   1
loop_
 _symmetry_equiv_pos_site_id
 _symmetry_equiv_pos_as_xyz
  1  'x, y, z'
loop_
 _atom_site_type_symbol
 _atom_site_label
 _atom_site_symmetry_multiplicity
 _atom_site_fract_x
 _atom_site_fract_y
 _atom_site_fract_z
 _atom_site_occupancy
  Y  Y0  1  0.996306  0.668247  0.248937  1
  Y  Y1  1  0.003694  0.331753  0.751063  1
  Y  Y2  1  0.668247  0.996306  0.248937  1
  Y  Y3  1  0.331753  0.003694  0.751063  1
  Al  Al4  1  0.128171  0.128171  0.243672  1
  Al  Al5  1  0.871829  0.871829  0.756328  1
  Al  Al6  1  0.001716  0.333713  0.070815  1
  Al  Al7  1  0.998284  0.666287  0.929185  1
  Al  Al8  1  0.997161  0.660722  0.573524  1
  Al  Al9  1  0.339278  0.002839  0.426476  1
  Al  Al10  1  0.002839  0.339278  0.426476  1
  Al  Al11  1  0.660722  0.997161  0.573524  1
  Al  Al12  1  0.666287  0.998284  0.929185  1
  Al  Al13  1  0.333713  0.001716  0.070815  1
  Al  Al14  1  0.339760  0.339760  0.548966  1
  Al  Al15  1  0.660240  0.660240  0.451034  1
  Al  Al16  1  0.665589  0.665589  0.045521  1
  Al  Al17  1  0.334411  0.334411  0.954479  1
  Al  Al18  1  0.336040  0.547637  0.249111  1
  Al  Al19  1  0.663960  0.452363  0.750889  1
  Al  Al20  1  0.547637  0.336040  0.249111  1
  Al  Al21  1  0.452363  0.663960  0.750889  1
  Ni  Ni22  1  0.000000  0.000000  0.000000  1
  Os  Os23  1  0.672465  0.327535  0.000000  1
  Os  Os24  1  0.327535  0.672465  0.000000  1
  Os  Os25  1  0.327384  0.672616  0.500000  1
  Os  Os26  1  0.672616  0.327384  0.500000  1
  Pd  Pd27  1  0.000000  0.000000  0.500000  1
