# generated using pymatgen
data_OsS27
_symmetry_space_group_name_H-M   'P 1'
_cell_length_a   15.12489388
_cell_length_b   15.10694062
_cell_length_c   15.09538148
_cell_angle_alpha   118.55791430
_cell_angle_beta   118.70608457
_cell_angle_gamma   118.84564492
_symmetry_Int_Tables_number   1
_chemical_formula_structural   OsS27
_chemical_formula_sum   'Os1 S27'
_cell_volume   1014.14850293
_cell_formula_units_Z   1
loop_
 _symmetry_equiv_pos_site_id
 _symmetry_equiv_pos_as_xyz
  1  'x, y, z'
loop_
 _atom_site_type_symbol
 _atom_site_label
 _atom_site_symmetry_multiplicity
 _atom_site_fract_x
 _atom_site_fract_y
 _atom_site_fract_z
 _atom_site_occupancy
  Os  Os0  1  0.945749  0.945894  0.946134  1
  S  S1  1  0.803228  0.520522  0.520445  1
  S  S2  1  0.522102  0.522212  0.804705  1
  S  S3  1  0.521159  0.803822  0.521183  1
  S  S4  1  0.247596  0.376752  0.636676  1
  S  S5  1  0.351977  0.950735  0.351688  1
  S  S6  1  0.351500  0.351349  0.950133  1
  S  S7  1  0.951076  0.352137  0.352020  1
  S  S8  1  0.127171  0.739509  0.256363  1
  S  S9  1  0.256216  0.127164  0.739323  1
  S  S10  1  0.739759  0.256617  0.127491  1
  S  S11  1  0.739665  0.127317  0.256587  1
  S  S12  1  0.256484  0.739611  0.127459  1
  S  S13  1  0.127043  0.256131  0.739292  1
  S  S14  1  0.346289  0.878334  0.528791  1
  S  S15  1  0.529284  0.346596  0.878671  1
  S  S16  1  0.878167  0.528595  0.345891  1
  S  S17  1  0.878185  0.346052  0.528586  1
  S  S18  1  0.528940  0.878460  0.346230  1
  S  S19  1  0.346557  0.529222  0.878596  1
  S  S20  1  0.246672  0.635956  0.375900  1
  S  S21  1  0.376673  0.247730  0.636631  1
  S  S22  1  0.635285  0.375103  0.245917  1
  S  S23  1  0.635476  0.246047  0.375285  1
  S  S24  1  0.375765  0.635809  0.246777  1
  S  S25  1  0.841260  0.980000  0.980450  1
  S  S26  1  0.983979  0.984160  0.845329  1
  S  S27  1  0.982043  0.843457  0.982743  1
