# generated using pymatgen
data_LiZr2ScIr4
_symmetry_space_group_name_H-M   'P 1'
_cell_length_a   4.54204407
_cell_length_b   6.49715300
_cell_length_c   13.57632115
_cell_angle_alpha   90.00000000
_cell_angle_beta   89.99852993
_cell_angle_gamma   90.00000000
_symmetry_Int_Tables_number   1
_chemical_formula_structural   LiZr2ScIr4
_chemical_formula_sum   'Li3 Zr6 Sc3 Ir12'
_cell_volume   400.64205993
_cell_formula_units_Z   3
loop_
 _symmetry_equiv_pos_site_id
 _symmetry_equiv_pos_as_xyz
  1  'x, y, z'
loop_
 _atom_site_type_symbol
 _atom_site_label
 _atom_site_symmetry_multiplicity
 _atom_site_fract_x
 _atom_site_fract_y
 _atom_site_fract_z
 _atom_site_occupancy
  Li  Li0  1  0.499993  0.500001  0.501310  1
  Li  Li1  1  0.000011  0.000000  0.666656  1
  Li  Li2  1  0.500011  0.500001  0.831951  1
  Zr  Zr3  1  0.000009  0.500001  0.990259  1
  Zr  Zr4  1  0.499993  0.000000  0.166678  1
  Zr  Zr5  1  0.999977  0.500001  0.343086  1
  Zr  Zr6  1  0.499986  0.000000  0.510170  1
  Zr  Zr7  1  0.000017  0.500001  0.666661  1
  Zr  Zr8  1  0.500019  0.000000  0.823147  1
  Sc  Sc9  1  0.000007  0.000000  0.995313  1
  Sc  Sc10  1  0.499993  0.500001  0.166656  1
  Sc  Sc11  1  0.999985  0.000000  0.338093  1
  Ir  Ir12  1  0.500006  0.248572  0.999425  1
  Ir  Ir13  1  0.500006  0.751428  0.999425  1
  Ir  Ir14  1  0.999991  0.253061  0.166712  1
  Ir  Ir15  1  0.999991  0.746940  0.166712  1
  Ir  Ir16  1  0.499980  0.248569  0.333924  1
  Ir  Ir17  1  0.499980  0.751431  0.333924  1
  Ir  Ir18  1  0.999991  0.248025  0.501940  1
  Ir  Ir19  1  0.999991  0.751975  0.501940  1
  Ir  Ir20  1  0.500018  0.257175  0.666667  1
  Ir  Ir21  1  0.500018  0.742825  0.666667  1
  Ir  Ir22  1  0.000015  0.248041  0.831341  1
  Ir  Ir23  1  0.000015  0.751960  0.831341  1
