# generated using pymatgen
data_Nd4ZnNi2Au
_symmetry_space_group_name_H-M   'P 1'
_cell_length_a   8.84406999
_cell_length_b   8.84407158
_cell_length_c   8.84407200
_cell_angle_alpha   131.54995435
_cell_angle_beta   131.54996343
_cell_angle_gamma   70.94075151
_symmetry_Int_Tables_number   1
_chemical_formula_structural   Nd4ZnNi2Au
_chemical_formula_sum   'Nd8 Zn2 Ni4 Au2'
_cell_volume   379.41189176
_cell_formula_units_Z   2
loop_
 _symmetry_equiv_pos_site_id
 _symmetry_equiv_pos_as_xyz
  1  'x, y, z'
loop_
 _atom_site_type_symbol
 _atom_site_label
 _atom_site_symmetry_multiplicity
 _atom_site_fract_x
 _atom_site_fract_y
 _atom_site_fract_z
 _atom_site_occupancy
  Nd  Nd0  1  0.806552  0.306552  0.858440  1
  Nd  Nd1  1  0.193448  0.693448  0.141561  1
  Nd  Nd2  1  0.448113  0.948113  0.141561  1
  Nd  Nd3  1  0.306552  0.448113  0.500000  1
  Nd  Nd4  1  0.051887  0.193448  0.500000  1
  Nd  Nd5  1  0.551887  0.051887  0.858439  1
  Nd  Nd6  1  0.693448  0.551887  0.500000  1
  Nd  Nd7  1  0.948113  0.806552  0.500000  1
  Zn  Zn8  1  0.000000  0.000000  0.000000  1
  Zn  Zn9  1  0.500000  0.500000  0.000000  1
  Ni  Ni10  1  0.121543  0.621543  0.743087  1
  Ni  Ni11  1  0.878457  0.378457  0.256913  1
  Ni  Ni12  1  0.621543  0.878457  0.500000  1
  Ni  Ni13  1  0.378457  0.121543  0.500000  1
  Au  Au14  1  0.250000  0.250000  0.000000  1
  Au  Au15  1  0.750000  0.750000  0.000000  1
