# generated using pymatgen
data_Y12Tc2OsRh
_symmetry_space_group_name_H-M   'P 1'
_cell_length_a   6.32619857
_cell_length_b   7.43791887
_cell_length_c   9.21298300
_cell_angle_alpha   90.00000000
_cell_angle_beta   90.00000000
_cell_angle_gamma   90.08098290
_symmetry_Int_Tables_number   1
_chemical_formula_structural   Y12Tc2OsRh
_chemical_formula_sum   'Y12 Tc2 Os1 Rh1'
_cell_volume   433.50498159
_cell_formula_units_Z   1
loop_
 _symmetry_equiv_pos_site_id
 _symmetry_equiv_pos_as_xyz
  1  'x, y, z'
loop_
 _atom_site_type_symbol
 _atom_site_label
 _atom_site_symmetry_multiplicity
 _atom_site_fract_x
 _atom_site_fract_y
 _atom_site_fract_z
 _atom_site_occupancy
  Y  Y0  1  0.335392  0.676023  0.063813  1
  Y  Y1  1  0.166855  0.175720  0.433525  1
  Y  Y2  1  0.663901  0.327108  0.561537  1
  Y  Y3  1  0.833883  0.821149  0.937996  1
  Y  Y4  1  0.663901  0.327108  0.938463  1
  Y  Y5  1  0.833883  0.821149  0.562004  1
  Y  Y6  1  0.335392  0.676023  0.436187  1
  Y  Y7  1  0.166855  0.175720  0.066475  1
  Y  Y8  1  0.875298  0.539680  0.250000  1
  Y  Y9  1  0.626761  0.040892  0.250000  1
  Y  Y10  1  0.134262  0.459555  0.750000  1
  Y  Y11  1  0.366053  0.957398  0.750000  1
  Tc  Tc12  1  0.037611  0.884681  0.250000  1
  Tc  Tc13  1  0.461179  0.384457  0.250000  1
  Os  Os14  1  0.542177  0.617353  0.750000  1
  Rh  Rh15  1  0.956600  0.115980  0.750000  1
