# generated using pymatgen
data_Dy11ErGa9Si9Ge2
_symmetry_space_group_name_H-M   'P 1'
_cell_length_a   5.96444146
_cell_length_b   5.96444195
_cell_length_c   18.65274900
_cell_angle_alpha   90.00000000
_cell_angle_beta   90.00000000
_cell_angle_gamma   102.82030940
_symmetry_Int_Tables_number   1
_chemical_formula_structural   Dy11ErGa9Si9Ge2
_chemical_formula_sum   'Dy11 Er1 Ga9 Si9 Ge2'
_cell_volume   647.02129727
_cell_formula_units_Z   1
loop_
 _symmetry_equiv_pos_site_id
 _symmetry_equiv_pos_as_xyz
  1  'x, y, z'
loop_
 _atom_site_type_symbol
 _atom_site_label
 _atom_site_symmetry_multiplicity
 _atom_site_fract_x
 _atom_site_fract_y
 _atom_site_fract_z
 _atom_site_occupancy
  Dy  Dy0  1  0.660167  0.660167  0.500000  1
  Dy  Dy1  1  0.340548  0.340548  0.250418  1
  Dy  Dy2  1  0.340548  0.340548  0.749582  1
  Dy  Dy3  1  0.200725  0.801713  0.127910  1
  Dy  Dy4  1  0.198824  0.801464  0.625132  1
  Dy  Dy5  1  0.200725  0.801713  0.872090  1
  Dy  Dy6  1  0.198824  0.801464  0.374868  1
  Dy  Dy7  1  0.801713  0.200725  0.127910  1
  Dy  Dy8  1  0.801464  0.198824  0.625132  1
  Dy  Dy9  1  0.801464  0.198824  0.374868  1
  Dy  Dy10  1  0.801713  0.200725  0.872090  1
  Er  Er11  1  0.652945  0.652945  0.000000  1
  Ga  Ga12  1  0.317952  0.317952  0.902503  1
  Ga  Ga13  1  0.323133  0.323133  0.402477  1
  Ga  Ga14  1  0.678028  0.678028  0.347705  1
  Ga  Ga15  1  0.677700  0.677700  0.847900  1
  Ga  Ga16  1  0.317952  0.317952  0.097497  1
  Ga  Ga17  1  0.323133  0.323133  0.597523  1
  Ga  Ga18  1  0.677700  0.677700  0.152100  1
  Ga  Ga19  1  0.678028  0.678028  0.652295  1
  Ga  Ga20  1  0.038387  0.038387  0.000000  1
  Si  Si21  1  0.483279  0.088504  0.500000  1
  Si  Si22  1  0.912791  0.518151  0.250393  1
  Si  Si23  1  0.912791  0.518151  0.749607  1
  Si  Si24  1  0.518151  0.912791  0.250393  1
  Si  Si25  1  0.518151  0.912791  0.749607  1
  Si  Si26  1  0.088504  0.483279  0.500000  1
  Si  Si27  1  0.052515  0.052515  0.500000  1
  Si  Si28  1  0.948760  0.948760  0.250718  1
  Si  Si29  1  0.948760  0.948760  0.749282  1
  Ge  Ge30  1  0.497861  0.086769  0.000000  1
  Ge  Ge31  1  0.086769  0.497861  0.000000  1
