# generated using pymatgen
data_CsAsH2
_symmetry_space_group_name_H-M   'P 1'
_cell_length_a   6.07080811
_cell_length_b   4.88877000
_cell_length_c   7.93000702
_cell_angle_alpha   90.00000000
_cell_angle_beta   91.75232376
_cell_angle_gamma   90.00000000
_symmetry_Int_Tables_number   1
_chemical_formula_structural   CsAsH2
_chemical_formula_sum   'Cs2 As2 H4'
_cell_volume   235.24290750
_cell_formula_units_Z   2
loop_
 _symmetry_equiv_pos_site_id
 _symmetry_equiv_pos_as_xyz
  1  'x, y, z'
loop_
 _atom_site_type_symbol
 _atom_site_label
 _atom_site_symmetry_multiplicity
 _atom_site_fract_x
 _atom_site_fract_y
 _atom_site_fract_z
 _atom_site_occupancy
  Cs  Cs0  1  0.263422  0.750000  0.238398  1
  Cs  Cs1  1  0.736577  0.249999  0.761603  1
  As  As2  1  0.763498  0.249999  0.233931  1
  As  As3  1  0.236502  0.750000  0.766069  1
  H  H4  1  0.778036  0.023674  0.370167  1
  H  H5  1  0.778036  0.476325  0.370167  1
  H  H6  1  0.221963  0.523675  0.629833  1
  H  H7  1  0.221963  0.976325  0.629833  1
