# generated using pymatgen
data_Ho2Tc2C3
_symmetry_space_group_name_H-M   'P 1'
_cell_length_a   6.02501918
_cell_length_b   6.02502002
_cell_length_c   5.66226109
_cell_angle_alpha   67.44987094
_cell_angle_beta   67.44986795
_cell_angle_gamma   32.04821686
_symmetry_Int_Tables_number   1
_chemical_formula_structural   Ho2Tc2C3
_chemical_formula_sum   'Ho2 Tc2 C3'
_cell_volume   100.01108373
_cell_formula_units_Z   1
loop_
 _symmetry_equiv_pos_site_id
 _symmetry_equiv_pos_as_xyz
  1  'x, y, z'
loop_
 _atom_site_type_symbol
 _atom_site_label
 _atom_site_symmetry_multiplicity
 _atom_site_fract_x
 _atom_site_fract_y
 _atom_site_fract_z
 _atom_site_occupancy
  Ho  Ho0  1  0.390589  0.390589  0.823003  1
  Ho  Ho1  1  0.609411  0.609411  0.176997  1
  Tc  Tc2  1  0.157766  0.157766  0.678425  1
  Tc  Tc3  1  0.842234  0.842234  0.321575  1
  C  C4  1  0.753245  0.753245  0.730139  1
  C  C5  1  0.246755  0.246755  0.269861  1
  C  C6  1  0.000000  0.000000  0.000000  1
