# generated using pymatgen
data_YHo5(MoO7)2
_symmetry_space_group_name_H-M   'P 1'
_cell_length_a   6.45812203
_cell_length_b   6.45812171
_cell_length_c   7.43583004
_cell_angle_alpha   89.99089360
_cell_angle_beta   90.00910493
_cell_angle_gamma   108.57675305
_symmetry_Int_Tables_number   1
_chemical_formula_structural   YHo5(MoO7)2
_chemical_formula_sum   'Y1 Ho5 Mo2 O14'
_cell_volume   293.97026865
_cell_formula_units_Z   1
loop_
 _symmetry_equiv_pos_site_id
 _symmetry_equiv_pos_as_xyz
  1  'x, y, z'
loop_
 _atom_site_type_symbol
 _atom_site_label
 _atom_site_symmetry_multiplicity
 _atom_site_fract_x
 _atom_site_fract_y
 _atom_site_fract_z
 _atom_site_occupancy
  Y  Y0  1  0.468675  0.468675  0.000000  1
  Ho  Ho1  1  0.464280  0.999123  0.256893  1
  Ho  Ho2  1  0.535828  0.001005  0.756159  1
  Ho  Ho3  1  0.001005  0.535828  0.243841  1
  Ho  Ho4  1  0.534156  0.534156  0.500000  1
  Ho  Ho5  1  0.999123  0.464280  0.743107  1
  Mo  Mo6  1  0.998833  0.998833  0.000000  1
  Mo  Mo7  1  0.001337  0.001337  0.500000  1
  O  O8  1  0.056368  0.311201  0.461372  1
  O  O9  1  0.075519  0.924456  0.250004  1
  O  O10  1  0.631347  0.368960  0.251477  1
  O  O11  1  0.311201  0.056368  0.538628  1
  O  O12  1  0.916225  0.671958  0.525527  1
  O  O13  1  0.924456  0.075519  0.749996  1
  O  O14  1  0.671958  0.916225  0.474473  1
  O  O15  1  0.361885  0.638152  0.251347  1
  O  O16  1  0.688266  0.943254  0.038625  1
  O  O17  1  0.638152  0.361885  0.748653  1
  O  O18  1  0.081666  0.327506  0.025745  1
  O  O19  1  0.943254  0.688266  0.961375  1
  O  O20  1  0.368960  0.631347  0.748523  1
  O  O21  1  0.327506  0.081666  0.974255  1
