# generated using pymatgen
data_Tb7(ErPd6)3
_symmetry_space_group_name_H-M   'P 1'
_cell_length_a   9.78073900
_cell_length_b   9.79340534
_cell_length_c   5.78519600
_cell_angle_alpha   90.00000000
_cell_angle_beta   90.00000000
_cell_angle_gamma   90.04734766
_symmetry_Int_Tables_number   1
_chemical_formula_structural   Tb7(ErPd6)3
_chemical_formula_sum   'Tb7 Er3 Pd18'
_cell_volume   554.14488509
_cell_formula_units_Z   1
loop_
 _symmetry_equiv_pos_site_id
 _symmetry_equiv_pos_as_xyz
  1  'x, y, z'
loop_
 _atom_site_type_symbol
 _atom_site_label
 _atom_site_symmetry_multiplicity
 _atom_site_fract_x
 _atom_site_fract_y
 _atom_site_fract_z
 _atom_site_occupancy
  Tb  Tb0  1  0.453218  0.808082  0.000000  1
  Tb  Tb1  1  0.546749  0.192035  0.000000  1
  Tb  Tb2  1  0.191747  0.546392  0.000000  1
  Tb  Tb3  1  0.808346  0.453144  0.000000  1
  Tb  Tb4  1  0.307640  0.047073  0.500000  1
  Tb  Tb5  1  0.692024  0.953354  0.500000  1
  Tb  Tb6  1  0.953301  0.691662  0.500000  1
  Er  Er7  1  0.500028  0.499875  0.500000  1
  Er  Er8  1  0.046711  0.307997  0.500000  1
  Er  Er9  1  0.000107  0.000070  0.000000  1
  Pd  Pd10  1  0.190857  0.808914  0.250765  1
  Pd  Pd11  1  0.810206  0.191250  0.748794  1
  Pd  Pd12  1  0.810206  0.191250  0.251206  1
  Pd  Pd13  1  0.190857  0.808914  0.749235  1
  Pd  Pd14  1  0.439464  0.779158  0.500000  1
  Pd  Pd15  1  0.560629  0.220831  0.500000  1
  Pd  Pd16  1  0.219802  0.559448  0.500000  1
  Pd  Pd17  1  0.780523  0.439308  0.500000  1
  Pd  Pd18  1  0.307802  0.309074  0.249923  1
  Pd  Pd19  1  0.690904  0.690849  0.750790  1
  Pd  Pd20  1  0.690904  0.690849  0.249210  1
  Pd  Pd21  1  0.307802  0.309074  0.750077  1
  Pd  Pd22  1  0.279513  0.060539  0.000000  1
  Pd  Pd23  1  0.720673  0.939706  0.000000  1
  Pd  Pd24  1  0.939617  0.720835  0.000000  1
  Pd  Pd25  1  0.060210  0.279394  0.000000  1
  Pd  Pd26  1  0.000294  0.001120  0.500000  1
  Pd  Pd27  1  0.499865  0.499806  0.000000  1
