# generated using pymatgen
data_Tb2Nb3Co9As7
_symmetry_space_group_name_H-M   'P 1'
_cell_length_a   3.82626700
_cell_length_b   9.55854406
_cell_length_c   9.55854300
_cell_angle_alpha   119.99999978
_cell_angle_beta   90.00000000
_cell_angle_gamma   90.00000000
_symmetry_Int_Tables_number   1
_chemical_formula_structural   Tb2Nb3Co9As7
_chemical_formula_sum   'Tb2 Nb3 Co9 As7'
_cell_volume   302.75362339
_cell_formula_units_Z   1
loop_
 _symmetry_equiv_pos_site_id
 _symmetry_equiv_pos_as_xyz
  1  'x, y, z'
loop_
 _atom_site_type_symbol
 _atom_site_label
 _atom_site_symmetry_multiplicity
 _atom_site_fract_x
 _atom_site_fract_y
 _atom_site_fract_z
 _atom_site_occupancy
  Tb  Tb0  1  0.000000  0.666667  0.333333  1
  Tb  Tb1  1  0.500000  0.333333  0.666667  1
  Nb  Nb2  1  0.500000  0.776176  0.897225  1
  Nb  Nb3  1  0.500000  0.121050  0.223824  1
  Nb  Nb4  1  0.500000  0.102775  0.878950  1
  Co  Co5  1  0.000000  0.570518  0.938387  1
  Co  Co6  1  0.000000  0.367868  0.429482  1
  Co  Co7  1  0.000000  0.061613  0.632132  1
  Co  Co8  1  0.000000  0.876767  0.160815  1
  Co  Co9  1  0.000000  0.284048  0.123233  1
  Co  Co10  1  0.000000  0.839185  0.715952  1
  Co  Co11  1  0.500000  0.948304  0.384762  1
  Co  Co12  1  0.500000  0.436457  0.051696  1
  Co  Co13  1  0.500000  0.615238  0.563543  1
  As  As14  1  0.000000  0.000000  0.000000  1
  As  As15  1  0.500000  0.708279  0.124507  1
  As  As16  1  0.500000  0.416230  0.291721  1
  As  As17  1  0.500000  0.875493  0.583770  1
  As  As18  1  0.000000  0.580812  0.692606  1
  As  As19  1  0.000000  0.111795  0.419188  1
  As  As20  1  0.000000  0.307394  0.888205  1
