# generated using pymatgen
data_Na4UPbS6
_symmetry_space_group_name_H-M   'P 1'
_cell_length_a   7.12597416
_cell_length_b   7.12597416
_cell_length_c   6.97497977
_cell_angle_alpha   79.98331111
_cell_angle_beta   79.98331803
_cell_angle_gamma   119.92153451
_symmetry_Int_Tables_number   1
_chemical_formula_structural   Na4UPbS6
_chemical_formula_sum   'Na4 U1 Pb1 S6'
_cell_volume   287.85036123
_cell_formula_units_Z   1
loop_
 _symmetry_equiv_pos_site_id
 _symmetry_equiv_pos_as_xyz
  1  'x, y, z'
loop_
 _atom_site_type_symbol
 _atom_site_label
 _atom_site_symmetry_multiplicity
 _atom_site_fract_x
 _atom_site_fract_y
 _atom_site_fract_z
 _atom_site_occupancy
  Na  Na0  1  0.000152  0.999848  0.000000  1
  Na  Na1  1  0.501605  0.498395  0.500000  1
  Na  Na2  1  0.836530  0.163470  0.500000  1
  Na  Na3  1  0.160984  0.839016  0.500000  1
  U  U4  1  0.333194  0.666806  0.000000  1
  Pb  Pb5  1  0.667175  0.332825  0.000000  1
  S  S6  1  0.259003  0.293515  0.230464  1
  S  S7  1  0.412523  0.041808  0.768780  1
  S  S8  1  0.112462  0.448302  0.775854  1
  S  S9  1  0.706485  0.740997  0.769536  1
  S  S10  1  0.551698  0.887538  0.224146  1
  S  S11  1  0.958192  0.587477  0.231220  1
