# generated using pymatgen
data_Tm6ScCo16ReP12
_symmetry_space_group_name_H-M   'P 1'
_cell_length_a   3.69745700
_cell_length_b   10.54893500
_cell_length_c   12.22845600
_cell_angle_alpha   90.00000000
_cell_angle_beta   90.00000000
_cell_angle_gamma   90.00000000
_symmetry_Int_Tables_number   1
_chemical_formula_structural   Tm6ScCo16ReP12
_chemical_formula_sum   'Tm6 Sc1 Co16 Re1 P12'
_cell_volume   476.96155388
_cell_formula_units_Z   1
loop_
 _symmetry_equiv_pos_site_id
 _symmetry_equiv_pos_as_xyz
  1  'x, y, z'
loop_
 _atom_site_type_symbol
 _atom_site_label
 _atom_site_symmetry_multiplicity
 _atom_site_fract_x
 _atom_site_fract_y
 _atom_site_fract_z
 _atom_site_occupancy
  Tm  Tm0  1  0.000000  0.500000  0.527713  1
  Tm  Tm1  1  0.500000  0.000000  0.474494  1
  Tm  Tm2  1  0.500000  0.821771  0.206054  1
  Tm  Tm3  1  0.500000  0.178229  0.206054  1
  Tm  Tm4  1  0.000000  0.680707  0.795024  1
  Tm  Tm5  1  0.000000  0.319293  0.795024  1
  Sc  Sc6  1  0.500000  0.500000  0.154637  1
  Co  Co7  1  0.500000  0.500000  0.703228  1
  Co  Co8  1  0.000000  0.000000  0.297303  1
  Co  Co9  1  0.000000  0.500000  0.984420  1
  Co  Co10  1  0.500000  0.000000  0.009259  1
  Co  Co11  1  0.500000  0.327106  0.989969  1
  Co  Co12  1  0.500000  0.672894  0.989969  1
  Co  Co13  1  0.000000  0.163529  0.005590  1
  Co  Co14  1  0.000000  0.836471  0.005590  1
  Co  Co15  1  0.500000  0.294375  0.434826  1
  Co  Co16  1  0.500000  0.705625  0.434826  1
  Co  Co17  1  0.000000  0.202623  0.570162  1
  Co  Co18  1  0.000000  0.797377  0.570162  1
  Co  Co19  1  0.500000  0.879192  0.706208  1
  Co  Co20  1  0.500000  0.120808  0.706208  1
  Co  Co21  1  0.000000  0.624010  0.296545  1
  Co  Co22  1  0.000000  0.375990  0.296545  1
  Re  Re23  1  0.000000  0.000000  0.839902  1
  P  P24  1  0.500000  0.500000  0.882584  1
  P  P25  1  0.000000  0.000000  0.118844  1
  P  P26  1  0.500000  0.500000  0.360095  1
  P  P27  1  0.000000  0.000000  0.647313  1
  P  P28  1  0.500000  0.311758  0.617806  1
  P  P29  1  0.500000  0.688242  0.617806  1
  P  P30  1  0.000000  0.187290  0.384976  1
  P  P31  1  0.000000  0.812710  0.384976  1
  P  P32  1  0.500000  0.845823  0.888028  1
  P  P33  1  0.500000  0.154177  0.888028  1
  P  P34  1  0.000000  0.662444  0.104917  1
  P  P35  1  0.000000  0.337556  0.104917  1
