# generated using pymatgen
data_Ac2TbDy(ZnSn)4
_symmetry_space_group_name_H-M   'P 1'
_cell_length_a   4.58883300
_cell_length_b   4.58883193
_cell_length_c   17.11424100
_cell_angle_alpha   90.00000000
_cell_angle_beta   90.00000000
_cell_angle_gamma   120.00000054
_symmetry_Int_Tables_number   1
_chemical_formula_structural   Ac2TbDy(ZnSn)4
_chemical_formula_sum   'Ac2 Tb1 Dy1 Zn4 Sn4'
_cell_volume   312.09921529
_cell_formula_units_Z   1
loop_
 _symmetry_equiv_pos_site_id
 _symmetry_equiv_pos_as_xyz
  1  'x, y, z'
loop_
 _atom_site_type_symbol
 _atom_site_label
 _atom_site_symmetry_multiplicity
 _atom_site_fract_x
 _atom_site_fract_y
 _atom_site_fract_z
 _atom_site_occupancy
  Ac  Ac0  1  0.000000  0.000000  0.999980  1
  Ac  Ac1  1  0.000000  0.000000  0.500020  1
  Tb  Tb2  1  0.000000  0.000000  0.250000  1
  Dy  Dy3  1  0.000000  0.000000  0.750000  1
  Zn  Zn4  1  0.333333  0.666667  0.168265  1
  Zn  Zn5  1  0.666667  0.333333  0.831689  1
  Zn  Zn6  1  0.666667  0.333333  0.668311  1
  Zn  Zn7  1  0.333333  0.666667  0.331735  1
  Sn  Sn8  1  0.333333  0.666667  0.624877  1
  Sn  Sn9  1  0.666667  0.333333  0.375144  1
  Sn  Sn10  1  0.666667  0.333333  0.124856  1
  Sn  Sn11  1  0.333333  0.666667  0.875123  1
