# generated using pymatgen
data_Ho4Er3Tm3Ir4
_symmetry_space_group_name_H-M   'P 1'
_cell_length_a   6.42977587
_cell_length_b   7.17371410
_cell_length_c   8.44581821
_cell_angle_alpha   96.62727850
_cell_angle_beta   112.36790164
_cell_angle_gamma   90.01311914
_symmetry_Int_Tables_number   1
_chemical_formula_structural   Ho4Er3Tm3Ir4
_chemical_formula_sum   'Ho4 Er3 Tm3 Ir4'
_cell_volume   357.43450121
_cell_formula_units_Z   1
loop_
 _symmetry_equiv_pos_site_id
 _symmetry_equiv_pos_as_xyz
  1  'x, y, z'
loop_
 _atom_site_type_symbol
 _atom_site_label
 _atom_site_symmetry_multiplicity
 _atom_site_fract_x
 _atom_site_fract_y
 _atom_site_fract_z
 _atom_site_occupancy
  Ho  Ho0  1  0.971553  0.918929  0.184127  1
  Ho  Ho1  1  0.787571  0.581156  0.815764  1
  Ho  Ho2  1  0.028338  0.081145  0.815846  1
  Ho  Ho3  1  0.212540  0.418696  0.184225  1
  Er  Er4  1  0.652455  0.817219  0.440827  1
  Er  Er5  1  0.211522  0.682533  0.559002  1
  Er  Er6  1  0.347557  0.182869  0.559117  1
  Tm  Tm7  1  0.788314  0.317438  0.440774  1
  Tm  Tm8  1  0.427776  0.750096  0.000055  1
  Tm  Tm9  1  0.572362  0.249967  0.000140  1
  Ir  Ir10  1  0.823899  0.572978  0.219564  1
  Ir  Ir11  1  0.604300  0.926829  0.780703  1
  Ir  Ir12  1  0.175841  0.426781  0.780362  1
  Ir  Ir13  1  0.395972  0.073364  0.219496  1
