# generated using pymatgen
data_Tb4CrOs6W
_symmetry_space_group_name_H-M   'P 1'
_cell_length_a   5.20740207
_cell_length_b   5.20740405
_cell_length_c   8.97102600
_cell_angle_alpha   90.00000000
_cell_angle_beta   90.00000000
_cell_angle_gamma   115.56420518
_symmetry_Int_Tables_number   1
_chemical_formula_structural   Tb4CrOs6W
_chemical_formula_sum   'Tb4 Cr1 Os6 W1'
_cell_volume   219.45237693
_cell_formula_units_Z   1
loop_
 _symmetry_equiv_pos_site_id
 _symmetry_equiv_pos_as_xyz
  1  'x, y, z'
loop_
 _atom_site_type_symbol
 _atom_site_label
 _atom_site_symmetry_multiplicity
 _atom_site_fract_x
 _atom_site_fract_y
 _atom_site_fract_z
 _atom_site_occupancy
  Tb  Tb0  1  0.328544  0.671456  0.437829  1
  Tb  Tb1  1  0.667274  0.332726  0.566216  1
  Tb  Tb2  1  0.667274  0.332726  0.933784  1
  Tb  Tb3  1  0.328544  0.671456  0.062171  1
  Cr  Cr4  1  0.172259  0.827741  0.750000  1
  Os  Os5  1  0.998004  0.001996  0.506796  1
  Os  Os6  1  0.998004  0.001996  0.993204  1
  Os  Os7  1  0.827372  0.650334  0.250000  1
  Os  Os8  1  0.349666  0.172628  0.250000  1
  Os  Os9  1  0.172544  0.348818  0.750000  1
  Os  Os10  1  0.651182  0.827456  0.750000  1
  W  W11  1  0.839335  0.160665  0.250000  1
