# generated using pymatgen
data_Dy5HoAl24Ir3Os5
_symmetry_space_group_name_H-M   'P 1'
_cell_length_a   8.79406421
_cell_length_b   8.80762891
_cell_length_c   9.58596502
_cell_angle_alpha   90.00626931
_cell_angle_beta   89.82322240
_cell_angle_gamma   119.49212196
_symmetry_Int_Tables_number   1
_chemical_formula_structural   Dy5HoAl24Ir3Os5
_chemical_formula_sum   'Dy5 Ho1 Al24 Ir3 Os5'
_cell_volume   646.26762327
_cell_formula_units_Z   1
loop_
 _symmetry_equiv_pos_site_id
 _symmetry_equiv_pos_as_xyz
  1  'x, y, z'
loop_
 _atom_site_type_symbol
 _atom_site_label
 _atom_site_symmetry_multiplicity
 _atom_site_fract_x
 _atom_site_fract_y
 _atom_site_fract_z
 _atom_site_occupancy
  Dy  Dy0  1  0.188804  0.385665  0.251354  1
  Dy  Dy1  1  0.811191  0.614303  0.748655  1
  Dy  Dy2  1  0.612724  0.811611  0.250145  1
  Dy  Dy3  1  0.387356  0.188387  0.749840  1
  Dy  Dy4  1  0.195233  0.808567  0.250951  1
  Ho  Ho5  1  0.804275  0.191823  0.749201  1
  Al  Al6  1  0.333684  0.668189  0.024725  1
  Al  Al7  1  0.666467  0.331736  0.974977  1
  Al  Al8  1  0.667736  0.332344  0.524153  1
  Al  Al9  1  0.332369  0.667545  0.476101  1
  Al  Al10  1  0.162283  0.326494  0.576141  1
  Al  Al11  1  0.837486  0.673316  0.424085  1
  Al  Al12  1  0.672909  0.836896  0.575408  1
  Al  Al13  1  0.835870  0.673634  0.076085  1
  Al  Al14  1  0.327248  0.163312  0.424797  1
  Al  Al15  1  0.163935  0.326215  0.923693  1
  Al  Al16  1  0.164135  0.835185  0.575368  1
  Al  Al17  1  0.326828  0.163107  0.075871  1
  Al  Al18  1  0.835869  0.164767  0.424976  1
  Al  Al19  1  0.673355  0.837121  0.923893  1
  Al  Al20  1  0.834233  0.162992  0.074828  1
  Al  Al21  1  0.165805  0.837001  0.924788  1
  Al  Al22  1  0.561105  0.125507  0.249657  1
  Al  Al23  1  0.439260  0.874711  0.750319  1
  Al  Al24  1  0.875455  0.439637  0.250576  1
  Al  Al25  1  0.124296  0.559998  0.749452  1
  Al  Al26  1  0.561201  0.439033  0.249643  1
  Al  Al27  1  0.438785  0.560967  0.750353  1
  Al  Al28  1  0.999042  0.001745  0.250044  1
  Al  Al29  1  0.000645  0.998590  0.749942  1
  Ir  Ir30  1  0.999940  0.499822  0.999866  1
  Ir  Ir31  1  0.500055  0.499928  0.999961  1
  Ir  Ir32  1  0.500053  0.499932  0.500039  1
  Os  Os33  1  0.500205  0.000124  0.999793  1
  Os  Os34  1  0.500156  0.000074  0.500155  1
  Os  Os35  1  0.999915  0.499812  0.500175  1
  Os  Os36  1  0.000052  0.999967  0.999980  1
  Os  Os37  1  0.000040  0.999945  0.500011  1
