# generated using pymatgen
data_Dy5Tm3Sc12GaSi15
_symmetry_space_group_name_H-M   'P 1'
_cell_length_a   7.07763589
_cell_length_b   7.37953958
_cell_length_c   13.99890708
_cell_angle_alpha   89.93169444
_cell_angle_beta   89.98035936
_cell_angle_gamma   90.03521206
_symmetry_Int_Tables_number   1
_chemical_formula_structural   Dy5Tm3Sc12GaSi15
_chemical_formula_sum   'Dy5 Tm3 Sc12 Ga1 Si15'
_cell_volume   731.15793527
_cell_formula_units_Z   1
loop_
 _symmetry_equiv_pos_site_id
 _symmetry_equiv_pos_as_xyz
  1  'x, y, z'
loop_
 _atom_site_type_symbol
 _atom_site_label
 _atom_site_symmetry_multiplicity
 _atom_site_fract_x
 _atom_site_fract_y
 _atom_site_fract_z
 _atom_site_occupancy
  Dy  Dy0  1  0.011488  0.175866  0.097116  1
  Dy  Dy1  1  0.988427  0.824467  0.903459  1
  Dy  Dy2  1  0.487977  0.676648  0.903773  1
  Dy  Dy3  1  0.987679  0.825939  0.596782  1
  Dy  Dy4  1  0.511861  0.323510  0.096864  1
  Tm  Tm5  1  0.010897  0.175346  0.401193  1
  Tm  Tm6  1  0.512438  0.322146  0.401418  1
  Tm  Tm7  1  0.490099  0.679512  0.597330  1
  Sc  Sc8  1  0.161259  0.503111  0.751458  1
  Sc  Sc9  1  0.838997  0.497105  0.250289  1
  Sc  Sc10  1  0.338646  0.003245  0.249963  1
  Sc  Sc11  1  0.661878  0.996057  0.749999  1
  Sc  Sc12  1  0.333031  0.173887  0.626028  1
  Sc  Sc13  1  0.668169  0.824066  0.374254  1
  Sc  Sc14  1  0.170032  0.676970  0.373313  1
  Sc  Sc15  1  0.669643  0.823972  0.125980  1
  Sc  Sc16  1  0.828388  0.323714  0.625256  1
  Sc  Sc17  1  0.330235  0.175538  0.874711  1
  Sc  Sc18  1  0.830133  0.323470  0.874684  1
  Sc  Sc19  1  0.169246  0.676514  0.126163  1
  Ga  Ga20  1  0.162073  0.461654  0.538713  1
  Si  Si21  1  0.033646  0.117785  0.750408  1
  Si  Si22  1  0.966917  0.884292  0.250232  1
  Si  Si23  1  0.468297  0.614464  0.250443  1
  Si  Si24  1  0.531712  0.386308  0.749314  1
  Si  Si25  1  0.285459  0.872206  0.749737  1
  Si  Si26  1  0.714169  0.128421  0.250727  1
  Si  Si27  1  0.213831  0.371207  0.250640  1
  Si  Si28  1  0.785273  0.627232  0.750005  1
  Si  Si29  1  0.840115  0.534450  0.459924  1
  Si  Si30  1  0.340664  0.964875  0.459898  1
  Si  Si31  1  0.842537  0.536000  0.038579  1
  Si  Si32  1  0.657301  0.036227  0.538267  1
  Si  Si33  1  0.157350  0.463726  0.962289  1
  Si  Si34  1  0.657490  0.035661  0.961140  1
  Si  Si35  1  0.342645  0.964408  0.039655  1
