# generated using pymatgen
data_HoF7
_symmetry_space_group_name_H-M   'P 1'
_cell_length_a   4.28921994
_cell_length_b   3.46067808
_cell_length_c   10.15329300
_cell_angle_alpha   103.85854269
_cell_angle_beta   78.97273826
_cell_angle_gamma   88.40952227
_symmetry_Int_Tables_number   1
_chemical_formula_structural   HoF7
_chemical_formula_sum   'Ho1 F7'
_cell_volume   143.19397106
_cell_formula_units_Z   1
loop_
 _symmetry_equiv_pos_site_id
 _symmetry_equiv_pos_as_xyz
  1  'x, y, z'
loop_
 _atom_site_type_symbol
 _atom_site_label
 _atom_site_symmetry_multiplicity
 _atom_site_fract_x
 _atom_site_fract_y
 _atom_site_fract_z
 _atom_site_occupancy
  Ho  Ho0  1  0.530809  0.025041  0.828818  1
  F  F1  1  0.960381  0.770478  0.156446  1
  F  F2  1  0.595891  0.425062  0.689934  1
  F  F3  1  0.462640  0.624876  0.967592  1
  F  F4  1  0.077852  0.512029  0.411657  1
  F  F5  1  0.030074  0.031468  0.829718  1
  F  F6  1  0.678152  0.913850  0.260376  1
  F  F7  1  0.287786  0.448272  0.499676  1
