# generated using pymatgen
data_Ba7Sr5Mo3WN16
_symmetry_space_group_name_H-M   'P 1'
_cell_length_a   10.72906000
_cell_length_b   10.10749467
_cell_length_c   12.13109699
_cell_angle_alpha   89.91914218
_cell_angle_beta   90.00000000
_cell_angle_gamma   90.00000000
_symmetry_Int_Tables_number   1
_chemical_formula_structural   Ba7Sr5Mo3WN16
_chemical_formula_sum   'Ba14 Sr10 Mo6 W2 N32'
_cell_volume   1315.54236213
_cell_formula_units_Z   2
loop_
 _symmetry_equiv_pos_site_id
 _symmetry_equiv_pos_as_xyz
  1  'x, y, z'
loop_
 _atom_site_type_symbol
 _atom_site_label
 _atom_site_symmetry_multiplicity
 _atom_site_fract_x
 _atom_site_fract_y
 _atom_site_fract_z
 _atom_site_occupancy
  Ba  Ba0  1  0.773225  0.559991  0.382496  1
  Ba  Ba1  1  0.273225  0.440009  0.617504  1
  Ba  Ba2  1  0.225533  0.051162  0.120712  1
  Ba  Ba3  1  0.725533  0.948838  0.879288  1
  Ba  Ba4  1  0.227938  0.946393  0.617570  1
  Ba  Ba5  1  0.727938  0.053607  0.382430  1
  Ba  Ba6  1  0.774535  0.444488  0.884302  1
  Ba  Ba7  1  0.274535  0.555512  0.115698  1
  Ba  Ba8  1  0.971183  0.374316  0.146185  1
  Ba  Ba9  1  0.471183  0.625684  0.853815  1
  Ba  Ba10  1  0.970703  0.623766  0.646521  1
  Ba  Ba11  1  0.470703  0.376234  0.353479  1
  Ba  Ba12  1  0.029363  0.123712  0.856493  1
  Ba  Ba13  1  0.529363  0.876288  0.143507  1
  Sr  Sr14  1  0.124471  0.216714  0.395436  1
  Sr  Sr15  1  0.624471  0.783286  0.604564  1
  Sr  Sr16  1  0.877527  0.718579  0.105155  1
  Sr  Sr17  1  0.377527  0.281421  0.894845  1
  Sr  Sr18  1  0.876959  0.282161  0.602391  1
  Sr  Sr19  1  0.376959  0.717839  0.397609  1
  Sr  Sr20  1  0.123255  0.782695  0.895008  1
  Sr  Sr21  1  0.623255  0.217305  0.104992  1
  Sr  Sr22  1  0.035127  0.872291  0.364012  1
  Sr  Sr23  1  0.535127  0.127709  0.635988  1
  Mo  Mo24  1  0.903688  0.044135  0.117828  1
  Mo  Mo25  1  0.403688  0.955865  0.882172  1
  Mo  Mo26  1  0.902485  0.953212  0.612066  1
  Mo  Mo27  1  0.402485  0.046788  0.387934  1
  Mo  Mo28  1  0.096713  0.453437  0.884273  1
  Mo  Mo29  1  0.596713  0.546563  0.115727  1
  W  W30  1  0.096080  0.550905  0.384042  1
  W  W31  1  0.596080  0.449095  0.615958  1
  N  N32  1  0.223434  0.450479  0.316240  1
  N  N33  1  0.723434  0.549521  0.683760  1
  N  N34  1  0.773956  0.945829  0.181882  1
  N  N35  1  0.273956  0.054171  0.818118  1
  N  N36  1  0.769281  0.050410  0.673747  1
  N  N37  1  0.269281  0.949590  0.326253  1
  N  N38  1  0.224274  0.552874  0.817137  1
  N  N39  1  0.724274  0.447126  0.182863  1
  N  N40  1  0.160470  0.679665  0.482147  1
  N  N41  1  0.660470  0.320335  0.517853  1
  N  N42  1  0.841008  0.176344  0.021901  1
  N  N43  1  0.341008  0.823656  0.978099  1
  N  N44  1  0.842631  0.821906  0.514713  1
  N  N45  1  0.342631  0.178094  0.485287  1
  N  N46  1  0.160190  0.323711  0.981377  1
  N  N47  1  0.660190  0.676289  0.018623  1
  N  N48  1  0.993055  0.432684  0.464540  1
  N  N49  1  0.493055  0.567316  0.535460  1
  N  N50  1  0.005800  0.929285  0.034418  1
  N  N51  1  0.505800  0.070715  0.965582  1
  N  N52  1  0.006166  0.068336  0.530073  1
  N  N53  1  0.506166  0.931664  0.469927  1
  N  N54  1  0.994705  0.569992  0.966239  1
  N  N55  1  0.494705  0.430008  0.033761  1
  N  N56  1  0.994349  0.637829  0.279391  1
  N  N57  1  0.494349  0.362171  0.720609  1
  N  N58  1  0.005534  0.121780  0.226544  1
  N  N59  1  0.505534  0.878220  0.773456  1
  N  N60  1  0.002129  0.874741  0.722089  1
  N  N61  1  0.502129  0.125259  0.277911  1
  N  N62  1  0.994234  0.372194  0.777709  1
  N  N63  1  0.494234  0.627806  0.222291  1
