# generated using pymatgen
data_Sc3Co8P6W
_symmetry_space_group_name_H-M   'P 1'
_cell_length_a   3.65162100
_cell_length_b   10.43194800
_cell_length_c   12.03833900
_cell_angle_alpha   90.00000000
_cell_angle_beta   90.00000000
_cell_angle_gamma   90.00000000
_symmetry_Int_Tables_number   1
_chemical_formula_structural   Sc3Co8P6W
_chemical_formula_sum   'Sc6 Co16 P12 W2'
_cell_volume   458.58271213
_cell_formula_units_Z   2
loop_
 _symmetry_equiv_pos_site_id
 _symmetry_equiv_pos_as_xyz
  1  'x, y, z'
loop_
 _atom_site_type_symbol
 _atom_site_label
 _atom_site_symmetry_multiplicity
 _atom_site_fract_x
 _atom_site_fract_y
 _atom_site_fract_z
 _atom_site_occupancy
  Sc  Sc0  1  0.750000  0.250000  0.472549  1
  Sc  Sc1  1  0.250000  0.750000  0.527451  1
  Sc  Sc2  1  0.250000  0.929122  0.795012  1
  Sc  Sc3  1  0.250000  0.570878  0.795012  1
  Sc  Sc4  1  0.750000  0.070878  0.204988  1
  Sc  Sc5  1  0.750000  0.429122  0.204988  1
  Co  Co6  1  0.250000  0.250000  0.300227  1
  Co  Co7  1  0.750000  0.750000  0.699773  1
  Co  Co8  1  0.750000  0.250000  0.013054  1
  Co  Co9  1  0.250000  0.750000  0.986946  1
  Co  Co10  1  0.250000  0.416977  0.010403  1
  Co  Co11  1  0.250000  0.083023  0.010403  1
  Co  Co12  1  0.750000  0.583023  0.989597  1
  Co  Co13  1  0.750000  0.916977  0.989597  1
  Co  Co14  1  0.250000  0.453370  0.567223  1
  Co  Co15  1  0.250000  0.046630  0.567223  1
  Co  Co16  1  0.750000  0.546630  0.432777  1
  Co  Co17  1  0.750000  0.953370  0.432777  1
  Co  Co18  1  0.250000  0.874435  0.294682  1
  Co  Co19  1  0.250000  0.625565  0.294682  1
  Co  Co20  1  0.750000  0.125565  0.705318  1
  Co  Co21  1  0.750000  0.374435  0.705318  1
  P  P22  1  0.250000  0.250000  0.123248  1
  P  P23  1  0.750000  0.750000  0.876752  1
  P  P24  1  0.250000  0.250000  0.642560  1
  P  P25  1  0.750000  0.750000  0.357440  1
  P  P26  1  0.250000  0.434997  0.382467  1
  P  P27  1  0.250000  0.065003  0.382467  1
  P  P28  1  0.750000  0.565003  0.617533  1
  P  P29  1  0.750000  0.934997  0.617533  1
  P  P30  1  0.250000  0.909137  0.110683  1
  P  P31  1  0.250000  0.590863  0.110683  1
  P  P32  1  0.750000  0.090863  0.889317  1
  P  P33  1  0.750000  0.409137  0.889317  1
  W  W34  1  0.250000  0.250000  0.840643  1
  W  W35  1  0.750000  0.750000  0.159357  1
