# generated using pymatgen
data_Hf6Ta2TiNb(GaSi2)2
_symmetry_space_group_name_H-M   'P 1'
_cell_length_a   7.84121602
_cell_length_b   7.84121704
_cell_length_c   5.36188000
_cell_angle_alpha   90.00373388
_cell_angle_beta   90.00374118
_cell_angle_gamma   120.28362831
_symmetry_Int_Tables_number   1
_chemical_formula_structural   Hf6Ta2TiNb(GaSi2)2
_chemical_formula_sum   'Hf6 Ta2 Ti1 Nb1 Ga2 Si4'
_cell_volume   284.68610957
_cell_formula_units_Z   1
loop_
 _symmetry_equiv_pos_site_id
 _symmetry_equiv_pos_as_xyz
  1  'x, y, z'
loop_
 _atom_site_type_symbol
 _atom_site_label
 _atom_site_symmetry_multiplicity
 _atom_site_fract_x
 _atom_site_fract_y
 _atom_site_fract_z
 _atom_site_occupancy
  Hf  Hf0  1  0.254350  0.999418  0.249206  1
  Hf  Hf1  1  0.747059  0.002741  0.751624  1
  Hf  Hf2  1  0.997259  0.252941  0.248376  1
  Hf  Hf3  1  0.000582  0.745650  0.750794  1
  Hf  Hf4  1  0.755617  0.754330  0.247630  1
  Hf  Hf5  1  0.245670  0.244383  0.752370  1
  Ta  Ta6  1  0.670599  0.329401  0.000000  1
  Ta  Ta7  1  0.670541  0.329459  0.500000  1
  Ti  Ti8  1  0.329511  0.670489  0.500000  1
  Nb  Nb9  1  0.329184  0.670816  0.000000  1
  Ga  Ga10  1  0.398061  0.400285  0.252583  1
  Ga  Ga11  1  0.599715  0.601939  0.747417  1
  Si  Si12  1  0.603995  0.995890  0.251912  1
  Si  Si13  1  0.394456  0.000709  0.748405  1
  Si  Si14  1  0.999291  0.605544  0.251595  1
  Si  Si15  1  0.004110  0.396005  0.748088  1
