# generated using pymatgen
data_Al18ReIr5
_symmetry_space_group_name_H-M   'P 1'
_cell_length_a   7.44768377
_cell_length_b   7.44501291
_cell_length_c   7.86541790
_cell_angle_alpha   90.00000395
_cell_angle_beta   89.95295737
_cell_angle_gamma   119.98813935
_symmetry_Int_Tables_number   1
_chemical_formula_structural   Al18ReIr5
_chemical_formula_sum   'Al18 Re1 Ir5'
_cell_volume   377.73812068
_cell_formula_units_Z   1
loop_
 _symmetry_equiv_pos_site_id
 _symmetry_equiv_pos_as_xyz
  1  'x, y, z'
loop_
 _atom_site_type_symbol
 _atom_site_label
 _atom_site_symmetry_multiplicity
 _atom_site_fract_x
 _atom_site_fract_y
 _atom_site_fract_z
 _atom_site_occupancy
  Al  Al0  1  0.669808  0.004788  0.078678  1
  Al  Al1  1  0.336612  0.331726  0.078654  1
  Al  Al2  1  0.993677  0.663489  0.080011  1
  Al  Al3  1  0.331493  0.666505  0.243859  1
  Al  Al4  1  0.000000  0.997971  0.249999  1
  Al  Al5  1  0.668506  0.335011  0.256140  1
  Al  Al6  1  0.330192  0.334979  0.421321  1
  Al  Al7  1  0.006323  0.669811  0.419988  1
  Al  Al8  1  0.663388  0.995113  0.421345  1
  Al  Al9  1  0.329089  0.998459  0.581731  1
  Al  Al10  1  0.994377  0.337100  0.580556  1
  Al  Al11  1  0.675239  0.663911  0.579771  1
  Al  Al12  1  0.336091  0.666670  0.744281  1
  Al  Al13  1  0.000000  0.002880  0.749999  1
  Al  Al14  1  0.663908  0.330579  0.755718  1
  Al  Al15  1  0.005624  0.342723  0.919443  1
  Al  Al16  1  0.670910  0.669369  0.918268  1
  Al  Al17  1  0.324761  0.988671  0.920228  1
  Re  Re18  1  0.000000  0.666650  0.749999  1
  Ir  Ir19  1  0.336034  0.002599  0.251044  1
  Ir  Ir20  1  0.000000  0.330457  0.249999  1
  Ir  Ir21  1  0.663966  0.666565  0.248954  1
  Ir  Ir22  1  0.667010  0.000490  0.750003  1
  Ir  Ir23  1  0.332990  0.333480  0.749995  1
