# generated using pymatgen
data_Tb2TmGa6Co8Cu
_symmetry_space_group_name_H-M   'P 1'
_cell_length_a   4.06525300
_cell_length_b   8.78953621
_cell_length_c   8.78953725
_cell_angle_alpha   59.17831562
_cell_angle_beta   90.00000000
_cell_angle_gamma   90.00000000
_symmetry_Int_Tables_number   1
_chemical_formula_structural   Tb2TmGa6Co8Cu
_chemical_formula_sum   'Tb2 Tm1 Ga6 Co8 Cu1'
_cell_volume   269.70836390
_cell_formula_units_Z   1
loop_
 _symmetry_equiv_pos_site_id
 _symmetry_equiv_pos_as_xyz
  1  'x, y, z'
loop_
 _atom_site_type_symbol
 _atom_site_label
 _atom_site_symmetry_multiplicity
 _atom_site_fract_x
 _atom_site_fract_y
 _atom_site_fract_z
 _atom_site_occupancy
  Tb  Tb0  1  0.500000  0.331897  0.330153  1
  Tb  Tb1  1  0.500000  0.669847  0.668103  1
  Tm  Tm2  1  0.000000  0.002403  0.997597  1
  Ga  Ga3  1  0.000000  0.494090  0.505910  1
  Ga  Ga4  1  0.000000  0.504430  0.002859  1
  Ga  Ga5  1  0.000000  0.997141  0.495570  1
  Ga  Ga6  1  0.500000  0.729846  0.270154  1
  Ga  Ga7  1  0.500000  0.272165  0.002182  1
  Ga  Ga8  1  0.500000  0.997818  0.727835  1
  Co  Co9  1  0.000000  0.177488  0.179725  1
  Co  Co10  1  0.000000  0.178228  0.632871  1
  Co  Co11  1  0.000000  0.641611  0.180975  1
  Co  Co12  1  0.000000  0.820275  0.822512  1
  Co  Co13  1  0.000000  0.367129  0.821772  1
  Co  Co14  1  0.000000  0.819025  0.358389  1
  Co  Co15  1  0.500000  0.702619  0.002676  1
  Co  Co16  1  0.500000  0.997324  0.297381  1
  Cu  Cu17  1  0.500000  0.296566  0.703434  1
