# generated using pymatgen
data_EuThZn21Pd
_symmetry_space_group_name_H-M   'P 1'
_cell_length_a   8.29017877
_cell_length_b   8.27914152
_cell_length_c   8.27913000
_cell_angle_alpha   99.81348066
_cell_angle_beta   99.98069127
_cell_angle_gamma   130.93037613
_symmetry_Int_Tables_number   1
_chemical_formula_structural   EuThZn21Pd
_chemical_formula_sum   'Eu1 Th1 Zn21 Pd1'
_cell_volume   390.80677709
_cell_formula_units_Z   1
loop_
 _symmetry_equiv_pos_site_id
 _symmetry_equiv_pos_as_xyz
  1  'x, y, z'
loop_
 _atom_site_type_symbol
 _atom_site_label
 _atom_site_symmetry_multiplicity
 _atom_site_fract_x
 _atom_site_fract_y
 _atom_site_fract_z
 _atom_site_occupancy
  Eu  Eu0  1  0.754294  0.251274  0.503001  1
  Th  Th1  1  0.496380  0.499854  0.996575  1
  Zn  Zn2  1  0.843342  0.429803  0.170705  1
  Zn  Zn3  1  0.126154  0.875301  0.749224  1
  Zn  Zn4  1  0.326456  0.154187  0.584141  1
  Zn  Zn5  1  0.258802  0.431217  0.583991  1
  Zn  Zn6  1  0.326455  0.742309  0.172266  1
  Zn  Zn7  1  0.992200  0.318429  0.916509  1
  Zn  Zn8  1  0.258808  0.674812  0.827585  1
  Zn  Zn9  1  0.249280  0.754750  0.494529  1
  Zn  Zn10  1  0.992195  0.075688  0.673767  1
  Zn  Zn11  1  0.000982  0.995854  0.005124  1
  Zn  Zn12  1  0.681699  0.009874  0.085248  1
  Zn  Zn13  1  0.623327  0.873744  0.749582  1
  Zn  Zn14  1  0.405332  0.318803  0.327656  1
  Zn  Zn15  1  0.923010  0.007267  0.326491  1
  Zn  Zn16  1  0.843340  0.672634  0.413537  1
  Zn  Zn17  1  0.568858  0.738762  0.414194  1
  Zn  Zn18  1  0.681702  0.596451  0.671823  1
  Zn  Zn19  1  0.405331  0.077677  0.086526  1
  Zn  Zn20  1  0.923011  0.596521  0.915744  1
  Zn  Zn21  1  0.568853  0.154659  0.830094  1
  Zn  Zn22  1  0.126153  0.376930  0.250850  1
  Pd  Pd23  1  0.124042  0.873199  0.250839  1
