# generated using pymatgen
data_Ca7CdN4
_symmetry_space_group_name_H-M   'P 1'
_cell_length_a   3.64391300
_cell_length_b   12.04444700
_cell_length_c   11.67508400
_cell_angle_alpha   90.00000000
_cell_angle_beta   90.00000000
_cell_angle_gamma   90.00000000
_symmetry_Int_Tables_number   1
_chemical_formula_structural   Ca7CdN4
_chemical_formula_sum   'Ca14 Cd2 N8'
_cell_volume   512.40679266
_cell_formula_units_Z   2
loop_
 _symmetry_equiv_pos_site_id
 _symmetry_equiv_pos_as_xyz
  1  'x, y, z'
loop_
 _atom_site_type_symbol
 _atom_site_label
 _atom_site_symmetry_multiplicity
 _atom_site_fract_x
 _atom_site_fract_y
 _atom_site_fract_z
 _atom_site_occupancy
  Ca  Ca0  1  0.499824  0.672960  0.234491  1
  Ca  Ca1  1  0.499824  0.327040  0.765509  1
  Ca  Ca2  1  0.500176  0.172960  0.265509  1
  Ca  Ca3  1  0.500176  0.827040  0.734491  1
  Ca  Ca4  1  0.499297  0.500000  0.000000  1
  Ca  Ca5  1  0.500703  0.000000  0.500000  1
  Ca  Ca6  1  0.999914  0.929457  0.267725  1
  Ca  Ca7  1  0.999914  0.070543  0.732275  1
  Ca  Ca8  1  0.000086  0.429457  0.232275  1
  Ca  Ca9  1  0.000086  0.570543  0.767725  1
  Ca  Ca10  1  0.001349  0.765785  0.478527  1
  Ca  Ca11  1  0.001349  0.234215  0.521473  1
  Ca  Ca12  1  0.998651  0.265785  0.021473  1
  Ca  Ca13  1  0.998651  0.734215  0.978527  1
  Cd  Cd14  1  0.512892  0.500000  0.500000  1
  Cd  Cd15  1  0.487108  0.000000  0.000000  1
  N  N16  1  0.999729  0.602649  0.129623  1
  N  N17  1  0.999729  0.397351  0.870377  1
  N  N18  1  0.000271  0.102649  0.370377  1
  N  N19  1  0.000271  0.897351  0.629623  1
  N  N20  1  0.500557  0.832325  0.359051  1
  N  N21  1  0.500557  0.167675  0.640949  1
  N  N22  1  0.499443  0.332325  0.140949  1
  N  N23  1  0.499443  0.667675  0.859051  1
