# generated using pymatgen
data_Yb3In3Rh2Au
_symmetry_space_group_name_H-M   'P 1'
_cell_length_a   7.54779800
_cell_length_b   7.54779766
_cell_length_c   4.05264800
_cell_angle_alpha   90.00000000
_cell_angle_beta   90.00000000
_cell_angle_gamma   119.99999271
_symmetry_Int_Tables_number   1
_chemical_formula_structural   Yb3In3Rh2Au
_chemical_formula_sum   'Yb3 In3 Rh2 Au1'
_cell_volume   199.94477783
_cell_formula_units_Z   1
loop_
 _symmetry_equiv_pos_site_id
 _symmetry_equiv_pos_as_xyz
  1  'x, y, z'
loop_
 _atom_site_type_symbol
 _atom_site_label
 _atom_site_symmetry_multiplicity
 _atom_site_fract_x
 _atom_site_fract_y
 _atom_site_fract_z
 _atom_site_occupancy
  Yb  Yb0  1  0.979218  0.586160  0.500000  1
  Yb  Yb1  1  0.606942  0.020782  0.500000  1
  Yb  Yb2  1  0.413840  0.393058  0.500000  1
  In  In3  1  0.990593  0.248189  0.000000  1
  In  In4  1  0.257596  0.009407  0.000000  1
  In  In5  1  0.751811  0.742404  0.000000  1
  Rh  Rh6  1  0.000000  0.000000  0.500000  1
  Rh  Rh7  1  0.666667  0.333333  0.000000  1
  Au  Au8  1  0.333333  0.666667  0.000000  1
