# generated using pymatgen
data_Eu10Si4Bi2F
_symmetry_space_group_name_H-M   'P 1'
_cell_length_a   9.47439286
_cell_length_b   9.47439352
_cell_length_c   9.47439336
_cell_angle_alpha   129.21940769
_cell_angle_beta   129.21940029
_cell_angle_gamma   74.65779509
_symmetry_Int_Tables_number   1
_chemical_formula_structural   Eu10Si4Bi2F
_chemical_formula_sum   'Eu10 Si4 Bi2 F1'
_cell_volume   497.33198387
_cell_formula_units_Z   1
loop_
 _symmetry_equiv_pos_site_id
 _symmetry_equiv_pos_as_xyz
  1  'x, y, z'
loop_
 _atom_site_type_symbol
 _atom_site_label
 _atom_site_symmetry_multiplicity
 _atom_site_fract_x
 _atom_site_fract_y
 _atom_site_fract_z
 _atom_site_occupancy
  Eu  Eu0  1  0.774866  0.443311  0.000000  1
  Eu  Eu1  1  0.443311  0.774867  0.000000  1
  Eu  Eu2  1  0.947085  0.947085  0.665544  1
  Eu  Eu3  1  0.281541  0.281541  0.334456  1
  Eu  Eu4  1  0.718459  0.052915  0.000000  1
  Eu  Eu5  1  0.052915  0.718459  0.000000  1
  Eu  Eu6  1  0.556689  0.556689  0.331555  1
  Eu  Eu7  1  0.225133  0.225133  0.668445  1
  Eu  Eu8  1  0.250000  0.750000  0.500000  1
  Eu  Eu9  1  0.750000  0.250000  0.500000  1
  Si  Si10  1  0.137361  0.364292  0.000000  1
  Si  Si11  1  0.364292  0.137361  0.000000  1
  Si  Si12  1  0.862639  0.862639  0.226932  1
  Si  Si13  1  0.635708  0.635708  0.773068  1
  Bi  Bi14  1  0.000000  0.500000  0.500000  1
  Bi  Bi15  1  0.500000  0.000000  0.500000  1
  F  F16  1  0.500000  0.500000  0.000000  1
