# generated using pymatgen
data_Dy10SnBi5S2
_symmetry_space_group_name_H-M   'P 1'
_cell_length_a   9.17746500
_cell_length_b   9.15465943
_cell_length_c   6.55388900
_cell_angle_alpha   90.00000000
_cell_angle_beta   90.00000000
_cell_angle_gamma   120.08244424
_symmetry_Int_Tables_number   1
_chemical_formula_structural   Dy10SnBi5S2
_chemical_formula_sum   'Dy10 Sn1 Bi5 S2'
_cell_volume   476.46746128
_cell_formula_units_Z   1
loop_
 _symmetry_equiv_pos_site_id
 _symmetry_equiv_pos_as_xyz
  1  'x, y, z'
loop_
 _atom_site_type_symbol
 _atom_site_label
 _atom_site_symmetry_multiplicity
 _atom_site_fract_x
 _atom_site_fract_y
 _atom_site_fract_z
 _atom_site_occupancy
  Dy  Dy0  1  0.249713  0.000000  0.750000  1
  Dy  Dy1  1  0.753473  0.000000  0.250000  1
  Dy  Dy2  1  0.994774  0.242644  0.750000  1
  Dy  Dy3  1  0.999375  0.753087  0.250000  1
  Dy  Dy4  1  0.752131  0.757356  0.750000  1
  Dy  Dy5  1  0.246289  0.246913  0.250000  1
  Dy  Dy6  1  0.335877  0.670662  0.501556  1
  Dy  Dy7  1  0.665216  0.329338  0.501556  1
  Dy  Dy8  1  0.665216  0.329338  0.998444  1
  Dy  Dy9  1  0.335877  0.670662  0.998444  1
  Sn  Sn10  1  0.603392  0.000000  0.750000  1
  Bi  Bi11  1  0.396544  0.000000  0.250000  1
  Bi  Bi12  1  0.998850  0.604613  0.750000  1
  Bi  Bi13  1  0.000682  0.396293  0.250000  1
  Bi  Bi14  1  0.394237  0.395387  0.750000  1
  Bi  Bi15  1  0.604389  0.603707  0.250000  1
  S  S16  1  0.001983  0.000000  0.499649  1
  S  S17  1  0.001983  0.000000  0.000351  1
