# generated using pymatgen
data_La11In9CoNi3
_symmetry_space_group_name_H-M   'P 1'
_cell_length_a   13.54781439
_cell_length_b   13.56278804
_cell_length_c   3.84986700
_cell_angle_alpha   90.00000000
_cell_angle_beta   90.00000000
_cell_angle_gamma   111.49796955
_symmetry_Int_Tables_number   1
_chemical_formula_structural   La11In9CoNi3
_chemical_formula_sum   'La11 In9 Co1 Ni3'
_cell_volume   658.18488317
_cell_formula_units_Z   1
loop_
 _symmetry_equiv_pos_site_id
 _symmetry_equiv_pos_as_xyz
  1  'x, y, z'
loop_
 _atom_site_type_symbol
 _atom_site_label
 _atom_site_symmetry_multiplicity
 _atom_site_fract_x
 _atom_site_fract_y
 _atom_site_fract_z
 _atom_site_occupancy
  La  La0  1  0.310909  0.316213  0.000000  1
  La  La1  1  0.687798  0.688224  0.000000  1
  La  La2  1  0.999875  0.999500  0.000000  1
  La  La3  1  0.083251  0.421800  0.000000  1
  La  La4  1  0.922618  0.580274  0.000000  1
  La  La5  1  0.420731  0.078485  0.000000  1
  La  La6  1  0.579634  0.922337  0.000000  1
  La  La7  1  0.840702  0.158120  0.000000  1
  La  La8  1  0.158391  0.841303  0.000000  1
  La  La9  1  0.625200  0.373477  0.000000  1
  La  La10  1  0.371100  0.622259  0.000000  1
  In  In11  1  0.837051  0.366334  0.500000  1
  In  In12  1  0.165165  0.634854  0.500000  1
  In  In13  1  0.366088  0.835687  0.500000  1
  In  In14  1  0.634162  0.163994  0.500000  1
  In  In15  1  0.081766  0.222361  0.500000  1
  In  In16  1  0.919461  0.778344  0.500000  1
  In  In17  1  0.221768  0.081573  0.500000  1
  In  In18  1  0.778227  0.919262  0.500000  1
  In  In19  1  0.501212  0.501050  0.500000  1
  Co  Co20  1  0.236227  0.443106  0.500000  1
  Ni  Ni21  1  0.756233  0.551068  0.500000  1
  Ni  Ni22  1  0.449226  0.244155  0.500000  1
  Ni  Ni23  1  0.553206  0.756220  0.500000  1
