# generated using pymatgen
data_Th4P8Os7Rh
_symmetry_space_group_name_H-M   'P 1'
_cell_length_a   4.18223000
_cell_length_b   7.59924280
_cell_length_c   10.59431026
_cell_angle_alpha   89.86727772
_cell_angle_beta   90.00000000
_cell_angle_gamma   90.00000000
_symmetry_Int_Tables_number   1
_chemical_formula_structural   Th4P8Os7Rh
_chemical_formula_sum   'Th4 P8 Os7 Rh1'
_cell_volume   336.70514760
_cell_formula_units_Z   1
loop_
 _symmetry_equiv_pos_site_id
 _symmetry_equiv_pos_as_xyz
  1  'x, y, z'
loop_
 _atom_site_type_symbol
 _atom_site_label
 _atom_site_symmetry_multiplicity
 _atom_site_fract_x
 _atom_site_fract_y
 _atom_site_fract_z
 _atom_site_occupancy
  Th  Th0  1  0.250000  0.273034  0.666286  1
  Th  Th1  1  0.750000  0.730080  0.333354  1
  Th  Th2  1  0.250000  0.766177  0.832259  1
  Th  Th3  1  0.750000  0.232412  0.167968  1
  P  P4  1  0.250000  0.092207  0.967275  1
  P  P5  1  0.750000  0.906398  0.033013  1
  P  P6  1  0.250000  0.594536  0.531024  1
  P  P7  1  0.750000  0.404163  0.461487  1
  P  P8  1  0.250000  0.530140  0.160269  1
  P  P9  1  0.750000  0.465847  0.845128  1
  P  P10  1  0.250000  0.029638  0.338984  1
  P  P11  1  0.750000  0.976660  0.660152  1
  Os  Os12  1  0.750000  0.107547  0.450190  1
  Os  Os13  1  0.250000  0.889992  0.551455  1
  Os  Os14  1  0.750000  0.611056  0.049829  1
  Os  Os15  1  0.250000  0.388399  0.950630  1
  Os  Os16  1  0.250000  0.868240  0.134205  1
  Os  Os17  1  0.750000  0.131096  0.866266  1
  Os  Os18  1  0.250000  0.364812  0.361068  1
  Rh  Rh19  1  0.750000  0.637564  0.639158  1
