# generated using pymatgen
data_CsSb12Ir3Ru
_symmetry_space_group_name_H-M   'P 1'
_cell_length_a   8.19059201
_cell_length_b   8.19216218
_cell_length_c   8.19216235
_cell_angle_alpha   109.47510593
_cell_angle_beta   109.46733328
_cell_angle_gamma   109.46733322
_symmetry_Int_Tables_number   1
_chemical_formula_structural   CsSb12Ir3Ru
_chemical_formula_sum   'Cs1 Sb12 Ir3 Ru1'
_cell_volume   423.16655649
_cell_formula_units_Z   1
loop_
 _symmetry_equiv_pos_site_id
 _symmetry_equiv_pos_as_xyz
  1  'x, y, z'
loop_
 _atom_site_type_symbol
 _atom_site_label
 _atom_site_symmetry_multiplicity
 _atom_site_fract_x
 _atom_site_fract_y
 _atom_site_fract_z
 _atom_site_occupancy
  Cs  Cs0  1  0.000000  0.000000  0.000000  1
  Sb  Sb1  1  0.159686  0.815175  0.659707  1
  Sb  Sb2  1  0.156015  0.500338  0.343982  1
  Sb  Sb3  1  0.500021  0.659707  0.844531  1
  Sb  Sb4  1  0.344509  0.844531  0.184825  1
  Sb  Sb5  1  0.812034  0.656018  0.156356  1
  Sb  Sb6  1  0.655677  0.843644  0.499662  1
  Sb  Sb7  1  0.187966  0.343982  0.843644  1
  Sb  Sb8  1  0.655491  0.155469  0.815175  1
  Sb  Sb9  1  0.344323  0.156356  0.500338  1
  Sb  Sb10  1  0.499979  0.340293  0.155469  1
  Sb  Sb11  1  0.843985  0.499662  0.656018  1
  Sb  Sb12  1  0.840314  0.184825  0.340293  1
  Ir  Ir13  1  0.500000  0.500000  0.500000  1
  Ir  Ir14  1  0.000000  0.000000  0.500000  1
  Ir  Ir15  1  0.000000  0.500000  0.000000  1
  Ru  Ru16  1  0.500000  0.000000  0.000000  1
