# generated using pymatgen
data_Tb4TmLu3Tl3Co
_symmetry_space_group_name_H-M   'P 1'
_cell_length_a   10.19481439
_cell_length_b   10.19481461
_cell_length_c   7.20486579
_cell_angle_alpha   90.00750307
_cell_angle_beta   89.99248806
_cell_angle_gamma   119.99454568
_symmetry_Int_Tables_number   1
_chemical_formula_structural   Tb4TmLu3Tl3Co
_chemical_formula_sum   'Tb8 Tm2 Lu6 Tl6 Co2'
_cell_volume   648.54340090
_cell_formula_units_Z   2
loop_
 _symmetry_equiv_pos_site_id
 _symmetry_equiv_pos_as_xyz
  1  'x, y, z'
loop_
 _atom_site_type_symbol
 _atom_site_label
 _atom_site_symmetry_multiplicity
 _atom_site_fract_x
 _atom_site_fract_y
 _atom_site_fract_z
 _atom_site_occupancy
  Tb  Tb0  1  0.537468  0.073994  0.786394  1
  Tb  Tb1  1  0.926006  0.462532  0.786394  1
  Tb  Tb2  1  0.537093  0.462907  0.786810  1
  Tb  Tb3  1  0.463073  0.925596  0.285707  1
  Tb  Tb4  1  0.074404  0.536927  0.285707  1
  Tb  Tb5  1  0.462517  0.537483  0.285703  1
  Tb  Tb6  1  0.999656  0.000344  0.772713  1
  Tb  Tb7  1  0.999853  0.000147  0.270830  1
  Tm  Tm8  1  0.820969  0.642131  0.487721  1
  Tm  Tm9  1  0.357869  0.179031  0.487721  1
  Lu  Lu10  1  0.820467  0.179533  0.487515  1
  Lu  Lu11  1  0.179563  0.358907  0.987443  1
  Lu  Lu12  1  0.641093  0.820437  0.987443  1
  Lu  Lu13  1  0.179514  0.820486  0.987573  1
  Lu  Lu14  1  0.666863  0.333137  0.184501  1
  Lu  Lu15  1  0.333395  0.666605  0.685838  1
  Tl  Tl16  1  0.836338  0.672517  0.042527  1
  Tl  Tl17  1  0.327483  0.163662  0.042527  1
  Tl  Tl18  1  0.836407  0.163593  0.043635  1
  Tl  Tl19  1  0.163257  0.328213  0.544281  1
  Tl  Tl20  1  0.671787  0.836743  0.544281  1
  Tl  Tl21  1  0.164403  0.835597  0.544520  1
  Co  Co22  1  0.667125  0.332875  0.554115  1
  Co  Co23  1  0.333398  0.666602  0.054174  1
