# generated using pymatgen
data_Sn11PbO16
_symmetry_space_group_name_H-M   'P 1'
_cell_length_a   6.37222300
_cell_length_b   8.55859047
_cell_length_c   9.02484185
_cell_angle_alpha   89.61697435
_cell_angle_beta   90.00000000
_cell_angle_gamma   90.00000000
_symmetry_Int_Tables_number   1
_chemical_formula_structural   Sn11PbO16
_chemical_formula_sum   'Sn11 Pb1 O16'
_cell_volume   492.17903144
_cell_formula_units_Z   1
loop_
 _symmetry_equiv_pos_site_id
 _symmetry_equiv_pos_as_xyz
  1  'x, y, z'
loop_
 _atom_site_type_symbol
 _atom_site_label
 _atom_site_symmetry_multiplicity
 _atom_site_fract_x
 _atom_site_fract_y
 _atom_site_fract_z
 _atom_site_occupancy
  Sn  Sn0  1  0.500000  0.360336  0.326499  1
  Sn  Sn1  1  0.500000  0.636447  0.675120  1
  Sn  Sn2  1  0.500000  0.860029  0.174838  1
  Sn  Sn3  1  0.000000  0.661310  0.346203  1
  Sn  Sn4  1  0.000000  0.338507  0.654609  1
  Sn  Sn5  1  0.000000  0.161575  0.153721  1
  Sn  Sn6  1  0.000000  0.840501  0.841052  1
  Sn  Sn7  1  0.750993  0.999942  0.499244  1
  Sn  Sn8  1  0.249113  0.502654  0.000835  1
  Sn  Sn9  1  0.249007  0.999942  0.499244  1
  Sn  Sn10  1  0.750887  0.502654  0.000835  1
  Pb  Pb11  1  0.500000  0.128768  0.835880  1
  O  O12  1  0.500000  0.102670  0.378714  1
  O  O13  1  0.500000  0.896620  0.620572  1
  O  O14  1  0.500000  0.605362  0.122893  1
  O  O15  1  0.500000  0.404700  0.881716  1
  O  O16  1  0.000000  0.126658  0.398750  1
  O  O17  1  0.000000  0.867615  0.593743  1
  O  O18  1  0.000000  0.630127  0.097577  1
  O  O19  1  0.000000  0.373986  0.903829  1
  O  O20  1  0.748687  0.329658  0.166529  1
  O  O21  1  0.749366  0.673352  0.833037  1
  O  O22  1  0.251308  0.829914  0.332511  1
  O  O23  1  0.241536  0.166874  0.664986  1
  O  O24  1  0.748692  0.829914  0.332511  1
  O  O25  1  0.758464  0.166874  0.664986  1
  O  O26  1  0.251313  0.329658  0.166529  1
  O  O27  1  0.250634  0.673352  0.833037  1
