# generated using pymatgen
data_Cs6PrDyBr12
_symmetry_space_group_name_H-M   'P 1'
_cell_length_a   10.06099733
_cell_length_b   10.04496840
_cell_length_c   8.38004300
_cell_angle_alpha   90.00000000
_cell_angle_beta   90.00000000
_cell_angle_gamma   89.94028127
_symmetry_Int_Tables_number   1
_chemical_formula_structural   Cs6PrDyBr12
_chemical_formula_sum   'Cs6 Pr1 Dy1 Br12'
_cell_volume   846.90679983
_cell_formula_units_Z   1
loop_
 _symmetry_equiv_pos_site_id
 _symmetry_equiv_pos_as_xyz
  1  'x, y, z'
loop_
 _atom_site_type_symbol
 _atom_site_label
 _atom_site_symmetry_multiplicity
 _atom_site_fract_x
 _atom_site_fract_y
 _atom_site_fract_z
 _atom_site_occupancy
  Cs  Cs0  1  0.000000  0.000000  0.500000  1
  Cs  Cs1  1  0.000000  0.000000  0.000000  1
  Cs  Cs2  1  0.233643  0.583021  0.500000  1
  Cs  Cs3  1  0.766357  0.416979  0.500000  1
  Cs  Cs4  1  0.416175  0.237498  0.000000  1
  Cs  Cs5  1  0.583825  0.762502  0.000000  1
  Pr  Pr6  1  0.500000  0.000000  0.500000  1
  Dy  Dy7  1  0.000000  0.500000  0.000000  1
  Br  Br8  1  0.698087  0.058496  0.746365  1
  Br  Br9  1  0.301913  0.941504  0.746365  1
  Br  Br10  1  0.943665  0.691147  0.238335  1
  Br  Br11  1  0.056335  0.308853  0.238335  1
  Br  Br12  1  0.301913  0.941504  0.253635  1
  Br  Br13  1  0.698087  0.058496  0.253635  1
  Br  Br14  1  0.056335  0.308853  0.761665  1
  Br  Br15  1  0.943665  0.691147  0.761665  1
  Br  Br16  1  0.571363  0.719515  0.500000  1
  Br  Br17  1  0.428637  0.280485  0.500000  1
  Br  Br18  1  0.270582  0.569517  0.000000  1
  Br  Br19  1  0.729418  0.430483  0.000000  1
