# generated using pymatgen
data_ErPu6PaH24
_symmetry_space_group_name_H-M   'P 1'
_cell_length_a   6.61984800
_cell_length_b   6.61984800
_cell_length_c   6.61984800
_cell_angle_alpha   90.00000000
_cell_angle_beta   90.00000000
_cell_angle_gamma   90.00000000
_symmetry_Int_Tables_number   1
_chemical_formula_structural   ErPu6PaH24
_chemical_formula_sum   'Er1 Pu6 Pa1 H24'
_cell_volume   290.09754453
_cell_formula_units_Z   1
loop_
 _symmetry_equiv_pos_site_id
 _symmetry_equiv_pos_as_xyz
  1  'x, y, z'
loop_
 _atom_site_type_symbol
 _atom_site_label
 _atom_site_symmetry_multiplicity
 _atom_site_fract_x
 _atom_site_fract_y
 _atom_site_fract_z
 _atom_site_occupancy
  Er  Er0  1  0.000000  0.000000  0.000000  1
  Pu  Pu1  1  0.247064  0.000000  0.500000  1
  Pu  Pu2  1  0.752936  0.000000  0.500000  1
  Pu  Pu3  1  0.000000  0.500000  0.247064  1
  Pu  Pu4  1  0.000000  0.500000  0.752936  1
  Pu  Pu5  1  0.500000  0.752936  0.000000  1
  Pu  Pu6  1  0.500000  0.247064  0.000000  1
  Pa  Pa7  1  0.500000  0.500000  0.500000  1
  H  H8  1  0.000000  0.155934  0.303739  1
  H  H9  1  0.500000  0.199891  0.654446  1
  H  H10  1  0.500000  0.800109  0.345554  1
  H  H11  1  0.800109  0.654446  0.500000  1
  H  H12  1  0.199891  0.654446  0.500000  1
  H  H13  1  0.345554  0.500000  0.800109  1
  H  H14  1  0.654446  0.500000  0.800109  1
  H  H15  1  0.303739  0.000000  0.155934  1
  H  H16  1  0.155934  0.303739  0.000000  1
  H  H17  1  0.844066  0.696261  0.000000  1
  H  H18  1  0.303739  0.000000  0.844066  1
  H  H19  1  0.844066  0.303739  0.000000  1
  H  H20  1  0.696261  0.000000  0.155934  1
  H  H21  1  0.696261  0.000000  0.844066  1
  H  H22  1  0.155934  0.696261  0.000000  1
  H  H23  1  0.000000  0.844066  0.696261  1
  H  H24  1  0.000000  0.155934  0.696261  1
  H  H25  1  0.000000  0.844066  0.303739  1
  H  H26  1  0.654446  0.500000  0.199891  1
  H  H27  1  0.345554  0.500000  0.199891  1
  H  H28  1  0.800109  0.345554  0.500000  1
  H  H29  1  0.199891  0.345554  0.500000  1
  H  H30  1  0.500000  0.800109  0.654446  1
  H  H31  1  0.500000  0.199891  0.345554  1
