# generated using pymatgen
data_Pr16CdHg3(IrPd)2
_symmetry_space_group_name_H-M   'P 1'
_cell_length_a   10.03980339
_cell_length_b   10.05658141
_cell_length_c   10.03926600
_cell_angle_alpha   60.05694690
_cell_angle_beta   60.00177720
_cell_angle_gamma   60.33017241
_symmetry_Int_Tables_number   1
_chemical_formula_structural   Pr16CdHg3(IrPd)2
_chemical_formula_sum   'Pr16 Cd1 Hg3 Ir2 Pd2'
_cell_volume   718.83281249
_cell_formula_units_Z   1
loop_
 _symmetry_equiv_pos_site_id
 _symmetry_equiv_pos_as_xyz
  1  'x, y, z'
loop_
 _atom_site_type_symbol
 _atom_site_label
 _atom_site_symmetry_multiplicity
 _atom_site_fract_x
 _atom_site_fract_y
 _atom_site_fract_z
 _atom_site_occupancy
  Pr  Pr0  1  0.351106  0.350833  0.346190  1
  Pr  Pr1  1  0.351106  0.350833  0.951870  1
  Pr  Pr2  1  0.358487  0.940453  0.350529  1
  Pr  Pr3  1  0.938512  0.358852  0.351317  1
  Pr  Pr4  1  0.804442  0.191981  0.190715  1
  Pr  Pr5  1  0.190787  0.805245  0.813559  1
  Pr  Pr6  1  0.190787  0.805245  0.190408  1
  Pr  Pr7  1  0.804442  0.191981  0.812861  1
  Pr  Pr8  1  0.191302  0.192054  0.808322  1
  Pr  Pr9  1  0.809779  0.809953  0.190134  1
  Pr  Pr10  1  0.939198  0.564498  0.560488  1
  Pr  Pr11  1  0.563969  0.940220  0.935658  1
  Pr  Pr12  1  0.563969  0.940220  0.560153  1
  Pr  Pr13  1  0.939198  0.564498  0.935816  1
  Pr  Pr14  1  0.562048  0.562623  0.937665  1
  Pr  Pr15  1  0.938067  0.938911  0.561511  1
  Cd  Cd16  1  0.261416  0.578179  0.580202  1
  Hg  Hg17  1  0.582781  0.585028  0.585361  1
  Hg  Hg18  1  0.582781  0.585028  0.246830  1
  Hg  Hg19  1  0.581352  0.248032  0.585308  1
  Ir  Ir20  1  0.140643  0.570911  0.144224  1
  Ir  Ir21  1  0.570866  0.140955  0.144090  1
  Pd  Pd22  1  0.141481  0.141733  0.147413  1
  Pd  Pd23  1  0.141481  0.141733  0.569373  1
