# generated using pymatgen
data_Tb2MnCoSi2C
_symmetry_space_group_name_H-M   'P 1'
_cell_length_a   5.66906950
_cell_length_b   5.66906996
_cell_length_c   6.80375804
_cell_angle_alpha   126.67460257
_cell_angle_beta   126.67460680
_cell_angle_gamma   40.72799969
_symmetry_Int_Tables_number   1
_chemical_formula_structural   Tb2MnCoSi2C
_chemical_formula_sum   'Tb2 Mn1 Co1 Si2 C1'
_cell_volume   109.96875184
_cell_formula_units_Z   1
loop_
 _symmetry_equiv_pos_site_id
 _symmetry_equiv_pos_as_xyz
  1  'x, y, z'
loop_
 _atom_site_type_symbol
 _atom_site_label
 _atom_site_symmetry_multiplicity
 _atom_site_fract_x
 _atom_site_fract_y
 _atom_site_fract_z
 _atom_site_occupancy
  Tb  Tb0  1  0.559884  0.559884  0.293788  1
  Tb  Tb1  1  0.438769  0.438769  0.706388  1
  Mn  Mn2  1  0.199946  0.199946  0.092945  1
  Co  Co3  1  0.796842  0.796842  0.904185  1
  Si  Si4  1  0.840967  0.840967  0.285260  1
  Si  Si5  1  0.160329  0.160329  0.713013  1
  C  C6  1  0.003263  0.003263  0.004423  1
