# generated using pymatgen
data_Li3MgAs6Ir7
_symmetry_space_group_name_H-M   'P 1'
_cell_length_a   6.99400580
_cell_length_b   7.01798421
_cell_length_c   7.01798312
_cell_angle_alpha   109.54031850
_cell_angle_beta   109.40202723
_cell_angle_gamma   109.40202755
_symmetry_Int_Tables_number   1
_chemical_formula_structural   Li3MgAs6Ir7
_chemical_formula_sum   'Li3 Mg1 As6 Ir7'
_cell_volume   265.39881969
_cell_formula_units_Z   1
loop_
 _symmetry_equiv_pos_site_id
 _symmetry_equiv_pos_as_xyz
  1  'x, y, z'
loop_
 _atom_site_type_symbol
 _atom_site_label
 _atom_site_symmetry_multiplicity
 _atom_site_fract_x
 _atom_site_fract_y
 _atom_site_fract_z
 _atom_site_occupancy
  Li  Li0  1  0.000000  0.000000  0.500000  1
  Li  Li1  1  0.000000  0.500000  0.000000  1
  Li  Li2  1  0.500000  0.500000  0.500000  1
  Mg  Mg3  1  0.500000  0.000000  0.000000  1
  As  As4  1  0.691919  0.684652  0.000000  1
  As  As5  1  0.308081  0.315348  0.000000  1
  As  As6  1  0.992734  0.684652  0.684652  1
  As  As7  1  0.007266  0.315348  0.315348  1
  As  As8  1  0.691919  0.000000  0.684652  1
  As  As9  1  0.308081  0.000000  0.315348  1
  Ir  Ir10  1  0.000000  0.000000  0.000000  1
  Ir  Ir11  1  0.251406  0.502812  0.751406  1
  Ir  Ir12  1  0.748594  0.248594  0.497188  1
  Ir  Ir13  1  0.500000  0.248594  0.751406  1
  Ir  Ir14  1  0.500000  0.751406  0.248594  1
  Ir  Ir15  1  0.748594  0.497188  0.248594  1
  Ir  Ir16  1  0.251406  0.751406  0.502812  1
