# generated using pymatgen
data_Er6LuCo17P12
_symmetry_space_group_name_H-M   'P 1'
_cell_length_a   3.70203000
_cell_length_b   10.57799300
_cell_length_c   12.29676800
_cell_angle_alpha   90.00000000
_cell_angle_beta   90.00000000
_cell_angle_gamma   90.00000000
_symmetry_Int_Tables_number   1
_chemical_formula_structural   Er6LuCo17P12
_chemical_formula_sum   'Er6 Lu1 Co17 P12'
_cell_volume   481.54201806
_cell_formula_units_Z   1
loop_
 _symmetry_equiv_pos_site_id
 _symmetry_equiv_pos_as_xyz
  1  'x, y, z'
loop_
 _atom_site_type_symbol
 _atom_site_label
 _atom_site_symmetry_multiplicity
 _atom_site_fract_x
 _atom_site_fract_y
 _atom_site_fract_z
 _atom_site_occupancy
  Er  Er0  1  0.750000  0.250000  0.468885  1
  Er  Er1  1  0.250000  0.750000  0.522527  1
  Er  Er2  1  0.250000  0.927249  0.791982  1
  Er  Er3  1  0.250000  0.572751  0.791982  1
  Er  Er4  1  0.750000  0.066963  0.204697  1
  Er  Er5  1  0.750000  0.433037  0.204697  1
  Lu  Lu6  1  0.250000  0.250000  0.845013  1
  Co  Co7  1  0.750000  0.750000  0.165380  1
  Co  Co8  1  0.250000  0.250000  0.296922  1
  Co  Co9  1  0.750000  0.750000  0.704424  1
  Co  Co10  1  0.750000  0.250000  0.017890  1
  Co  Co11  1  0.250000  0.750000  0.986696  1
  Co  Co12  1  0.250000  0.425375  0.013188  1
  Co  Co13  1  0.250000  0.074625  0.013188  1
  Co  Co14  1  0.750000  0.590021  0.000766  1
  Co  Co15  1  0.750000  0.909979  0.000766  1
  Co  Co16  1  0.250000  0.456912  0.563753  1
  Co  Co17  1  0.250000  0.043088  0.563753  1
  Co  Co18  1  0.750000  0.549033  0.429086  1
  Co  Co19  1  0.750000  0.950967  0.429086  1
  Co  Co20  1  0.250000  0.869621  0.293027  1
  Co  Co21  1  0.250000  0.630379  0.293027  1
  Co  Co22  1  0.750000  0.126635  0.697989  1
  Co  Co23  1  0.750000  0.373365  0.697989  1
  P  P24  1  0.250000  0.250000  0.118431  1
  P  P25  1  0.750000  0.750000  0.883814  1
  P  P26  1  0.250000  0.250000  0.635341  1
  P  P27  1  0.750000  0.750000  0.346915  1
  P  P28  1  0.250000  0.440937  0.381082  1
  P  P29  1  0.250000  0.059063  0.381082  1
  P  P30  1  0.750000  0.562860  0.613102  1
  P  P31  1  0.750000  0.937140  0.613102  1
  P  P32  1  0.250000  0.896792  0.113156  1
  P  P33  1  0.250000  0.603208  0.113156  1
  P  P34  1  0.750000  0.081973  0.902053  1
  P  P35  1  0.750000  0.418027  0.902053  1
