# generated using pymatgen
data_Pr8Ho9Tm3In16
_symmetry_space_group_name_H-M   'P 1'
_cell_length_a   8.05731700
_cell_length_b   8.37889038
_cell_length_c   15.93245000
_cell_angle_alpha   90.00000000
_cell_angle_beta   90.00000000
_cell_angle_gamma   89.96714971
_symmetry_Int_Tables_number   1
_chemical_formula_structural   Pr8Ho9Tm3In16
_chemical_formula_sum   'Pr8 Ho9 Tm3 In16'
_cell_volume   1075.62144380
_cell_formula_units_Z   1
loop_
 _symmetry_equiv_pos_site_id
 _symmetry_equiv_pos_as_xyz
  1  'x, y, z'
loop_
 _atom_site_type_symbol
 _atom_site_label
 _atom_site_symmetry_multiplicity
 _atom_site_fract_x
 _atom_site_fract_y
 _atom_site_fract_z
 _atom_site_occupancy
  Pr  Pr0  1  0.987209  0.818605  0.093123  1
  Pr  Pr1  1  0.487013  0.681595  0.407029  1
  Pr  Pr2  1  0.513093  0.318620  0.907155  1
  Pr  Pr3  1  0.012945  0.181962  0.592644  1
  Pr  Pr4  1  0.012945  0.181962  0.907356  1
  Pr  Pr5  1  0.513093  0.318620  0.592845  1
  Pr  Pr6  1  0.487013  0.681595  0.092971  1
  Pr  Pr7  1  0.987209  0.818605  0.406877  1
  Ho  Ho8  1  0.347348  0.001816  0.750000  1
  Ho  Ho9  1  0.676220  0.832208  0.875927  1
  Ho  Ho10  1  0.176081  0.667038  0.624248  1
  Ho  Ho11  1  0.823926  0.332458  0.124406  1
  Ho  Ho12  1  0.323764  0.167436  0.375404  1
  Ho  Ho13  1  0.323764  0.167436  0.124596  1
  Ho  Ho14  1  0.823926  0.332458  0.375594  1
  Ho  Ho15  1  0.176081  0.667038  0.875752  1
  Ho  Ho16  1  0.676220  0.832208  0.624073  1
  Tm  Tm17  1  0.652515  0.999192  0.250000  1
  Tm  Tm18  1  0.152477  0.501074  0.250000  1
  Tm  Tm19  1  0.847263  0.499267  0.750000  1
  In  In20  1  0.780797  0.635209  0.250000  1
  In  In21  1  0.280923  0.864770  0.250000  1
  In  In22  1  0.720571  0.135378  0.750000  1
  In  In23  1  0.218713  0.365529  0.750000  1
  In  In24  1  0.019816  0.113481  0.250000  1
  In  In25  1  0.519971  0.386406  0.250000  1
  In  In26  1  0.480166  0.613148  0.750000  1
  In  In27  1  0.979344  0.885072  0.750000  1
  In  In28  1  0.835723  0.533979  0.957459  1
  In  In29  1  0.335663  0.965869  0.542231  1
  In  In30  1  0.664186  0.034071  0.042874  1
  In  In31  1  0.164226  0.465987  0.457100  1
  In  In32  1  0.164226  0.465987  0.042900  1
  In  In33  1  0.664186  0.034071  0.457126  1
  In  In34  1  0.335663  0.965869  0.957769  1
  In  In35  1  0.835723  0.533979  0.542541  1
