# generated using pymatgen
data_Lu6Fe2ReSi6Rh
_symmetry_space_group_name_H-M   'P 1'
_cell_length_a   5.57524953
_cell_length_b   5.57524805
_cell_length_c   13.40340458
_cell_angle_alpha   89.55935078
_cell_angle_beta   90.44065043
_cell_angle_gamma   136.89408012
_symmetry_Int_Tables_number   1
_chemical_formula_structural   Lu6Fe2ReSi6Rh
_chemical_formula_sum   'Lu6 Fe2 Re1 Si6 Rh1'
_cell_volume   284.68952055
_cell_formula_units_Z   1
loop_
 _symmetry_equiv_pos_site_id
 _symmetry_equiv_pos_as_xyz
  1  'x, y, z'
loop_
 _atom_site_type_symbol
 _atom_site_label
 _atom_site_symmetry_multiplicity
 _atom_site_fract_x
 _atom_site_fract_y
 _atom_site_fract_z
 _atom_site_occupancy
  Lu  Lu0  1  0.639660  0.360340  0.248036  1
  Lu  Lu1  1  0.362147  0.637853  0.751742  1
  Lu  Lu2  1  0.921231  0.078769  0.110192  1
  Lu  Lu3  1  0.079058  0.920942  0.890530  1
  Lu  Lu4  1  0.078598  0.921402  0.617723  1
  Lu  Lu5  1  0.923808  0.076192  0.380938  1
  Fe  Fe6  1  0.211616  0.788384  0.080295  1
  Fe  Fe7  1  0.784467  0.215533  0.921955  1
  Re  Re8  1  0.786622  0.213378  0.584274  1
  Si  Si9  1  0.331422  0.668578  0.243375  1
  Si  Si10  1  0.673746  0.326254  0.756824  1
  Si  Si11  1  0.621479  0.378521  0.039761  1
  Si  Si12  1  0.375450  0.624550  0.961307  1
  Si  Si13  1  0.388959  0.611041  0.536892  1
  Si  Si14  1  0.609925  0.390075  0.460646  1
  Rh  Rh15  1  0.211813  0.788187  0.415509  1
