# generated using pymatgen
data_Zr2NiRh5C
_symmetry_space_group_name_H-M   'P 1'
_cell_length_a   5.65255874
_cell_length_b   5.65255905
_cell_length_c   5.71417700
_cell_angle_alpha   59.63874726
_cell_angle_beta   59.63874541
_cell_angle_gamma   60.72251497
_symmetry_Int_Tables_number   1
_chemical_formula_structural   Zr2NiRh5C
_chemical_formula_sum   'Zr2 Ni1 Rh5 C1'
_cell_volume   129.06977183
_cell_formula_units_Z   1
loop_
 _symmetry_equiv_pos_site_id
 _symmetry_equiv_pos_as_xyz
  1  'x, y, z'
loop_
 _atom_site_type_symbol
 _atom_site_label
 _atom_site_symmetry_multiplicity
 _atom_site_fract_x
 _atom_site_fract_y
 _atom_site_fract_z
 _atom_site_occupancy
  Zr  Zr0  1  0.250448  0.250448  0.249552  1
  Zr  Zr1  1  0.750448  0.750448  0.749552  1
  Ni  Ni2  1  0.749742  0.749742  0.250257  1
  Rh  Rh3  1  0.753084  0.244699  0.246915  1
  Rh  Rh4  1  0.244699  0.753084  0.246915  1
  Rh  Rh5  1  0.246700  0.246700  0.753299  1
  Rh  Rh6  1  0.753084  0.244699  0.755300  1
  Rh  Rh7  1  0.244699  0.753084  0.755300  1
  C  C8  1  0.507093  0.507093  0.492907  1
