# generated using pymatgen
data_La4Nd8MnFeI17
_symmetry_space_group_name_H-M   'P 1'
_cell_length_a   10.02260623
_cell_length_b   12.15332982
_cell_length_c   12.09471859
_cell_angle_alpha   74.13614107
_cell_angle_beta   75.29115923
_cell_angle_gamma   65.68849840
_symmetry_Int_Tables_number   1
_chemical_formula_structural   La4Nd8MnFeI17
_chemical_formula_sum   'La4 Nd8 Mn1 Fe1 I17'
_cell_volume   1274.55048709
_cell_formula_units_Z   1
loop_
 _symmetry_equiv_pos_site_id
 _symmetry_equiv_pos_as_xyz
  1  'x, y, z'
loop_
 _atom_site_type_symbol
 _atom_site_label
 _atom_site_symmetry_multiplicity
 _atom_site_fract_x
 _atom_site_fract_y
 _atom_site_fract_z
 _atom_site_occupancy
  La  La0  1  0.584600  0.758829  0.278023  1
  La  La1  1  0.820147  0.190348  0.587283  1
  La  La2  1  0.167353  0.811579  0.425421  1
  La  La3  1  0.162430  0.716040  0.154186  1
  Nd  Nd4  1  0.453455  0.483491  0.322485  1
  Nd  Nd5  1  0.558386  0.671254  0.005049  1
  Nd  Nd6  1  0.271282  0.990572  0.102615  1
  Nd  Nd7  1  0.860973  0.287540  0.850712  1
  Nd  Nd8  1  0.406578  0.240874  0.719898  1
  Nd  Nd9  1  0.721236  0.020862  0.895196  1
  Nd  Nd10  1  0.550002  0.503310  0.678810  1
  Nd  Nd11  1  0.453142  0.329096  0.983523  1
  Mn  Mn12  1  0.352325  0.737097  0.208780  1
  Fe  Fe13  1  0.635858  0.261244  0.786324  1
  I  I14  1  0.055335  0.104903  0.322726  1
  I  I15  1  0.465856  0.948310  0.841735  1
  I  I16  1  0.429323  0.810646  0.538421  1
  I  I17  1  0.567439  0.183208  0.465366  1
  I  I18  1  0.839513  0.712123  0.042624  1
  I  I19  1  0.227561  0.417602  0.238341  1
  I  I20  1  0.688294  0.371861  0.101731  1
  I  I21  1  0.527333  0.054417  0.159100  1
  I  I22  1  0.739765  0.472195  0.414982  1
  I  I23  1  0.883538  0.785446  0.369461  1
  I  I24  1  0.944051  0.893908  0.683820  1
  I  I25  1  0.159126  0.293558  0.954852  1
  I  I26  1  0.321454  0.630464  0.895023  1
  I  I27  1  0.998962  0.002319  0.001288  1
  I  I28  1  0.115123  0.214643  0.634706  1
  I  I29  1  0.781025  0.578196  0.756314  1
  I  I30  1  0.258538  0.524060  0.581204  1
