# generated using pymatgen
data_Nd3Th(Si5Tc3)2
_symmetry_space_group_name_H-M   'P 1'
_cell_length_a   8.44985535
_cell_length_b   8.45796146
_cell_length_c   8.45796057
_cell_angle_alpha   140.68183134
_cell_angle_beta   108.73208272
_cell_angle_gamma   84.57369457
_symmetry_Int_Tables_number   1
_chemical_formula_structural   Nd3Th(Si5Tc3)2
_chemical_formula_sum   'Nd3 Th1 Si10 Tc6'
_cell_volume   350.59522001
_cell_formula_units_Z   1
loop_
 _symmetry_equiv_pos_site_id
 _symmetry_equiv_pos_as_xyz
  1  'x, y, z'
loop_
 _atom_site_type_symbol
 _atom_site_label
 _atom_site_symmetry_multiplicity
 _atom_site_fract_x
 _atom_site_fract_y
 _atom_site_fract_z
 _atom_site_occupancy
  Nd  Nd0  1  0.366994  0.130099  0.236895  1
  Nd  Nd1  1  0.103827  0.367839  0.735988  1
  Nd  Nd2  1  0.896338  0.632607  0.263731  1
  Th  Th3  1  0.632699  0.867010  0.765689  1
  Si  Si4  1  0.290052  0.041282  0.748112  1
  Si  Si5  1  0.707910  0.959642  0.251675  1
  Si  Si6  1  0.707910  0.456235  0.748268  1
  Si  Si7  1  0.290052  0.541940  0.248770  1
  Si  Si8  1  0.429413  0.599624  0.829788  1
  Si  Si9  1  0.570603  0.401342  0.169262  1
  Si  Si10  1  0.774318  0.100967  0.673350  1
  Si  Si11  1  0.226597  0.899293  0.327304  1
  Si  Si12  1  0.001390  0.746517  0.746719  1
  Si  Si13  1  0.001390  0.254671  0.254873  1
  Tc  Tc14  1  0.241193  0.649729  0.591466  1
  Tc  Tc15  1  0.758768  0.352513  0.406254  1
  Tc  Tc16  1  0.060103  0.147142  0.912962  1
  Tc  Tc17  1  0.938644  0.852415  0.086229  1
  Tc  Tc18  1  0.500900  0.750261  0.252028  1
  Tc  Tc19  1  0.500900  0.248872  0.750638  1
