# generated using pymatgen
data_Sr4Ga13Pt9
_symmetry_space_group_name_H-M   'P 1'
_cell_length_a   11.71867308
_cell_length_b   11.71895088
_cell_length_c   4.24540600
_cell_angle_alpha   90.00000000
_cell_angle_beta   90.00000000
_cell_angle_gamma   120.00080798
_symmetry_Int_Tables_number   1
_chemical_formula_structural   Sr4Ga13Pt9
_chemical_formula_sum   'Sr4 Ga13 Pt9'
_cell_volume   504.90944872
_cell_formula_units_Z   1
loop_
 _symmetry_equiv_pos_site_id
 _symmetry_equiv_pos_as_xyz
  1  'x, y, z'
loop_
 _atom_site_type_symbol
 _atom_site_label
 _atom_site_symmetry_multiplicity
 _atom_site_fract_x
 _atom_site_fract_y
 _atom_site_fract_z
 _atom_site_occupancy
  Sr  Sr0  1  0.204432  0.795536  0.500000  1
  Sr  Sr1  1  0.591134  0.795567  0.500000  1
  Sr  Sr2  1  0.204431  0.408895  0.500000  1
  Sr  Sr3  1  0.666649  0.333323  0.000000  1
  Ga  Ga4  1  0.951387  0.288431  0.000000  1
  Ga  Ga5  1  0.711576  0.662977  0.000000  1
  Ga  Ga6  1  0.951388  0.662955  0.000000  1
  Ga  Ga7  1  0.337039  0.048601  0.000000  1
  Ga  Ga8  1  0.161038  0.080519  0.500000  1
  Ga  Ga9  1  0.919497  0.838959  0.500000  1
  Ga  Ga10  1  0.711576  0.048598  0.000000  1
  Ga  Ga11  1  0.533098  0.066194  0.500000  1
  Ga  Ga12  1  0.919498  0.080538  0.500000  1
  Ga  Ga13  1  0.337039  0.288438  0.000000  1
  Ga  Ga14  1  0.533098  0.466904  0.500000  1
  Ga  Ga15  1  0.933772  0.466886  0.500000  1
  Ga  Ga16  1  0.333328  0.666664  0.000000  1
  Pt  Pt17  1  0.459052  0.540954  0.000000  1
  Pt  Pt18  1  0.837779  0.918890  0.000000  1
  Pt  Pt19  1  0.459052  0.918097  0.000000  1
  Pt  Pt20  1  0.081137  0.162258  0.000000  1
  Pt  Pt21  1  0.081138  0.918880  0.000000  1
  Pt  Pt22  1  0.794144  0.588310  0.500000  1
  Pt  Pt23  1  0.081885  0.540944  0.000000  1
  Pt  Pt24  1  0.794145  0.205833  0.500000  1
  Pt  Pt25  1  0.411689  0.205844  0.500000  1
