# generated using pymatgen
data_Er12Tc2PdRu
_symmetry_space_group_name_H-M   'P 1'
_cell_length_a   6.29135614
_cell_length_b   7.30784754
_cell_length_c   9.11002000
_cell_angle_alpha   90.00000000
_cell_angle_beta   90.00000000
_cell_angle_gamma   90.07557274
_symmetry_Int_Tables_number   1
_chemical_formula_structural   Er12Tc2PdRu
_chemical_formula_sum   'Er12 Tc2 Pd1 Ru1'
_cell_volume   418.84438892
_cell_formula_units_Z   1
loop_
 _symmetry_equiv_pos_site_id
 _symmetry_equiv_pos_as_xyz
  1  'x, y, z'
loop_
 _atom_site_type_symbol
 _atom_site_label
 _atom_site_symmetry_multiplicity
 _atom_site_fract_x
 _atom_site_fract_y
 _atom_site_fract_z
 _atom_site_occupancy
  Er  Er0  1  0.335471  0.672471  0.059635  1
  Er  Er1  1  0.168942  0.184115  0.442374  1
  Er  Er2  1  0.668231  0.321423  0.563545  1
  Er  Er3  1  0.825613  0.822544  0.932002  1
  Er  Er4  1  0.668231  0.321423  0.936455  1
  Er  Er5  1  0.825613  0.822544  0.567998  1
  Er  Er6  1  0.335471  0.672471  0.440365  1
  Er  Er7  1  0.168942  0.184115  0.057626  1
  Er  Er8  1  0.871228  0.533597  0.250000  1
  Er  Er9  1  0.626431  0.041612  0.250000  1
  Er  Er10  1  0.129258  0.462003  0.750000  1
  Er  Er11  1  0.369821  0.957805  0.750000  1
  Tc  Tc12  1  0.459405  0.387813  0.250000  1
  Tc  Tc13  1  0.964932  0.112588  0.750000  1
  Pd  Pd14  1  0.047152  0.888643  0.250000  1
  Ru  Ru15  1  0.535259  0.614835  0.750000  1
