# generated using pymatgen
data_Ho16In4Ir2PtRh
_symmetry_space_group_name_H-M   'P 1'
_cell_length_a   9.62630300
_cell_length_b   9.63116970
_cell_length_c   9.63116991
_cell_angle_alpha   60.33454229
_cell_angle_beta   60.26427925
_cell_angle_gamma   60.26428065
_symmetry_Int_Tables_number   1
_chemical_formula_structural   Ho16In4Ir2PtRh
_chemical_formula_sum   'Ho16 In4 Ir2 Pt1 Rh1'
_cell_volume   635.50750726
_cell_formula_units_Z   1
loop_
 _symmetry_equiv_pos_site_id
 _symmetry_equiv_pos_as_xyz
  1  'x, y, z'
loop_
 _atom_site_type_symbol
 _atom_site_label
 _atom_site_symmetry_multiplicity
 _atom_site_fract_x
 _atom_site_fract_y
 _atom_site_fract_z
 _atom_site_occupancy
  Ho  Ho0  1  0.440296  0.436246  0.061187  1
  Ho  Ho1  1  0.651667  0.647198  0.051008  1
  Ho  Ho2  1  0.187717  0.808709  0.194396  1
  Ho  Ho3  1  0.061113  0.437502  0.060324  1
  Ho  Ho4  1  0.188511  0.809390  0.809390  1
  Ho  Ho5  1  0.061105  0.438527  0.438527  1
  Ho  Ho6  1  0.809585  0.190494  0.190494  1
  Ho  Ho7  1  0.654235  0.650169  0.650169  1
  Ho  Ho8  1  0.810272  0.191496  0.809358  1
  Ho  Ho9  1  0.187717  0.194396  0.808709  1
  Ho  Ho10  1  0.047055  0.649902  0.649902  1
  Ho  Ho11  1  0.438822  0.061237  0.061237  1
  Ho  Ho12  1  0.061113  0.060324  0.437502  1
  Ho  Ho13  1  0.651667  0.051008  0.647198  1
  Ho  Ho14  1  0.810272  0.809358  0.191496  1
  Ho  Ho15  1  0.440296  0.061187  0.436246  1
  In  In16  1  0.416614  0.416745  0.416745  1
  In  In17  1  0.416718  0.417248  0.749052  1
  In  In18  1  0.416718  0.749052  0.417248  1
  In  In19  1  0.749193  0.416957  0.416957  1
  Ir  Ir20  1  0.857903  0.425267  0.859757  1
  Ir  Ir21  1  0.857903  0.859757  0.425267  1
  Pt  Pt22  1  0.425886  0.859078  0.859078  1
  Rh  Rh23  1  0.857623  0.858760  0.858760  1
