# generated using pymatgen
data_As2Pb3
_symmetry_space_group_name_H-M   'P 1'
_cell_length_a   9.44189958
_cell_length_b   9.44189916
_cell_length_c   9.44189950
_cell_angle_alpha   26.78519918
_cell_angle_beta   26.78520300
_cell_angle_gamma   26.78520154
_symmetry_Int_Tables_number   1
_chemical_formula_structural   As2Pb3
_chemical_formula_sum   'As2 Pb3'
_cell_volume   150.73457523
_cell_formula_units_Z   1
loop_
 _symmetry_equiv_pos_site_id
 _symmetry_equiv_pos_as_xyz
  1  'x, y, z'
loop_
 _atom_site_type_symbol
 _atom_site_label
 _atom_site_symmetry_multiplicity
 _atom_site_fract_x
 _atom_site_fract_y
 _atom_site_fract_z
 _atom_site_occupancy
  As  As0  1  0.601691  0.601691  0.601691  1
  As  As1  1  0.398309  0.398309  0.398309  1
  Pb  Pb2  1  0.216674  0.216674  0.216674  1
  Pb  Pb3  1  0.783326  0.783326  0.783326  1
  Pb  Pb4  1  0.000000  0.000000  0.000000  1
