# generated using pymatgen
data_Lu3UGe5AsRu7
_symmetry_space_group_name_H-M   'P 1'
_cell_length_a   7.16843446
_cell_length_b   7.16843424
_cell_length_c   7.15906335
_cell_angle_alpha   109.25589106
_cell_angle_beta   109.25589589
_cell_angle_gamma   109.35255149
_symmetry_Int_Tables_number   1
_chemical_formula_structural   Lu3UGe5AsRu7
_chemical_formula_sum   'Lu3 U1 Ge5 As1 Ru7'
_cell_volume   285.09678839
_cell_formula_units_Z   1
loop_
 _symmetry_equiv_pos_site_id
 _symmetry_equiv_pos_as_xyz
  1  'x, y, z'
loop_
 _atom_site_type_symbol
 _atom_site_label
 _atom_site_symmetry_multiplicity
 _atom_site_fract_x
 _atom_site_fract_y
 _atom_site_fract_z
 _atom_site_occupancy
  Lu  Lu0  1  0.000525  0.000525  0.497581  1
  Lu  Lu1  1  0.001396  0.502357  0.000674  1
  Lu  Lu2  1  0.502357  0.001396  0.000674  1
  U  U3  1  0.502263  0.502263  0.498501  1
  Ge  Ge4  1  0.311342  0.996695  0.311122  1
  Ge  Ge5  1  0.996695  0.311342  0.311122  1
  Ge  Ge6  1  0.302692  0.302692  0.992330  1
  Ge  Ge7  1  0.692482  0.008195  0.691219  1
  Ge  Ge8  1  0.008195  0.692482  0.691219  1
  As  As9  1  0.687632  0.687632  0.003268  1
  Ru  Ru10  1  0.744091  0.257209  0.499880  1
  Ru  Ru11  1  0.742004  0.499948  0.256482  1
  Ru  Ru12  1  0.499274  0.255628  0.744624  1
  Ru  Ru13  1  0.255628  0.499274  0.744624  1
  Ru  Ru14  1  0.257209  0.744091  0.499880  1
  Ru  Ru15  1  0.499948  0.742004  0.256482  1
  Ru  Ru16  1  0.996267  0.996267  0.000320  1
