# generated using pymatgen
data_Ba3Nb2S9
_symmetry_space_group_name_H-M   'P 1'
_cell_length_a   7.08919569
_cell_length_b   11.95018600
_cell_length_c   16.96518000
_cell_angle_alpha   90.00000000
_cell_angle_beta   97.56600482
_cell_angle_gamma   90.00000000
_symmetry_Int_Tables_number   1
_chemical_formula_structural   Ba3Nb2S9
_chemical_formula_sum   'Ba12 Nb8 S36'
_cell_volume   1424.72979903
_cell_formula_units_Z   4
loop_
 _symmetry_equiv_pos_site_id
 _symmetry_equiv_pos_as_xyz
  1  'x, y, z'
loop_
 _atom_site_type_symbol
 _atom_site_label
 _atom_site_symmetry_multiplicity
 _atom_site_fract_x
 _atom_site_fract_y
 _atom_site_fract_z
 _atom_site_occupancy
  Ba  Ba0  1  0.761933  0.592740  0.914007  1
  Ba  Ba1  1  0.238067  0.092740  0.585993  1
  Ba  Ba2  1  0.238067  0.407260  0.085993  1
  Ba  Ba3  1  0.761933  0.907260  0.414007  1
  Ba  Ba4  1  0.760700  0.255336  0.753409  1
  Ba  Ba5  1  0.239300  0.755336  0.746591  1
  Ba  Ba6  1  0.239300  0.744664  0.246591  1
  Ba  Ba7  1  0.760700  0.244664  0.253409  1
  Ba  Ba8  1  0.238475  0.064694  0.919964  1
  Ba  Ba9  1  0.761525  0.564694  0.580036  1
  Ba  Ba10  1  0.761525  0.935306  0.080036  1
  Ba  Ba11  1  0.238475  0.435306  0.419964  1
  Nb  Nb12  1  0.215028  0.446095  0.852244  1
  Nb  Nb13  1  0.784972  0.946095  0.647756  1
  Nb  Nb14  1  0.784972  0.553905  0.147756  1
  Nb  Nb15  1  0.215028  0.053905  0.352244  1
  Nb  Nb16  1  0.275912  0.428895  0.653312  1
  Nb  Nb17  1  0.724088  0.928895  0.846688  1
  Nb  Nb18  1  0.724088  0.571105  0.346688  1
  Nb  Nb19  1  0.275912  0.071105  0.153312  1
  S  S20  1  0.269226  0.269469  0.766638  1
  S  S21  1  0.730774  0.769469  0.733362  1
  S  S22  1  0.730774  0.730531  0.233362  1
  S  S23  1  0.269226  0.230531  0.266638  1
  S  S24  1  0.455970  0.290426  0.874511  1
  S  S25  1  0.544030  0.790426  0.625489  1
  S  S26  1  0.544030  0.709574  0.125489  1
  S  S27  1  0.455970  0.209574  0.374511  1
  S  S28  1  0.493060  0.340445  0.584384  1
  S  S29  1  0.506940  0.840445  0.915616  1
  S  S30  1  0.506940  0.659555  0.415616  1
  S  S31  1  0.493060  0.159555  0.084384  1
  S  S32  1  0.483474  0.513639  0.761157  1
  S  S33  1  0.516526  0.013639  0.738843  1
  S  S34  1  0.516526  0.486361  0.238843  1
  S  S35  1  0.483474  0.986361  0.261157  1
  S  S36  1  0.316764  0.582000  0.941333  1
  S  S37  1  0.683236  0.082000  0.558667  1
  S  S38  1  0.683236  0.418000  0.058667  1
  S  S39  1  0.316764  0.918000  0.441333  1
  S  S40  1  0.992791  0.525441  0.753404  1
  S  S41  1  0.007209  0.025441  0.746596  1
  S  S42  1  0.007209  0.474559  0.246596  1
  S  S43  1  0.992791  0.974559  0.253404  1
  S  S44  1  0.000860  0.347652  0.918925  1
  S  S45  1  0.999140  0.847652  0.581075  1
  S  S46  1  0.999140  0.652348  0.081075  1
  S  S47  1  0.000860  0.152348  0.418925  1
  S  S48  1  0.009140  0.314479  0.615654  1
  S  S49  1  0.990860  0.814479  0.884346  1
  S  S50  1  0.990860  0.685521  0.384346  1
  S  S51  1  0.009140  0.185521  0.115654  1
  S  S52  1  0.205311  0.584782  0.575513  1
  S  S53  1  0.794689  0.084782  0.924487  1
  S  S54  1  0.794689  0.415218  0.424487  1
  S  S55  1  0.205311  0.915218  0.075513  1
