# generated using pymatgen
data_Zr6In4SiBr18
_symmetry_space_group_name_H-M   'P 1'
_cell_length_a   10.48202957
_cell_length_b   10.69197135
_cell_length_c   10.73571127
_cell_angle_alpha   118.32107682
_cell_angle_beta   100.38043763
_cell_angle_gamma   103.86261591
_symmetry_Int_Tables_number   1
_chemical_formula_structural   Zr6In4SiBr18
_chemical_formula_sum   'Zr6 In4 Si1 Br18'
_cell_volume   965.62970543
_cell_formula_units_Z   1
loop_
 _symmetry_equiv_pos_site_id
 _symmetry_equiv_pos_as_xyz
  1  'x, y, z'
loop_
 _atom_site_type_symbol
 _atom_site_label
 _atom_site_symmetry_multiplicity
 _atom_site_fract_x
 _atom_site_fract_y
 _atom_site_fract_z
 _atom_site_occupancy
  Zr  Zr0  1  0.158924  0.057641  0.240234  1
  Zr  Zr1  1  0.841076  0.942359  0.759766  1
  Zr  Zr2  1  0.858340  0.134030  0.140827  1
  Zr  Zr3  1  0.141660  0.865970  0.859173  1
  Zr  Zr4  1  0.152554  0.247589  0.045770  1
  Zr  Zr5  1  0.847446  0.752411  0.954230  1
  In  In6  1  0.650070  0.536708  0.226720  1
  In  In7  1  0.349930  0.463292  0.773280  1
  In  In8  1  0.682003  0.225892  0.562018  1
  In  In9  1  0.317997  0.774108  0.437982  1
  Si  Si10  1  0.000000  0.000000  0.000000  1
  Br  Br11  1  0.011377  0.415153  0.200022  1
  Br  Br12  1  0.988623  0.584847  0.799978  1
  Br  Br13  1  0.335412  0.335556  0.314064  1
  Br  Br14  1  0.664588  0.664444  0.685936  1
  Br  Br15  1  0.332705  0.525790  0.101118  1
  Br  Br16  1  0.667295  0.474210  0.898882  1
  Br  Br17  1  0.005762  0.793714  0.212582  1
  Br  Br18  1  0.994238  0.206286  0.787418  1
  Br  Br19  1  0.702788  0.284095  0.298864  1
  Br  Br20  1  0.297212  0.715905  0.701136  1
  Br  Br21  1  0.319639  0.125399  0.898862  1
  Br  Br22  1  0.680361  0.874601  0.101138  1
  Br  Br23  1  0.019373  0.207721  0.415040  1
  Br  Br24  1  0.980627  0.792279  0.584960  1
  Br  Br25  1  0.324586  0.917923  0.108977  1
  Br  Br26  1  0.675414  0.082077  0.891023  1
  Br  Br27  1  0.344447  0.123316  0.509309  1
  Br  Br28  1  0.655553  0.876684  0.490691  1
