# generated using pymatgen
data_Er3TmFe16(P3W)4
_symmetry_space_group_name_H-M   'P 1'
_cell_length_a   3.69226900
_cell_length_b   10.40337613
_cell_length_c   11.98824924
_cell_angle_alpha   90.05271865
_cell_angle_beta   90.00000000
_cell_angle_gamma   90.00000000
_symmetry_Int_Tables_number   1
_chemical_formula_structural   Er3TmFe16(P3W)4
_chemical_formula_sum   'Er3 Tm1 Fe16 P12 W4'
_cell_volume   460.49319213
_cell_formula_units_Z   1
loop_
 _symmetry_equiv_pos_site_id
 _symmetry_equiv_pos_as_xyz
  1  'x, y, z'
loop_
 _atom_site_type_symbol
 _atom_site_label
 _atom_site_symmetry_multiplicity
 _atom_site_fract_x
 _atom_site_fract_y
 _atom_site_fract_z
 _atom_site_occupancy
  Er  Er0  1  0.250000  0.582446  0.707683  1
  Er  Er1  1  0.250000  0.917209  0.207873  1
  Er  Er2  1  0.750000  0.417479  0.292287  1
  Tm  Tm3  1  0.750000  0.082730  0.792259  1
  Fe  Fe4  1  0.250000  0.408542  0.491315  1
  Fe  Fe5  1  0.250000  0.091646  0.990996  1
  Fe  Fe6  1  0.750000  0.591487  0.508639  1
  Fe  Fe7  1  0.750000  0.908527  0.008525  1
  Fe  Fe8  1  0.250000  0.218492  0.176342  1
  Fe  Fe9  1  0.250000  0.281103  0.676439  1
  Fe  Fe10  1  0.750000  0.781804  0.823567  1
  Fe  Fe11  1  0.750000  0.718846  0.323784  1
  Fe  Fe12  1  0.250000  0.878960  0.700757  1
  Fe  Fe13  1  0.250000  0.621131  0.200228  1
  Fe  Fe14  1  0.750000  0.121156  0.299574  1
  Fe  Fe15  1  0.750000  0.378442  0.799515  1
  Fe  Fe16  1  0.250000  0.463184  0.933331  1
  Fe  Fe17  1  0.250000  0.036624  0.433937  1
  Fe  Fe18  1  0.750000  0.536640  0.066168  1
  Fe  Fe19  1  0.750000  0.963444  0.566805  1
  P  P20  1  0.250000  0.424321  0.114876  1
  P  P21  1  0.250000  0.075719  0.615355  1
  P  P22  1  0.750000  0.575636  0.884948  1
  P  P23  1  0.750000  0.924417  0.385255  1
  P  P24  1  0.250000  0.265805  0.864410  1
  P  P25  1  0.250000  0.233685  0.364437  1
  P  P26  1  0.750000  0.733499  0.135591  1
  P  P27  1  0.750000  0.766101  0.635379  1
  P  P28  1  0.250000  0.593796  0.387804  1
  P  P29  1  0.250000  0.907266  0.887980  1
  P  P30  1  0.750000  0.406352  0.611979  1
  P  P31  1  0.750000  0.093354  0.112036  1
  W  W32  1  0.250000  0.705182  0.989105  1
  W  W33  1  0.250000  0.795036  0.489406  1
  W  W34  1  0.750000  0.294975  0.010698  1
  W  W35  1  0.750000  0.204963  0.510716  1
