# generated using pymatgen
data_Nb6CoNiS12
_symmetry_space_group_name_H-M   'P 1'
_cell_length_a   5.78133800
_cell_length_b   5.78133787
_cell_length_c   11.79601900
_cell_angle_alpha   90.00000000
_cell_angle_beta   90.00000000
_cell_angle_gamma   119.99998932
_symmetry_Int_Tables_number   1
_chemical_formula_structural   Nb6CoNiS12
_chemical_formula_sum   'Nb6 Co1 Ni1 S12'
_cell_volume   341.44664777
_cell_formula_units_Z   1
loop_
 _symmetry_equiv_pos_site_id
 _symmetry_equiv_pos_as_xyz
  1  'x, y, z'
loop_
 _atom_site_type_symbol
 _atom_site_label
 _atom_site_symmetry_multiplicity
 _atom_site_fract_x
 _atom_site_fract_y
 _atom_site_fract_z
 _atom_site_occupancy
  Nb  Nb0  1  0.000000  0.000000  0.003540  1
  Nb  Nb1  1  0.000000  0.000000  0.496460  1
  Nb  Nb2  1  0.333333  0.666667  0.501559  1
  Nb  Nb3  1  0.666667  0.333333  0.005370  1
  Nb  Nb4  1  0.666667  0.333333  0.494630  1
  Nb  Nb5  1  0.333333  0.666667  0.998441  1
  Co  Co6  1  0.333333  0.666667  0.250000  1
  Ni  Ni7  1  0.666667  0.333333  0.750000  1
  S  S8  1  0.332865  0.994888  0.135947  1
  S  S9  1  0.005112  0.337975  0.135947  1
  S  S10  1  0.669131  0.001084  0.631821  1
  S  S11  1  0.998916  0.330869  0.868179  1
  S  S12  1  0.662025  0.667135  0.135947  1
  S  S13  1  0.998916  0.668048  0.631821  1
  S  S14  1  0.331952  0.001084  0.868179  1
  S  S15  1  0.005112  0.667135  0.364053  1
  S  S16  1  0.331952  0.330869  0.631821  1
  S  S17  1  0.662025  0.994888  0.364053  1
  S  S18  1  0.669131  0.668048  0.868179  1
  S  S19  1  0.332865  0.337975  0.364053  1
