# generated using pymatgen
data_Er5Tc6P12Ir13
_symmetry_space_group_name_H-M   'P 1'
_cell_length_a   12.64534900
_cell_length_b   12.64534921
_cell_length_c   3.98315500
_cell_angle_alpha   90.00000000
_cell_angle_beta   90.00000000
_cell_angle_gamma   119.99999685
_symmetry_Int_Tables_number   1
_chemical_formula_structural   Er5Tc6P12Ir13
_chemical_formula_sum   'Er5 Tc6 P12 Ir13'
_cell_volume   551.59395665
_cell_formula_units_Z   1
loop_
 _symmetry_equiv_pos_site_id
 _symmetry_equiv_pos_as_xyz
  1  'x, y, z'
loop_
 _atom_site_type_symbol
 _atom_site_label
 _atom_site_symmetry_multiplicity
 _atom_site_fract_x
 _atom_site_fract_y
 _atom_site_fract_z
 _atom_site_occupancy
  Er  Er0  1  0.333333  0.666667  0.500000  1
  Er  Er1  1  0.666667  0.333333  0.500000  1
  Er  Er2  1  0.000244  0.812193  0.000000  1
  Er  Er3  1  0.187807  0.188050  0.000000  1
  Er  Er4  1  0.811950  0.999756  0.000000  1
  Tc  Tc5  1  0.990370  0.446587  0.500000  1
  Tc  Tc6  1  0.553413  0.543783  0.500000  1
  Tc  Tc7  1  0.456217  0.009630  0.500000  1
  Tc  Tc8  1  0.620463  0.799484  0.500000  1
  Tc  Tc9  1  0.200516  0.820979  0.500000  1
  Tc  Tc10  1  0.179021  0.379537  0.500000  1
  P  P11  1  0.006976  0.638925  0.500000  1
  P  P12  1  0.361075  0.368052  0.500000  1
  P  P13  1  0.631948  0.993024  0.500000  1
  P  P14  1  0.520935  0.693818  0.000000  1
  P  P15  1  0.306182  0.827116  0.000000  1
  P  P16  1  0.172884  0.479065  0.000000  1
  P  P17  1  0.482632  0.168357  0.000000  1
  P  P18  1  0.685726  0.517368  0.000000  1
  P  P19  1  0.831643  0.314274  0.000000  1
  P  P20  1  0.003885  0.182252  0.500000  1
  P  P21  1  0.817748  0.821633  0.500000  1
  P  P22  1  0.178367  0.996115  0.500000  1
  Ir  Ir23  1  0.506480  0.874241  0.000000  1
  Ir  Ir24  1  0.125759  0.632240  0.000000  1
  Ir  Ir25  1  0.367760  0.493520  0.000000  1
  Ir  Ir26  1  0.493918  0.357803  0.000000  1
  Ir  Ir27  1  0.863885  0.506082  0.000000  1
  Ir  Ir28  1  0.642197  0.136115  0.000000  1
  Ir  Ir29  1  0.995089  0.281258  0.000000  1
  Ir  Ir30  1  0.718742  0.713831  0.000000  1
  Ir  Ir31  1  0.286169  0.004911  0.000000  1
  Ir  Ir32  1  0.373767  0.185199  0.500000  1
  Ir  Ir33  1  0.811431  0.626233  0.500000  1
  Ir  Ir34  1  0.814801  0.188569  0.500000  1
  Ir  Ir35  1  0.000000  0.000000  0.500000  1
