# generated using pymatgen
data_YbCe2TiSb5
_symmetry_space_group_name_H-M   'P 1'
_cell_length_a   9.35866500
_cell_length_b   9.35163902
_cell_length_c   6.20668400
_cell_angle_alpha   90.00000000
_cell_angle_beta   90.00000000
_cell_angle_gamma   120.02485273
_symmetry_Int_Tables_number   1
_chemical_formula_structural   YbCe2TiSb5
_chemical_formula_sum   'Yb2 Ce4 Ti2 Sb10'
_cell_volume   470.30877987
_cell_formula_units_Z   2
loop_
 _symmetry_equiv_pos_site_id
 _symmetry_equiv_pos_as_xyz
  1  'x, y, z'
loop_
 _atom_site_type_symbol
 _atom_site_label
 _atom_site_symmetry_multiplicity
 _atom_site_fract_x
 _atom_site_fract_y
 _atom_site_fract_z
 _atom_site_occupancy
  Yb  Yb0  1  0.613576  0.000000  0.250000  1
  Yb  Yb1  1  0.386424  0.000000  0.750000  1
  Ce  Ce2  1  0.002789  0.619396  0.250000  1
  Ce  Ce3  1  0.997211  0.380604  0.750000  1
  Ce  Ce4  1  0.383393  0.380604  0.250000  1
  Ce  Ce5  1  0.616607  0.619396  0.750000  1
  Ti  Ti6  1  0.000000  0.000000  0.000000  1
  Ti  Ti7  1  0.000000  0.000000  0.500000  1
  Sb  Sb8  1  0.251960  0.000000  0.250000  1
  Sb  Sb9  1  0.748040  0.000000  0.750000  1
  Sb  Sb10  1  0.000060  0.256341  0.250000  1
  Sb  Sb11  1  0.999940  0.743659  0.750000  1
  Sb  Sb12  1  0.743719  0.743659  0.250000  1
  Sb  Sb13  1  0.256281  0.256341  0.750000  1
  Sb  Sb14  1  0.331776  0.663553  0.000000  1
  Sb  Sb15  1  0.668224  0.336447  0.000000  1
  Sb  Sb16  1  0.668224  0.336447  0.500000  1
  Sb  Sb17  1  0.331776  0.663553  0.500000  1
