# generated using pymatgen
data_Nd6ZrP12Rh17
_symmetry_space_group_name_H-M   'P 1'
_cell_length_a   3.98776700
_cell_length_b   11.31929500
_cell_length_c   13.00907000
_cell_angle_alpha   90.00000000
_cell_angle_beta   90.00000000
_cell_angle_gamma   90.00000000
_symmetry_Int_Tables_number   1
_chemical_formula_structural   Nd6ZrP12Rh17
_chemical_formula_sum   'Nd6 Zr1 P12 Rh17'
_cell_volume   587.21265194
_cell_formula_units_Z   1
loop_
 _symmetry_equiv_pos_site_id
 _symmetry_equiv_pos_as_xyz
  1  'x, y, z'
loop_
 _atom_site_type_symbol
 _atom_site_label
 _atom_site_symmetry_multiplicity
 _atom_site_fract_x
 _atom_site_fract_y
 _atom_site_fract_z
 _atom_site_occupancy
  Nd  Nd0  1  0.000000  0.500000  0.521615  1
  Nd  Nd1  1  0.500000  0.000000  0.479096  1
  Nd  Nd2  1  0.500000  0.818349  0.206082  1
  Nd  Nd3  1  0.500000  0.181651  0.206082  1
  Nd  Nd4  1  0.000000  0.682371  0.797572  1
  Nd  Nd5  1  0.000000  0.317629  0.797572  1
  Zr  Zr6  1  0.500000  0.500000  0.155518  1
  P  P7  1  0.500000  0.500000  0.879905  1
  P  P8  1  0.000000  0.000000  0.117405  1
  P  P9  1  0.500000  0.500000  0.355284  1
  P  P10  1  0.000000  0.000000  0.653739  1
  P  P11  1  0.500000  0.311895  0.617398  1
  P  P12  1  0.500000  0.688105  0.617398  1
  P  P13  1  0.000000  0.188283  0.385103  1
  P  P14  1  0.000000  0.811717  0.385103  1
  P  P15  1  0.500000  0.850334  0.889362  1
  P  P16  1  0.500000  0.149666  0.889362  1
  P  P17  1  0.000000  0.658960  0.105586  1
  P  P18  1  0.000000  0.341040  0.105586  1
  Rh  Rh19  1  0.000000  0.000000  0.832235  1
  Rh  Rh20  1  0.500000  0.500000  0.701402  1
  Rh  Rh21  1  0.000000  0.000000  0.297167  1
  Rh  Rh22  1  0.000000  0.500000  0.984727  1
  Rh  Rh23  1  0.500000  0.000000  0.015930  1
  Rh  Rh24  1  0.500000  0.330105  0.989876  1
  Rh  Rh25  1  0.500000  0.669895  0.989876  1
  Rh  Rh26  1  0.000000  0.164420  0.005898  1
  Rh  Rh27  1  0.000000  0.835580  0.005898  1
  Rh  Rh28  1  0.500000  0.289853  0.433640  1
  Rh  Rh29  1  0.500000  0.710147  0.433640  1
  Rh  Rh30  1  0.000000  0.205228  0.571044  1
  Rh  Rh31  1  0.000000  0.794772  0.571044  1
  Rh  Rh32  1  0.500000  0.875551  0.709520  1
  Rh  Rh33  1  0.500000  0.124449  0.709520  1
  Rh  Rh34  1  0.000000  0.626518  0.291907  1
  Rh  Rh35  1  0.000000  0.373482  0.291907  1
