# generated using pymatgen
data_Pr3Dy7(In2Pd)4
_symmetry_space_group_name_H-M   'P 1'
_cell_length_a   3.69622900
_cell_length_b   8.23425469
_cell_length_c   18.51536400
_cell_angle_alpha   89.78928366
_cell_angle_beta   90.00000000
_cell_angle_gamma   90.00000000
_symmetry_Int_Tables_number   1
_chemical_formula_structural   Pr3Dy7(In2Pd)4
_chemical_formula_sum   'Pr3 Dy7 In8 Pd4'
_cell_volume   563.52408580
_cell_formula_units_Z   1
loop_
 _symmetry_equiv_pos_site_id
 _symmetry_equiv_pos_as_xyz
  1  'x, y, z'
loop_
 _atom_site_type_symbol
 _atom_site_label
 _atom_site_symmetry_multiplicity
 _atom_site_fract_x
 _atom_site_fract_y
 _atom_site_fract_z
 _atom_site_occupancy
  Pr  Pr0  1  0.500000  0.238940  0.782980  1
  Pr  Pr1  1  0.500000  0.000412  0.000119  1
  Pr  Pr2  1  0.500000  0.499408  0.498706  1
  Dy  Dy3  1  0.500000  0.760164  0.217892  1
  Dy  Dy4  1  0.500000  0.260133  0.282280  1
  Dy  Dy5  1  0.500000  0.739039  0.717378  1
  Dy  Dy6  1  0.500000  0.120801  0.583256  1
  Dy  Dy7  1  0.500000  0.878579  0.415028  1
  Dy  Dy8  1  0.500000  0.379151  0.085741  1
  Dy  Dy9  1  0.500000  0.622665  0.917238  1
  In  In10  1  0.000000  0.082256  0.154079  1
  In  In11  1  0.000000  0.910991  0.846327  1
  In  In12  1  0.000000  0.422289  0.651602  1
  In  In13  1  0.000000  0.582245  0.345904  1
  In  In14  1  0.000000  0.198514  0.431315  1
  In  In15  1  0.000000  0.799495  0.567402  1
  In  In16  1  0.000000  0.305136  0.935216  1
  In  In17  1  0.000000  0.699170  0.068839  1
  Pd  Pd18  1  0.000000  0.017507  0.693218  1
  Pd  Pd19  1  0.000000  0.974294  0.304163  1
  Pd  Pd20  1  0.000000  0.474717  0.196243  1
  Pd  Pd21  1  0.000000  0.534097  0.805074  1
