# generated using pymatgen
data_PrNdAs2(Rh2Au)2
_symmetry_space_group_name_H-M   'P 1'
_cell_length_a   4.09027400
_cell_length_b   4.09027400
_cell_length_c   11.42458600
_cell_angle_alpha   90.00000000
_cell_angle_beta   90.00000000
_cell_angle_gamma   90.00000000
_symmetry_Int_Tables_number   1
_chemical_formula_structural   PrNdAs2(Rh2Au)2
_chemical_formula_sum   'Pr1 Nd1 As2 Rh4 Au2'
_cell_volume   191.13722408
_cell_formula_units_Z   1
loop_
 _symmetry_equiv_pos_site_id
 _symmetry_equiv_pos_as_xyz
  1  'x, y, z'
loop_
 _atom_site_type_symbol
 _atom_site_label
 _atom_site_symmetry_multiplicity
 _atom_site_fract_x
 _atom_site_fract_y
 _atom_site_fract_z
 _atom_site_occupancy
  Pr  Pr0  1  0.500000  0.000000  0.745468  1
  Nd  Nd1  1  0.000000  0.500000  0.254637  1
  As  As2  1  0.000000  0.500000  0.876684  1
  As  As3  1  0.500000  0.000000  0.123811  1
  Rh  Rh4  1  0.000000  0.000000  0.000209  1
  Rh  Rh5  1  0.500000  0.500000  0.000209  1
  Rh  Rh6  1  0.000000  0.500000  0.668774  1
  Rh  Rh7  1  0.500000  0.000000  0.330814  1
  Au  Au8  1  0.000000  0.000000  0.499697  1
  Au  Au9  1  0.500000  0.500000  0.499697  1
