# generated using pymatgen
data_Yb3Pr2(SnBi)2
_symmetry_space_group_name_H-M   'P 1'
_cell_length_a   8.34654700
_cell_length_b   8.37471500
_cell_length_c   16.29006300
_cell_angle_alpha   90.00000000
_cell_angle_beta   90.00000000
_cell_angle_gamma   90.00000000
_symmetry_Int_Tables_number   1
_chemical_formula_structural   Yb3Pr2(SnBi)2
_chemical_formula_sum   'Yb12 Pr8 Sn8 Bi8'
_cell_volume   1138.67462763
_cell_formula_units_Z   4
loop_
 _symmetry_equiv_pos_site_id
 _symmetry_equiv_pos_as_xyz
  1  'x, y, z'
loop_
 _atom_site_type_symbol
 _atom_site_label
 _atom_site_symmetry_multiplicity
 _atom_site_fract_x
 _atom_site_fract_y
 _atom_site_fract_z
 _atom_site_occupancy
  Yb  Yb0  1  0.393336  0.833998  0.881209  1
  Yb  Yb1  1  0.893336  0.666002  0.618791  1
  Yb  Yb2  1  0.606664  0.166002  0.381209  1
  Yb  Yb3  1  0.106664  0.333998  0.118791  1
  Yb  Yb4  1  0.606664  0.166002  0.118791  1
  Yb  Yb5  1  0.106664  0.333998  0.381209  1
  Yb  Yb6  1  0.393336  0.833998  0.618791  1
  Yb  Yb7  1  0.893336  0.666002  0.881209  1
  Yb  Yb8  1  0.220005  0.505878  0.750000  1
  Yb  Yb9  1  0.720005  0.994122  0.750000  1
  Yb  Yb10  1  0.779995  0.494122  0.250000  1
  Yb  Yb11  1  0.279995  0.005878  0.250000  1
  Pr  Pr12  1  0.550805  0.326666  0.893960  1
  Pr  Pr13  1  0.050805  0.173334  0.606040  1
  Pr  Pr14  1  0.449195  0.673334  0.393960  1
  Pr  Pr15  1  0.949195  0.826666  0.106040  1
  Pr  Pr16  1  0.449195  0.673334  0.106040  1
  Pr  Pr17  1  0.949195  0.826666  0.393960  1
  Pr  Pr18  1  0.550805  0.326666  0.606040  1
  Pr  Pr19  1  0.050805  0.173334  0.893960  1
  Sn  Sn20  1  0.594422  0.613549  0.750000  1
  Sn  Sn21  1  0.094422  0.886451  0.750000  1
  Sn  Sn22  1  0.405578  0.386451  0.250000  1
  Sn  Sn23  1  0.905578  0.113549  0.250000  1
  Sn  Sn24  1  0.344253  0.133942  0.750000  1
  Sn  Sn25  1  0.844253  0.366058  0.750000  1
  Sn  Sn26  1  0.655747  0.866058  0.250000  1
  Sn  Sn27  1  0.155747  0.633942  0.250000  1
  Bi  Bi28  1  0.271203  0.020421  0.043906  1
  Bi  Bi29  1  0.771203  0.479579  0.456094  1
  Bi  Bi30  1  0.728797  0.979579  0.543906  1
  Bi  Bi31  1  0.228797  0.520421  0.956094  1
  Bi  Bi32  1  0.728797  0.979579  0.956094  1
  Bi  Bi33  1  0.228797  0.520421  0.543906  1
  Bi  Bi34  1  0.271203  0.020421  0.456094  1
  Bi  Bi35  1  0.771203  0.479579  0.043906  1
