# generated using pymatgen
data_Lu3ThSb6Ru7
_symmetry_space_group_name_H-M   'P 1'
_cell_length_a   7.56752580
_cell_length_b   7.56752587
_cell_length_c   7.56752686
_cell_angle_alpha   109.55369436
_cell_angle_beta   109.55369674
_cell_angle_gamma   109.55369060
_symmetry_Int_Tables_number   1
_chemical_formula_structural   Lu3ThSb6Ru7
_chemical_formula_sum   'Lu3 Th1 Sb6 Ru7'
_cell_volume   332.58807156
_cell_formula_units_Z   1
loop_
 _symmetry_equiv_pos_site_id
 _symmetry_equiv_pos_as_xyz
  1  'x, y, z'
loop_
 _atom_site_type_symbol
 _atom_site_label
 _atom_site_symmetry_multiplicity
 _atom_site_fract_x
 _atom_site_fract_y
 _atom_site_fract_z
 _atom_site_occupancy
  Lu  Lu0  1  0.000000  0.000000  0.500000  1
  Lu  Lu1  1  0.000000  0.500000  0.000000  1
  Lu  Lu2  1  0.500000  0.000000  0.000000  1
  Th  Th3  1  0.500000  0.500000  0.500000  1
  Sb  Sb4  1  0.689082  0.689082  0.007917  1
  Sb  Sb5  1  0.310918  0.992083  0.310918  1
  Sb  Sb6  1  0.992083  0.310918  0.310918  1
  Sb  Sb7  1  0.310918  0.310918  0.992083  1
  Sb  Sb8  1  0.689082  0.007917  0.689082  1
  Sb  Sb9  1  0.007917  0.689082  0.689082  1
  Ru  Ru10  1  0.750351  0.249649  0.500000  1
  Ru  Ru11  1  0.750351  0.500000  0.249649  1
  Ru  Ru12  1  0.500000  0.249649  0.750351  1
  Ru  Ru13  1  0.249649  0.500000  0.750351  1
  Ru  Ru14  1  0.249649  0.750351  0.500000  1
  Ru  Ru15  1  0.500000  0.750351  0.249649  1
  Ru  Ru16  1  0.000000  0.000000  0.000000  1
