# generated using pymatgen
data_Ho13Er7(CoBi2)4
_symmetry_space_group_name_H-M   'P 1'
_cell_length_a   7.95162808
_cell_length_b   8.87432005
_cell_length_c   12.36100412
_cell_angle_alpha   89.99235789
_cell_angle_beta   90.01418034
_cell_angle_gamma   90.00873153
_symmetry_Int_Tables_number   1
_chemical_formula_structural   Ho13Er7(CoBi2)4
_chemical_formula_sum   'Ho13 Er7 Co4 Bi8'
_cell_volume   872.25782687
_cell_formula_units_Z   1
loop_
 _symmetry_equiv_pos_site_id
 _symmetry_equiv_pos_as_xyz
  1  'x, y, z'
loop_
 _atom_site_type_symbol
 _atom_site_label
 _atom_site_symmetry_multiplicity
 _atom_site_fract_x
 _atom_site_fract_y
 _atom_site_fract_z
 _atom_site_occupancy
  Ho  Ho0  1  0.346235  0.749977  0.699678  1
  Ho  Ho1  1  0.653794  0.250002  0.300267  1
  Ho  Ho2  1  0.846048  0.250063  0.800240  1
  Ho  Ho3  1  0.153823  0.749961  0.199798  1
  Ho  Ho4  1  0.885293  0.749911  0.811120  1
  Ho  Ho5  1  0.114434  0.250140  0.188907  1
  Ho  Ho6  1  0.385487  0.249988  0.688760  1
  Ho  Ho7  1  0.614526  0.749993  0.311235  1
  Ho  Ho8  1  0.175368  0.038266  0.937104  1
  Ho  Ho9  1  0.053215  0.749988  0.498026  1
  Ho  Ho10  1  0.946768  0.250017  0.501960  1
  Ho  Ho11  1  0.553359  0.250081  0.001968  1
  Ho  Ho12  1  0.447016  0.749878  0.998065  1
  Er  Er13  1  0.674700  0.538336  0.562874  1
  Er  Er14  1  0.325239  0.461677  0.437106  1
  Er  Er15  1  0.174706  0.461830  0.937161  1
  Er  Er16  1  0.325259  0.038308  0.437130  1
  Er  Er17  1  0.825348  0.538480  0.062881  1
  Er  Er18  1  0.674692  0.961660  0.562879  1
  Er  Er19  1  0.825223  0.961549  0.062875  1
  Co  Co20  1  0.066449  0.749820  0.991790  1
  Co  Co21  1  0.933013  0.250213  0.008324  1
  Co  Co22  1  0.566648  0.249989  0.508217  1
  Co  Co23  1  0.433351  0.749992  0.491767  1
  Bi  Bi24  1  0.571368  0.509984  0.826561  1
  Bi  Bi25  1  0.428591  0.490017  0.173431  1
  Bi  Bi26  1  0.071381  0.490006  0.673430  1
  Bi  Bi27  1  0.428541  0.009958  0.173431  1
  Bi  Bi28  1  0.928584  0.509989  0.326595  1
  Bi  Bi29  1  0.571622  0.989968  0.826497  1
  Bi  Bi30  1  0.928600  0.989992  0.326579  1
  Bi  Bi31  1  0.071319  0.009966  0.673341  1
