# generated using pymatgen
data_LaErZn5Si
_symmetry_space_group_name_H-M   'P 1'
_cell_length_a   8.25708651
_cell_length_b   8.25708677
_cell_length_c   8.81120700
_cell_angle_alpha   90.00000000
_cell_angle_beta   90.00000000
_cell_angle_gamma   149.35307443
_symmetry_Int_Tables_number   1
_chemical_formula_structural   LaErZn5Si
_chemical_formula_sum   'La2 Er2 Zn10 Si2'
_cell_volume   306.22671983
_cell_formula_units_Z   2
loop_
 _symmetry_equiv_pos_site_id
 _symmetry_equiv_pos_as_xyz
  1  'x, y, z'
loop_
 _atom_site_type_symbol
 _atom_site_label
 _atom_site_symmetry_multiplicity
 _atom_site_fract_x
 _atom_site_fract_y
 _atom_site_fract_z
 _atom_site_occupancy
  La  La0  1  0.000000  0.000000  0.500000  1
  La  La1  1  0.000000  0.000000  0.000000  1
  Er  Er2  1  0.201383  0.798617  0.250000  1
  Er  Er3  1  0.798617  0.201383  0.750000  1
  Zn  Zn4  1  0.811886  0.188114  0.391445  1
  Zn  Zn5  1  0.188114  0.811886  0.608555  1
  Zn  Zn6  1  0.811886  0.188114  0.108555  1
  Zn  Zn7  1  0.188114  0.811886  0.891445  1
  Zn  Zn8  1  0.653743  0.346257  0.474493  1
  Zn  Zn9  1  0.346257  0.653743  0.525507  1
  Zn  Zn10  1  0.653743  0.346257  0.025507  1
  Zn  Zn11  1  0.346257  0.653743  0.974493  1
  Zn  Zn12  1  0.402134  0.597866  0.250000  1
  Zn  Zn13  1  0.597866  0.402134  0.750000  1
  Si  Si14  1  0.559927  0.440073  0.250000  1
  Si  Si15  1  0.440073  0.559927  0.750000  1
