# generated using pymatgen
data_Hf4Fe3Si4Pt
_symmetry_space_group_name_H-M   'P 1'
_cell_length_a   3.90648700
_cell_length_b   6.40604957
_cell_length_c   7.19758299
_cell_angle_alpha   89.32926044
_cell_angle_beta   90.00000000
_cell_angle_gamma   90.00000000
_symmetry_Int_Tables_number   1
_chemical_formula_structural   Hf4Fe3Si4Pt
_chemical_formula_sum   'Hf4 Fe3 Si4 Pt1'
_cell_volume   180.10824719
_cell_formula_units_Z   1
loop_
 _symmetry_equiv_pos_site_id
 _symmetry_equiv_pos_as_xyz
  1  'x, y, z'
loop_
 _atom_site_type_symbol
 _atom_site_label
 _atom_site_symmetry_multiplicity
 _atom_site_fract_x
 _atom_site_fract_y
 _atom_site_fract_z
 _atom_site_occupancy
  Hf  Hf0  1  0.250000  0.998627  0.310741  1
  Hf  Hf1  1  0.250000  0.516316  0.197205  1
  Hf  Hf2  1  0.750000  0.983840  0.681352  1
  Hf  Hf3  1  0.750000  0.495121  0.801815  1
  Fe  Fe4  1  0.250000  0.655002  0.567354  1
  Fe  Fe5  1  0.750000  0.848680  0.069195  1
  Fe  Fe6  1  0.750000  0.347820  0.435953  1
  Si  Si7  1  0.250000  0.288862  0.593874  1
  Si  Si8  1  0.250000  0.775891  0.888786  1
  Si  Si9  1  0.750000  0.710994  0.390030  1
  Si  Si10  1  0.750000  0.219468  0.131863  1
  Pt  Pt11  1  0.250000  0.159381  0.931832  1
