# generated using pymatgen
data_Tm3Th(CBr)2
_symmetry_space_group_name_H-M   'P 1'
_cell_length_a   3.63707900
_cell_length_b   3.63707805
_cell_length_c   14.43468000
_cell_angle_alpha   90.00000000
_cell_angle_beta   90.00000000
_cell_angle_gamma   119.99999956
_symmetry_Int_Tables_number   1
_chemical_formula_structural   Tm3Th(CBr)2
_chemical_formula_sum   'Tm3 Th1 C2 Br2'
_cell_volume   165.36483021
_cell_formula_units_Z   1
loop_
 _symmetry_equiv_pos_site_id
 _symmetry_equiv_pos_as_xyz
  1  'x, y, z'
loop_
 _atom_site_type_symbol
 _atom_site_label
 _atom_site_symmetry_multiplicity
 _atom_site_fract_x
 _atom_site_fract_y
 _atom_site_fract_z
 _atom_site_occupancy
  Tm  Tm0  1  0.666667  0.333333  0.402162  1
  Tm  Tm1  1  0.666667  0.333333  0.089430  1
  Tm  Tm2  1  0.333333  0.666667  0.917663  1
  Th  Th3  1  0.333333  0.666667  0.589867  1
  C  C4  1  0.000000  0.000000  0.004794  1
  C  C5  1  0.000000  0.000000  0.482300  1
  Br  Br6  1  0.333333  0.666667  0.245413  1
  Br  Br7  1  0.666667  0.333333  0.768371  1
