# generated using pymatgen
data_TbHo15Cd2(Co2Hg)2
_symmetry_space_group_name_H-M   'P 1'
_cell_length_a   9.41886502
_cell_length_b   9.43851508
_cell_length_c   9.42305642
_cell_angle_alpha   59.93552415
_cell_angle_beta   59.94052370
_cell_angle_gamma   59.91395425
_symmetry_Int_Tables_number   1
_chemical_formula_structural   TbHo15Cd2(Co2Hg)2
_chemical_formula_sum   'Tb1 Ho15 Cd2 Co4 Hg2'
_cell_volume   591.41030256
_cell_formula_units_Z   1
loop_
 _symmetry_equiv_pos_site_id
 _symmetry_equiv_pos_as_xyz
  1  'x, y, z'
loop_
 _atom_site_type_symbol
 _atom_site_label
 _atom_site_symmetry_multiplicity
 _atom_site_fract_x
 _atom_site_fract_y
 _atom_site_fract_z
 _atom_site_occupancy
  Tb  Tb0  1  0.940102  0.935340  0.563035  1
  Ho  Ho1  1  0.811675  0.188254  0.188601  1
  Ho  Ho2  1  0.940302  0.560793  0.562584  1
  Ho  Ho3  1  0.938446  0.561090  0.939162  1
  Ho  Ho4  1  0.811585  0.811067  0.189099  1
  Ho  Ho5  1  0.347653  0.349144  0.347135  1
  Ho  Ho6  1  0.562199  0.935589  0.940918  1
  Ho  Ho7  1  0.561009  0.938450  0.561522  1
  Ho  Ho8  1  0.189160  0.811067  0.811963  1
  Ho  Ho9  1  0.188971  0.188191  0.811701  1
  Ho  Ho10  1  0.346950  0.347314  0.958693  1
  Ho  Ho11  1  0.347244  0.957190  0.346958  1
  Ho  Ho12  1  0.811616  0.188162  0.812022  1
  Ho  Ho13  1  0.562671  0.561444  0.940276  1
  Ho  Ho14  1  0.189603  0.810362  0.189140  1
  Ho  Ho15  1  0.959084  0.347166  0.346562  1
  Cd  Cd16  1  0.578635  0.581390  0.578480  1
  Cd  Cd17  1  0.578179  0.261736  0.578531  1
  Co  Co18  1  0.575779  0.141074  0.141979  1
  Co  Co19  1  0.141500  0.141318  0.140684  1
  Co  Co20  1  0.141238  0.576449  0.141463  1
  Co  Co21  1  0.142257  0.141447  0.575795  1
  Hg  Hg22  1  0.581622  0.583384  0.251819  1
  Hg  Hg23  1  0.252521  0.582585  0.581885  1
