# generated using pymatgen
data_CePrB4(OsRu)2
_symmetry_space_group_name_H-M   'P 1'
_cell_length_a   6.77233526
_cell_length_b   6.01303749
_cell_length_c   5.61081858
_cell_angle_alpha   71.17476974
_cell_angle_beta   57.18101775
_cell_angle_gamma   51.64420476
_symmetry_Int_Tables_number   1
_chemical_formula_structural   CePrB4(OsRu)2
_chemical_formula_sum   'Ce1 Pr1 B4 Os2 Ru2'
_cell_volume   150.54157184
_cell_formula_units_Z   1
loop_
 _symmetry_equiv_pos_site_id
 _symmetry_equiv_pos_as_xyz
  1  'x, y, z'
loop_
 _atom_site_type_symbol
 _atom_site_label
 _atom_site_symmetry_multiplicity
 _atom_site_fract_x
 _atom_site_fract_y
 _atom_site_fract_z
 _atom_site_occupancy
  Ce  Ce0  1  0.000000  0.000000  0.000000  1
  Pr  Pr1  1  0.250000  0.250000  0.250000  1
  B  B2  1  0.567472  0.932528  0.567472  1
  B  B3  1  0.932528  0.567472  0.932528  1
  B  B4  1  0.314509  0.685491  0.314509  1
  B  B5  1  0.685491  0.314509  0.685491  1
  Os  Os6  1  0.612121  0.612121  0.887879  1
  Os  Os7  1  0.887879  0.887879  0.612121  1
  Ru  Ru8  1  0.363372  0.363372  0.636628  1
  Ru  Ru9  1  0.636628  0.636628  0.363372  1
