# generated using pymatgen
data_Tb2LuGa5Rh
_symmetry_space_group_name_H-M   'P 1'
_cell_length_a   6.87808238
_cell_length_b   6.87808276
_cell_length_c   4.32936500
_cell_angle_alpha   90.00000000
_cell_angle_beta   90.00000000
_cell_angle_gamma   119.51235612
_symmetry_Int_Tables_number   1
_chemical_formula_structural   Tb2LuGa5Rh
_chemical_formula_sum   'Tb2 Lu1 Ga5 Rh1'
_cell_volume   178.23900371
_cell_formula_units_Z   1
loop_
 _symmetry_equiv_pos_site_id
 _symmetry_equiv_pos_as_xyz
  1  'x, y, z'
loop_
 _atom_site_type_symbol
 _atom_site_label
 _atom_site_symmetry_multiplicity
 _atom_site_fract_x
 _atom_site_fract_y
 _atom_site_fract_z
 _atom_site_occupancy
  Tb  Tb0  1  0.589507  0.998710  0.000000  1
  Tb  Tb1  1  0.998710  0.589507  0.000000  1
  Lu  Lu2  1  0.404965  0.404965  0.000000  1
  Ga  Ga3  1  0.237704  0.999726  0.500000  1
  Ga  Ga4  1  0.999726  0.237704  0.500000  1
  Ga  Ga5  1  0.763044  0.763044  0.500000  1
  Ga  Ga6  1  0.335187  0.663648  0.500000  1
  Ga  Ga7  1  0.663648  0.335187  0.500000  1
  Rh  Rh8  1  0.007508  0.007508  0.000000  1
