# generated using pymatgen
data_VSe4I
_symmetry_space_group_name_H-M   'P 1'
_cell_length_a   6.06934901
_cell_length_b   8.46538612
_cell_length_c   8.69483706
_cell_angle_alpha   107.66037404
_cell_angle_beta   103.50522797
_cell_angle_gamma   111.02867685
_symmetry_Int_Tables_number   1
_chemical_formula_structural   VSe4I
_chemical_formula_sum   'V2 Se8 I2'
_cell_volume   366.70895980
_cell_formula_units_Z   2
loop_
 _symmetry_equiv_pos_site_id
 _symmetry_equiv_pos_as_xyz
  1  'x, y, z'
loop_
 _atom_site_type_symbol
 _atom_site_label
 _atom_site_symmetry_multiplicity
 _atom_site_fract_x
 _atom_site_fract_y
 _atom_site_fract_z
 _atom_site_occupancy
  V  V0  1  0.750943  0.000313  0.000551  1
  V  V1  1  0.248838  0.999660  0.999409  1
  Se  Se2  1  0.162765  0.282177  0.063321  1
  Se  Se3  1  0.512097  0.899658  0.186128  1
  Se  Se4  1  0.693893  0.226274  0.241293  1
  Se  Se5  1  0.159073  0.137994  0.267753  1
  Se  Se6  1  0.841247  0.862037  0.732244  1
  Se  Se7  1  0.306017  0.773646  0.758678  1
  Se  Se8  1  0.487871  0.100335  0.813836  1
  Se  Se9  1  0.836855  0.717838  0.936714  1
  I  I10  1  0.895112  0.622517  0.250747  1
  I  I11  1  0.105289  0.377549  0.749325  1
