# generated using pymatgen
data_SrPa2Zn11
_symmetry_space_group_name_H-M   'P 1'
_cell_length_a   4.44365648
_cell_length_b   8.26527148
_cell_length_c   8.26527211
_cell_angle_alpha   65.42486493
_cell_angle_beta   74.40623401
_cell_angle_gamma   74.40624441
_symmetry_Int_Tables_number   1
_chemical_formula_structural   SrPa2Zn11
_chemical_formula_sum   'Sr1 Pa2 Zn11'
_cell_volume   261.60035316
_cell_formula_units_Z   1
loop_
 _symmetry_equiv_pos_site_id
 _symmetry_equiv_pos_as_xyz
  1  'x, y, z'
loop_
 _atom_site_type_symbol
 _atom_site_label
 _atom_site_symmetry_multiplicity
 _atom_site_fract_x
 _atom_site_fract_y
 _atom_site_fract_z
 _atom_site_occupancy
  Sr  Sr0  1  0.000000  0.000000  0.000000  1
  Pa  Pa1  1  0.704104  0.295896  0.295896  1
  Pa  Pa2  1  0.295896  0.704104  0.704104  1
  Zn  Zn3  1  0.662087  0.695752  0.980074  1
  Zn  Zn4  1  0.337913  0.304248  0.019926  1
  Zn  Zn5  1  0.662087  0.980074  0.695752  1
  Zn  Zn6  1  0.337913  0.019926  0.304248  1
  Zn  Zn7  1  0.500000  0.678249  0.321751  1
  Zn  Zn8  1  0.500000  0.321751  0.678249  1
  Zn  Zn9  1  0.857144  0.428305  0.857407  1
  Zn  Zn10  1  0.142856  0.571695  0.142593  1
  Zn  Zn11  1  0.857144  0.857407  0.428305  1
  Zn  Zn12  1  0.142856  0.142593  0.571695  1
  Zn  Zn13  1  0.000000  0.500000  0.500000  1
