# generated using pymatgen
data_La2Pr(BiRh)3
_symmetry_space_group_name_H-M   'P 1'
_cell_length_a   7.81855163
_cell_length_b   7.81855213
_cell_length_c   4.17687600
_cell_angle_alpha   90.00000000
_cell_angle_beta   90.00000000
_cell_angle_gamma   120.01700357
_symmetry_Int_Tables_number   1
_chemical_formula_structural   La2Pr(BiRh)3
_chemical_formula_sum   'La2 Pr1 Bi3 Rh3'
_cell_volume   221.08558219
_cell_formula_units_Z   1
loop_
 _symmetry_equiv_pos_site_id
 _symmetry_equiv_pos_as_xyz
  1  'x, y, z'
loop_
 _atom_site_type_symbol
 _atom_site_label
 _atom_site_symmetry_multiplicity
 _atom_site_fract_x
 _atom_site_fract_y
 _atom_site_fract_z
 _atom_site_occupancy
  La  La0  1  0.593769  0.999134  0.000000  1
  La  La1  1  0.999134  0.593769  0.000000  1
  Pr  Pr2  1  0.403024  0.403024  0.000000  1
  Bi  Bi3  1  0.259240  0.001006  0.500000  1
  Bi  Bi4  1  0.001006  0.259240  0.500000  1
  Bi  Bi5  1  0.739472  0.739472  0.500000  1
  Rh  Rh6  1  0.333223  0.667873  0.500000  1
  Rh  Rh7  1  0.667873  0.333223  0.500000  1
  Rh  Rh8  1  0.003261  0.003261  0.000000  1
