# generated using pymatgen
data_La3Nd(PPt3)8
_symmetry_space_group_name_H-M   'P 1'
_cell_length_a   8.56755200
_cell_length_b   8.56755201
_cell_length_c   8.56755200
_cell_angle_alpha   90.00177888
_cell_angle_beta   90.00177888
_cell_angle_gamma   90.00177883
_symmetry_Int_Tables_number   1
_chemical_formula_structural   La3Nd(PPt3)8
_chemical_formula_sum   'La3 Nd1 P8 Pt24'
_cell_volume   628.88356771
_cell_formula_units_Z   1
loop_
 _symmetry_equiv_pos_site_id
 _symmetry_equiv_pos_as_xyz
  1  'x, y, z'
loop_
 _atom_site_type_symbol
 _atom_site_label
 _atom_site_symmetry_multiplicity
 _atom_site_fract_x
 _atom_site_fract_y
 _atom_site_fract_z
 _atom_site_occupancy
  La  La0  1  0.500000  0.500000  0.000000  1
  La  La1  1  0.500000  0.000000  0.500000  1
  La  La2  1  0.000000  0.500000  0.500000  1
  Nd  Nd3  1  0.000000  0.000000  0.000000  1
  P  P4  1  0.805672  0.305293  0.194724  1
  P  P5  1  0.194724  0.805672  0.305293  1
  P  P6  1  0.694735  0.694735  0.694735  1
  P  P7  1  0.305293  0.194724  0.805672  1
  P  P8  1  0.194328  0.694707  0.805276  1
  P  P9  1  0.805276  0.194328  0.694707  1
  P  P10  1  0.305265  0.305265  0.305265  1
  P  P11  1  0.694707  0.805276  0.194328  1
  Pt  Pt12  1  0.422701  0.843025  0.157878  1
  Pt  Pt13  1  0.577630  0.342838  0.342092  1
  Pt  Pt14  1  0.077635  0.156191  0.659187  1
  Pt  Pt15  1  0.922297  0.657507  0.842834  1
  Pt  Pt16  1  0.157878  0.422701  0.843025  1
  Pt  Pt17  1  0.342092  0.577630  0.342838  1
  Pt  Pt18  1  0.659187  0.077635  0.156191  1
  Pt  Pt19  1  0.842834  0.922297  0.657507  1
  Pt  Pt20  1  0.843025  0.157878  0.422701  1
  Pt  Pt21  1  0.342838  0.342092  0.577630  1
  Pt  Pt22  1  0.156191  0.659187  0.077635  1
  Pt  Pt23  1  0.657507  0.842834  0.922297  1
  Pt  Pt24  1  0.577299  0.156975  0.842122  1
  Pt  Pt25  1  0.422370  0.657162  0.657908  1
  Pt  Pt26  1  0.922365  0.843809  0.340813  1
  Pt  Pt27  1  0.077703  0.342493  0.157166  1
  Pt  Pt28  1  0.842122  0.577299  0.156975  1
  Pt  Pt29  1  0.657908  0.422370  0.657162  1
  Pt  Pt30  1  0.340813  0.922365  0.843809  1
  Pt  Pt31  1  0.157166  0.077703  0.342493  1
  Pt  Pt32  1  0.156975  0.842122  0.577299  1
  Pt  Pt33  1  0.657162  0.657908  0.422370  1
  Pt  Pt34  1  0.843809  0.340813  0.922365  1
  Pt  Pt35  1  0.342493  0.157166  0.077703  1
