# generated using pymatgen
data_YTmZn2Ga7Pd3
_symmetry_space_group_name_H-M   'P 1'
_cell_length_a   7.60340600
_cell_length_b   7.63829617
_cell_length_c   9.50393600
_cell_angle_alpha   90.00000000
_cell_angle_beta   90.00000000
_cell_angle_gamma   119.34745611
_symmetry_Int_Tables_number   1
_chemical_formula_structural   YTmZn2Ga7Pd3
_chemical_formula_sum   'Y2 Tm2 Zn4 Ga14 Pd6'
_cell_volume   481.12409347
_cell_formula_units_Z   2
loop_
 _symmetry_equiv_pos_site_id
 _symmetry_equiv_pos_as_xyz
  1  'x, y, z'
loop_
 _atom_site_type_symbol
 _atom_site_label
 _atom_site_symmetry_multiplicity
 _atom_site_fract_x
 _atom_site_fract_y
 _atom_site_fract_z
 _atom_site_occupancy
  Y  Y0  1  0.673014  0.997906  0.250000  1
  Y  Y1  1  0.326986  0.002094  0.750000  1
  Tm  Tm2  1  0.995657  0.670547  0.250000  1
  Tm  Tm3  1  0.004343  0.329453  0.750000  1
  Zn  Zn4  1  0.138008  0.137033  0.250000  1
  Zn  Zn5  1  0.861992  0.862967  0.750000  1
  Zn  Zn6  1  0.341332  0.544451  0.250000  1
  Zn  Zn7  1  0.658668  0.455549  0.750000  1
  Ga  Ga8  1  0.008930  0.337670  0.085092  1
  Ga  Ga9  1  0.991070  0.662330  0.914908  1
  Ga  Ga10  1  0.991070  0.662330  0.585092  1
  Ga  Ga11  1  0.332157  0.000187  0.415281  1
  Ga  Ga12  1  0.008930  0.337670  0.414908  1
  Ga  Ga13  1  0.667843  0.999813  0.584719  1
  Ga  Ga14  1  0.667843  0.999813  0.915281  1
  Ga  Ga15  1  0.332157  0.000187  0.084719  1
  Ga  Ga16  1  0.335286  0.333129  0.564780  1
  Ga  Ga17  1  0.664714  0.666871  0.435220  1
  Ga  Ga18  1  0.664714  0.666871  0.064780  1
  Ga  Ga19  1  0.335286  0.333129  0.935220  1
  Ga  Ga20  1  0.539804  0.342420  0.250000  1
  Ga  Ga21  1  0.460196  0.657580  0.750000  1
  Pd  Pd22  1  0.675194  0.325430  0.003584  1
  Pd  Pd23  1  0.324806  0.674570  0.996416  1
  Pd  Pd24  1  0.324806  0.674570  0.503584  1
  Pd  Pd25  1  0.675194  0.325430  0.496416  1
  Pd  Pd26  1  0.000000  0.000000  0.000000  1
  Pd  Pd27  1  0.000000  0.000000  0.500000  1
