# generated using pymatgen
data_Ce4BiPt4Au
_symmetry_space_group_name_H-M   'P 1'
_cell_length_a   7.93147800
_cell_length_b   7.93147800
_cell_length_c   3.70745600
_cell_angle_alpha   90.00000000
_cell_angle_beta   90.00000000
_cell_angle_gamma   90.00000000
_symmetry_Int_Tables_number   1
_chemical_formula_structural   Ce4BiPt4Au
_chemical_formula_sum   'Ce4 Bi1 Pt4 Au1'
_cell_volume   233.22991469
_cell_formula_units_Z   1
loop_
 _symmetry_equiv_pos_site_id
 _symmetry_equiv_pos_as_xyz
  1  'x, y, z'
loop_
 _atom_site_type_symbol
 _atom_site_label
 _atom_site_symmetry_multiplicity
 _atom_site_fract_x
 _atom_site_fract_y
 _atom_site_fract_z
 _atom_site_occupancy
  Ce  Ce0  1  0.180734  0.334786  0.500000  1
  Ce  Ce1  1  0.334786  0.819266  0.500000  1
  Ce  Ce2  1  0.819266  0.665214  0.500000  1
  Ce  Ce3  1  0.665214  0.180734  0.500000  1
  Bi  Bi4  1  0.000000  0.000000  0.000000  1
  Pt  Pt5  1  0.624298  0.869277  0.000000  1
  Pt  Pt6  1  0.130723  0.624298  0.000000  1
  Pt  Pt7  1  0.869277  0.375702  0.000000  1
  Pt  Pt8  1  0.375702  0.130723  0.000000  1
  Au  Au9  1  0.500000  0.500000  0.000000  1
