# generated using pymatgen
data_DyHf7Ti6(Si8Mo3)2
_symmetry_space_group_name_H-M   'P 1'
_cell_length_a   6.76334882
_cell_length_b   6.76268471
_cell_length_c   12.48702157
_cell_angle_alpha   90.03430481
_cell_angle_beta   89.92074522
_cell_angle_gamma   89.96363252
_symmetry_Int_Tables_number   1
_chemical_formula_structural   DyHf7Ti6(Si8Mo3)2
_chemical_formula_sum   'Dy1 Hf7 Ti6 Si16 Mo6'
_cell_volume   571.13556916
_cell_formula_units_Z   1
loop_
 _symmetry_equiv_pos_site_id
 _symmetry_equiv_pos_as_xyz
  1  'x, y, z'
loop_
 _atom_site_type_symbol
 _atom_site_label
 _atom_site_symmetry_multiplicity
 _atom_site_fract_x
 _atom_site_fract_y
 _atom_site_fract_z
 _atom_site_occupancy
  Dy  Dy0  1  0.338153  0.002439  0.469336  1
  Hf  Hf1  1  0.001292  0.659154  0.031020  1
  Hf  Hf2  1  0.993571  0.345629  0.533137  1
  Hf  Hf3  1  0.658680  0.001187  0.968603  1
  Hf  Hf4  1  0.158267  0.499435  0.781670  1
  Hf  Hf5  1  0.839166  0.501446  0.279207  1
  Hf  Hf6  1  0.498655  0.158687  0.218046  1
  Hf  Hf7  1  0.500479  0.839140  0.719388  1
  Ti  Ti8  1  0.671610  0.666494  0.499959  1
  Ti  Ti9  1  0.832844  0.167720  0.750596  1
  Ti  Ti10  1  0.166244  0.832861  0.249219  1
  Ti  Ti11  1  0.330003  0.330453  0.000047  1
  Ti  Ti12  1  0.497066  0.655697  0.121354  1
  Ti  Ti13  1  0.655936  0.496672  0.878035  1
  Si  Si14  1  0.038351  0.702389  0.435538  1
  Si  Si15  1  0.957285  0.295627  0.936746  1
  Si  Si16  1  0.711555  0.038371  0.564604  1
  Si  Si17  1  0.205920  0.459480  0.184549  1
  Si  Si18  1  0.793678  0.543211  0.688704  1
  Si  Si19  1  0.458582  0.205592  0.815030  1
  Si  Si20  1  0.543902  0.792333  0.310691  1
  Si  Si21  1  0.295361  0.957376  0.063400  1
  Si  Si22  1  0.792778  0.868050  0.175999  1
  Si  Si23  1  0.295903  0.625914  0.572993  1
  Si  Si24  1  0.706290  0.367494  0.072264  1
  Si  Si25  1  0.635480  0.297671  0.427907  1
  Si  Si26  1  0.367323  0.706963  0.927204  1
  Si  Si27  1  0.128807  0.210388  0.319332  1
  Si  Si28  1  0.204093  0.135482  0.680069  1
  Si  Si29  1  0.867467  0.793438  0.823596  1
  Mo  Mo30  1  0.343071  0.504142  0.375396  1
  Mo  Mo31  1  0.844178  0.996620  0.372313  1
  Mo  Mo32  1  0.003541  0.156507  0.126603  1
  Mo  Mo33  1  0.999791  0.840011  0.629102  1
  Mo  Mo34  1  0.508671  0.341015  0.625612  1
  Mo  Mo35  1  0.156008  0.004908  0.872731  1
