# generated using pymatgen
data_Rb4NaScSe4
_symmetry_space_group_name_H-M   'P 1'
_cell_length_a   8.64677071
_cell_length_b   8.64677064
_cell_length_c   8.64677065
_cell_angle_alpha   131.72290500
_cell_angle_beta   128.61958497
_cell_angle_gamma   73.16147525
_symmetry_Int_Tables_number   1
_chemical_formula_structural   Rb4NaScSe4
_chemical_formula_sum   'Rb4 Na1 Sc1 Se4'
_cell_volume   368.13371081
_cell_formula_units_Z   1
loop_
 _symmetry_equiv_pos_site_id
 _symmetry_equiv_pos_as_xyz
  1  'x, y, z'
loop_
 _atom_site_type_symbol
 _atom_site_label
 _atom_site_symmetry_multiplicity
 _atom_site_fract_x
 _atom_site_fract_y
 _atom_site_fract_z
 _atom_site_occupancy
  Rb  Rb0  1  0.809374  0.657718  0.170814  1
  Rb  Rb1  1  0.190626  0.361440  0.848343  1
  Rb  Rb2  1  0.513097  0.842282  0.651657  1
  Rb  Rb3  1  0.486903  0.138560  0.329186  1
  Na  Na4  1  0.000000  0.750000  0.750000  1
  Sc  Sc5  1  0.000000  0.250000  0.250000  1
  Se  Se6  1  0.303000  0.571883  0.666440  1
  Se  Se7  1  0.094557  0.928117  0.231117  1
  Se  Se8  1  0.905443  0.136560  0.833560  1
  Se  Se9  1  0.697000  0.363440  0.268883  1
