# generated using pymatgen
data_SrLaMg(Si3Pd10)2
_symmetry_space_group_name_H-M   'P 1'
_cell_length_a   8.75188684
_cell_length_b   8.75188736
_cell_length_c   8.75188600
_cell_angle_alpha   59.99999757
_cell_angle_beta   59.99999562
_cell_angle_gamma   59.99999903
_symmetry_Int_Tables_number   1
_chemical_formula_structural   SrLaMg(Si3Pd10)2
_chemical_formula_sum   'Sr1 La1 Mg1 Si6 Pd20'
_cell_volume   474.01276993
_cell_formula_units_Z   1
loop_
 _symmetry_equiv_pos_site_id
 _symmetry_equiv_pos_as_xyz
  1  'x, y, z'
loop_
 _atom_site_type_symbol
 _atom_site_label
 _atom_site_symmetry_multiplicity
 _atom_site_fract_x
 _atom_site_fract_y
 _atom_site_fract_z
 _atom_site_occupancy
  Sr  Sr0  1  0.750000  0.750000  0.750000  1
  La  La1  1  0.250000  0.250000  0.250000  1
  Mg  Mg2  1  0.000000  0.000000  0.000000  1
  Si  Si3  1  0.733521  0.733521  0.266479  1
  Si  Si4  1  0.266479  0.266479  0.733521  1
  Si  Si5  1  0.733521  0.266479  0.733521  1
  Si  Si6  1  0.266479  0.733521  0.266479  1
  Si  Si7  1  0.266479  0.733521  0.733521  1
  Si  Si8  1  0.733521  0.266479  0.266479  1
  Pd  Pd9  1  0.612939  0.612939  0.612939  1
  Pd  Pd10  1  0.384868  0.384868  0.384868  1
  Pd  Pd11  1  0.161184  0.612939  0.612939  1
  Pd  Pd12  1  0.612939  0.161184  0.612939  1
  Pd  Pd13  1  0.845397  0.384868  0.384868  1
  Pd  Pd14  1  0.384868  0.845397  0.384868  1
  Pd  Pd15  1  0.612939  0.612939  0.161184  1
  Pd  Pd16  1  0.384868  0.384868  0.845397  1
  Pd  Pd17  1  0.001276  0.001276  0.656025  1
  Pd  Pd18  1  0.001276  0.001276  0.341424  1
  Pd  Pd19  1  0.341424  0.656025  0.001276  1
  Pd  Pd20  1  0.656025  0.341424  0.001276  1
  Pd  Pd21  1  0.001276  0.656025  0.001276  1
  Pd  Pd22  1  0.656025  0.001276  0.341424  1
  Pd  Pd23  1  0.001276  0.341424  0.001276  1
  Pd  Pd24  1  0.341424  0.001276  0.656025  1
  Pd  Pd25  1  0.656025  0.001276  0.001276  1
  Pd  Pd26  1  0.341424  0.001276  0.001276  1
  Pd  Pd27  1  0.001276  0.656025  0.341424  1
  Pd  Pd28  1  0.001276  0.341424  0.656025  1
