# generated using pymatgen
data_Sr2Al6GaAu
_symmetry_space_group_name_H-M   'P 1'
_cell_length_a   4.38527600
_cell_length_b   4.38527600
_cell_length_c   11.30274300
_cell_angle_alpha   90.00000000
_cell_angle_beta   90.00000000
_cell_angle_gamma   90.00000000
_symmetry_Int_Tables_number   1
_chemical_formula_structural   Sr2Al6GaAu
_chemical_formula_sum   'Sr2 Al6 Ga1 Au1'
_cell_volume   217.35904490
_cell_formula_units_Z   1
loop_
 _symmetry_equiv_pos_site_id
 _symmetry_equiv_pos_as_xyz
  1  'x, y, z'
loop_
 _atom_site_type_symbol
 _atom_site_label
 _atom_site_symmetry_multiplicity
 _atom_site_fract_x
 _atom_site_fract_y
 _atom_site_fract_z
 _atom_site_occupancy
  Sr  Sr0  1  0.000000  0.000000  0.995904  1
  Sr  Sr1  1  0.500000  0.500000  0.494316  1
  Al  Al2  1  0.000000  0.500000  0.249011  1
  Al  Al3  1  0.500000  0.000000  0.750209  1
  Al  Al4  1  0.500000  0.000000  0.249011  1
  Al  Al5  1  0.000000  0.500000  0.750209  1
  Al  Al6  1  0.000000  0.000000  0.613111  1
  Al  Al7  1  0.500000  0.500000  0.892256  1
  Ga  Ga8  1  0.000000  0.000000  0.384633  1
  Au  Au9  1  0.500000  0.500000  0.121343  1
