# generated using pymatgen
data_ErLuPdPtO7
_symmetry_space_group_name_H-M   'P 1'
_cell_length_a   7.19501067
_cell_length_b   7.18347026
_cell_length_c   7.19501087
_cell_angle_alpha   60.05303700
_cell_angle_beta   60.09406002
_cell_angle_gamma   60.05304030
_symmetry_Int_Tables_number   1
_chemical_formula_structural   ErLuPdPtO7
_chemical_formula_sum   'Er2 Lu2 Pd2 Pt2 O14'
_cell_volume   263.35293497
_cell_formula_units_Z   2
loop_
 _symmetry_equiv_pos_site_id
 _symmetry_equiv_pos_as_xyz
  1  'x, y, z'
loop_
 _atom_site_type_symbol
 _atom_site_label
 _atom_site_symmetry_multiplicity
 _atom_site_fract_x
 _atom_site_fract_y
 _atom_site_fract_z
 _atom_site_occupancy
  Er  Er0  1  0.625000  0.625000  0.625000  1
  Er  Er1  1  0.625000  0.125000  0.625000  1
  Lu  Lu2  1  0.625000  0.625000  0.125000  1
  Lu  Lu3  1  0.125000  0.625000  0.625000  1
  Pd  Pd4  1  0.625000  0.125000  0.125000  1
  Pd  Pd5  1  0.125000  0.125000  0.625000  1
  Pt  Pt6  1  0.125000  0.125000  0.125000  1
  Pt  Pt7  1  0.125000  0.625000  0.125000  1
  O  O8  1  0.033157  0.469578  0.467345  1
  O  O9  1  0.782655  0.780422  0.216843  1
  O  O10  1  0.782655  0.220079  0.216843  1
  O  O11  1  0.467726  0.032274  0.467726  1
  O  O12  1  0.752893  0.747107  0.752893  1
  O  O13  1  0.030538  0.469462  0.030538  1
  O  O14  1  0.033157  0.029921  0.467345  1
  O  O15  1  0.219462  0.780538  0.219462  1
  O  O16  1  0.216843  0.220079  0.782655  1
  O  O17  1  0.782274  0.217726  0.782274  1
  O  O18  1  0.497107  0.502893  0.497107  1
  O  O19  1  0.467345  0.029921  0.033157  1
  O  O20  1  0.467345  0.469578  0.033157  1
  O  O21  1  0.216843  0.780422  0.782655  1
