# generated using pymatgen
data_Tb6GaSiTc
_symmetry_space_group_name_H-M   'P 1'
_cell_length_a   8.48213671
_cell_length_b   8.48213767
_cell_length_c   8.48213700
_cell_angle_alpha   105.06134543
_cell_angle_beta   111.44793671
_cell_angle_gamma   111.99287150
_symmetry_Int_Tables_number   1
_chemical_formula_structural   Tb6GaSiTc
_chemical_formula_sum   'Tb12 Ga2 Si2 Tc2'
_cell_volume   467.70183629
_cell_formula_units_Z   2
loop_
 _symmetry_equiv_pos_site_id
 _symmetry_equiv_pos_as_xyz
  1  'x, y, z'
loop_
 _atom_site_type_symbol
 _atom_site_label
 _atom_site_symmetry_multiplicity
 _atom_site_fract_x
 _atom_site_fract_y
 _atom_site_fract_z
 _atom_site_occupancy
  Tb  Tb0  1  0.694449  0.257589  0.952038  1
  Tb  Tb1  1  0.305551  0.742411  0.047962  1
  Tb  Tb2  1  0.694449  0.742411  0.436862  1
  Tb  Tb3  1  0.305551  0.257589  0.563138  1
  Tb  Tb4  1  0.810119  0.144159  0.334040  1
  Tb  Tb5  1  0.810119  0.476080  0.665960  1
  Tb  Tb6  1  0.189881  0.855841  0.665960  1
  Tb  Tb7  1  0.189881  0.523920  0.334040  1
  Tb  Tb8  1  0.590367  0.770806  0.819561  1
  Tb  Tb9  1  0.951244  0.770806  0.180439  1
  Tb  Tb10  1  0.048756  0.229194  0.819561  1
  Tb  Tb11  1  0.409633  0.229194  0.180439  1
  Ga  Ga12  1  0.500000  0.500000  0.000000  1
  Ga  Ga13  1  0.500000  0.000000  0.500000  1
  Si  Si14  1  0.000000  0.114327  0.114327  1
  Si  Si15  1  0.000000  0.885673  0.885673  1
  Tc  Tc16  1  0.826530  0.500000  0.326530  1
  Tc  Tc17  1  0.173470  0.500000  0.673470  1
