# generated using pymatgen
data_Ti4Nb3Co8Si14Tc
_symmetry_space_group_name_H-M   'P 1'
_cell_length_a   9.17131957
_cell_length_b   9.17133327
_cell_length_c   9.19083399
_cell_angle_alpha   94.19015022
_cell_angle_beta   94.18136382
_cell_angle_gamma   148.61725676
_symmetry_Int_Tables_number   1
_chemical_formula_structural   Ti4Nb3Co8Si14Tc
_chemical_formula_sum   'Ti4 Nb3 Co8 Si14 Tc1'
_cell_volume   387.64053973
_cell_formula_units_Z   1
loop_
 _symmetry_equiv_pos_site_id
 _symmetry_equiv_pos_as_xyz
  1  'x, y, z'
loop_
 _atom_site_type_symbol
 _atom_site_label
 _atom_site_symmetry_multiplicity
 _atom_site_fract_x
 _atom_site_fract_y
 _atom_site_fract_z
 _atom_site_occupancy
  Ti  Ti0  1  0.498793  0.691959  0.190741  1
  Ti  Ti1  1  0.500441  0.310236  0.810677  1
  Ti  Ti2  1  0.310217  0.500568  0.810779  1
  Ti  Ti3  1  0.691954  0.498929  0.190887  1
  Nb  Nb4  1  0.867701  0.867685  0.735427  1
  Nb  Nb5  1  0.865240  0.133190  0.998426  1
  Nb  Nb6  1  0.133138  0.865245  0.998382  1
  Co  Co7  1  0.398659  0.898568  0.797259  1
  Co  Co8  1  0.101603  0.601486  0.203103  1
  Co  Co9  1  0.100316  0.900222  0.498704  1
  Co  Co10  1  0.398370  0.598583  0.498717  1
  Co  Co11  1  0.598473  0.398396  0.498692  1
  Co  Co12  1  0.900126  0.100363  0.498712  1
  Co  Co13  1  0.898673  0.398597  0.797255  1
  Co  Co14  1  0.601611  0.101489  0.203105  1
  Si  Si15  1  0.293928  0.293939  0.587927  1
  Si  Si16  1  0.705814  0.705792  0.411533  1
  Si  Si17  1  0.707081  0.292911  0.000006  1
  Si  Si18  1  0.292936  0.707013  0.999957  1
  Si  Si19  1  0.002659  0.292438  0.295075  1
  Si  Si20  1  0.998998  0.702653  0.701645  1
  Si  Si21  1  0.702640  0.999019  0.701657  1
  Si  Si22  1  0.292389  0.002581  0.294979  1
  Si  Si23  1  0.500193  0.905706  0.405970  1
  Si  Si24  1  0.499503  0.094521  0.594012  1
  Si  Si25  1  0.094613  0.499499  0.594085  1
  Si  Si26  1  0.905831  0.500198  0.406044  1
  Si  Si27  1  0.751422  0.751481  0.005302  1
  Si  Si28  1  0.253819  0.253878  0.005288  1
  Tc  Tc29  1  0.132858  0.132859  0.265653  1
