# generated using pymatgen
data_Hf4Nb4SiP3
_symmetry_space_group_name_H-M   'P 1'
_cell_length_a   3.54564100
_cell_length_b   6.93001680
_cell_length_c   8.37926679
_cell_angle_alpha   89.73294045
_cell_angle_beta   90.00000000
_cell_angle_gamma   90.00000000
_symmetry_Int_Tables_number   1
_chemical_formula_structural   Hf4Nb4SiP3
_chemical_formula_sum   'Hf4 Nb4 Si1 P3'
_cell_volume   205.88767447
_cell_formula_units_Z   1
loop_
 _symmetry_equiv_pos_site_id
 _symmetry_equiv_pos_as_xyz
  1  'x, y, z'
loop_
 _atom_site_type_symbol
 _atom_site_label
 _atom_site_symmetry_multiplicity
 _atom_site_fract_x
 _atom_site_fract_y
 _atom_site_fract_z
 _atom_site_occupancy
  Hf  Hf0  1  0.250000  0.033854  0.666493  1
  Hf  Hf1  1  0.250000  0.531961  0.831395  1
  Hf  Hf2  1  0.750000  0.468587  0.164796  1
  Hf  Hf3  1  0.750000  0.963147  0.332684  1
  Nb  Nb4  1  0.750000  0.857888  0.939430  1
  Nb  Nb5  1  0.250000  0.641418  0.440927  1
  Nb  Nb6  1  0.750000  0.363246  0.563932  1
  Nb  Nb7  1  0.250000  0.138320  0.057445  1
  Si  Si8  1  0.250000  0.261855  0.357913  1
  P  P9  1  0.250000  0.763535  0.144633  1
  P  P10  1  0.750000  0.739902  0.643734  1
  P  P11  1  0.750000  0.236287  0.856617  1
