# generated using pymatgen
data_AcYb(In2Rh)2
_symmetry_space_group_name_H-M   'P 1'
_cell_length_a   5.64177101
_cell_length_b   5.64177135
_cell_length_c   8.63042100
_cell_angle_alpha   90.00000000
_cell_angle_beta   90.00000000
_cell_angle_gamma   135.99239733
_symmetry_Int_Tables_number   1
_chemical_formula_structural   AcYb(In2Rh)2
_chemical_formula_sum   'Ac1 Yb1 In4 Rh2'
_cell_volume   190.85074429
_cell_formula_units_Z   1
loop_
 _symmetry_equiv_pos_site_id
 _symmetry_equiv_pos_as_xyz
  1  'x, y, z'
loop_
 _atom_site_type_symbol
 _atom_site_label
 _atom_site_symmetry_multiplicity
 _atom_site_fract_x
 _atom_site_fract_y
 _atom_site_fract_z
 _atom_site_occupancy
  Ac  Ac0  1  0.065202  0.934798  0.250000  1
  Yb  Yb1  1  0.934594  0.065406  0.750000  1
  In  In2  1  0.649033  0.350967  0.559487  1
  In  In3  1  0.350802  0.649198  0.462294  1
  In  In4  1  0.649033  0.350967  0.940513  1
  In  In5  1  0.350802  0.649198  0.037706  1
  Rh  Rh6  1  0.219515  0.780485  0.750000  1
  Rh  Rh7  1  0.781019  0.218981  0.250000  1
