# generated using pymatgen
data_SrTh2S5
_symmetry_space_group_name_H-M   'P 1'
_cell_length_a   7.61808200
_cell_length_b   8.44397831
_cell_length_c   12.12257365
_cell_angle_alpha   90.03432468
_cell_angle_beta   90.00000000
_cell_angle_gamma   90.00000000
_symmetry_Int_Tables_number   1
_chemical_formula_structural   SrTh2S5
_chemical_formula_sum   'Sr4 Th8 S20'
_cell_volume   779.80767553
_cell_formula_units_Z   4
loop_
 _symmetry_equiv_pos_site_id
 _symmetry_equiv_pos_as_xyz
  1  'x, y, z'
loop_
 _atom_site_type_symbol
 _atom_site_label
 _atom_site_symmetry_multiplicity
 _atom_site_fract_x
 _atom_site_fract_y
 _atom_site_fract_z
 _atom_site_occupancy
  Sr  Sr0  1  0.966508  0.505929  0.825680  1
  Sr  Sr1  1  0.466508  0.494071  0.674320  1
  Sr  Sr2  1  0.033492  0.494071  0.174320  1
  Sr  Sr3  1  0.533492  0.505929  0.325680  1
  Th  Th4  1  0.573426  0.251496  0.008945  1
  Th  Th5  1  0.926574  0.251496  0.508945  1
  Th  Th6  1  0.426574  0.748504  0.991055  1
  Th  Th7  1  0.073426  0.748504  0.491055  1
  Th  Th8  1  0.516933  0.001539  0.320872  1
  Th  Th9  1  0.016933  0.998461  0.179128  1
  Th  Th10  1  0.483067  0.998461  0.679128  1
  Th  Th11  1  0.983067  0.001539  0.820872  1
  S  S12  1  0.840646  0.957466  0.601835  1
  S  S13  1  0.828493  0.776917  0.314727  1
  S  S14  1  0.671507  0.776917  0.814727  1
  S  S15  1  0.171507  0.223083  0.685273  1
  S  S16  1  0.543756  0.220484  0.501807  1
  S  S17  1  0.043756  0.779516  0.998193  1
  S  S18  1  0.456244  0.779516  0.498193  1
  S  S19  1  0.956244  0.220484  0.001807  1
  S  S20  1  0.198197  0.765488  0.716804  1
  S  S21  1  0.698197  0.234512  0.783196  1
  S  S22  1  0.801803  0.234512  0.283196  1
  S  S23  1  0.659354  0.957466  0.101835  1
  S  S24  1  0.830323  0.540488  0.588798  1
  S  S25  1  0.330323  0.459512  0.911202  1
  S  S26  1  0.169677  0.459512  0.411202  1
  S  S27  1  0.669677  0.540488  0.088798  1
  S  S28  1  0.301803  0.765488  0.216804  1
  S  S29  1  0.340646  0.042534  0.898165  1
  S  S30  1  0.159354  0.042534  0.398165  1
  S  S31  1  0.328493  0.223083  0.185273  1
