# generated using pymatgen
data_Yb4CdInPd10
_symmetry_space_group_name_H-M   'P 1'
_cell_length_a   4.27902900
_cell_length_b   5.78146452
_cell_length_c   11.44272456
_cell_angle_alpha   90.52517481
_cell_angle_beta   90.00000000
_cell_angle_gamma   90.00000000
_symmetry_Int_Tables_number   1
_chemical_formula_structural   Yb4CdInPd10
_chemical_formula_sum   'Yb4 Cd1 In1 Pd10'
_cell_volume   283.07029312
_cell_formula_units_Z   1
loop_
 _symmetry_equiv_pos_site_id
 _symmetry_equiv_pos_as_xyz
  1  'x, y, z'
loop_
 _atom_site_type_symbol
 _atom_site_label
 _atom_site_symmetry_multiplicity
 _atom_site_fract_x
 _atom_site_fract_y
 _atom_site_fract_z
 _atom_site_occupancy
  Yb  Yb0  1  0.500000  0.310437  0.860552  1
  Yb  Yb1  1  0.500000  0.803910  0.636400  1
  Yb  Yb2  1  0.500000  0.689563  0.139448  1
  Yb  Yb3  1  0.500000  0.196090  0.363600  1
  Cd  Cd4  1  0.000000  0.500000  0.500000  1
  In  In5  1  0.000000  0.000000  0.000000  1
  Pd  Pd6  1  0.500000  0.708830  0.383155  1
  Pd  Pd7  1  0.500000  0.291170  0.616845  1
  Pd  Pd8  1  0.000000  0.056652  0.752083  1
  Pd  Pd9  1  0.500000  0.797903  0.886181  1
  Pd  Pd10  1  0.000000  0.441854  0.249770  1
  Pd  Pd11  1  0.000000  0.943348  0.247917  1
  Pd  Pd12  1  0.000000  0.558146  0.750230  1
  Pd  Pd13  1  0.000000  0.500000  0.000000  1
  Pd  Pd14  1  0.000000  0.000000  0.500000  1
  Pd  Pd15  1  0.500000  0.202097  0.113819  1
