# generated using pymatgen
data_Li3B3Pd8Pt
_symmetry_space_group_name_H-M   'P 1'
_cell_length_a   9.29209685
_cell_length_b   9.28515994
_cell_length_c   2.79952100
_cell_angle_alpha   90.00000000
_cell_angle_beta   90.00000000
_cell_angle_gamma   119.82673470
_symmetry_Int_Tables_number   1
_chemical_formula_structural   Li3B3Pd8Pt
_chemical_formula_sum   'Li3 B3 Pd8 Pt1'
_cell_volume   209.54296466
_cell_formula_units_Z   1
loop_
 _symmetry_equiv_pos_site_id
 _symmetry_equiv_pos_as_xyz
  1  'x, y, z'
loop_
 _atom_site_type_symbol
 _atom_site_label
 _atom_site_symmetry_multiplicity
 _atom_site_fract_x
 _atom_site_fract_y
 _atom_site_fract_z
 _atom_site_occupancy
  Li  Li0  1  0.000238  0.362348  0.000000  1
  Li  Li1  1  0.637198  0.638552  0.000000  1
  Li  Li2  1  0.362788  0.999468  0.000000  1
  B  B3  1  0.000932  0.000671  0.500000  1
  B  B4  1  0.667054  0.334346  0.000000  1
  B  B5  1  0.336823  0.669537  0.000000  1
  Pd  Pd6  1  0.682694  0.167359  0.500000  1
  Pd  Pd7  1  0.483832  0.316425  0.500000  1
  Pd  Pd8  1  0.832879  0.515378  0.500000  1
  Pd  Pd9  1  0.165114  0.681596  0.500000  1
  Pd  Pd10  1  0.315151  0.482042  0.500000  1
  Pd  Pd11  1  0.999594  0.823747  0.000000  1
  Pd  Pd12  1  0.175482  0.175841  0.000000  1
  Pd  Pd13  1  0.823745  0.998727  0.000000  1
  Pt  Pt14  1  0.516477  0.833963  0.500000  1
