# generated using pymatgen
data_TbY3Al24IrPt8
_symmetry_space_group_name_H-M   'P 1'
_cell_length_a   7.52345889
_cell_length_b   7.54619937
_cell_length_c   13.18711807
_cell_angle_alpha   84.61348726
_cell_angle_beta   79.11029795
_cell_angle_gamma   59.91140263
_symmetry_Int_Tables_number   1
_chemical_formula_structural   TbY3Al24IrPt8
_chemical_formula_sum   'Tb1 Y3 Al24 Ir1 Pt8'
_cell_volume   636.13014710
_cell_formula_units_Z   1
loop_
 _symmetry_equiv_pos_site_id
 _symmetry_equiv_pos_as_xyz
  1  'x, y, z'
loop_
 _atom_site_type_symbol
 _atom_site_label
 _atom_site_symmetry_multiplicity
 _atom_site_fract_x
 _atom_site_fract_y
 _atom_site_fract_z
 _atom_site_occupancy
  Tb  Tb0  1  0.266304  0.501585  0.191227  1
  Y  Y1  1  0.393534  0.168313  0.808838  1
  Y  Y2  1  0.606453  0.831681  0.191165  1
  Y  Y3  1  0.733713  0.498420  0.808777  1
  Al  Al4  1  0.687046  0.830625  0.945890  1
  Al  Al5  1  0.312951  0.169346  0.054114  1
  Al  Al6  1  0.146631  0.832138  0.561611  1
  Al  Al7  1  0.853374  0.167859  0.438379  1
  Al  Al8  1  0.480018  0.166720  0.558977  1
  Al  Al9  1  0.519984  0.833276  0.441014  1
  Al  Al10  1  0.217062  0.165071  0.329119  1
  Al  Al11  1  0.782933  0.834894  0.670884  1
  Al  Al12  1  0.436806  0.506986  0.670795  1
  Al  Al13  1  0.563225  0.493020  0.329209  1
  Al  Al14  1  0.109620  0.160085  0.668875  1
  Al  Al15  1  0.890345  0.839953  0.331132  1
  Al  Al16  1  0.349313  0.499354  0.945960  1
  Al  Al17  1  0.650704  0.500656  0.054036  1
  Al  Al18  1  0.014918  0.171149  0.955161  1
  Al  Al19  1  0.985067  0.828866  0.044843  1
  Al  Al20  1  0.186435  0.499338  0.441202  1
  Al  Al21  1  0.813567  0.500667  0.558789  1
  Al  Al22  1  0.734912  0.163578  0.183259  1
  Al  Al23  1  0.265129  0.836413  0.816742  1
  Al  Al24  1  0.061097  0.629780  0.817333  1
  Al  Al25  1  0.938890  0.370189  0.182666  1
  Al  Al26  1  0.855935  0.041435  0.816376  1
  Al  Al27  1  0.144035  0.958611  0.183627  1
  Ir  Ir28  1  0.999995  0.499994  0.999984  1
  Pt  Pt29  1  0.120198  0.492536  0.638405  1
  Pt  Pt30  1  0.879793  0.507462  0.361604  1
  Pt  Pt31  1  0.657463  0.171185  0.999924  1
  Pt  Pt32  1  0.342549  0.828813  0.000059  1
  Pt  Pt33  1  0.537748  0.166818  0.362022  1
  Pt  Pt34  1  0.462261  0.833163  0.637991  1
  Pt  Pt35  1  0.779253  0.174734  0.636765  1
  Pt  Pt36  1  0.220735  0.825288  0.363250  1
