# generated using pymatgen
data_Lu(MnH3)2
_symmetry_space_group_name_H-M   'P 1'
_cell_length_a   4.62985303
_cell_length_b   4.63758976
_cell_length_c   4.63013202
_cell_angle_alpha   59.90392203
_cell_angle_beta   59.89076530
_cell_angle_gamma   59.92673792
_symmetry_Int_Tables_number   1
_chemical_formula_structural   Lu(MnH3)2
_chemical_formula_sum   'Lu1 Mn2 H6'
_cell_volume   70.14908188
_cell_formula_units_Z   1
loop_
 _symmetry_equiv_pos_site_id
 _symmetry_equiv_pos_as_xyz
  1  'x, y, z'
loop_
 _atom_site_type_symbol
 _atom_site_label
 _atom_site_symmetry_multiplicity
 _atom_site_fract_x
 _atom_site_fract_y
 _atom_site_fract_z
 _atom_site_occupancy
  Lu  Lu0  1  0.643585  0.892558  0.908110  1
  Mn  Mn1  1  0.143529  0.393852  0.407986  1
  Mn  Mn2  1  0.893298  0.142277  0.157984  1
  H  H3  1  0.144963  0.938937  0.401952  1
  H  H4  1  0.623652  0.397146  0.400205  1
  H  H5  1  0.150265  0.876970  0.925915  1
  H  H6  1  0.635423  0.372578  0.919413  1
  H  H7  1  0.673963  0.865264  0.417120  1
  H  H8  1  0.130219  0.402067  0.882503  1
