# generated using pymatgen
data_Cs3Ta2AgSe12
_symmetry_space_group_name_H-M   'P 1'
_cell_length_a   10.03606895
_cell_length_b   14.32931301
_cell_length_c   16.02473900
_cell_angle_alpha   90.00001999
_cell_angle_beta   95.41342148
_cell_angle_gamma   90.00209991
_symmetry_Int_Tables_number   1
_chemical_formula_structural   Cs3Ta2AgSe12
_chemical_formula_sum   'Cs12 Ta8 Ag4 Se48'
_cell_volume   2294.23889165
_cell_formula_units_Z   4
loop_
 _symmetry_equiv_pos_site_id
 _symmetry_equiv_pos_as_xyz
  1  'x, y, z'
loop_
 _atom_site_type_symbol
 _atom_site_label
 _atom_site_symmetry_multiplicity
 _atom_site_fract_x
 _atom_site_fract_y
 _atom_site_fract_z
 _atom_site_occupancy
  Cs  Cs0  1  0.927350  0.584735  0.277890  1
  Cs  Cs1  1  0.427357  0.915267  0.777893  1
  Cs  Cs2  1  0.072648  0.415266  0.722108  1
  Cs  Cs3  1  0.572645  0.084736  0.222103  1
  Cs  Cs4  1  0.775485  0.916645  0.493979  1
  Cs  Cs5  1  0.504758  0.395344  0.342944  1
  Cs  Cs6  1  0.004753  0.104659  0.842943  1
  Cs  Cs7  1  0.724514  0.416644  0.006021  1
  Cs  Cs8  1  0.495243  0.604658  0.657055  1
  Cs  Cs9  1  0.995245  0.895341  0.157055  1
  Cs  Cs10  1  0.224512  0.083359  0.506020  1
  Cs  Cs11  1  0.275486  0.583355  0.993977  1
  Ta  Ta12  1  0.012608  0.778747  0.727717  1
  Ta  Ta13  1  0.512615  0.721252  0.227722  1
  Ta  Ta14  1  0.658324  0.222360  0.580869  1
  Ta  Ta15  1  0.987392  0.221253  0.272283  1
  Ta  Ta16  1  0.158322  0.277640  0.080865  1
  Ta  Ta17  1  0.841678  0.722359  0.919134  1
  Ta  Ta18  1  0.487396  0.278748  0.772285  1
  Ta  Ta19  1  0.341672  0.777638  0.419135  1
  Ag  Ag20  1  0.697985  0.674184  0.080305  1
  Ag  Ag21  1  0.302014  0.325818  0.919694  1
  Ag  Ag22  1  0.197980  0.825819  0.580307  1
  Ag  Ag23  1  0.802021  0.174182  0.419692  1
  Se  Se24  1  0.231335  0.183358  0.242706  1
  Se  Se25  1  0.807734  0.723161  0.635539  1
  Se  Se26  1  0.729136  0.788536  0.303660  1
  Se  Se27  1  0.270859  0.211470  0.696338  1
  Se  Se28  1  0.474960  0.882906  0.325619  1
  Se  Se29  1  0.525036  0.117095  0.674382  1
  Se  Se30  1  0.452909  0.333714  0.607922  1
  Se  Se31  1  0.731337  0.316648  0.742706  1
  Se  Se32  1  0.240341  0.922165  0.339195  1
  Se  Se33  1  0.307732  0.776837  0.135539  1
  Se  Se34  1  0.445821  0.836689  0.553085  1
  Se  Se35  1  0.229136  0.711472  0.803662  1
  Se  Se36  1  0.986825  0.372562  0.501592  1
  Se  Se37  1  0.192269  0.276838  0.364462  1
  Se  Se38  1  0.927441  0.066808  0.324683  1
  Se  Se39  1  0.768663  0.816644  0.757292  1
  Se  Se40  1  0.692267  0.223165  0.864461  1
  Se  Se41  1  0.047096  0.833718  0.892086  1
  Se  Se42  1  0.079543  0.768376  0.428077  1
  Se  Se43  1  0.572554  0.566811  0.175319  1
  Se  Se44  1  0.974953  0.617101  0.825618  1
  Se  Se45  1  0.554186  0.163320  0.446911  1
  Se  Se46  1  0.013176  0.627439  0.498405  1
  Se  Se47  1  0.513181  0.872556  0.998405  1
  Se  Se48  1  0.163297  0.098846  0.064493  1
  Se  Se49  1  0.740335  0.577834  0.839196  1
  Se  Se50  1  0.420459  0.268381  0.071921  1
  Se  Se51  1  0.025047  0.382899  0.174381  1
  Se  Se52  1  0.072558  0.933193  0.675317  1
  Se  Se53  1  0.632515  0.847932  0.140113  1
  Se  Se54  1  0.836701  0.901149  0.935512  1
  Se  Se55  1  0.547094  0.666297  0.392084  1
  Se  Se56  1  0.579541  0.731619  0.928078  1
  Se  Se57  1  0.427447  0.433190  0.824683  1
  Se  Se58  1  0.945824  0.663318  0.053089  1
  Se  Se59  1  0.336697  0.598857  0.435512  1
  Se  Se60  1  0.132510  0.652072  0.640116  1
  Se  Se61  1  0.486818  0.127442  0.001593  1
  Se  Se62  1  0.867490  0.347929  0.359883  1
  Se  Se63  1  0.920461  0.231624  0.571921  1
  Se  Se64  1  0.952904  0.166280  0.107919  1
  Se  Se65  1  0.259665  0.422166  0.160803  1
  Se  Se66  1  0.759658  0.077839  0.660803  1
  Se  Se67  1  0.663300  0.401156  0.564493  1
  Se  Se68  1  0.770863  0.288529  0.196336  1
  Se  Se69  1  0.054176  0.336681  0.946911  1
  Se  Se70  1  0.367486  0.152070  0.859884  1
  Se  Se71  1  0.268654  0.683352  0.257300  1
