# generated using pymatgen
data_La21Tc3Sb8
_symmetry_space_group_name_H-M   'P 1'
_cell_length_a   8.40141997
_cell_length_b   9.32480600
_cell_length_c   12.79987500
_cell_angle_alpha   90.00000000
_cell_angle_beta   89.48988786
_cell_angle_gamma   90.00000000
_symmetry_Int_Tables_number   1
_chemical_formula_structural   La21Tc3Sb8
_chemical_formula_sum   'La21 Tc3 Sb8'
_cell_volume   1002.72309043
_cell_formula_units_Z   1
loop_
 _symmetry_equiv_pos_site_id
 _symmetry_equiv_pos_as_xyz
  1  'x, y, z'
loop_
 _atom_site_type_symbol
 _atom_site_label
 _atom_site_symmetry_multiplicity
 _atom_site_fract_x
 _atom_site_fract_y
 _atom_site_fract_z
 _atom_site_occupancy
  La  La0  1  0.027542  0.750000  0.498220  1
  La  La1  1  0.962568  0.250000  0.501248  1
  La  La2  1  0.542792  0.250000  0.004591  1
  La  La3  1  0.461400  0.750000  0.998143  1
  La  La4  1  0.873159  0.750000  0.801536  1
  La  La5  1  0.126344  0.250000  0.200472  1
  La  La6  1  0.371943  0.250000  0.699539  1
  La  La7  1  0.642959  0.750000  0.291174  1
  La  La8  1  0.693122  0.515686  0.564881  1
  La  La9  1  0.311783  0.446720  0.435791  1
  La  La10  1  0.181809  0.468458  0.936876  1
  La  La11  1  0.311783  0.053280  0.435791  1
  La  La12  1  0.815199  0.528666  0.061807  1
  La  La13  1  0.693122  0.984314  0.564881  1
  La  La14  1  0.815199  0.971334  0.061807  1
  La  La15  1  0.181809  0.031542  0.936876  1
  La  La16  1  0.337711  0.750000  0.722424  1
  La  La17  1  0.651199  0.250000  0.293271  1
  La  La18  1  0.845247  0.250000  0.793660  1
  La  La19  1  0.144998  0.750000  0.201660  1
  La  La20  1  0.414533  0.750000  0.481168  1
  Tc  Tc21  1  0.089039  0.750000  0.971289  1
  Tc  Tc22  1  0.911086  0.250000  0.019368  1
  Tc  Tc23  1  0.595893  0.250000  0.521504  1
  Sb  Sb24  1  0.572891  0.505144  0.827966  1
  Sb  Sb25  1  0.424609  0.497635  0.176986  1
  Sb  Sb26  1  0.076044  0.494826  0.671368  1
  Sb  Sb27  1  0.424609  0.002365  0.176986  1
  Sb  Sb28  1  0.925336  0.505314  0.324691  1
  Sb  Sb29  1  0.572891  0.994856  0.827966  1
  Sb  Sb30  1  0.925336  0.994686  0.324691  1
  Sb  Sb31  1  0.076044  0.005174  0.671368  1
