# generated using pymatgen
data_Y12Al2Ni3Ru
_symmetry_space_group_name_H-M   'P 1'
_cell_length_a   8.38730885
_cell_length_b   8.38731003
_cell_length_c   8.38731078
_cell_angle_alpha   112.37068520
_cell_angle_beta   109.86599029
_cell_angle_gamma   106.23522356
_symmetry_Int_Tables_number   1
_chemical_formula_structural   Y12Al2Ni3Ru
_chemical_formula_sum   'Y12 Al2 Ni3 Ru1'
_cell_volume   452.89007966
_cell_formula_units_Z   1
loop_
 _symmetry_equiv_pos_site_id
 _symmetry_equiv_pos_as_xyz
  1  'x, y, z'
loop_
 _atom_site_type_symbol
 _atom_site_label
 _atom_site_symmetry_multiplicity
 _atom_site_fract_x
 _atom_site_fract_y
 _atom_site_fract_z
 _atom_site_occupancy
  Y  Y0  1  0.050181  0.745008  0.305172  1
  Y  Y1  1  0.960611  0.265825  0.694787  1
  Y  Y2  1  0.560164  0.254992  0.305172  1
  Y  Y3  1  0.428963  0.734175  0.694787  1
  Y  Y4  1  0.675542  0.864935  0.192762  1
  Y  Y5  1  0.327828  0.517220  0.192762  1
  Y  Y6  1  0.327828  0.135065  0.810608  1
  Y  Y7  1  0.675542  0.482780  0.810608  1
  Y  Y8  1  0.177026  0.220827  0.397854  1
  Y  Y9  1  0.815515  0.220651  0.036166  1
  Y  Y10  1  0.177026  0.779173  0.956201  1
  Y  Y11  1  0.815515  0.779349  0.594863  1
  Al  Al12  1  0.988290  0.500000  0.488290  1
  Al  Al13  1  0.503314  0.000000  0.503314  1
  Ni  Ni14  1  0.344886  0.500000  0.844886  1
  Ni  Ni15  1  0.885048  0.884516  0.000533  1
  Ni  Ni16  1  0.116017  0.115484  0.000533  1
  Ru  Ru17  1  0.670700  0.500000  0.170700  1
