# generated using pymatgen
data_Sc8Nb8Re3Si16W
_symmetry_space_group_name_H-M   'P 1'
_cell_length_a   6.58211801
_cell_length_b   6.84439474
_cell_length_c   13.02204100
_cell_angle_alpha   90.00000000
_cell_angle_beta   90.00000000
_cell_angle_gamma   90.02410173
_symmetry_Int_Tables_number   1
_chemical_formula_structural   Sc8Nb8Re3Si16W
_chemical_formula_sum   'Sc8 Nb8 Re3 Si16 W1'
_cell_volume   586.65088915
_cell_formula_units_Z   1
loop_
 _symmetry_equiv_pos_site_id
 _symmetry_equiv_pos_as_xyz
  1  'x, y, z'
loop_
 _atom_site_type_symbol
 _atom_site_label
 _atom_site_symmetry_multiplicity
 _atom_site_fract_x
 _atom_site_fract_y
 _atom_site_fract_z
 _atom_site_occupancy
  Sc  Sc0  1  0.496715  0.672062  0.590732  1
  Sc  Sc1  1  0.997071  0.826307  0.908991  1
  Sc  Sc2  1  0.502151  0.325235  0.091941  1
  Sc  Sc3  1  0.999610  0.173249  0.408299  1
  Sc  Sc4  1  0.502151  0.325235  0.408059  1
  Sc  Sc5  1  0.999610  0.173249  0.091701  1
  Sc  Sc6  1  0.496715  0.672062  0.909268  1
  Sc  Sc7  1  0.997071  0.826307  0.591009  1
  Nb  Nb8  1  0.671832  0.165203  0.626702  1
  Nb  Nb9  1  0.171962  0.335483  0.873993  1
  Nb  Nb10  1  0.329919  0.835343  0.125086  1
  Nb  Nb11  1  0.829199  0.667104  0.374985  1
  Nb  Nb12  1  0.329919  0.835343  0.374914  1
  Nb  Nb13  1  0.829199  0.667104  0.125015  1
  Nb  Nb14  1  0.671832  0.165203  0.873298  1
  Nb  Nb15  1  0.171962  0.335483  0.626007  1
  Re  Re16  1  0.841508  0.504342  0.750000  1
  Re  Re17  1  0.339992  0.994098  0.750000  1
  Re  Re18  1  0.158859  0.501850  0.250000  1
  Si  Si19  1  0.669352  0.963863  0.459506  1
  Si  Si20  1  0.170139  0.536356  0.042141  1
  Si  Si21  1  0.331104  0.034971  0.955514  1
  Si  Si22  1  0.831330  0.464373  0.543442  1
  Si  Si23  1  0.331104  0.034971  0.544486  1
  Si  Si24  1  0.831330  0.464373  0.956558  1
  Si  Si25  1  0.669352  0.963863  0.040494  1
  Si  Si26  1  0.170139  0.536356  0.457859  1
  Si  Si27  1  0.475607  0.390435  0.750000  1
  Si  Si28  1  0.975322  0.109715  0.750000  1
  Si  Si29  1  0.525811  0.610162  0.250000  1
  Si  Si30  1  0.029465  0.889140  0.250000  1
  Si  Si31  1  0.702006  0.850996  0.750000  1
  Si  Si32  1  0.202611  0.648251  0.750000  1
  Si  Si33  1  0.293477  0.149437  0.250000  1
  Si  Si34  1  0.797355  0.355667  0.250000  1
  W  W35  1  0.657219  0.996814  0.250000  1
