# generated using pymatgen
data_ErLu3(B4Ru5)2
_symmetry_space_group_name_H-M   'P 1'
_cell_length_a   3.04489500
_cell_length_b   8.75316792
_cell_length_c   10.15948800
_cell_angle_alpha   89.94929489
_cell_angle_beta   90.00000000
_cell_angle_gamma   90.00000000
_symmetry_Int_Tables_number   1
_chemical_formula_structural   ErLu3(B4Ru5)2
_chemical_formula_sum   'Er1 Lu3 B8 Ru10'
_cell_volume   270.77541664
_cell_formula_units_Z   1
loop_
 _symmetry_equiv_pos_site_id
 _symmetry_equiv_pos_as_xyz
  1  'x, y, z'
loop_
 _atom_site_type_symbol
 _atom_site_label
 _atom_site_symmetry_multiplicity
 _atom_site_fract_x
 _atom_site_fract_y
 _atom_site_fract_z
 _atom_site_occupancy
  Er  Er0  1  0.500000  0.838135  0.319251  1
  Lu  Lu1  1  0.500000  0.660898  0.818281  1
  Lu  Lu2  1  0.500000  0.338454  0.180643  1
  Lu  Lu3  1  0.500000  0.161161  0.682124  1
  B  B4  1  0.500000  0.854842  0.601573  1
  B  B5  1  0.500000  0.146810  0.398681  1
  B  B6  1  0.500000  0.354385  0.898568  1
  B  B7  1  0.500000  0.645014  0.100616  1
  B  B8  1  0.500000  0.967120  0.912482  1
  B  B9  1  0.500000  0.033183  0.086780  1
  B  B10  1  0.500000  0.467453  0.587826  1
  B  B11  1  0.500000  0.531590  0.413064  1
  Ru  Ru12  1  0.000000  0.408467  0.737622  1
  Ru  Ru13  1  0.000000  0.589006  0.262312  1
  Ru  Ru14  1  0.000000  0.908656  0.762539  1
  Ru  Ru15  1  0.000000  0.092395  0.237284  1
  Ru  Ru16  1  0.000000  0.001759  0.500837  1
  Ru  Ru17  1  0.000000  0.499975  0.999594  1
  Ru  Ru18  1  0.000000  0.663163  0.548093  1
  Ru  Ru19  1  0.000000  0.337529  0.453086  1
  Ru  Ru20  1  0.000000  0.163012  0.952019  1
  Ru  Ru21  1  0.000000  0.836997  0.046727  1
