# generated using pymatgen
data_CeTm5BiO12
_symmetry_space_group_name_H-M   'P 1'
_cell_length_a   6.47736301
_cell_length_b   6.46838233
_cell_length_c   6.44597500
_cell_angle_alpha   99.10895427
_cell_angle_beta   99.10272141
_cell_angle_gamma   99.27935290
_symmetry_Int_Tables_number   1
_chemical_formula_structural   CeTm5BiO12
_chemical_formula_sum   'Ce1 Tm5 Bi1 O12'
_cell_volume   258.45802434
_cell_formula_units_Z   1
loop_
 _symmetry_equiv_pos_site_id
 _symmetry_equiv_pos_as_xyz
  1  'x, y, z'
loop_
 _atom_site_type_symbol
 _atom_site_label
 _atom_site_symmetry_multiplicity
 _atom_site_fract_x
 _atom_site_fract_y
 _atom_site_fract_z
 _atom_site_occupancy
  Ce  Ce0  1  0.395330  0.685620  0.857821  1
  Tm  Tm1  1  0.855285  0.388390  0.682268  1
  Tm  Tm2  1  0.692294  0.859571  0.393642  1
  Tm  Tm3  1  0.611808  0.311832  0.146167  1
  Tm  Tm4  1  0.135306  0.607662  0.310884  1
  Tm  Tm5  1  0.314536  0.142502  0.604835  1
  Bi  Bi6  1  0.003803  0.004346  0.001021  1
  O  O7  1  0.177354  0.427903  0.583573  1
  O  O8  1  0.583808  0.175717  0.430064  1
  O  O9  1  0.427451  0.584967  0.176217  1
  O  O10  1  0.820432  0.570278  0.414549  1
  O  O11  1  0.414851  0.818928  0.570947  1
  O  O12  1  0.571364  0.413588  0.822391  1
  O  O13  1  0.923271  0.051234  0.682356  1
  O  O14  1  0.948519  0.319355  0.075663  1
  O  O15  1  0.319733  0.078196  0.945614  1
  O  O16  1  0.075903  0.948108  0.318637  1
  O  O17  1  0.044146  0.681413  0.925654  1
  O  O18  1  0.684806  0.930392  0.057697  1
