# generated using pymatgen
data_La2YSn3Hg2
_symmetry_space_group_name_H-M   'P 1'
_cell_length_a   6.63689018
_cell_length_b   6.63689002
_cell_length_c   10.46007900
_cell_angle_alpha   90.00000000
_cell_angle_beta   90.00000000
_cell_angle_gamma   102.68445849
_symmetry_Int_Tables_number   1
_chemical_formula_structural   La2YSn3Hg2
_chemical_formula_sum   'La4 Y2 Sn6 Hg4'
_cell_volume   449.50383435
_cell_formula_units_Z   2
loop_
 _symmetry_equiv_pos_site_id
 _symmetry_equiv_pos_as_xyz
  1  'x, y, z'
loop_
 _atom_site_type_symbol
 _atom_site_label
 _atom_site_symmetry_multiplicity
 _atom_site_fract_x
 _atom_site_fract_y
 _atom_site_fract_z
 _atom_site_occupancy
  La  La0  1  0.205231  0.794769  0.500000  1
  La  La1  1  0.205231  0.794769  0.000000  1
  La  La2  1  0.794769  0.205231  0.500000  1
  La  La3  1  0.794769  0.205231  0.000000  1
  Y  Y4  1  0.632459  0.632459  0.250000  1
  Y  Y5  1  0.367541  0.367541  0.750000  1
  Sn  Sn6  1  0.015551  0.015551  0.250000  1
  Sn  Sn7  1  0.984449  0.984449  0.750000  1
  Sn  Sn8  1  0.488591  0.065316  0.250000  1
  Sn  Sn9  1  0.934684  0.511409  0.750000  1
  Sn  Sn10  1  0.511409  0.934684  0.750000  1
  Sn  Sn11  1  0.065316  0.488591  0.250000  1
  Hg  Hg12  1  0.317225  0.317225  0.041642  1
  Hg  Hg13  1  0.682775  0.682775  0.958358  1
  Hg  Hg14  1  0.317225  0.317225  0.458358  1
  Hg  Hg15  1  0.682775  0.682775  0.541642  1
