# generated using pymatgen
data_Li2Y3Hf(Co3P2)6
_symmetry_space_group_name_H-M   'P 1'
_cell_length_a   3.66010100
_cell_length_b   10.24856970
_cell_length_c   11.84115775
_cell_angle_alpha   89.97556767
_cell_angle_beta   90.00000000
_cell_angle_gamma   90.00000000
_symmetry_Int_Tables_number   1
_chemical_formula_structural   Li2Y3Hf(Co3P2)6
_chemical_formula_sum   'Li2 Y3 Hf1 Co18 P12'
_cell_volume   444.17126227
_cell_formula_units_Z   1
loop_
 _symmetry_equiv_pos_site_id
 _symmetry_equiv_pos_as_xyz
  1  'x, y, z'
loop_
 _atom_site_type_symbol
 _atom_site_label
 _atom_site_symmetry_multiplicity
 _atom_site_fract_x
 _atom_site_fract_y
 _atom_site_fract_z
 _atom_site_occupancy
  Li  Li0  1  0.250000  0.798021  0.490058  1
  Li  Li1  1  0.250000  0.703435  0.992287  1
  Y  Y2  1  0.750000  0.078993  0.797443  1
  Y  Y3  1  0.750000  0.420820  0.297142  1
  Y  Y4  1  0.250000  0.579823  0.702689  1
  Hf  Hf5  1  0.250000  0.920848  0.202007  1
  Co  Co6  1  0.750000  0.211602  0.505228  1
  Co  Co7  1  0.750000  0.287248  0.010632  1
  Co  Co8  1  0.250000  0.092570  0.990588  1
  Co  Co9  1  0.750000  0.907761  0.021793  1
  Co  Co10  1  0.750000  0.591594  0.513610  1
  Co  Co11  1  0.250000  0.403881  0.487714  1
  Co  Co12  1  0.250000  0.274586  0.674924  1
  Co  Co13  1  0.750000  0.724019  0.324141  1
  Co  Co14  1  0.750000  0.780970  0.827471  1
  Co  Co15  1  0.250000  0.223544  0.175920  1
  Co  Co16  1  0.250000  0.622811  0.199119  1
  Co  Co17  1  0.750000  0.378285  0.800824  1
  Co  Co18  1  0.750000  0.116097  0.296375  1
  Co  Co19  1  0.250000  0.881123  0.697570  1
  Co  Co20  1  0.250000  0.034899  0.427231  1
  Co  Co21  1  0.750000  0.966428  0.562917  1
  Co  Co22  1  0.750000  0.536174  0.067101  1
  Co  Co23  1  0.250000  0.463076  0.932869  1
  P  P24  1  0.250000  0.077107  0.609422  1
  P  P25  1  0.750000  0.922410  0.379448  1
  P  P26  1  0.750000  0.576941  0.884883  1
  P  P27  1  0.250000  0.423615  0.112766  1
  P  P28  1  0.250000  0.232112  0.367278  1
  P  P29  1  0.750000  0.771461  0.638127  1
  P  P30  1  0.750000  0.734833  0.139089  1
  P  P31  1  0.250000  0.267134  0.868486  1
  P  P32  1  0.250000  0.897754  0.893217  1
  P  P33  1  0.750000  0.101261  0.108963  1
  P  P34  1  0.750000  0.394712  0.607120  1
  P  P35  1  0.250000  0.602051  0.393554  1
