# generated using pymatgen
data_Ti8Al15Co5Pt2
_symmetry_space_group_name_H-M   'P 1'
_cell_length_a   8.52216044
_cell_length_b   8.52407107
_cell_length_c   8.52215938
_cell_angle_alpha   120.00657149
_cell_angle_beta   119.72650549
_cell_angle_gamma   90.22501487
_symmetry_Int_Tables_number   1
_chemical_formula_structural   Ti8Al15Co5Pt2
_chemical_formula_sum   'Ti8 Al15 Co5 Pt2'
_cell_volume   438.65611670
_cell_formula_units_Z   1
loop_
 _symmetry_equiv_pos_site_id
 _symmetry_equiv_pos_as_xyz
  1  'x, y, z'
loop_
 _atom_site_type_symbol
 _atom_site_label
 _atom_site_symmetry_multiplicity
 _atom_site_fract_x
 _atom_site_fract_y
 _atom_site_fract_z
 _atom_site_occupancy
  Ti  Ti0  1  0.793065  0.290622  0.075654  1
  Ti  Ti1  1  0.214968  0.290622  0.497557  1
  Ti  Ti2  1  0.210939  0.707932  0.496993  1
  Ti  Ti3  1  0.212488  0.714872  0.924913  1
  Ti  Ti4  1  0.789959  0.714872  0.502384  1
  Ti  Ti5  1  0.785346  0.286611  0.501265  1
  Ti  Ti6  1  0.386365  0.130187  0.743822  1
  Ti  Ti7  1  0.378931  0.639429  0.260498  1
  Al  Al8  1  0.998080  0.498286  0.500206  1
  Al  Al9  1  0.157812  0.340908  0.183094  1
  Al  Al10  1  0.151395  0.969820  0.818424  1
  Al  Al11  1  0.158160  0.353610  0.819605  1
  Al  Al12  1  0.534005  0.353610  0.195450  1
  Al  Al13  1  0.841818  0.656138  0.814321  1
  Al  Al14  1  0.849197  0.031794  0.182598  1
  Al  Al15  1  0.836767  0.647137  0.175036  1
  Al  Al16  1  0.472101  0.647137  0.810371  1
  Al  Al17  1  0.378094  0.124582  0.266660  1
  Al  Al18  1  0.857923  0.124582  0.746488  1
  Al  Al19  1  0.614349  0.871116  0.256767  1
  Al  Al20  1  0.621616  0.360388  0.738770  1
  Al  Al21  1  0.622484  0.874829  0.735025  1
  Al  Al22  1  0.139803  0.874829  0.252346  1
  Co  Co23  1  0.497100  0.494597  0.997497  1
  Co  Co24  1  0.497150  0.501403  0.497528  1
  Co  Co25  1  0.003875  0.501403  0.004252  1
  Co  Co26  1  0.000464  0.000154  0.999690  1
  Co  Co27  1  0.496790  0.998534  0.501744  1
  Pt  Pt28  1  0.999516  0.999996  0.500562  1
  Pt  Pt29  1  0.499434  0.999996  0.000480  1
