# generated using pymatgen
data_PrCoB4Os3
_symmetry_space_group_name_H-M   'P 1'
_cell_length_a   7.41783041
_cell_length_b   7.59282764
_cell_length_c   3.98095700
_cell_angle_alpha   90.00000000
_cell_angle_beta   90.00000000
_cell_angle_gamma   88.19637328
_symmetry_Int_Tables_number   1
_chemical_formula_structural   PrCoB4Os3
_chemical_formula_sum   'Pr2 Co2 B8 Os6'
_cell_volume   224.10560155
_cell_formula_units_Z   2
loop_
 _symmetry_equiv_pos_site_id
 _symmetry_equiv_pos_as_xyz
  1  'x, y, z'
loop_
 _atom_site_type_symbol
 _atom_site_label
 _atom_site_symmetry_multiplicity
 _atom_site_fract_x
 _atom_site_fract_y
 _atom_site_fract_z
 _atom_site_occupancy
  Pr  Pr0  1  0.000000  0.000000  0.029965  1
  Pr  Pr1  1  0.500000  0.500000  0.580768  1
  Co  Co2  1  0.612073  0.867841  0.883281  1
  Co  Co3  1  0.387927  0.132159  0.883281  1
  B  B4  1  0.333010  0.795265  0.884409  1
  B  B5  1  0.666990  0.204735  0.884409  1
  B  B6  1  0.309226  0.159451  0.382264  1
  B  B7  1  0.690774  0.840549  0.382264  1
  B  B8  1  0.164322  0.721016  0.603342  1
  B  B9  1  0.835678  0.278984  0.603342  1
  B  B10  1  0.225341  0.326844  0.101457  1
  B  B11  1  0.774659  0.673156  0.101457  1
  Os  Os12  1  0.848724  0.397135  0.104124  1
  Os  Os13  1  0.151276  0.602865  0.104124  1
  Os  Os14  1  0.888217  0.652738  0.603861  1
  Os  Os15  1  0.111783  0.347262  0.603861  1
  Os  Os16  1  0.630241  0.116138  0.381897  1
  Os  Os17  1  0.369759  0.883862  0.381897  1
