# generated using pymatgen
data_Tb4Y(NiTe)2
_symmetry_space_group_name_H-M   'P 1'
_cell_length_a   7.80190114
_cell_length_b   7.80190130
_cell_length_c   14.91383800
_cell_angle_alpha   90.00000000
_cell_angle_beta   90.00000000
_cell_angle_gamma   149.92296740
_symmetry_Int_Tables_number   1
_chemical_formula_structural   Tb4Y(NiTe)2
_chemical_formula_sum   'Tb8 Y2 Ni4 Te4'
_cell_volume   454.95672859
_cell_formula_units_Z   2
loop_
 _symmetry_equiv_pos_site_id
 _symmetry_equiv_pos_as_xyz
  1  'x, y, z'
loop_
 _atom_site_type_symbol
 _atom_site_label
 _atom_site_symmetry_multiplicity
 _atom_site_fract_x
 _atom_site_fract_y
 _atom_site_fract_z
 _atom_site_occupancy
  Tb  Tb0  1  0.959680  0.040320  0.124589  1
  Tb  Tb1  1  0.040320  0.959680  0.875411  1
  Tb  Tb2  1  0.040320  0.959680  0.624589  1
  Tb  Tb3  1  0.959680  0.040320  0.375411  1
  Tb  Tb4  1  0.740998  0.259002  0.628040  1
  Tb  Tb5  1  0.259002  0.740998  0.371960  1
  Tb  Tb6  1  0.259002  0.740998  0.128040  1
  Tb  Tb7  1  0.740998  0.259002  0.871960  1
  Y  Y8  1  0.605539  0.394461  0.250000  1
  Y  Y9  1  0.394461  0.605539  0.750000  1
  Ni  Ni10  1  0.411548  0.588452  0.250000  1
  Ni  Ni11  1  0.588452  0.411548  0.750000  1
  Ni  Ni12  1  0.814727  0.185273  0.250000  1
  Ni  Ni13  1  0.185273  0.814727  0.750000  1
  Te  Te14  1  0.614815  0.385185  0.040461  1
  Te  Te15  1  0.385185  0.614815  0.959539  1
  Te  Te16  1  0.385185  0.614815  0.540461  1
  Te  Te17  1  0.614815  0.385185  0.459539  1
