# generated using pymatgen
data_Zr8Nb2ZnSiSn6
_symmetry_space_group_name_H-M   'P 1'
_cell_length_a   8.62913800
_cell_length_b   8.62913738
_cell_length_c   5.83197800
_cell_angle_alpha   90.00000000
_cell_angle_beta   90.00000000
_cell_angle_gamma   120.00000239
_symmetry_Int_Tables_number   1
_chemical_formula_structural   Zr8Nb2ZnSiSn6
_chemical_formula_sum   'Zr8 Nb2 Zn1 Si1 Sn6'
_cell_volume   376.08091575
_cell_formula_units_Z   1
loop_
 _symmetry_equiv_pos_site_id
 _symmetry_equiv_pos_as_xyz
  1  'x, y, z'
loop_
 _atom_site_type_symbol
 _atom_site_label
 _atom_site_symmetry_multiplicity
 _atom_site_fract_x
 _atom_site_fract_y
 _atom_site_fract_z
 _atom_site_occupancy
  Zr  Zr0  1  0.333333  0.666667  0.500000  1
  Zr  Zr1  1  0.666667  0.333333  0.500000  1
  Zr  Zr2  1  0.735966  0.735966  0.742255  1
  Zr  Zr3  1  0.264034  0.000000  0.742255  1
  Zr  Zr4  1  0.000000  0.264034  0.742255  1
  Zr  Zr5  1  0.264034  0.264034  0.257745  1
  Zr  Zr6  1  0.735966  0.000000  0.257745  1
  Zr  Zr7  1  0.000000  0.735966  0.257745  1
  Nb  Nb8  1  0.666667  0.333333  0.000000  1
  Nb  Nb9  1  0.333333  0.666667  0.000000  1
  Zn  Zn10  1  0.000000  0.000000  0.000000  1
  Si  Si11  1  0.000000  0.000000  0.500000  1
  Sn  Sn12  1  0.390484  0.390484  0.761463  1
  Sn  Sn13  1  0.609516  0.000000  0.761463  1
  Sn  Sn14  1  0.000000  0.609516  0.761463  1
  Sn  Sn15  1  0.609516  0.609516  0.238537  1
  Sn  Sn16  1  0.390484  0.000000  0.238537  1
  Sn  Sn17  1  0.000000  0.390484  0.238537  1
