# generated using pymatgen
data_Cs2Lu7BBr18
_symmetry_space_group_name_H-M   'P 1'
_cell_length_a   10.46824221
_cell_length_b   10.46824093
_cell_length_c   11.35638695
_cell_angle_alpha   117.44498582
_cell_angle_beta   62.55501602
_cell_angle_gamma   120.00000109
_symmetry_Int_Tables_number   1
_chemical_formula_structural   Cs2Lu7BBr18
_chemical_formula_sum   'Cs2 Lu7 B1 Br18'
_cell_volume   912.44537186
_cell_formula_units_Z   1
loop_
 _symmetry_equiv_pos_site_id
 _symmetry_equiv_pos_as_xyz
  1  'x, y, z'
loop_
 _atom_site_type_symbol
 _atom_site_label
 _atom_site_symmetry_multiplicity
 _atom_site_fract_x
 _atom_site_fract_y
 _atom_site_fract_z
 _atom_site_occupancy
  Cs  Cs0  1  0.222102  0.777898  0.333697  1
  Cs  Cs1  1  0.777899  0.222101  0.666303  1
  Lu  Lu2  1  0.779272  0.106852  0.153556  1
  Lu  Lu3  1  0.893147  0.825976  0.153556  1
  Lu  Lu4  1  0.174025  0.220728  0.153556  1
  Lu  Lu5  1  0.500000  0.500000  0.500000  1
  Lu  Lu6  1  0.825976  0.779273  0.846444  1
  Lu  Lu7  1  0.106852  0.174023  0.846444  1
  Lu  Lu8  1  0.220727  0.893146  0.846444  1
  B  B9  1  0.000000  0.000000  0.000000  1
  Br  Br10  1  0.287393  0.425475  0.007343  1
  Br  Br11  1  0.574523  0.869261  0.007343  1
  Br  Br12  1  0.130740  0.712608  0.007343  1
  Br  Br13  1  0.946107  0.347655  0.333069  1
  Br  Br14  1  0.068479  0.053893  0.333069  1
  Br  Br15  1  0.652344  0.931521  0.333069  1
  Br  Br16  1  0.524856  0.214907  0.333953  1
  Br  Br17  1  0.785092  0.643902  0.333953  1
  Br  Br18  1  0.356098  0.475143  0.333953  1
  Br  Br19  1  0.643902  0.524857  0.666047  1
  Br  Br20  1  0.214909  0.356100  0.666047  1
  Br  Br21  1  0.475143  0.785092  0.666047  1
  Br  Br22  1  0.347655  0.068478  0.666930  1
  Br  Br23  1  0.931522  0.946106  0.666930  1
  Br  Br24  1  0.053893  0.652344  0.666930  1
  Br  Br25  1  0.869262  0.287393  0.992657  1
  Br  Br26  1  0.425475  0.130738  0.992657  1
  Br  Br27  1  0.712607  0.574525  0.992657  1
