# generated using pymatgen
data_Lu8B24MoRh3
_symmetry_space_group_name_H-M   'P 1'
_cell_length_a   3.60091700
_cell_length_b   9.07560151
_cell_length_c   11.43049306
_cell_angle_alpha   89.78297743
_cell_angle_beta   90.00000000
_cell_angle_gamma   90.00000000
_symmetry_Int_Tables_number   1
_chemical_formula_structural   Lu8B24MoRh3
_chemical_formula_sum   'Lu8 B24 Mo1 Rh3'
_cell_volume   373.55140868
_cell_formula_units_Z   1
loop_
 _symmetry_equiv_pos_site_id
 _symmetry_equiv_pos_as_xyz
  1  'x, y, z'
loop_
 _atom_site_type_symbol
 _atom_site_label
 _atom_site_symmetry_multiplicity
 _atom_site_fract_x
 _atom_site_fract_y
 _atom_site_fract_z
 _atom_site_occupancy
  Lu  Lu0  1  0.000000  0.322624  0.413207  1
  Lu  Lu1  1  0.000000  0.679550  0.583330  1
  Lu  Lu2  1  0.000000  0.817498  0.089163  1
  Lu  Lu3  1  0.000000  0.178543  0.914697  1
  Lu  Lu4  1  0.000000  0.944187  0.374206  1
  Lu  Lu5  1  0.000000  0.057357  0.627905  1
  Lu  Lu6  1  0.000000  0.444819  0.126024  1
  Lu  Lu7  1  0.000000  0.556440  0.871478  1
  B  B8  1  0.500000  0.551157  0.436320  1
  B  B9  1  0.500000  0.446577  0.566535  1
  B  B10  1  0.500000  0.052994  0.065191  1
  B  B11  1  0.500000  0.945692  0.935221  1
  B  B12  1  0.500000  0.751730  0.422287  1
  B  B13  1  0.500000  0.250777  0.579669  1
  B  B14  1  0.500000  0.249439  0.078353  1
  B  B15  1  0.500000  0.749875  0.921148  1
  B  B16  1  0.500000  0.795664  0.263406  1
  B  B17  1  0.500000  0.205914  0.736838  1
  B  B18  1  0.500000  0.291969  0.234297  1
  B  B19  1  0.500000  0.707425  0.763262  1
  B  B20  1  0.500000  0.631165  0.182251  1
  B  B21  1  0.500000  0.367731  0.816698  1
  B  B22  1  0.500000  0.131929  0.316598  1
  B  B23  1  0.500000  0.869236  0.683358  1
  B  B24  1  0.500000  0.981969  0.212497  1
  B  B25  1  0.500000  0.019009  0.787933  1
  B  B26  1  0.500000  0.478106  0.286146  1
  B  B27  1  0.500000  0.519018  0.712730  1
  B  B28  1  0.500000  0.605403  0.026954  1
  B  B29  1  0.500000  0.393600  0.969920  1
  B  B30  1  0.500000  0.107047  0.471578  1
  B  B31  1  0.500000  0.896654  0.530462  1
  Mo  Mo32  1  0.000000  0.637649  0.321031  1
  Rh  Rh33  1  0.000000  0.361023  0.679475  1
  Rh  Rh34  1  0.000000  0.138441  0.178656  1
  Rh  Rh35  1  0.000000  0.861785  0.821177  1
