# generated using pymatgen
data_Ho5Sc3Re3B24Ir
_symmetry_space_group_name_H-M   'P 1'
_cell_length_a   3.60165500
_cell_length_b   9.03154414
_cell_length_c   11.41006498
_cell_angle_alpha   90.04310410
_cell_angle_beta   90.00000000
_cell_angle_gamma   90.00000000
_symmetry_Int_Tables_number   1
_chemical_formula_structural   Ho5Sc3Re3B24Ir
_chemical_formula_sum   'Ho5 Sc3 Re3 B24 Ir1'
_cell_volume   371.15226313
_cell_formula_units_Z   1
loop_
 _symmetry_equiv_pos_site_id
 _symmetry_equiv_pos_as_xyz
  1  'x, y, z'
loop_
 _atom_site_type_symbol
 _atom_site_label
 _atom_site_symmetry_multiplicity
 _atom_site_fract_x
 _atom_site_fract_y
 _atom_site_fract_z
 _atom_site_occupancy
  Ho  Ho0  1  0.500000  0.315765  0.416457  1
  Ho  Ho1  1  0.500000  0.680489  0.590801  1
  Ho  Ho2  1  0.500000  0.178123  0.911484  1
  Ho  Ho3  1  0.500000  0.825420  0.081533  1
  Ho  Ho4  1  0.500000  0.442235  0.126818  1
  Sc  Sc5  1  0.500000  0.556982  0.869126  1
  Sc  Sc6  1  0.500000  0.055220  0.628642  1
  Sc  Sc7  1  0.500000  0.946697  0.372559  1
  Re  Re8  1  0.500000  0.135955  0.182742  1
  Re  Re9  1  0.500000  0.860474  0.818124  1
  Re  Re10  1  0.500000  0.360485  0.679086  1
  B  B11  1  0.000000  0.096007  0.473646  1
  B  B12  1  0.000000  0.901290  0.526886  1
  B  B13  1  0.000000  0.402015  0.970050  1
  B  B14  1  0.000000  0.601994  0.024907  1
  B  B15  1  0.000000  0.127576  0.317809  1
  B  B16  1  0.000000  0.870937  0.683003  1
  B  B17  1  0.000000  0.371201  0.815623  1
  B  B18  1  0.000000  0.632910  0.184076  1
  B  B19  1  0.000000  0.052191  0.066726  1
  B  B20  1  0.000000  0.945913  0.932108  1
  B  B21  1  0.000000  0.446074  0.566926  1
  B  B22  1  0.000000  0.555041  0.434542  1
  B  B23  1  0.000000  0.483329  0.288663  1
  B  B24  1  0.000000  0.519351  0.713532  1
  B  B25  1  0.000000  0.018914  0.785174  1
  B  B26  1  0.000000  0.980319  0.214439  1
  B  B27  1  0.000000  0.249063  0.081199  1
  B  B28  1  0.000000  0.747868  0.917920  1
  B  B29  1  0.000000  0.245931  0.581323  1
  B  B30  1  0.000000  0.754328  0.420407  1
  B  B31  1  0.000000  0.291105  0.236598  1
  B  B32  1  0.000000  0.706139  0.765084  1
  B  B33  1  0.000000  0.205886  0.734380  1
  B  B34  1  0.000000  0.794848  0.265987  1
  Ir  Ir35  1  0.500000  0.641925  0.321618  1
