# generated using pymatgen
data_Pr3U(Re2Si)8
_symmetry_space_group_name_H-M   'P 1'
_cell_length_a   4.17155400
_cell_length_b   7.36880304
_cell_length_c   15.58036500
_cell_angle_alpha   89.96957465
_cell_angle_beta   90.00000000
_cell_angle_gamma   90.00000000
_symmetry_Int_Tables_number   1
_chemical_formula_structural   Pr3U(Re2Si)8
_chemical_formula_sum   'Pr3 U1 Re16 Si8'
_cell_volume   478.93037791
_cell_formula_units_Z   1
loop_
 _symmetry_equiv_pos_site_id
 _symmetry_equiv_pos_as_xyz
  1  'x, y, z'
loop_
 _atom_site_type_symbol
 _atom_site_label
 _atom_site_symmetry_multiplicity
 _atom_site_fract_x
 _atom_site_fract_y
 _atom_site_fract_z
 _atom_site_occupancy
  Pr  Pr0  1  0.000000  0.581207  0.117857  1
  Pr  Pr1  1  0.000000  0.420518  0.880454  1
  Pr  Pr2  1  0.500000  0.078507  0.381791  1
  U  U3  1  0.500000  0.915648  0.618388  1
  Re  Re4  1  0.000000  0.137563  0.051522  1
  Re  Re5  1  0.000000  0.863583  0.947084  1
  Re  Re6  1  0.500000  0.636928  0.453025  1
  Re  Re7  1  0.500000  0.351473  0.553384  1
  Re  Re8  1  0.000000  0.731245  0.321888  1
  Re  Re9  1  0.000000  0.256679  0.676228  1
  Re  Re10  1  0.500000  0.234518  0.179853  1
  Re  Re11  1  0.500000  0.771153  0.818905  1
  Re  Re12  1  0.000000  0.431868  0.421809  1
  Re  Re13  1  0.000000  0.571922  0.583499  1
  Re  Re14  1  0.500000  0.934337  0.080812  1
  Re  Re15  1  0.500000  0.068916  0.916960  1
  Re  Re16  1  0.000000  0.994507  0.207013  1
  Re  Re17  1  0.000000  0.007467  0.792607  1
  Re  Re18  1  0.500000  0.496210  0.294926  1
  Re  Re19  1  0.500000  0.513710  0.704009  1
  Si  Si20  1  0.000000  0.827507  0.476950  1
  Si  Si21  1  0.000000  0.164011  0.523780  1
  Si  Si22  1  0.500000  0.326861  0.024479  1
  Si  Si23  1  0.500000  0.675189  0.974531  1
  Si  Si24  1  0.000000  0.296943  0.275057  1
  Si  Si25  1  0.000000  0.708032  0.726776  1
  Si  Si26  1  0.500000  0.796283  0.226232  1
  Si  Si27  1  0.500000  0.207213  0.770182  1
