# generated using pymatgen
data_Ca3(AlCu2)2
_symmetry_space_group_name_H-M   'P 1'
_cell_length_a   5.70261297
_cell_length_b   5.70261372
_cell_length_c   8.44180771
_cell_angle_alpha   101.01265682
_cell_angle_beta   101.01265866
_cell_angle_gamma   43.45595784
_symmetry_Int_Tables_number   1
_chemical_formula_structural   Ca3(AlCu2)2
_chemical_formula_sum   'Ca3 Al2 Cu4'
_cell_volume   184.78271494
_cell_formula_units_Z   1
loop_
 _symmetry_equiv_pos_site_id
 _symmetry_equiv_pos_as_xyz
  1  'x, y, z'
loop_
 _atom_site_type_symbol
 _atom_site_label
 _atom_site_symmetry_multiplicity
 _atom_site_fract_x
 _atom_site_fract_y
 _atom_site_fract_z
 _atom_site_occupancy
  Ca  Ca0  1  0.377340  0.377340  0.118711  1
  Ca  Ca1  1  0.000000  0.000000  0.500001  1
  Ca  Ca2  1  0.622659  0.622659  0.881289  1
  Al  Al3  1  0.681178  0.681178  0.277671  1
  Al  Al4  1  0.318821  0.318821  0.722329  1
  Cu  Cu5  1  0.087966  0.087966  0.136634  1
  Cu  Cu6  1  0.257725  0.257725  0.417007  1
  Cu  Cu7  1  0.742274  0.742274  0.582993  1
  Cu  Cu8  1  0.912034  0.912034  0.863366  1
