# generated using pymatgen
data_Cs3YPBr9
_symmetry_space_group_name_H-M   'P 1'
_cell_length_a   10.41842112
_cell_length_b   10.41842223
_cell_length_c   10.41842212
_cell_angle_alpha   81.76434694
_cell_angle_beta   81.76434151
_cell_angle_gamma   81.76433614
_symmetry_Int_Tables_number   1
_chemical_formula_structural   Cs3YPBr9
_chemical_formula_sum   'Cs6 Y2 P2 Br18'
_cell_volume   1098.91900367
_cell_formula_units_Z   2
loop_
 _symmetry_equiv_pos_site_id
 _symmetry_equiv_pos_as_xyz
  1  'x, y, z'
loop_
 _atom_site_type_symbol
 _atom_site_label
 _atom_site_symmetry_multiplicity
 _atom_site_fract_x
 _atom_site_fract_y
 _atom_site_fract_z
 _atom_site_occupancy
  Cs  Cs0  1  0.764735  0.408051  0.064599  1
  Cs  Cs1  1  0.064599  0.764735  0.408051  1
  Cs  Cs2  1  0.235265  0.591949  0.935401  1
  Cs  Cs3  1  0.408051  0.064599  0.764735  1
  Cs  Cs4  1  0.935401  0.235265  0.591949  1
  Cs  Cs5  1  0.591949  0.935401  0.235265  1
  Y  Y6  1  0.837130  0.837130  0.837130  1
  Y  Y7  1  0.162870  0.162870  0.162870  1
  P  P8  1  0.352342  0.352342  0.352342  1
  P  P9  1  0.647658  0.647658  0.647658  1
  Br  Br10  1  0.442704  0.740883  0.593290  1
  Br  Br11  1  0.259117  0.406710  0.557296  1
  Br  Br12  1  0.411825  0.252949  0.077973  1
  Br  Br13  1  0.077973  0.411825  0.252949  1
  Br  Br14  1  0.900193  0.737692  0.085852  1
  Br  Br15  1  0.914148  0.099807  0.262308  1
  Br  Br16  1  0.588175  0.747051  0.922027  1
  Br  Br17  1  0.747051  0.922027  0.588175  1
  Br  Br18  1  0.593290  0.442704  0.740883  1
  Br  Br19  1  0.252949  0.077973  0.411825  1
  Br  Br20  1  0.740883  0.593290  0.442704  1
  Br  Br21  1  0.737692  0.085852  0.900193  1
  Br  Br22  1  0.099807  0.262308  0.914148  1
  Br  Br23  1  0.406710  0.557296  0.259117  1
  Br  Br24  1  0.557296  0.259117  0.406710  1
  Br  Br25  1  0.922027  0.588175  0.747051  1
  Br  Br26  1  0.262308  0.914148  0.099807  1
  Br  Br27  1  0.085852  0.900193  0.737692  1
