# generated using pymatgen
data_YbPa8O18
_symmetry_space_group_name_H-M   'P 1'
_cell_length_a   6.67411906
_cell_length_b   6.67328311
_cell_length_c   8.61225848
_cell_angle_alpha   82.59303989
_cell_angle_beta   75.08002902
_cell_angle_gamma   80.40784322
_symmetry_Int_Tables_number   1
_chemical_formula_structural   YbPa8O18
_chemical_formula_sum   'Yb1 Pa8 O18'
_cell_volume   363.96924748
_cell_formula_units_Z   1
loop_
 _symmetry_equiv_pos_site_id
 _symmetry_equiv_pos_as_xyz
  1  'x, y, z'
loop_
 _atom_site_type_symbol
 _atom_site_label
 _atom_site_symmetry_multiplicity
 _atom_site_fract_x
 _atom_site_fract_y
 _atom_site_fract_z
 _atom_site_occupancy
  Yb  Yb0  1  0.000000  0.000000  0.500000  1
  Pa  Pa1  1  0.332628  0.670396  0.168469  1
  Pa  Pa2  1  0.782423  0.554470  0.390120  1
  Pa  Pa3  1  0.110811  0.220541  0.061063  1
  Pa  Pa4  1  0.667372  0.329604  0.831531  1
  Pa  Pa5  1  0.217577  0.445530  0.609880  1
  Pa  Pa6  1  0.556163  0.109635  0.281863  1
  Pa  Pa7  1  0.889189  0.779459  0.938937  1
  Pa  Pa8  1  0.443837  0.890365  0.718137  1
  O  O9  1  0.581459  0.665258  0.915285  1
  O  O10  1  0.030224  0.557096  0.136235  1
  O  O11  1  0.418541  0.334742  0.084715  1
  O  O12  1  0.086992  0.657857  0.412321  1
  O  O13  1  0.806218  0.109739  0.028293  1
  O  O14  1  0.473495  0.447629  0.361010  1
  O  O15  1  0.858025  0.228783  0.301356  1
  O  O16  1  0.526505  0.552371  0.638990  1
  O  O17  1  0.258989  0.000114  0.244111  1
  O  O18  1  0.913008  0.342143  0.587679  1
  O  O19  1  0.193782  0.890261  0.971707  1
  O  O20  1  0.741011  0.999886  0.755889  1
  O  O21  1  0.686033  0.882532  0.470829  1
  O  O22  1  0.357336  0.224314  0.808604  1
  O  O23  1  0.642664  0.775686  0.191396  1
  O  O24  1  0.313967  0.117468  0.529171  1
  O  O25  1  0.969776  0.442904  0.863765  1
  O  O26  1  0.141975  0.771217  0.698644  1
