# generated using pymatgen
data_Sc4Al5ZnOs2
_symmetry_space_group_name_H-M   'P 1'
_cell_length_a   5.27928400
_cell_length_b   5.23968471
_cell_length_c   8.62923100
_cell_angle_alpha   90.00000000
_cell_angle_beta   90.00000000
_cell_angle_gamma   120.25031891
_symmetry_Int_Tables_number   1
_chemical_formula_structural   Sc4Al5ZnOs2
_chemical_formula_sum   'Sc4 Al5 Zn1 Os2'
_cell_volume   206.19679772
_cell_formula_units_Z   1
loop_
 _symmetry_equiv_pos_site_id
 _symmetry_equiv_pos_as_xyz
  1  'x, y, z'
loop_
 _atom_site_type_symbol
 _atom_site_label
 _atom_site_symmetry_multiplicity
 _atom_site_fract_x
 _atom_site_fract_y
 _atom_site_fract_z
 _atom_site_occupancy
  Sc  Sc0  1  0.667183  0.334364  0.053502  1
  Sc  Sc1  1  0.667183  0.334364  0.446498  1
  Sc  Sc2  1  0.330578  0.661156  0.551564  1
  Sc  Sc3  1  0.330578  0.661156  0.948437  1
  Al  Al4  1  0.173364  0.849499  0.250000  1
  Al  Al5  1  0.676134  0.849499  0.250000  1
  Al  Al6  1  0.328120  0.162162  0.750000  1
  Al  Al7  1  0.834043  0.162162  0.750000  1
  Al  Al8  1  0.832255  0.664509  0.750000  1
  Zn  Zn9  1  0.172612  0.345224  0.250000  1
  Os  Os10  1  0.993977  0.987955  0.998112  1
  Os  Os11  1  0.993977  0.987955  0.501888  1
