# generated using pymatgen
data_Tb3Lu2(In2Ag)2
_symmetry_space_group_name_H-M   'P 1'
_cell_length_a   3.67491400
_cell_length_b   8.21590200
_cell_length_c   18.34286600
_cell_angle_alpha   90.00000000
_cell_angle_beta   90.00000000
_cell_angle_gamma   90.00000000
_symmetry_Int_Tables_number   1
_chemical_formula_structural   Tb3Lu2(In2Ag)2
_chemical_formula_sum   'Tb6 Lu4 In8 Ag4'
_cell_volume   553.82126077
_cell_formula_units_Z   2
loop_
 _symmetry_equiv_pos_site_id
 _symmetry_equiv_pos_as_xyz
  1  'x, y, z'
loop_
 _atom_site_type_symbol
 _atom_site_label
 _atom_site_symmetry_multiplicity
 _atom_site_fract_x
 _atom_site_fract_y
 _atom_site_fract_z
 _atom_site_occupancy
  Tb  Tb0  1  0.000000  0.232729  0.211090  1
  Tb  Tb1  1  0.000000  0.767271  0.788910  1
  Tb  Tb2  1  0.000000  0.267271  0.711090  1
  Tb  Tb3  1  0.000000  0.732729  0.288910  1
  Tb  Tb4  1  0.000000  0.000000  0.000000  1
  Tb  Tb5  1  0.000000  0.500000  0.500000  1
  Lu  Lu6  1  0.000000  0.123327  0.421570  1
  Lu  Lu7  1  0.000000  0.876673  0.578430  1
  Lu  Lu8  1  0.000000  0.376673  0.921570  1
  Lu  Lu9  1  0.000000  0.623327  0.078430  1
  In  In10  1  0.500000  0.408836  0.350101  1
  In  In11  1  0.500000  0.591164  0.649899  1
  In  In12  1  0.500000  0.091164  0.850101  1
  In  In13  1  0.500000  0.908836  0.149899  1
  In  In14  1  0.500000  0.299654  0.063429  1
  In  In15  1  0.500000  0.700346  0.936571  1
  In  In16  1  0.500000  0.200346  0.563429  1
  In  In17  1  0.500000  0.799654  0.436571  1
  Ag  Ag18  1  0.500000  0.028641  0.305032  1
  Ag  Ag19  1  0.500000  0.971359  0.694968  1
  Ag  Ag20  1  0.500000  0.471359  0.805032  1
  Ag  Ag21  1  0.500000  0.528641  0.194968  1
