# generated using pymatgen
data_YbEr7(SiPt)8
_symmetry_space_group_name_H-M   'P 1'
_cell_length_a   4.29913700
_cell_length_b   7.38777756
_cell_length_c   13.96605920
_cell_angle_alpha   90.01254081
_cell_angle_beta   90.00000000
_cell_angle_gamma   90.00000000
_symmetry_Int_Tables_number   1
_chemical_formula_structural   YbEr7(SiPt)8
_chemical_formula_sum   'Yb1 Er7 Si8 Pt8'
_cell_volume   443.57694338
_cell_formula_units_Z   1
loop_
 _symmetry_equiv_pos_site_id
 _symmetry_equiv_pos_as_xyz
  1  'x, y, z'
loop_
 _atom_site_type_symbol
 _atom_site_label
 _atom_site_symmetry_multiplicity
 _atom_site_fract_x
 _atom_site_fract_y
 _atom_site_fract_z
 _atom_site_occupancy
  Yb  Yb0  1  0.000000  0.204513  0.248520  1
  Er  Er1  1  0.000000  0.300831  0.000850  1
  Er  Er2  1  0.500000  0.698851  0.500155  1
  Er  Er3  1  0.000000  0.294163  0.498699  1
  Er  Er4  1  0.500000  0.706856  0.000406  1
  Er  Er5  1  0.500000  0.796820  0.251479  1
  Er  Er6  1  0.000000  0.205896  0.750180  1
  Er  Er7  1  0.500000  0.793726  0.749657  1
  Si  Si8  1  0.000000  0.906253  0.592763  1
  Si  Si9  1  0.500000  0.093026  0.906683  1
  Si  Si10  1  0.000000  0.908506  0.408567  1
  Si  Si11  1  0.500000  0.091259  0.090887  1
  Si  Si12  1  0.000000  0.592385  0.151406  1
  Si  Si13  1  0.500000  0.408265  0.353810  1
  Si  Si14  1  0.000000  0.591350  0.851076  1
  Si  Si15  1  0.500000  0.408196  0.647353  1
  Pt  Pt16  1  0.500000  0.075333  0.609166  1
  Pt  Pt17  1  0.000000  0.923615  0.890601  1
  Pt  Pt18  1  0.500000  0.077656  0.393503  1
  Pt  Pt19  1  0.000000  0.920396  0.106081  1
  Pt  Pt20  1  0.500000  0.421528  0.151214  1
  Pt  Pt21  1  0.000000  0.581685  0.345056  1
  Pt  Pt22  1  0.500000  0.419888  0.847014  1
  Pt  Pt23  1  0.000000  0.579005  0.654869  1
