# generated using pymatgen
data_Tb2Lu8Si5P
_symmetry_space_group_name_H-M   'P 1'
_cell_length_a   8.25215527
_cell_length_b   8.28122519
_cell_length_c   6.15730900
_cell_angle_alpha   90.00000000
_cell_angle_beta   90.00000000
_cell_angle_gamma   120.04594212
_symmetry_Int_Tables_number   1
_chemical_formula_structural   Tb2Lu8Si5P
_chemical_formula_sum   'Tb2 Lu8 Si5 P1'
_cell_volume   364.23554540
_cell_formula_units_Z   1
loop_
 _symmetry_equiv_pos_site_id
 _symmetry_equiv_pos_as_xyz
  1  'x, y, z'
loop_
 _atom_site_type_symbol
 _atom_site_label
 _atom_site_symmetry_multiplicity
 _atom_site_fract_x
 _atom_site_fract_y
 _atom_site_fract_z
 _atom_site_occupancy
  Tb  Tb0  1  0.755130  0.000189  0.750000  1
  Tb  Tb1  1  0.243316  0.242673  0.750000  1
  Lu  Lu2  1  0.000714  0.756147  0.750000  1
  Lu  Lu3  1  0.001183  0.245118  0.250000  1
  Lu  Lu4  1  0.758162  0.756342  0.250000  1
  Lu  Lu5  1  0.242420  0.999298  0.250000  1
  Lu  Lu6  1  0.333393  0.667578  0.500203  1
  Lu  Lu7  1  0.666716  0.332993  0.999929  1
  Lu  Lu8  1  0.666716  0.332993  0.500071  1
  Lu  Lu9  1  0.333393  0.667578  0.999797  1
  Si  Si10  1  0.394478  0.393170  0.250000  1
  Si  Si11  1  0.001065  0.606200  0.250000  1
  Si  Si12  1  0.000263  0.398573  0.750000  1
  Si  Si13  1  0.607664  0.605038  0.750000  1
  Si  Si14  1  0.607165  0.999714  0.250000  1
  P  P15  1  0.388221  0.996398  0.750000  1
