# generated using pymatgen
data_Ho8Be(Pd2Pt)8
_symmetry_space_group_name_H-M   'P 1'
_cell_length_a   8.31655200
_cell_length_b   8.32200200
_cell_length_c   8.33157700
_cell_angle_alpha   90.00061275
_cell_angle_beta   89.99814676
_cell_angle_gamma   89.99922892
_symmetry_Int_Tables_number   1
_chemical_formula_structural   Ho8Be(Pd2Pt)8
_chemical_formula_sum   'Ho8 Be1 Pd16 Pt8'
_cell_volume   576.63146334
_cell_formula_units_Z   1
loop_
 _symmetry_equiv_pos_site_id
 _symmetry_equiv_pos_as_xyz
  1  'x, y, z'
loop_
 _atom_site_type_symbol
 _atom_site_label
 _atom_site_symmetry_multiplicity
 _atom_site_fract_x
 _atom_site_fract_y
 _atom_site_fract_z
 _atom_site_occupancy
  Ho  Ho0  1  0.250671  0.250588  0.250651  1
  Ho  Ho1  1  0.748606  0.748958  0.748204  1
  Ho  Ho2  1  0.748362  0.748810  0.251643  1
  Ho  Ho3  1  0.749507  0.250447  0.749182  1
  Ho  Ho4  1  0.250482  0.250431  0.749179  1
  Ho  Ho5  1  0.251652  0.748810  0.251662  1
  Ho  Ho6  1  0.251391  0.748967  0.748200  1
  Ho  Ho7  1  0.749333  0.250591  0.250644  1
  Be  Be8  1  0.999998  0.003548  0.000300  1
  Pd  Pd9  1  0.254168  0.500177  0.000422  1
  Pd  Pd10  1  0.745828  0.500188  0.000419  1
  Pd  Pd11  1  0.999988  0.254757  0.500261  1
  Pd  Pd12  1  0.499993  0.252980  0.000387  1
  Pd  Pd13  1  0.999997  0.744775  0.500301  1
  Pd  Pd14  1  0.499997  0.746216  0.000382  1
  Pd  Pd15  1  0.500011  0.000019  0.253997  1
  Pd  Pd16  1  0.254968  0.000017  0.500281  1
  Pd  Pd17  1  0.499997  0.000082  0.746018  1
  Pd  Pd18  1  0.745030  0.000041  0.500267  1
  Pd  Pd19  1  0.999996  0.500154  0.254805  1
  Pd  Pd20  1  0.000020  0.500182  0.745262  1
  Pd  Pd21  1  0.499997  0.499692  0.748447  1
  Pd  Pd22  1  0.000007  0.733141  0.999655  1
  Pd  Pd23  1  0.000012  0.999352  0.270435  1
  Pd  Pd24  1  0.999985  0.999247  0.729943  1
  Pt  Pt25  1  0.251368  0.499594  0.499703  1
  Pt  Pt26  1  0.748634  0.499628  0.499690  1
  Pt  Pt27  1  0.500000  0.251106  0.499751  1
  Pt  Pt28  1  0.500020  0.748755  0.499912  1
  Pt  Pt29  1  0.499986  0.499488  0.250958  1
  Pt  Pt30  1  0.267366  0.998908  0.999677  1
  Pt  Pt31  1  0.732629  0.998917  0.999652  1
  Pt  Pt32  1  0.000000  0.271435  0.999711  1
