# generated using pymatgen
data_Er4Lu6InSb5
_symmetry_space_group_name_H-M   'P 1'
_cell_length_a   8.80959856
_cell_length_b   8.83076028
_cell_length_c   6.28466900
_cell_angle_alpha   90.00000000
_cell_angle_beta   90.00000000
_cell_angle_gamma   119.85272445
_symmetry_Int_Tables_number   1
_chemical_formula_structural   Er4Lu6InSb5
_chemical_formula_sum   'Er4 Lu6 In1 Sb5'
_cell_volume   424.04295988
_cell_formula_units_Z   1
loop_
 _symmetry_equiv_pos_site_id
 _symmetry_equiv_pos_as_xyz
  1  'x, y, z'
loop_
 _atom_site_type_symbol
 _atom_site_label
 _atom_site_symmetry_multiplicity
 _atom_site_fract_x
 _atom_site_fract_y
 _atom_site_fract_z
 _atom_site_occupancy
  Er  Er0  1  0.996456  0.242659  0.250000  1
  Er  Er1  1  0.754426  0.756924  0.250000  1
  Er  Er2  1  0.245824  0.241439  0.750000  1
  Er  Er3  1  0.241047  0.998972  0.250000  1
  Lu  Lu4  1  0.006039  0.761376  0.750000  1
  Lu  Lu5  1  0.758330  0.000904  0.750000  1
  Lu  Lu6  1  0.333336  0.668694  0.499946  1
  Lu  Lu7  1  0.664396  0.330242  0.000405  1
  Lu  Lu8  1  0.664396  0.330242  0.499595  1
  Lu  Lu9  1  0.333336  0.668694  0.000054  1
  In  In10  1  0.396279  0.998492  0.750000  1
  Sb  Sb11  1  0.389558  0.390917  0.250000  1
  Sb  Sb12  1  0.997709  0.607802  0.250000  1
  Sb  Sb13  1  0.999471  0.391219  0.750000  1
  Sb  Sb14  1  0.613473  0.611987  0.750000  1
  Sb  Sb15  1  0.605922  0.999438  0.250000  1
