# generated using pymatgen
data_Ho4Er3Tm3Sn8
_symmetry_space_group_name_H-M   'P 1'
_cell_length_a   7.99151600
_cell_length_b   8.12644705
_cell_length_c   15.36698900
_cell_angle_alpha   89.99345006
_cell_angle_beta   90.00000000
_cell_angle_gamma   90.00000000
_symmetry_Int_Tables_number   1
_chemical_formula_structural   Ho4Er3Tm3Sn8
_chemical_formula_sum   'Ho8 Er6 Tm6 Sn16'
_cell_volume   997.97269964
_cell_formula_units_Z   2
loop_
 _symmetry_equiv_pos_site_id
 _symmetry_equiv_pos_as_xyz
  1  'x, y, z'
loop_
 _atom_site_type_symbol
 _atom_site_label
 _atom_site_symmetry_multiplicity
 _atom_site_fract_x
 _atom_site_fract_y
 _atom_site_fract_z
 _atom_site_occupancy
  Ho  Ho0  1  0.521314  0.320807  0.902847  1
  Ho  Ho1  1  0.021314  0.179193  0.597153  1
  Ho  Ho2  1  0.478726  0.679302  0.402919  1
  Ho  Ho3  1  0.978726  0.820698  0.097081  1
  Ho  Ho4  1  0.478688  0.679297  0.097179  1
  Ho  Ho5  1  0.978688  0.820703  0.402821  1
  Ho  Ho6  1  0.521310  0.320715  0.597115  1
  Ho  Ho7  1  0.021310  0.179285  0.902885  1
  Er  Er8  1  0.367482  0.836838  0.877481  1
  Er  Er9  1  0.867482  0.663162  0.622519  1
  Er  Er10  1  0.632621  0.163251  0.377371  1
  Er  Er11  1  0.132621  0.336749  0.122629  1
  Er  Er12  1  0.632612  0.163248  0.122524  1
  Er  Er13  1  0.132612  0.336752  0.377476  1
  Tm  Tm14  1  0.367431  0.836792  0.622672  1
  Tm  Tm15  1  0.867431  0.663208  0.877328  1
  Tm  Tm16  1  0.198394  0.503764  0.749977  1
  Tm  Tm17  1  0.698394  0.996236  0.750023  1
  Tm  Tm18  1  0.801673  0.496438  0.249971  1
  Tm  Tm19  1  0.301673  0.003562  0.250029  1
  Sn  Sn20  1  0.293054  0.036946  0.041882  1
  Sn  Sn21  1  0.793054  0.463054  0.458118  1
  Sn  Sn22  1  0.706261  0.962901  0.541471  1
  Sn  Sn23  1  0.206261  0.537099  0.958529  1
  Sn  Sn24  1  0.707327  0.962441  0.958384  1
  Sn  Sn25  1  0.207327  0.537559  0.541616  1
  Sn  Sn26  1  0.293054  0.036491  0.458535  1
  Sn  Sn27  1  0.793054  0.463509  0.041465  1
  Sn  Sn28  1  0.564416  0.619441  0.749970  1
  Sn  Sn29  1  0.064416  0.880559  0.750030  1
  Sn  Sn30  1  0.435572  0.380684  0.249997  1
  Sn  Sn31  1  0.935572  0.119316  0.250003  1
  Sn  Sn32  1  0.330831  0.148570  0.749843  1
  Sn  Sn33  1  0.830831  0.351430  0.750157  1
  Sn  Sn34  1  0.669235  0.851272  0.250013  1
  Sn  Sn35  1  0.169235  0.648728  0.249987  1
