# generated using pymatgen
data_La3HfGa5O14
_symmetry_space_group_name_H-M   'P 1'
_cell_length_a   8.35382800
_cell_length_b   8.35381121
_cell_length_c   5.20476900
_cell_angle_alpha   89.99992543
_cell_angle_beta   90.00032143
_cell_angle_gamma   120.00010594
_symmetry_Int_Tables_number   1
_chemical_formula_structural   La3HfGa5O14
_chemical_formula_sum   'La3 Hf1 Ga5 O14'
_cell_volume   314.55878062
_cell_formula_units_Z   1
loop_
 _symmetry_equiv_pos_site_id
 _symmetry_equiv_pos_as_xyz
  1  'x, y, z'
loop_
 _atom_site_type_symbol
 _atom_site_label
 _atom_site_symmetry_multiplicity
 _atom_site_fract_x
 _atom_site_fract_y
 _atom_site_fract_z
 _atom_site_occupancy
  La  La0  1  0.573353  0.000005  0.000005  1
  La  La1  1  0.426645  0.426650  0.999995  1
  La  La2  1  0.000008  0.573352  0.999997  1
  Hf  Hf3  1  0.999998  0.999999  0.000001  1
  Ga  Ga4  1  0.666663  0.333332  0.469213  1
  Ga  Ga5  1  0.754755  0.754751  0.500000  1
  Ga  Ga6  1  0.999999  0.245245  0.500001  1
  Ga  Ga7  1  0.245243  0.999997  0.500003  1
  Ga  Ga8  1  0.333339  0.666669  0.530784  1
  O  O9  1  0.333334  0.666669  0.180740  1
  O  O10  1  0.146844  0.227432  0.242112  1
  O  O11  1  0.080580  0.853153  0.242116  1
  O  O12  1  0.772574  0.919419  0.242121  1
  O  O13  1  0.459065  0.145204  0.301135  1
  O  O14  1  0.686131  0.540927  0.301134  1
  O  O15  1  0.854792  0.313865  0.301138  1
  O  O16  1  0.145213  0.459072  0.698862  1
  O  O17  1  0.313866  0.854793  0.698866  1
  O  O18  1  0.540934  0.686141  0.698866  1
  O  O19  1  0.227424  0.146844  0.757883  1
  O  O20  1  0.919422  0.772574  0.757882  1
  O  O21  1  0.853156  0.080590  0.757893  1
  O  O22  1  0.666662  0.333332  0.819257  1
