# generated using pymatgen
data_Er2HfZr(Al3Ir)6
_symmetry_space_group_name_H-M   'P 1'
_cell_length_a   7.51676506
_cell_length_b   7.50203727
_cell_length_c   9.33035700
_cell_angle_alpha   90.00000000
_cell_angle_beta   90.00000000
_cell_angle_gamma   119.73092616
_symmetry_Int_Tables_number   1
_chemical_formula_structural   Er2HfZr(Al3Ir)6
_chemical_formula_sum   'Er2 Hf1 Zr1 Al18 Ir6'
_cell_volume   456.88851795
_cell_formula_units_Z   1
loop_
 _symmetry_equiv_pos_site_id
 _symmetry_equiv_pos_as_xyz
  1  'x, y, z'
loop_
 _atom_site_type_symbol
 _atom_site_label
 _atom_site_symmetry_multiplicity
 _atom_site_fract_x
 _atom_site_fract_y
 _atom_site_fract_z
 _atom_site_occupancy
  Er  Er0  1  0.670815  0.993990  0.250000  1
  Er  Er1  1  0.328924  0.005702  0.750000  1
  Hf  Hf2  1  0.004626  0.327697  0.750000  1
  Zr  Zr3  1  0.994924  0.671002  0.250000  1
  Al  Al4  1  0.125956  0.124538  0.250000  1
  Al  Al5  1  0.873471  0.874994  0.750000  1
  Al  Al6  1  0.999635  0.336723  0.075198  1
  Al  Al7  1  0.000543  0.663253  0.924649  1
  Al  Al8  1  0.000543  0.663253  0.575351  1
  Al  Al9  1  0.332810  0.998743  0.422072  1
  Al  Al10  1  0.999635  0.336723  0.424802  1
  Al  Al11  1  0.667162  0.001392  0.578429  1
  Al  Al12  1  0.667162  0.001392  0.921571  1
  Al  Al13  1  0.332810  0.998743  0.077928  1
  Al  Al14  1  0.331529  0.333474  0.556805  1
  Al  Al15  1  0.668623  0.666855  0.443986  1
  Al  Al16  1  0.668623  0.666855  0.056014  1
  Al  Al17  1  0.331529  0.333474  0.943195  1
  Al  Al18  1  0.334656  0.548460  0.250000  1
  Al  Al19  1  0.665609  0.451880  0.750000  1
  Al  Al20  1  0.554183  0.343821  0.250000  1
  Al  Al21  1  0.445498  0.655683  0.750000  1
  Ir  Ir22  1  0.671935  0.326912  0.999073  1
  Ir  Ir23  1  0.328153  0.672875  0.000196  1
  Ir  Ir24  1  0.328153  0.672875  0.499804  1
  Ir  Ir25  1  0.671935  0.326912  0.500927  1
  Ir  Ir26  1  0.000279  0.000892  0.999340  1
  Ir  Ir27  1  0.000279  0.000892  0.500660  1
