# generated using pymatgen
data_Tb3DyEr4(OsC2)4
_symmetry_space_group_name_H-M   'P 1'
_cell_length_a   5.12660300
_cell_length_b   6.44788818
_cell_length_c   9.74843037
_cell_angle_alpha   90.03131518
_cell_angle_beta   90.00000000
_cell_angle_gamma   90.00000000
_symmetry_Int_Tables_number   1
_chemical_formula_structural   Tb3DyEr4(OsC2)4
_chemical_formula_sum   'Tb3 Dy1 Er4 Os4 C8'
_cell_volume   322.24175494
_cell_formula_units_Z   1
loop_
 _symmetry_equiv_pos_site_id
 _symmetry_equiv_pos_as_xyz
  1  'x, y, z'
loop_
 _atom_site_type_symbol
 _atom_site_label
 _atom_site_symmetry_multiplicity
 _atom_site_fract_x
 _atom_site_fract_y
 _atom_site_fract_z
 _atom_site_occupancy
  Tb  Tb0  1  0.250000  0.527005  0.217323  1
  Tb  Tb1  1  0.750000  0.473097  0.782737  1
  Tb  Tb2  1  0.750000  0.973088  0.717348  1
  Dy  Dy3  1  0.250000  0.027193  0.282403  1
  Er  Er4  1  0.250000  0.680665  0.552950  1
  Er  Er5  1  0.750000  0.319013  0.446894  1
  Er  Er6  1  0.750000  0.819311  0.053157  1
  Er  Er7  1  0.250000  0.180888  0.946978  1
  Os  Os8  1  0.250000  0.725326  0.865593  1
  Os  Os9  1  0.750000  0.274631  0.134604  1
  Os  Os10  1  0.750000  0.775068  0.365435  1
  Os  Os11  1  0.250000  0.225146  0.634434  1
  C  C12  1  0.250000  0.460467  0.758510  1
  C  C13  1  0.750000  0.539542  0.241419  1
  C  C14  1  0.750000  0.039511  0.258661  1
  C  C15  1  0.250000  0.960439  0.741485  1
  C  C16  1  0.250000  0.828970  0.053274  1
  C  C17  1  0.750000  0.171212  0.947009  1
  C  C18  1  0.750000  0.671298  0.552963  1
  C  C19  1  0.250000  0.328131  0.446822  1
