# generated using pymatgen
data_Ho19Er(Ir2Rh)4
_symmetry_space_group_name_H-M   'P 1'
_cell_length_a   10.82614900
_cell_length_b   10.82614900
_cell_length_c   6.36677500
_cell_angle_alpha   90.00000000
_cell_angle_beta   90.00000000
_cell_angle_gamma   90.00000000
_symmetry_Int_Tables_number   1
_chemical_formula_structural   Ho19Er(Ir2Rh)4
_chemical_formula_sum   'Ho19 Er1 Ir8 Rh4'
_cell_volume   746.22106108
_cell_formula_units_Z   1
loop_
 _symmetry_equiv_pos_site_id
 _symmetry_equiv_pos_as_xyz
  1  'x, y, z'
loop_
 _atom_site_type_symbol
 _atom_site_label
 _atom_site_symmetry_multiplicity
 _atom_site_fract_x
 _atom_site_fract_y
 _atom_site_fract_z
 _atom_site_occupancy
  Ho  Ho0  1  0.290448  0.088605  0.378690  1
  Ho  Ho1  1  0.290450  0.911405  0.878705  1
  Ho  Ho2  1  0.709550  0.088595  0.878705  1
  Ho  Ho3  1  0.709552  0.911395  0.378690  1
  Ho  Ho4  1  0.588595  0.790434  0.878685  1
  Ho  Ho5  1  0.588590  0.209592  0.378713  1
  Ho  Ho6  1  0.411410  0.790408  0.378713  1
  Ho  Ho7  1  0.411405  0.209566  0.878685  1
  Ho  Ho8  1  0.209592  0.411410  0.621287  1
  Ho  Ho9  1  0.209566  0.588595  0.121315  1
  Ho  Ho10  1  0.790434  0.411405  0.121315  1
  Ho  Ho11  1  0.790408  0.588590  0.621287  1
  Ho  Ho12  1  0.911405  0.709550  0.121295  1
  Ho  Ho13  1  0.911395  0.290448  0.621310  1
  Ho  Ho14  1  0.088605  0.709552  0.621310  1
  Ho  Ho15  1  0.088595  0.290450  0.121295  1
  Ho  Ho16  1  0.000000  0.000000  0.500000  1
  Ho  Ho17  1  0.000000  0.000000  0.000000  1
  Ho  Ho18  1  0.500000  0.500000  0.000000  1
  Er  Er19  1  0.500000  0.500000  0.500000  1
  Ir  Ir20  1  0.845922  0.154080  0.249997  1
  Ir  Ir21  1  0.845920  0.845922  0.750003  1
  Ir  Ir22  1  0.154080  0.154078  0.750003  1
  Ir  Ir23  1  0.154078  0.845920  0.249997  1
  Ir  Ir24  1  0.654020  0.345978  0.749916  1
  Ir  Ir25  1  0.654022  0.654020  0.250084  1
  Ir  Ir26  1  0.345978  0.345980  0.250084  1
  Ir  Ir27  1  0.345980  0.654022  0.749916  1
  Rh  Rh28  1  0.500000  0.000000  0.122638  1
  Rh  Rh29  1  0.500000  0.000000  0.622639  1
  Rh  Rh30  1  0.000000  0.500000  0.877362  1
  Rh  Rh31  1  0.000000  0.500000  0.377361  1
