# generated using pymatgen
data_YEr9Al3Os
_symmetry_space_group_name_H-M   'P 1'
_cell_length_a   9.44309600
_cell_length_b   9.44309612
_cell_length_c   9.53567400
_cell_angle_alpha   90.00000000
_cell_angle_beta   90.00000000
_cell_angle_gamma   119.96363745
_symmetry_Int_Tables_number   1
_chemical_formula_structural   YEr9Al3Os
_chemical_formula_sum   'Y2 Er18 Al6 Os2'
_cell_volume   736.66469560
_cell_formula_units_Z   2
loop_
 _symmetry_equiv_pos_site_id
 _symmetry_equiv_pos_as_xyz
  1  'x, y, z'
loop_
 _atom_site_type_symbol
 _atom_site_label
 _atom_site_symmetry_multiplicity
 _atom_site_fract_x
 _atom_site_fract_y
 _atom_site_fract_z
 _atom_site_occupancy
  Y  Y0  1  0.461227  0.921868  0.750000  1
  Y  Y1  1  0.078132  0.538773  0.750000  1
  Er  Er2  1  0.999918  0.000082  0.499831  1
  Er  Er3  1  0.999918  0.000082  0.000169  1
  Er  Er4  1  0.206401  0.793599  0.439504  1
  Er  Er5  1  0.206968  0.413314  0.439986  1
  Er  Er6  1  0.586686  0.793032  0.439986  1
  Er  Er7  1  0.793024  0.206976  0.558843  1
  Er  Er8  1  0.792691  0.586165  0.559031  1
  Er  Er9  1  0.413835  0.207309  0.559031  1
  Er  Er10  1  0.793024  0.206976  0.941157  1
  Er  Er11  1  0.792691  0.586165  0.940969  1
  Er  Er12  1  0.413835  0.207309  0.940969  1
  Er  Er13  1  0.206401  0.793599  0.060496  1
  Er  Er14  1  0.206968  0.413314  0.060014  1
  Er  Er15  1  0.586686  0.793032  0.060014  1
  Er  Er16  1  0.539313  0.460687  0.250000  1
  Er  Er17  1  0.539455  0.078611  0.250000  1
  Er  Er18  1  0.921389  0.460545  0.250000  1
  Er  Er19  1  0.461551  0.538449  0.750000  1
  Al  Al20  1  0.888880  0.111120  0.250000  1
  Al  Al21  1  0.888714  0.777612  0.250000  1
  Al  Al22  1  0.222388  0.111286  0.250000  1
  Al  Al23  1  0.110560  0.889440  0.750000  1
  Al  Al24  1  0.111610  0.221885  0.750000  1
  Al  Al25  1  0.778115  0.888390  0.750000  1
  Os  Os26  1  0.333482  0.666518  0.250000  1
  Os  Os27  1  0.666137  0.333863  0.750000  1
