# generated using pymatgen
data_GdMnFe2Sb12Os
_symmetry_space_group_name_H-M   'P 1'
_cell_length_a   8.00754981
_cell_length_b   8.05406901
_cell_length_c   8.04843987
_cell_angle_alpha   109.70167303
_cell_angle_beta   109.44278174
_cell_angle_gamma   109.42367632
_symmetry_Int_Tables_number   1
_chemical_formula_structural   GdMnFe2Sb12Os
_chemical_formula_sum   'Gd1 Mn1 Fe2 Sb12 Os1'
_cell_volume   398.81522122
_cell_formula_units_Z   1
loop_
 _symmetry_equiv_pos_site_id
 _symmetry_equiv_pos_as_xyz
  1  'x, y, z'
loop_
 _atom_site_type_symbol
 _atom_site_label
 _atom_site_symmetry_multiplicity
 _atom_site_fract_x
 _atom_site_fract_y
 _atom_site_fract_z
 _atom_site_occupancy
  Gd  Gd0  1  0.000000  0.000000  0.000000  1
  Mn  Mn1  1  0.500000  0.500000  0.500000  1
  Fe  Fe2  1  0.000000  0.000000  0.500000  1
  Fe  Fe3  1  0.000000  0.500000  0.000000  1
  Sb  Sb4  1  0.329118  0.175368  0.834416  1
  Sb  Sb5  1  0.670882  0.824632  0.165584  1
  Sb  Sb6  1  0.670010  0.504888  0.847131  1
  Sb  Sb7  1  0.329990  0.495112  0.152869  1
  Sb  Sb8  1  0.168704  0.838005  0.330661  1
  Sb  Sb9  1  0.831296  0.161995  0.669339  1
  Sb  Sb10  1  0.503402  0.842134  0.658287  1
  Sb  Sb11  1  0.496598  0.157866  0.341713  1
  Sb  Sb12  1  0.847337  0.341469  0.175646  1
  Sb  Sb13  1  0.152663  0.658531  0.824354  1
  Sb  Sb14  1  0.846720  0.670531  0.505071  1
  Sb  Sb15  1  0.153280  0.329469  0.494929  1
  Os  Os16  1  0.500000  0.000000  0.000000  1
