# generated using pymatgen
data_Nd7Tm13Pt16
_symmetry_space_group_name_H-M   'P 1'
_cell_length_a   7.54299453
_cell_length_b   7.59513625
_cell_length_c   14.67584124
_cell_angle_alpha   89.99824467
_cell_angle_beta   89.95533576
_cell_angle_gamma   89.95279287
_symmetry_Int_Tables_number   1
_chemical_formula_structural   Nd7Tm13Pt16
_chemical_formula_sum   'Nd7 Tm13 Pt16'
_cell_volume   840.77944822
_cell_formula_units_Z   1
loop_
 _symmetry_equiv_pos_site_id
 _symmetry_equiv_pos_as_xyz
  1  'x, y, z'
loop_
 _atom_site_type_symbol
 _atom_site_label
 _atom_site_symmetry_multiplicity
 _atom_site_fract_x
 _atom_site_fract_y
 _atom_site_fract_z
 _atom_site_occupancy
  Nd  Nd0  1  0.498666  0.676670  0.095433  1
  Nd  Nd1  1  0.501623  0.323758  0.594449  1
  Nd  Nd2  1  0.000831  0.177030  0.905864  1
  Nd  Nd3  1  0.000630  0.173141  0.592515  1
  Nd  Nd4  1  0.501392  0.323709  0.905443  1
  Nd  Nd5  1  0.498573  0.678319  0.406239  1
  Nd  Nd6  1  0.999597  0.823339  0.094597  1
  Tm  Tm7  1  0.680509  0.992206  0.251743  1
  Tm  Tm8  1  0.179754  0.508394  0.251521  1
  Tm  Tm9  1  0.820893  0.492117  0.749233  1
  Tm  Tm10  1  0.320120  0.007813  0.749573  1
  Tm  Tm11  1  0.657196  0.833878  0.622571  1
  Tm  Tm12  1  0.156883  0.666242  0.876404  1
  Tm  Tm13  1  0.842938  0.333148  0.377066  1
  Tm  Tm14  1  0.342886  0.166659  0.124156  1
  Tm  Tm15  1  0.340422  0.165366  0.378074  1
  Tm  Tm16  1  0.843677  0.332469  0.124329  1
  Tm  Tm17  1  0.154710  0.668435  0.621533  1
  Tm  Tm18  1  0.656656  0.832989  0.876948  1
  Tm  Tm19  1  0.996881  0.819731  0.404090  1
  Pt  Pt20  1  0.818258  0.640491  0.253981  1
  Pt  Pt21  1  0.311087  0.863042  0.252061  1
  Pt  Pt22  1  0.686090  0.137114  0.749417  1
  Pt  Pt23  1  0.185844  0.363212  0.749019  1
  Pt  Pt24  1  0.546784  0.375707  0.250798  1
  Pt  Pt25  1  0.044499  0.121348  0.252243  1
  Pt  Pt26  1  0.954226  0.874563  0.749570  1
  Pt  Pt27  1  0.454036  0.625641  0.749210  1
  Pt  Pt28  1  0.823594  0.542185  0.540981  1
  Pt  Pt29  1  0.322268  0.961968  0.956871  1
  Pt  Pt30  1  0.687037  0.031777  0.455031  1
  Pt  Pt31  1  0.176704  0.462252  0.043654  1
  Pt  Pt32  1  0.173718  0.469410  0.454015  1
  Pt  Pt33  1  0.676974  0.038207  0.043536  1
  Pt  Pt34  1  0.321873  0.959978  0.540966  1
  Pt  Pt35  1  0.822176  0.537692  0.956865  1
