# generated using pymatgen
data_Nb4CrCo4Os3
_symmetry_space_group_name_H-M   'P 1'
_cell_length_a   4.94179100
_cell_length_b   4.94179191
_cell_length_c   8.16954400
_cell_angle_alpha   90.00000000
_cell_angle_beta   90.00000000
_cell_angle_gamma   120.72658225
_symmetry_Int_Tables_number   1
_chemical_formula_structural   Nb4CrCo4Os3
_chemical_formula_sum   'Nb4 Cr1 Co4 Os3'
_cell_volume   171.50263134
_cell_formula_units_Z   1
loop_
 _symmetry_equiv_pos_site_id
 _symmetry_equiv_pos_as_xyz
  1  'x, y, z'
loop_
 _atom_site_type_symbol
 _atom_site_label
 _atom_site_symmetry_multiplicity
 _atom_site_fract_x
 _atom_site_fract_y
 _atom_site_fract_z
 _atom_site_occupancy
  Nb  Nb0  1  0.333730  0.666270  0.431956  1
  Nb  Nb1  1  0.668436  0.331564  0.568988  1
  Nb  Nb2  1  0.668436  0.331564  0.931012  1
  Nb  Nb3  1  0.333730  0.666270  0.068044  1
  Cr  Cr4  1  0.824211  0.175789  0.250000  1
  Co  Co5  1  0.169059  0.340807  0.750000  1
  Co  Co6  1  0.659193  0.830941  0.750000  1
  Co  Co7  1  0.832830  0.650389  0.250000  1
  Co  Co8  1  0.349611  0.167170  0.250000  1
  Os  Os9  1  0.994751  0.005249  0.494196  1
  Os  Os10  1  0.994751  0.005249  0.005804  1
  Os  Os11  1  0.171258  0.828742  0.750000  1
