# generated using pymatgen
data_ErTm11Co4SnPt
_symmetry_space_group_name_H-M   'P 1'
_cell_length_a   8.22069788
_cell_length_b   8.22069807
_cell_length_c   8.22206113
_cell_angle_alpha   111.05737267
_cell_angle_beta   110.81159871
_cell_angle_gamma   106.57575255
_symmetry_Int_Tables_number   1
_chemical_formula_structural   ErTm11Co4SnPt
_chemical_formula_sum   'Er1 Tm11 Co4 Sn1 Pt1'
_cell_volume   426.95961416
_cell_formula_units_Z   1
loop_
 _symmetry_equiv_pos_site_id
 _symmetry_equiv_pos_as_xyz
  1  'x, y, z'
loop_
 _atom_site_type_symbol
 _atom_site_label
 _atom_site_symmetry_multiplicity
 _atom_site_fract_x
 _atom_site_fract_y
 _atom_site_fract_z
 _atom_site_occupancy
  Er  Er0  1  0.814149  0.288739  0.102888  1
  Tm  Tm1  1  0.314461  0.620611  0.306231  1
  Tm  Tm2  1  0.685823  0.379664  0.693504  1
  Tm  Tm3  1  0.313840  0.007681  0.693504  1
  Tm  Tm4  1  0.685622  0.991771  0.306231  1
  Tm  Tm5  1  0.416256  0.216792  0.199842  1
  Tm  Tm6  1  0.583047  0.782667  0.799869  1
  Tm  Tm7  1  0.017202  0.216823  0.799869  1
  Tm  Tm8  1  0.983051  0.783585  0.199842  1
  Tm  Tm9  1  0.185787  0.288783  0.474570  1
  Tm  Tm10  1  0.814491  0.711521  0.526012  1
  Tm  Tm11  1  0.185519  0.711380  0.896899  1
  Co  Co12  1  0.112624  0.612521  0.500686  1
  Co  Co13  1  0.888166  0.388063  0.500686  1
  Co  Co14  1  0.376931  0.000050  0.376981  1
  Co  Co15  1  0.622984  0.999558  0.622543  1
  Sn  Sn16  1  0.500141  0.500092  0.000233  1
  Pt  Pt17  1  0.999908  0.999702  0.999610  1
