# generated using pymatgen
data_Tb15Y5(CoSb2)4
_symmetry_space_group_name_H-M   'P 1'
_cell_length_a   7.95409515
_cell_length_b   8.75966000
_cell_length_c   12.26288923
_cell_angle_alpha   90.00000000
_cell_angle_beta   89.97795136
_cell_angle_gamma   90.00000000
_symmetry_Int_Tables_number   1
_chemical_formula_structural   Tb15Y5(CoSb2)4
_chemical_formula_sum   'Tb15 Y5 Co4 Sb8'
_cell_volume   854.41881725
_cell_formula_units_Z   1
loop_
 _symmetry_equiv_pos_site_id
 _symmetry_equiv_pos_as_xyz
  1  'x, y, z'
loop_
 _atom_site_type_symbol
 _atom_site_label
 _atom_site_symmetry_multiplicity
 _atom_site_fract_x
 _atom_site_fract_y
 _atom_site_fract_z
 _atom_site_occupancy
  Tb  Tb0  1  0.954700  0.250000  0.501823  1
  Tb  Tb1  1  0.545197  0.250000  0.001842  1
  Tb  Tb2  1  0.045272  0.750000  0.498162  1
  Tb  Tb3  1  0.621973  0.750000  0.305589  1
  Tb  Tb4  1  0.122273  0.250000  0.194300  1
  Tb  Tb5  1  0.377977  0.250000  0.694378  1
  Tb  Tb6  1  0.878063  0.750000  0.805699  1
  Tb  Tb7  1  0.821322  0.964933  0.065111  1
  Tb  Tb8  1  0.321029  0.035410  0.434943  1
  Tb  Tb9  1  0.178981  0.464972  0.935018  1
  Tb  Tb10  1  0.678910  0.535347  0.565014  1
  Tb  Tb11  1  0.178981  0.035028  0.935018  1
  Tb  Tb12  1  0.678910  0.964653  0.565014  1
  Tb  Tb13  1  0.821322  0.535067  0.065111  1
  Tb  Tb14  1  0.321029  0.464590  0.434943  1
  Y  Y15  1  0.155188  0.750000  0.203796  1
  Y  Y16  1  0.655323  0.250000  0.295945  1
  Y  Y17  1  0.844627  0.250000  0.796103  1
  Y  Y18  1  0.344631  0.750000  0.704040  1
  Y  Y19  1  0.455789  0.750000  0.998246  1
  Co  Co20  1  0.433595  0.750000  0.489446  1
  Co  Co21  1  0.933745  0.250000  0.010562  1
  Co  Co22  1  0.566440  0.250000  0.510526  1
  Co  Co23  1  0.065123  0.750000  0.989603  1
  Sb  Sb24  1  0.927873  0.991620  0.326642  1
  Sb  Sb25  1  0.427804  0.008062  0.173054  1
  Sb  Sb26  1  0.072177  0.491616  0.673354  1
  Sb  Sb27  1  0.571946  0.508688  0.826835  1
  Sb  Sb28  1  0.072177  0.008384  0.673354  1
  Sb  Sb29  1  0.571946  0.991312  0.826835  1
  Sb  Sb30  1  0.927873  0.508380  0.326642  1
  Sb  Sb31  1  0.427804  0.491938  0.173054  1
