# generated using pymatgen
data_Hf3ScTa2(VSi2)4
_symmetry_space_group_name_H-M   'P 1'
_cell_length_a   6.69493100
_cell_length_b   6.69782112
_cell_length_c   12.40237300
_cell_angle_alpha   90.00000000
_cell_angle_beta   90.00000000
_cell_angle_gamma   89.98988911
_symmetry_Int_Tables_number   1
_chemical_formula_structural   Hf3ScTa2(VSi2)4
_chemical_formula_sum   'Hf6 Sc2 Ta4 V8 Si16'
_cell_volume   556.14038363
_cell_formula_units_Z   2
loop_
 _symmetry_equiv_pos_site_id
 _symmetry_equiv_pos_as_xyz
  1  'x, y, z'
loop_
 _atom_site_type_symbol
 _atom_site_label
 _atom_site_symmetry_multiplicity
 _atom_site_fract_x
 _atom_site_fract_y
 _atom_site_fract_z
 _atom_site_occupancy
  Hf  Hf0  1  0.004840  0.661061  0.030067  1
  Hf  Hf1  1  0.837033  0.503579  0.279764  1
  Hf  Hf2  1  0.162967  0.496421  0.779764  1
  Hf  Hf3  1  0.503484  0.837121  0.719401  1
  Hf  Hf4  1  0.496516  0.162879  0.219401  1
  Hf  Hf5  1  0.995160  0.338939  0.530067  1
  Sc  Sc6  1  0.663126  0.001858  0.970521  1
  Sc  Sc7  1  0.336874  0.998142  0.470521  1
  Ta  Ta8  1  0.332667  0.335501  0.999858  1
  Ta  Ta9  1  0.165830  0.834220  0.249560  1
  Ta  Ta10  1  0.834170  0.165780  0.749560  1
  Ta  Ta11  1  0.667333  0.664499  0.499858  1
  V  V12  1  0.005019  0.160566  0.127712  1
  V  V13  1  0.341112  0.505454  0.376617  1
  V  V14  1  0.658888  0.494546  0.876617  1
  V  V15  1  0.505678  0.341200  0.623588  1
  V  V16  1  0.494322  0.658800  0.123588  1
  V  V17  1  0.994981  0.839434  0.627712  1
  V  V18  1  0.159017  0.005631  0.872756  1
  V  V19  1  0.840983  0.994369  0.372756  1
  Si  Si20  1  0.294062  0.959260  0.061502  1
  Si  Si21  1  0.540491  0.794599  0.312765  1
  Si  Si22  1  0.459509  0.205401  0.812765  1
  Si  Si23  1  0.793499  0.541671  0.688109  1
  Si  Si24  1  0.206501  0.458329  0.188109  1
  Si  Si25  1  0.705938  0.040740  0.561502  1
  Si  Si26  1  0.957218  0.292218  0.937749  1
  Si  Si27  1  0.042782  0.707782  0.437749  1
  Si  Si28  1  0.708622  0.373588  0.073178  1
  Si  Si29  1  0.126953  0.208997  0.323790  1
  Si  Si30  1  0.873047  0.791003  0.823790  1
  Si  Si31  1  0.209569  0.126094  0.676861  1
  Si  Si32  1  0.790431  0.873906  0.176861  1
  Si  Si33  1  0.291378  0.626412  0.573178  1
  Si  Si34  1  0.374378  0.709820  0.926200  1
  Si  Si35  1  0.625622  0.290180  0.426200  1
