# generated using pymatgen
data_Tb4Tc3B16Ru
_symmetry_space_group_name_H-M   'P 1'
_cell_length_a   3.59613300
_cell_length_b   5.98229843
_cell_length_c   11.57075448
_cell_angle_alpha   89.84570971
_cell_angle_beta   90.00000000
_cell_angle_gamma   90.00000000
_symmetry_Int_Tables_number   1
_chemical_formula_structural   Tb4Tc3B16Ru
_chemical_formula_sum   'Tb4 Tc3 B16 Ru1'
_cell_volume   248.92236762
_cell_formula_units_Z   1
loop_
 _symmetry_equiv_pos_site_id
 _symmetry_equiv_pos_as_xyz
  1  'x, y, z'
loop_
 _atom_site_type_symbol
 _atom_site_label
 _atom_site_symmetry_multiplicity
 _atom_site_fract_x
 _atom_site_fract_y
 _atom_site_fract_z
 _atom_site_occupancy
  Tb  Tb0  1  0.500000  0.128688  0.149321  1
  Tb  Tb1  1  0.500000  0.871866  0.851482  1
  Tb  Tb2  1  0.500000  0.627381  0.348478  1
  Tb  Tb3  1  0.500000  0.372863  0.651094  1
  Tc  Tc4  1  0.500000  0.131937  0.413530  1
  Tc  Tc5  1  0.500000  0.867439  0.587314  1
  Tc  Tc6  1  0.500000  0.639234  0.089967  1
  B  B7  1  0.000000  0.475710  0.191678  1
  B  B8  1  0.000000  0.524297  0.808296  1
  B  B9  1  0.000000  0.978386  0.307898  1
  B  B10  1  0.000000  0.023038  0.692305  1
  B  B11  1  0.000000  0.287156  0.315147  1
  B  B12  1  0.000000  0.711712  0.685011  1
  B  B13  1  0.000000  0.787644  0.185292  1
  B  B14  1  0.000000  0.211812  0.815299  1
  B  B15  1  0.000000  0.363579  0.468370  1
  B  B16  1  0.000000  0.636049  0.531664  1
  B  B17  1  0.000000  0.863505  0.030478  1
  B  B18  1  0.000000  0.137273  0.968890  1
  B  B19  1  0.000000  0.386742  0.046348  1
  B  B20  1  0.000000  0.612585  0.952931  1
  B  B21  1  0.000000  0.886929  0.453310  1
  B  B22  1  0.000000  0.112832  0.547252  1
  Ru  Ru23  1  0.500000  0.361340  0.908644  1
