# generated using pymatgen
data_Yb6SbIrO12
_symmetry_space_group_name_H-M   'P 1'
_cell_length_a   6.49298470
_cell_length_b   6.49298469
_cell_length_c   6.49298500
_cell_angle_alpha   92.46634785
_cell_angle_beta   92.46635668
_cell_angle_gamma   92.46636551
_symmetry_Int_Tables_number   1
_chemical_formula_structural   Yb6SbIrO12
_chemical_formula_sum   'Yb6 Sb1 Ir1 O12'
_cell_volume   272.95348179
_cell_formula_units_Z   1
loop_
 _symmetry_equiv_pos_site_id
 _symmetry_equiv_pos_as_xyz
  1  'x, y, z'
loop_
 _atom_site_type_symbol
 _atom_site_label
 _atom_site_symmetry_multiplicity
 _atom_site_fract_x
 _atom_site_fract_y
 _atom_site_fract_z
 _atom_site_occupancy
  Yb  Yb0  1  0.931006  0.430117  0.747096  1
  Yb  Yb1  1  0.747096  0.931006  0.430117  1
  Yb  Yb2  1  0.569883  0.252904  0.068994  1
  Yb  Yb3  1  0.430117  0.747096  0.931006  1
  Yb  Yb4  1  0.252904  0.068994  0.569883  1
  Yb  Yb5  1  0.068994  0.569883  0.252904  1
  Sb  Sb6  1  0.000000  0.000000  0.000000  1
  Ir  Ir7  1  0.500000  0.500000  0.500000  1
  O  O8  1  0.930840  0.294550  0.071327  1
  O  O9  1  0.928673  0.069160  0.705450  1
  O  O10  1  0.783870  0.577469  0.453770  1
  O  O11  1  0.705450  0.928673  0.069160  1
  O  O12  1  0.577469  0.453770  0.783870  1
  O  O13  1  0.546230  0.216130  0.422531  1
  O  O14  1  0.453770  0.783870  0.577469  1
  O  O15  1  0.422531  0.546230  0.216130  1
  O  O16  1  0.294550  0.071327  0.930840  1
  O  O17  1  0.216130  0.422531  0.546230  1
  O  O18  1  0.071327  0.930840  0.294550  1
  O  O19  1  0.069160  0.705450  0.928673  1
