# generated using pymatgen
data_DyEr(Si7Ir3)2
_symmetry_space_group_name_H-M   'P 1'
_cell_length_a   8.04357815
_cell_length_b   8.04357866
_cell_length_c   8.04357773
_cell_angle_alpha   56.48164270
_cell_angle_beta   56.48163922
_cell_angle_gamma   56.48165089
_symmetry_Int_Tables_number   1
_chemical_formula_structural   DyEr(Si7Ir3)2
_chemical_formula_sum   'Dy1 Er1 Si14 Ir6'
_cell_volume   338.05935741
_cell_formula_units_Z   1
loop_
 _symmetry_equiv_pos_site_id
 _symmetry_equiv_pos_as_xyz
  1  'x, y, z'
loop_
 _atom_site_type_symbol
 _atom_site_label
 _atom_site_symmetry_multiplicity
 _atom_site_fract_x
 _atom_site_fract_y
 _atom_site_fract_z
 _atom_site_occupancy
  Dy  Dy0  1  0.500000  0.500000  0.500000  1
  Er  Er1  1  0.000000  0.000000  0.000000  1
  Si  Si2  1  0.850277  0.064147  0.672690  1
  Si  Si3  1  0.672690  0.850277  0.064147  1
  Si  Si4  1  0.064147  0.672690  0.850277  1
  Si  Si5  1  0.649351  0.827466  0.435856  1
  Si  Si6  1  0.249898  0.249898  0.249898  1
  Si  Si7  1  0.750102  0.750102  0.750102  1
  Si  Si8  1  0.172534  0.564144  0.350649  1
  Si  Si9  1  0.564144  0.350649  0.172534  1
  Si  Si10  1  0.350649  0.172534  0.564144  1
  Si  Si11  1  0.935853  0.327310  0.149723  1
  Si  Si12  1  0.327310  0.149723  0.935853  1
  Si  Si13  1  0.149723  0.935853  0.327310  1
  Si  Si14  1  0.827466  0.435856  0.649351  1
  Si  Si15  1  0.435856  0.649351  0.827466  1
  Ir  Ir16  1  0.750492  0.070382  0.428813  1
  Ir  Ir17  1  0.428813  0.750492  0.070382  1
  Ir  Ir18  1  0.070382  0.428813  0.750492  1
  Ir  Ir19  1  0.249508  0.929618  0.571187  1
  Ir  Ir20  1  0.571187  0.249508  0.929618  1
  Ir  Ir21  1  0.929618  0.571187  0.249508  1
