# generated using pymatgen
data_Tb2(CeTc)3
_symmetry_space_group_name_H-M   'P 1'
_cell_length_a   8.01211100
_cell_length_b   8.01211018
_cell_length_c   6.89646300
_cell_angle_alpha   90.00000000
_cell_angle_beta   90.00000000
_cell_angle_gamma   119.99999928
_symmetry_Int_Tables_number   1
_chemical_formula_structural   Tb2(CeTc)3
_chemical_formula_sum   'Tb4 Ce6 Tc6'
_cell_volume   383.39894673
_cell_formula_units_Z   2
loop_
 _symmetry_equiv_pos_site_id
 _symmetry_equiv_pos_as_xyz
  1  'x, y, z'
loop_
 _atom_site_type_symbol
 _atom_site_label
 _atom_site_symmetry_multiplicity
 _atom_site_fract_x
 _atom_site_fract_y
 _atom_site_fract_z
 _atom_site_occupancy
  Tb  Tb0  1  0.666667  0.333333  0.000000  1
  Tb  Tb1  1  0.333333  0.666667  0.000000  1
  Tb  Tb2  1  0.333333  0.666667  0.500000  1
  Tb  Tb3  1  0.666667  0.333333  0.500000  1
  Ce  Ce4  1  0.753065  0.753065  0.750000  1
  Ce  Ce5  1  0.246935  0.000000  0.750000  1
  Ce  Ce6  1  0.000000  0.246935  0.750000  1
  Ce  Ce7  1  0.246935  0.246935  0.250000  1
  Ce  Ce8  1  0.753065  0.000000  0.250000  1
  Ce  Ce9  1  0.000000  0.753065  0.250000  1
  Tc  Tc10  1  0.350717  0.350717  0.750000  1
  Tc  Tc11  1  0.649283  0.000000  0.750000  1
  Tc  Tc12  1  0.000000  0.649283  0.750000  1
  Tc  Tc13  1  0.649283  0.649283  0.250000  1
  Tc  Tc14  1  0.350717  0.000000  0.250000  1
  Tc  Tc15  1  0.000000  0.350717  0.250000  1
