# generated using pymatgen
data_CsLi2TbBi2
_symmetry_space_group_name_H-M   'P 1'
_cell_length_a   4.88206600
_cell_length_b   4.88206635
_cell_length_c   9.46375100
_cell_angle_alpha   90.00000000
_cell_angle_beta   90.00000000
_cell_angle_gamma   120.00001121
_symmetry_Int_Tables_number   1
_chemical_formula_structural   CsLi2TbBi2
_chemical_formula_sum   'Cs1 Li2 Tb1 Bi2'
_cell_volume   195.34451033
_cell_formula_units_Z   1
loop_
 _symmetry_equiv_pos_site_id
 _symmetry_equiv_pos_as_xyz
  1  'x, y, z'
loop_
 _atom_site_type_symbol
 _atom_site_label
 _atom_site_symmetry_multiplicity
 _atom_site_fract_x
 _atom_site_fract_y
 _atom_site_fract_z
 _atom_site_occupancy
  Cs  Cs0  1  0.000000  0.000000  0.500000  1
  Li  Li1  1  0.666667  0.333333  0.171060  1
  Li  Li2  1  0.333333  0.666667  0.828940  1
  Tb  Tb3  1  0.000000  0.000000  0.000000  1
  Bi  Bi4  1  0.666667  0.333333  0.812907  1
  Bi  Bi5  1  0.333333  0.666667  0.187093  1
