# generated using pymatgen
data_Ce10PuHg6P
_symmetry_space_group_name_H-M   'P 1'
_cell_length_a   9.43009200
_cell_length_b   9.43009367
_cell_length_c   6.16743800
_cell_angle_alpha   90.00000000
_cell_angle_beta   90.00000000
_cell_angle_gamma   120.00000819
_symmetry_Int_Tables_number   1
_chemical_formula_structural   Ce10PuHg6P
_chemical_formula_sum   'Ce10 Pu1 Hg6 P1'
_cell_volume   474.97125190
_cell_formula_units_Z   1
loop_
 _symmetry_equiv_pos_site_id
 _symmetry_equiv_pos_as_xyz
  1  'x, y, z'
loop_
 _atom_site_type_symbol
 _atom_site_label
 _atom_site_symmetry_multiplicity
 _atom_site_fract_x
 _atom_site_fract_y
 _atom_site_fract_z
 _atom_site_occupancy
  Ce  Ce0  1  0.227165  0.227165  0.781864  1
  Ce  Ce1  1  0.772835  0.772835  0.218136  1
  Ce  Ce2  1  0.227165  0.000000  0.218136  1
  Ce  Ce3  1  0.772835  0.000000  0.781864  1
  Ce  Ce4  1  0.333333  0.666667  0.500000  1
  Ce  Ce5  1  0.666667  0.333333  0.500000  1
  Ce  Ce6  1  0.000000  0.227165  0.218136  1
  Ce  Ce7  1  0.000000  0.772835  0.781864  1
  Ce  Ce8  1  0.333333  0.666667  0.000000  1
  Ce  Ce9  1  0.666667  0.333333  0.000000  1
  Pu  Pu10  1  0.000000  0.000000  0.000000  1
  Hg  Hg11  1  0.411694  0.411694  0.259639  1
  Hg  Hg12  1  0.588306  0.588306  0.740361  1
  Hg  Hg13  1  0.000000  0.411694  0.740361  1
  Hg  Hg14  1  0.588306  0.000000  0.259639  1
  Hg  Hg15  1  0.411694  0.000000  0.740361  1
  Hg  Hg16  1  0.000000  0.588306  0.259639  1
  P  P17  1  0.000000  0.000000  0.500000  1
