# generated using pymatgen
data_Nb8Co8Si13As
_symmetry_space_group_name_H-M   'P 1'
_cell_length_a   9.27212884
_cell_length_b   9.27212814
_cell_length_c   9.28942048
_cell_angle_alpha   94.20590765
_cell_angle_beta   94.20591235
_cell_angle_gamma   148.54435942
_symmetry_Int_Tables_number   1
_chemical_formula_structural   Nb8Co8Si13As
_chemical_formula_sum   'Nb8 Co8 Si13 As1'
_cell_volume   401.21334460
_cell_formula_units_Z   1
loop_
 _symmetry_equiv_pos_site_id
 _symmetry_equiv_pos_as_xyz
  1  'x, y, z'
loop_
 _atom_site_type_symbol
 _atom_site_label
 _atom_site_symmetry_multiplicity
 _atom_site_fract_x
 _atom_site_fract_y
 _atom_site_fract_z
 _atom_site_occupancy
  Nb  Nb0  1  0.309121  0.502454  0.811576  1
  Nb  Nb1  1  0.690359  0.499039  0.189398  1
  Nb  Nb2  1  0.499039  0.690359  0.189398  1
  Nb  Nb3  1  0.502454  0.309121  0.811576  1
  Nb  Nb4  1  0.132988  0.132988  0.265975  1
  Nb  Nb5  1  0.867281  0.867281  0.734562  1
  Nb  Nb6  1  0.134067  0.866234  0.000301  1
  Nb  Nb7  1  0.866234  0.134067  0.000301  1
  Co  Co8  1  0.398935  0.898935  0.797870  1
  Co  Co9  1  0.101297  0.601297  0.202596  1
  Co  Co10  1  0.896291  0.099702  0.498840  1
  Co  Co11  1  0.602548  0.399138  0.498840  1
  Co  Co12  1  0.601297  0.101297  0.202596  1
  Co  Co13  1  0.898935  0.398935  0.797870  1
  Co  Co14  1  0.099702  0.896291  0.498840  1
  Co  Co15  1  0.399138  0.602548  0.498840  1
  Si  Si16  1  0.705736  0.705736  0.411473  1
  Si  Si17  1  0.291295  0.709195  0.000490  1
  Si  Si18  1  0.709195  0.291295  0.000490  1
  Si  Si19  1  0.093520  0.500720  0.594239  1
  Si  Si20  1  0.906084  0.499665  0.405749  1
  Si  Si21  1  0.499665  0.906084  0.405749  1
  Si  Si22  1  0.500720  0.093520  0.594239  1
  Si  Si23  1  0.248372  0.248372  0.000095  1
  Si  Si24  1  0.751724  0.751724  0.000095  1
  Si  Si25  1  0.296882  0.999460  0.296342  1
  Si  Si26  1  0.702812  0.000487  0.703299  1
  Si  Si27  1  0.000487  0.702812  0.703299  1
  Si  Si28  1  0.999460  0.296882  0.296342  1
  As  As29  1  0.294361  0.294361  0.588722  1
