# generated using pymatgen
data_YHo(AgTe2)2
_symmetry_space_group_name_H-M   'P 1'
_cell_length_a   7.11518500
_cell_length_b   7.11518500
_cell_length_c   4.74060200
_cell_angle_alpha   90.00000000
_cell_angle_beta   90.00000000
_cell_angle_gamma   89.99797074
_symmetry_Int_Tables_number   1
_chemical_formula_structural   YHo(AgTe2)2
_chemical_formula_sum   'Y1 Ho1 Ag2 Te4'
_cell_volume   239.99704164
_cell_formula_units_Z   1
loop_
 _symmetry_equiv_pos_site_id
 _symmetry_equiv_pos_as_xyz
  1  'x, y, z'
loop_
 _atom_site_type_symbol
 _atom_site_label
 _atom_site_symmetry_multiplicity
 _atom_site_fract_x
 _atom_site_fract_y
 _atom_site_fract_z
 _atom_site_occupancy
  Y  Y0  1  0.500000  0.000000  0.192540  1
  Ho  Ho1  1  0.000000  0.500000  0.808276  1
  Ag  Ag2  1  0.000000  0.000000  0.000035  1
  Ag  Ag3  1  0.500000  0.500000  0.000035  1
  Te  Te4  1  0.799200  0.700800  0.290388  1
  Te  Te5  1  0.297477  0.797477  0.709169  1
  Te  Te6  1  0.702523  0.202523  0.709169  1
  Te  Te7  1  0.200800  0.299200  0.290388  1
