# generated using pymatgen
data_Sb5Os
_symmetry_space_group_name_H-M   'P 1'
_cell_length_a   4.23386007
_cell_length_b   6.87894901
_cell_length_c   9.14611529
_cell_angle_alpha   140.74650716
_cell_angle_beta   89.96138377
_cell_angle_gamma   90.00003837
_symmetry_Int_Tables_number   1
_chemical_formula_structural   Sb5Os
_chemical_formula_sum   'Sb5 Os1'
_cell_volume   168.55005982
_cell_formula_units_Z   1
loop_
 _symmetry_equiv_pos_site_id
 _symmetry_equiv_pos_as_xyz
  1  'x, y, z'
loop_
 _atom_site_type_symbol
 _atom_site_label
 _atom_site_symmetry_multiplicity
 _atom_site_fract_x
 _atom_site_fract_y
 _atom_site_fract_z
 _atom_site_occupancy
  Sb  Sb0  1  0.984781  0.680656  0.941234  1
  Sb  Sb1  1  0.485475  0.152450  0.848915  1
  Sb  Sb2  1  0.485134  0.509158  0.614265  1
  Sb  Sb3  1  0.985211  0.331734  0.287623  1
  Sb  Sb4  1  0.485420  0.870939  0.388970  1
  Os  Os5  1  0.985431  0.511709  0.118347  1
