# generated using pymatgen
data_PrZn3InPd2
_symmetry_space_group_name_H-M   'P 1'
_cell_length_a   5.34834900
_cell_length_b   8.70876700
_cell_length_c   11.16997400
_cell_angle_alpha   90.00000000
_cell_angle_beta   90.00000000
_cell_angle_gamma   90.00000000
_symmetry_Int_Tables_number   1
_chemical_formula_structural   PrZn3InPd2
_chemical_formula_sum   'Pr4 Zn12 In4 Pd8'
_cell_volume   520.26974631
_cell_formula_units_Z   4
loop_
 _symmetry_equiv_pos_site_id
 _symmetry_equiv_pos_as_xyz
  1  'x, y, z'
loop_
 _atom_site_type_symbol
 _atom_site_label
 _atom_site_symmetry_multiplicity
 _atom_site_fract_x
 _atom_site_fract_y
 _atom_site_fract_z
 _atom_site_occupancy
  Pr  Pr0  1  0.750000  0.744168  0.442354  1
  Pr  Pr1  1  0.250000  0.255832  0.557646  1
  Pr  Pr2  1  0.250000  0.755832  0.942354  1
  Pr  Pr3  1  0.750000  0.244168  0.057646  1
  Zn  Zn4  1  0.497572  0.938229  0.684760  1
  Zn  Zn5  1  0.502428  0.061771  0.315240  1
  Zn  Zn6  1  0.502428  0.561771  0.184760  1
  Zn  Zn7  1  0.997572  0.061771  0.315240  1
  Zn  Zn8  1  0.497572  0.438229  0.815240  1
  Zn  Zn9  1  0.002428  0.938229  0.684760  1
  Zn  Zn10  1  0.002428  0.438229  0.815240  1
  Zn  Zn11  1  0.997572  0.561771  0.184760  1
  Zn  Zn12  1  0.750000  0.689964  0.758494  1
  Zn  Zn13  1  0.250000  0.310036  0.241506  1
  Zn  Zn14  1  0.250000  0.810036  0.258494  1
  Zn  Zn15  1  0.750000  0.189964  0.741506  1
  In  In16  1  0.750000  0.866427  0.131672  1
  In  In17  1  0.250000  0.133573  0.868328  1
  In  In18  1  0.250000  0.633573  0.631672  1
  In  In19  1  0.750000  0.366427  0.368328  1
  Pd  Pd20  1  0.750000  0.591901  0.984018  1
  Pd  Pd21  1  0.250000  0.408099  0.015982  1
  Pd  Pd22  1  0.250000  0.908099  0.484018  1
  Pd  Pd23  1  0.750000  0.091901  0.515982  1
  Pd  Pd24  1  0.750000  0.945926  0.892426  1
  Pd  Pd25  1  0.250000  0.054074  0.107574  1
  Pd  Pd26  1  0.250000  0.554074  0.392426  1
  Pd  Pd27  1  0.750000  0.445926  0.607574  1
