# generated using pymatgen
data_Y12InFe2Co2Pt
_symmetry_space_group_name_H-M   'P 1'
_cell_length_a   8.35521214
_cell_length_b   8.35521163
_cell_length_c   8.35521271
_cell_angle_alpha   110.53280254
_cell_angle_beta   110.38728860
_cell_angle_gamma   107.51121001
_symmetry_Int_Tables_number   1
_chemical_formula_structural   Y12InFe2Co2Pt
_chemical_formula_sum   'Y12 In1 Fe2 Co2 Pt1'
_cell_volume   448.61117486
_cell_formula_units_Z   1
loop_
 _symmetry_equiv_pos_site_id
 _symmetry_equiv_pos_as_xyz
  1  'x, y, z'
loop_
 _atom_site_type_symbol
 _atom_site_label
 _atom_site_symmetry_multiplicity
 _atom_site_fract_x
 _atom_site_fract_y
 _atom_site_fract_z
 _atom_site_occupancy
  Y  Y0  1  0.185177  0.290262  0.475438  1
  Y  Y1  1  0.814823  0.709738  0.524562  1
  Y  Y2  1  0.185177  0.709738  0.894916  1
  Y  Y3  1  0.814823  0.290262  0.105084  1
  Y  Y4  1  0.315164  0.618122  0.302958  1
  Y  Y5  1  0.684836  0.381878  0.697042  1
  Y  Y6  1  0.315164  0.012207  0.697042  1
  Y  Y7  1  0.684836  0.987793  0.302958  1
  Y  Y8  1  0.413856  0.215232  0.198624  1
  Y  Y9  1  0.586144  0.784768  0.801376  1
  Y  Y10  1  0.016607  0.215232  0.801376  1
  Y  Y11  1  0.983393  0.784768  0.198624  1
  In  In12  1  0.500000  0.500000  0.000000  1
  Fe  Fe13  1  0.107686  0.607686  0.500000  1
  Fe  Fe14  1  0.892314  0.392314  0.500000  1
  Co  Co15  1  0.382902  0.000000  0.382902  1
  Co  Co16  1  0.617098  0.000000  0.617098  1
  Pt  Pt17  1  0.000000  0.000000  0.000000  1
