# generated using pymatgen
data_Dy3HoB16MoW3
_symmetry_space_group_name_H-M   'P 1'
_cell_length_a   3.62474800
_cell_length_b   6.03850401
_cell_length_c   11.66572501
_cell_angle_alpha   89.99471424
_cell_angle_beta   90.00000000
_cell_angle_gamma   90.00000000
_symmetry_Int_Tables_number   1
_chemical_formula_structural   Dy3HoB16MoW3
_chemical_formula_sum   'Dy3 Ho1 B16 Mo1 W3'
_cell_volume   255.34003339
_cell_formula_units_Z   1
loop_
 _symmetry_equiv_pos_site_id
 _symmetry_equiv_pos_as_xyz
  1  'x, y, z'
loop_
 _atom_site_type_symbol
 _atom_site_label
 _atom_site_symmetry_multiplicity
 _atom_site_fract_x
 _atom_site_fract_y
 _atom_site_fract_z
 _atom_site_occupancy
  Dy  Dy0  1  0.000000  0.627239  0.350615  1
  Dy  Dy1  1  0.000000  0.373189  0.649595  1
  Dy  Dy2  1  0.000000  0.126999  0.149462  1
  Ho  Ho3  1  0.000000  0.872898  0.850209  1
  B  B4  1  0.500000  0.787262  0.186507  1
  B  B5  1  0.500000  0.212378  0.813283  1
  B  B6  1  0.500000  0.287287  0.313427  1
  B  B7  1  0.500000  0.713442  0.686279  1
  B  B8  1  0.500000  0.866607  0.031914  1
  B  B9  1  0.500000  0.133191  0.967915  1
  B  B10  1  0.500000  0.366979  0.468290  1
  B  B11  1  0.500000  0.633609  0.532247  1
  B  B12  1  0.500000  0.885674  0.452764  1
  B  B13  1  0.500000  0.113763  0.547706  1
  B  B14  1  0.500000  0.386020  0.047387  1
  B  B15  1  0.500000  0.614244  0.952457  1
  B  B16  1  0.500000  0.976005  0.306521  1
  B  B17  1  0.500000  0.023064  0.693526  1
  B  B18  1  0.500000  0.476370  0.193429  1
  B  B19  1  0.500000  0.524083  0.806402  1
  Mo  Mo20  1  0.000000  0.869471  0.584198  1
  W  W21  1  0.000000  0.630889  0.084541  1
  W  W22  1  0.000000  0.369094  0.915383  1
  W  W23  1  0.000000  0.130243  0.415944  1
