# generated using pymatgen
data_MnMoRuCl10
_symmetry_space_group_name_H-M   'P 1'
_cell_length_a   9.01402854
_cell_length_b   9.01402816
_cell_length_c   12.88820749
_cell_angle_alpha   87.09529799
_cell_angle_beta   87.09530083
_cell_angle_gamma   138.98550875
_symmetry_Int_Tables_number   1
_chemical_formula_structural   MnMoRuCl10
_chemical_formula_sum   'Mn2 Mo2 Ru2 Cl20'
_cell_volume   679.99832504
_cell_formula_units_Z   2
loop_
 _symmetry_equiv_pos_site_id
 _symmetry_equiv_pos_as_xyz
  1  'x, y, z'
loop_
 _atom_site_type_symbol
 _atom_site_label
 _atom_site_symmetry_multiplicity
 _atom_site_fract_x
 _atom_site_fract_y
 _atom_site_fract_z
 _atom_site_occupancy
  Mn  Mn0  1  0.046465  0.953535  0.750000  1
  Mn  Mn1  1  0.953535  0.046465  0.250000  1
  Mo  Mo2  1  0.269710  0.730290  0.750000  1
  Mo  Mo3  1  0.730290  0.269710  0.250000  1
  Ru  Ru4  1  0.434210  0.565790  0.750000  1
  Ru  Ru5  1  0.565790  0.434210  0.250000  1
  Cl  Cl6  1  0.778464  0.480777  0.373599  1
  Cl  Cl7  1  0.519223  0.221536  0.126401  1
  Cl  Cl8  1  0.221536  0.519223  0.626401  1
  Cl  Cl9  1  0.480777  0.778464  0.873599  1
  Cl  Cl10  1  0.891721  0.786046  0.142785  1
  Cl  Cl11  1  0.213954  0.108279  0.357215  1
  Cl  Cl12  1  0.108279  0.213954  0.857215  1
  Cl  Cl13  1  0.786046  0.891721  0.642785  1
  Cl  Cl14  1  0.071407  0.590452  0.151543  1
  Cl  Cl15  1  0.409548  0.928593  0.348457  1
  Cl  Cl16  1  0.928593  0.409548  0.848457  1
  Cl  Cl17  1  0.590452  0.071407  0.651543  1
  Cl  Cl18  1  0.593963  0.667407  0.351586  1
  Cl  Cl19  1  0.332593  0.406037  0.148414  1
  Cl  Cl20  1  0.406037  0.332593  0.648414  1
  Cl  Cl21  1  0.667407  0.593963  0.851587  1
  Cl  Cl22  1  0.944976  0.264220  0.357973  1
  Cl  Cl23  1  0.735780  0.055024  0.142027  1
  Cl  Cl24  1  0.055024  0.735780  0.642027  1
  Cl  Cl25  1  0.264220  0.944976  0.857973  1
