# generated using pymatgen
data_Bi3Ir3RhPbO14
_symmetry_space_group_name_H-M   'P 1'
_cell_length_a   7.36952400
_cell_length_b   7.36911338
_cell_length_c   7.36952300
_cell_angle_alpha   59.99815672
_cell_angle_beta   60.00000001
_cell_angle_gamma   59.99815153
_symmetry_Int_Tables_number   1
_chemical_formula_structural   Bi3Ir3RhPbO14
_chemical_formula_sum   'Bi3 Ir3 Rh1 Pb1 O14'
_cell_volume   282.98729599
_cell_formula_units_Z   1
loop_
 _symmetry_equiv_pos_site_id
 _symmetry_equiv_pos_as_xyz
  1  'x, y, z'
loop_
 _atom_site_type_symbol
 _atom_site_label
 _atom_site_symmetry_multiplicity
 _atom_site_fract_x
 _atom_site_fract_y
 _atom_site_fract_z
 _atom_site_occupancy
  Bi  Bi0  1  0.125000  0.125000  0.125000  1
  Bi  Bi1  1  0.625000  0.125000  0.125000  1
  Bi  Bi2  1  0.125000  0.125000  0.625000  1
  Ir  Ir3  1  0.625000  0.625000  0.625000  1
  Ir  Ir4  1  0.625000  0.625000  0.125000  1
  Ir  Ir5  1  0.125000  0.625000  0.625000  1
  Rh  Rh6  1  0.625000  0.125000  0.625000  1
  Pb  Pb7  1  0.125000  0.625000  0.125000  1
  O  O8  1  0.251631  0.245106  0.251631  1
  O  O9  1  0.296255  0.704024  0.296255  1
  O  O10  1  0.959904  0.954116  0.542990  1
  O  O11  1  0.542990  0.954116  0.542990  1
  O  O12  1  0.703466  0.704024  0.296255  1
  O  O13  1  0.953745  0.545976  0.546534  1
  O  O14  1  0.707010  0.295884  0.707010  1
  O  O15  1  0.290096  0.295884  0.707010  1
  O  O16  1  0.707010  0.295884  0.290096  1
  O  O17  1  0.296255  0.704024  0.703466  1
  O  O18  1  0.953745  0.545976  0.953745  1
  O  O19  1  0.546534  0.545976  0.953745  1
  O  O20  1  0.998369  0.004894  0.998369  1
  O  O21  1  0.542990  0.954116  0.959904  1
