# generated using pymatgen
data_CaNb6BiSe12
_symmetry_space_group_name_H-M   'P 1'
_cell_length_a   6.09935500
_cell_length_b   6.09935442
_cell_length_c   14.99921400
_cell_angle_alpha   90.00000000
_cell_angle_beta   90.00000000
_cell_angle_gamma   119.99999770
_symmetry_Int_Tables_number   1
_chemical_formula_structural   CaNb6BiSe12
_chemical_formula_sum   'Ca1 Nb6 Bi1 Se12'
_cell_volume   483.24450541
_cell_formula_units_Z   1
loop_
 _symmetry_equiv_pos_site_id
 _symmetry_equiv_pos_as_xyz
  1  'x, y, z'
loop_
 _atom_site_type_symbol
 _atom_site_label
 _atom_site_symmetry_multiplicity
 _atom_site_fract_x
 _atom_site_fract_y
 _atom_site_fract_z
 _atom_site_occupancy
  Ca  Ca0  1  0.000000  0.000000  0.500000  1
  Nb  Nb1  1  0.000000  0.000000  0.753019  1
  Nb  Nb2  1  0.000000  0.000000  0.246981  1
  Nb  Nb3  1  0.333333  0.666667  0.248571  1
  Nb  Nb4  1  0.666667  0.333333  0.751429  1
  Nb  Nb5  1  0.666667  0.333333  0.248571  1
  Nb  Nb6  1  0.333333  0.666667  0.751429  1
  Bi  Bi7  1  0.000000  0.000000  0.000000  1
  Se  Se8  1  0.343145  0.000000  0.137085  1
  Se  Se9  1  0.000000  0.343145  0.137085  1
  Se  Se10  1  0.656855  0.656855  0.137085  1
  Se  Se11  1  0.336002  0.336002  0.640730  1
  Se  Se12  1  0.663998  0.663998  0.359270  1
  Se  Se13  1  0.663998  0.000000  0.640730  1
  Se  Se14  1  0.000000  0.663998  0.640730  1
  Se  Se15  1  0.000000  0.656855  0.862915  1
  Se  Se16  1  0.343145  0.343145  0.862915  1
  Se  Se17  1  0.000000  0.336002  0.359270  1
  Se  Se18  1  0.336002  0.000000  0.359270  1
  Se  Se19  1  0.656855  0.000000  0.862915  1
