# generated using pymatgen
data_Y16Cd3Ni4Ag
_symmetry_space_group_name_H-M   'P 1'
_cell_length_a   9.54134944
_cell_length_b   9.54134946
_cell_length_c   9.54134949
_cell_angle_alpha   60.13871919
_cell_angle_beta   60.13871626
_cell_angle_gamma   60.13871484
_symmetry_Int_Tables_number   1
_chemical_formula_structural   Y16Cd3Ni4Ag
_chemical_formula_sum   'Y16 Cd3 Ni4 Ag1'
_cell_volume   616.13652044
_cell_formula_units_Z   1
loop_
 _symmetry_equiv_pos_site_id
 _symmetry_equiv_pos_as_xyz
  1  'x, y, z'
loop_
 _atom_site_type_symbol
 _atom_site_label
 _atom_site_symmetry_multiplicity
 _atom_site_fract_x
 _atom_site_fract_y
 _atom_site_fract_z
 _atom_site_occupancy
  Y  Y0  1  0.597214  0.597214  0.597214  1
  Y  Y1  1  0.600724  0.600724  0.198872  1
  Y  Y2  1  0.600724  0.198872  0.600724  1
  Y  Y3  1  0.198872  0.600724  0.600724  1
  Y  Y4  1  0.061727  0.440118  0.440118  1
  Y  Y5  1  0.438892  0.061370  0.061370  1
  Y  Y6  1  0.440118  0.061727  0.440118  1
  Y  Y7  1  0.061370  0.438892  0.061370  1
  Y  Y8  1  0.440118  0.440118  0.061727  1
  Y  Y9  1  0.061370  0.061370  0.438892  1
  Y  Y10  1  0.184482  0.813176  0.813176  1
  Y  Y11  1  0.812288  0.186336  0.186336  1
  Y  Y12  1  0.813176  0.184482  0.813176  1
  Y  Y13  1  0.186336  0.812288  0.186336  1
  Y  Y14  1  0.813176  0.813176  0.184482  1
  Y  Y15  1  0.186336  0.186336  0.812288  1
  Cd  Cd16  1  0.831137  0.831137  0.507639  1
  Cd  Cd17  1  0.831137  0.507639  0.831137  1
  Cd  Cd18  1  0.507639  0.831137  0.831137  1
  Ni  Ni19  1  0.393713  0.393713  0.393713  1
  Ni  Ni20  1  0.391951  0.391951  0.823348  1
  Ni  Ni21  1  0.391951  0.823348  0.391951  1
  Ni  Ni22  1  0.823348  0.391951  0.391951  1
  Ag  Ag23  1  0.832203  0.832203  0.832203  1
