# generated using pymatgen
data_Ce2Nd3Er3(Si3Rh)4
_symmetry_space_group_name_H-M   'P 1'
_cell_length_a   8.21041700
_cell_length_b   8.21041701
_cell_length_c   8.14273700
_cell_angle_alpha   90.00000000
_cell_angle_beta   90.00000000
_cell_angle_gamma   119.99999592
_symmetry_Int_Tables_number   1
_chemical_formula_structural   Ce2Nd3Er3(Si3Rh)4
_chemical_formula_sum   'Ce2 Nd3 Er3 Si12 Rh4'
_cell_volume   475.36969110
_cell_formula_units_Z   1
loop_
 _symmetry_equiv_pos_site_id
 _symmetry_equiv_pos_as_xyz
  1  'x, y, z'
loop_
 _atom_site_type_symbol
 _atom_site_label
 _atom_site_symmetry_multiplicity
 _atom_site_fract_x
 _atom_site_fract_y
 _atom_site_fract_z
 _atom_site_occupancy
  Ce  Ce0  1  0.000000  0.000000  0.250000  1
  Ce  Ce1  1  0.000000  0.000000  0.750000  1
  Nd  Nd2  1  0.496464  0.503536  0.250000  1
  Nd  Nd3  1  0.496464  0.992928  0.250000  1
  Nd  Nd4  1  0.007072  0.503536  0.250000  1
  Er  Er5  1  0.507031  0.492969  0.750000  1
  Er  Er6  1  0.985938  0.492969  0.750000  1
  Er  Er7  1  0.507031  0.014062  0.750000  1
  Si  Si8  1  0.834242  0.165758  0.507000  1
  Si  Si9  1  0.834242  0.668485  0.507000  1
  Si  Si10  1  0.331515  0.165758  0.507000  1
  Si  Si11  1  0.834242  0.165758  0.993000  1
  Si  Si12  1  0.834242  0.668485  0.993000  1
  Si  Si13  1  0.331515  0.165758  0.993000  1
  Si  Si14  1  0.167766  0.832234  0.996171  1
  Si  Si15  1  0.664470  0.832234  0.996171  1
  Si  Si16  1  0.167766  0.335530  0.996171  1
  Si  Si17  1  0.167766  0.832234  0.503829  1
  Si  Si18  1  0.664470  0.832234  0.503829  1
  Si  Si19  1  0.167766  0.335530  0.503829  1
  Rh  Rh20  1  0.666667  0.333333  0.500230  1
  Rh  Rh21  1  0.666667  0.333333  0.999770  1
  Rh  Rh22  1  0.333333  0.666667  0.954505  1
  Rh  Rh23  1  0.333333  0.666667  0.545495  1
