# generated using pymatgen
data_ErZn3InRu
_symmetry_space_group_name_H-M   'P 1'
_cell_length_a   5.30707235
_cell_length_b   5.30707133
_cell_length_c   5.30707246
_cell_angle_alpha   59.58447329
_cell_angle_beta   59.58448509
_cell_angle_gamma   59.58446959
_symmetry_Int_Tables_number   1
_chemical_formula_structural   ErZn3InRu
_chemical_formula_sum   'Er1 Zn3 In1 Ru1'
_cell_volume   104.69559930
_cell_formula_units_Z   1
loop_
 _symmetry_equiv_pos_site_id
 _symmetry_equiv_pos_as_xyz
  1  'x, y, z'
loop_
 _atom_site_type_symbol
 _atom_site_label
 _atom_site_symmetry_multiplicity
 _atom_site_fract_x
 _atom_site_fract_y
 _atom_site_fract_z
 _atom_site_occupancy
  Er  Er0  1  0.252618  0.252618  0.252618  1
  Zn  Zn1  1  0.625027  0.625027  0.124899  1
  Zn  Zn2  1  0.625027  0.124899  0.625027  1
  Zn  Zn3  1  0.124899  0.625027  0.625027  1
  In  In4  1  0.997640  0.997640  0.997640  1
  Ru  Ru5  1  0.624788  0.624788  0.624788  1
