# generated using pymatgen
data_CsTh2(Se2S)2
_symmetry_space_group_name_H-M   'P 1'
_cell_length_a   12.45454464
_cell_length_b   12.45454522
_cell_length_c   12.45454527
_cell_angle_alpha   160.53689411
_cell_angle_beta   154.25602463
_cell_angle_gamma   32.47773961
_symmetry_Int_Tables_number   1
_chemical_formula_structural   CsTh2(Se2S)2
_chemical_formula_sum   'Cs1 Th2 Se4 S2'
_cell_volume   279.37975634
_cell_formula_units_Z   1
loop_
 _symmetry_equiv_pos_site_id
 _symmetry_equiv_pos_as_xyz
  1  'x, y, z'
loop_
 _atom_site_type_symbol
 _atom_site_label
 _atom_site_symmetry_multiplicity
 _atom_site_fract_x
 _atom_site_fract_y
 _atom_site_fract_z
 _atom_site_occupancy
  Cs  Cs0  1  0.500000  0.000000  0.500000  1
  Th  Th1  1  0.688211  0.188211  0.500000  1
  Th  Th2  1  0.311789  0.811789  0.500000  1
  Se  Se3  1  0.863289  0.617365  0.245924  1
  Se  Se4  1  0.136711  0.382635  0.754076  1
  Se  Se5  1  0.628557  0.382635  0.245924  1
  Se  Se6  1  0.371443  0.617365  0.754076  1
  S  S7  1  0.768663  0.768663  0.000000  1
  S  S8  1  0.231337  0.231337  0.000000  1
