# generated using pymatgen
data_VNiRh3Se8
_symmetry_space_group_name_H-M   'P 1'
_cell_length_a   6.98979439
_cell_length_b   6.98979541
_cell_length_c   6.98979460
_cell_angle_alpha   63.77631333
_cell_angle_beta   63.77632008
_cell_angle_gamma   63.77631334
_symmetry_Int_Tables_number   1
_chemical_formula_structural   VNiRh3Se8
_chemical_formula_sum   'V1 Ni1 Rh3 Se8'
_cell_volume   261.59861982
_cell_formula_units_Z   1
loop_
 _symmetry_equiv_pos_site_id
 _symmetry_equiv_pos_as_xyz
  1  'x, y, z'
loop_
 _atom_site_type_symbol
 _atom_site_label
 _atom_site_symmetry_multiplicity
 _atom_site_fract_x
 _atom_site_fract_y
 _atom_site_fract_z
 _atom_site_occupancy
  V  V0  1  0.407204  0.407204  0.407204  1
  Ni  Ni1  1  0.987792  0.987792  0.987792  1
  Rh  Rh2  1  0.859049  0.374059  0.374059  1
  Rh  Rh3  1  0.374059  0.859049  0.374059  1
  Rh  Rh4  1  0.374059  0.374059  0.859049  1
  Se  Se5  1  0.126087  0.126087  0.126087  1
  Se  Se6  1  0.593141  0.141167  0.141167  1
  Se  Se7  1  0.141167  0.593141  0.141167  1
  Se  Se8  1  0.141167  0.141167  0.593141  1
  Se  Se9  1  0.618731  0.618731  0.618731  1
  Se  Se10  1  0.115489  0.631028  0.631028  1
  Se  Se11  1  0.631028  0.115489  0.631028  1
  Se  Se12  1  0.631028  0.631028  0.115489  1
