# generated using pymatgen
data_Tb3Dy7(FeTe)4
_symmetry_space_group_name_H-M   'P 1'
_cell_length_a   7.83027730
_cell_length_b   7.83027721
_cell_length_c   15.23848716
_cell_angle_alpha   90.01628165
_cell_angle_beta   89.98371898
_cell_angle_gamma   150.55689932
_symmetry_Int_Tables_number   1
_chemical_formula_structural   Tb3Dy7(FeTe)4
_chemical_formula_sum   'Tb3 Dy7 Fe4 Te4'
_cell_volume   459.27388605
_cell_formula_units_Z   1
loop_
 _symmetry_equiv_pos_site_id
 _symmetry_equiv_pos_as_xyz
  1  'x, y, z'
loop_
 _atom_site_type_symbol
 _atom_site_label
 _atom_site_symmetry_multiplicity
 _atom_site_fract_x
 _atom_site_fract_y
 _atom_site_fract_z
 _atom_site_occupancy
  Tb  Tb0  1  0.961256  0.038744  0.380418  1
  Tb  Tb1  1  0.038689  0.961311  0.619510  1
  Tb  Tb2  1  0.038651  0.961349  0.880596  1
  Dy  Dy3  1  0.961056  0.038944  0.119967  1
  Dy  Dy4  1  0.742405  0.257595  0.630239  1
  Dy  Dy5  1  0.257565  0.742435  0.369741  1
  Dy  Dy6  1  0.257769  0.742231  0.130132  1
  Dy  Dy7  1  0.742414  0.257586  0.869820  1
  Dy  Dy8  1  0.396992  0.603008  0.750065  1
  Dy  Dy9  1  0.602773  0.397227  0.249826  1
  Fe  Fe10  1  0.829559  0.170441  0.249775  1
  Fe  Fe11  1  0.170833  0.829167  0.750009  1
  Fe  Fe12  1  0.407289  0.592711  0.249639  1
  Fe  Fe13  1  0.592827  0.407173  0.750041  1
  Te  Te14  1  0.618302  0.381698  0.039662  1
  Te  Te15  1  0.381598  0.618402  0.960605  1
  Te  Te16  1  0.381457  0.618543  0.539543  1
  Te  Te17  1  0.618563  0.381437  0.460414  1
