# generated using pymatgen
data_LaGaHgPt3
_symmetry_space_group_name_H-M   'P 1'
_cell_length_a   5.61691245
_cell_length_b   5.61691250
_cell_length_c   5.31642809
_cell_angle_alpha   58.11203984
_cell_angle_beta   58.11203787
_cell_angle_gamma   60.00000209
_symmetry_Int_Tables_number   1
_chemical_formula_structural   LaGaHgPt3
_chemical_formula_sum   'La1 Ga1 Hg1 Pt3'
_cell_volume   115.10619983
_cell_formula_units_Z   1
loop_
 _symmetry_equiv_pos_site_id
 _symmetry_equiv_pos_as_xyz
  1  'x, y, z'
loop_
 _atom_site_type_symbol
 _atom_site_label
 _atom_site_symmetry_multiplicity
 _atom_site_fract_x
 _atom_site_fract_y
 _atom_site_fract_z
 _atom_site_occupancy
  La  La0  1  0.245797  0.245797  0.262610  1
  Ga  Ga1  1  0.629640  0.629640  0.111080  1
  Hg  Hg2  1  0.993991  0.993991  0.018027  1
  Pt  Pt3  1  0.627275  0.126024  0.619428  1
  Pt  Pt4  1  0.126024  0.627275  0.619428  1
  Pt  Pt5  1  0.627275  0.627275  0.619428  1
