# generated using pymatgen
data_La5Nd7(PtI3)4
_symmetry_space_group_name_H-M   'P 1'
_cell_length_a   10.96652319
_cell_length_b   10.96220001
_cell_length_c   10.96698461
_cell_angle_alpha   109.69841970
_cell_angle_beta   109.24526230
_cell_angle_gamma   109.37530273
_symmetry_Int_Tables_number   1
_chemical_formula_structural   La5Nd7(PtI3)4
_chemical_formula_sum   'La5 Nd7 Pt4 I12'
_cell_volume   1016.09199714
_cell_formula_units_Z   1
loop_
 _symmetry_equiv_pos_site_id
 _symmetry_equiv_pos_as_xyz
  1  'x, y, z'
loop_
 _atom_site_type_symbol
 _atom_site_label
 _atom_site_symmetry_multiplicity
 _atom_site_fract_x
 _atom_site_fract_y
 _atom_site_fract_z
 _atom_site_occupancy
  La  La0  1  0.482094  0.753493  0.023151  1
  La  La1  1  0.482849  0.229070  0.461853  1
  La  La2  1  0.018175  0.481124  0.750016  1
  La  La3  1  0.267605  0.020753  0.038593  1
  La  La4  1  0.229832  0.268692  0.748100  1
  Nd  Nd5  1  0.456717  0.479781  0.228687  1
  Nd  Nd6  1  0.754379  0.230072  0.272903  1
  Nd  Nd7  1  0.749254  0.019939  0.478961  1
  Nd  Nd8  1  0.229432  0.457005  0.475777  1
  Nd  Nd9  1  0.268707  0.747545  0.230042  1
  Nd  Nd10  1  0.041625  0.271313  0.021678  1
  Nd  Nd11  1  0.020230  0.042025  0.271036  1
  Pt  Pt12  1  0.250497  0.248648  0.249649  1
  Pt  Pt13  1  0.498631  0.000036  0.250067  1
  Pt  Pt14  1  0.000992  0.250920  0.501656  1
  Pt  Pt15  1  0.248544  0.499751  0.998656  1
  I  I16  1  0.250192  0.757169  0.737793  1
  I  I17  1  0.517180  0.510986  0.756898  1
  I  I18  1  0.982301  0.742731  0.996533  1
  I  I19  1  0.742604  0.246233  0.760489  1
  I  I20  1  0.986223  0.982732  0.739886  1
  I  I21  1  0.246188  0.986152  0.503540  1
  I  I22  1  0.757168  0.516777  0.503130  1
  I  I23  1  0.513477  0.254098  0.997022  1
  I  I24  1  0.759839  0.743040  0.253768  1
  I  I25  1  0.745364  0.995306  0.985040  1
  I  I26  1  0.992535  0.507384  0.250232  1
  I  I27  1  0.507364  0.757223  0.514845  1
