# generated using pymatgen
data_NdCr4(CuO4)3
_symmetry_space_group_name_H-M   'P 1'
_cell_length_a   6.43666367
_cell_length_b   6.43668930
_cell_length_c   6.43671015
_cell_angle_alpha   70.55959653
_cell_angle_beta   70.53137451
_cell_angle_gamma   109.50565115
_symmetry_Int_Tables_number   1
_chemical_formula_structural   NdCr4(CuO4)3
_chemical_formula_sum   'Nd1 Cr4 Cu3 O12'
_cell_volume   205.28625012
_cell_formula_units_Z   1
loop_
 _symmetry_equiv_pos_site_id
 _symmetry_equiv_pos_as_xyz
  1  'x, y, z'
loop_
 _atom_site_type_symbol
 _atom_site_label
 _atom_site_symmetry_multiplicity
 _atom_site_fract_x
 _atom_site_fract_y
 _atom_site_fract_z
 _atom_site_occupancy
  Nd  Nd0  1  0.000000  0.999995  0.000008  1
  Cr  Cr1  1  0.999967  0.499993  0.000007  1
  Cr  Cr2  1  0.500003  0.499975  0.499971  1
  Cr  Cr3  1  0.500027  0.000046  0.000001  1
  Cr  Cr4  1  0.000015  0.000010  0.500022  1
  Cu  Cu5  1  0.499982  0.999989  0.500029  1
  Cu  Cu6  1  0.499976  0.500001  0.000012  1
  Cu  Cu7  1  0.000007  0.500023  0.499983  1
  O  O8  1  0.858384  0.690324  0.831943  1
  O  O9  1  0.477734  0.309679  0.831935  1
  O  O10  1  0.522270  0.690321  0.168055  1
  O  O11  1  0.141617  0.309668  0.168054  1
  O  O12  1  0.831985  0.141678  0.690301  1
  O  O13  1  0.831978  0.522281  0.309698  1
  O  O14  1  0.168017  0.477712  0.690303  1
  O  O15  1  0.168023  0.858324  0.309690  1
  O  O16  1  0.309710  0.168047  0.522239  1
  O  O17  1  0.690299  0.168055  0.141645  1
  O  O18  1  0.309707  0.831938  0.858351  1
  O  O19  1  0.690301  0.831942  0.477753  1
