# generated using pymatgen
data_TbPrTlIrO7
_symmetry_space_group_name_H-M   'P 1'
_cell_length_a   6.45836331
_cell_length_b   6.66081911
_cell_length_c   7.63361100
_cell_angle_alpha   90.00000000
_cell_angle_beta   90.00000000
_cell_angle_gamma   110.88589581
_symmetry_Int_Tables_number   1
_chemical_formula_structural   TbPrTlIrO7
_chemical_formula_sum   'Tb2 Pr2 Tl2 Ir2 O14'
_cell_volume   306.80532224
_cell_formula_units_Z   2
loop_
 _symmetry_equiv_pos_site_id
 _symmetry_equiv_pos_as_xyz
  1  'x, y, z'
loop_
 _atom_site_type_symbol
 _atom_site_label
 _atom_site_symmetry_multiplicity
 _atom_site_fract_x
 _atom_site_fract_y
 _atom_site_fract_z
 _atom_site_occupancy
  Tb  Tb0  1  0.953654  0.490427  0.750000  1
  Tb  Tb1  1  0.046346  0.509573  0.250000  1
  Pr  Pr2  1  0.000000  0.000000  0.000000  1
  Pr  Pr3  1  0.000000  0.000000  0.500000  1
  Tl  Tl4  1  0.489693  0.990361  0.750000  1
  Tl  Tl5  1  0.510307  0.009639  0.250000  1
  Ir  Ir6  1  0.500000  0.500000  0.000000  1
  Ir  Ir7  1  0.500000  0.500000  0.500000  1
  O  O8  1  0.587921  0.495007  0.750000  1
  O  O9  1  0.412079  0.504993  0.250000  1
  O  O10  1  0.847269  0.127964  0.750000  1
  O  O11  1  0.152731  0.872036  0.250000  1
  O  O12  1  0.130833  0.854363  0.750000  1
  O  O13  1  0.869167  0.145637  0.250000  1
  O  O14  1  0.431896  0.186106  0.003794  1
  O  O15  1  0.568104  0.813894  0.503794  1
  O  O16  1  0.172960  0.424818  0.968434  1
  O  O17  1  0.827040  0.575182  0.468434  1
  O  O18  1  0.431896  0.186106  0.496206  1
  O  O19  1  0.568104  0.813894  0.996206  1
  O  O20  1  0.827040  0.575182  0.031566  1
  O  O21  1  0.172960  0.424818  0.531566  1
