# generated using pymatgen
data_DyEr(LuZn6)2
_symmetry_space_group_name_H-M   'P 1'
_cell_length_a   4.36374400
_cell_length_b   6.63122770
_cell_length_c   10.01145096
_cell_angle_alpha   90.27110475
_cell_angle_beta   90.00000000
_cell_angle_gamma   90.00000000
_symmetry_Int_Tables_number   1
_chemical_formula_structural   DyEr(LuZn6)2
_chemical_formula_sum   'Dy1 Er1 Lu2 Zn12'
_cell_volume   289.69791391
_cell_formula_units_Z   1
loop_
 _symmetry_equiv_pos_site_id
 _symmetry_equiv_pos_as_xyz
  1  'x, y, z'
loop_
 _atom_site_type_symbol
 _atom_site_label
 _atom_site_symmetry_multiplicity
 _atom_site_fract_x
 _atom_site_fract_y
 _atom_site_fract_z
 _atom_site_occupancy
  Dy  Dy0  1  0.750000  0.720661  0.334893  1
  Er  Er1  1  0.250000  0.279695  0.664869  1
  Lu  Lu2  1  0.250000  0.779238  0.835335  1
  Lu  Lu3  1  0.750000  0.220805  0.164244  1
  Zn  Zn4  1  0.250000  0.535526  0.103077  1
  Zn  Zn5  1  0.250000  0.035049  0.397047  1
  Zn  Zn6  1  0.750000  0.464634  0.896828  1
  Zn  Zn7  1  0.750000  0.965596  0.604127  1
  Zn  Zn8  1  0.250000  0.921192  0.148782  1
  Zn  Zn9  1  0.250000  0.417059  0.350564  1
  Zn  Zn10  1  0.750000  0.079715  0.850212  1
  Zn  Zn11  1  0.750000  0.581830  0.650218  1
  Zn  Zn12  1  0.250000  0.212677  0.958151  1
  Zn  Zn13  1  0.250000  0.717084  0.544398  1
  Zn  Zn14  1  0.750000  0.787595  0.040789  1
  Zn  Zn15  1  0.750000  0.281644  0.456467  1
