# generated using pymatgen
data_La8Pr8Cd4IrPd3
_symmetry_space_group_name_H-M   'P 1'
_cell_length_a   10.13354042
_cell_length_b   10.10041727
_cell_length_c   10.12865600
_cell_angle_alpha   59.90747255
_cell_angle_beta   60.01594333
_cell_angle_gamma   60.35084956
_symmetry_Int_Tables_number   1
_chemical_formula_structural   La8Pr8Cd4IrPd3
_chemical_formula_sum   'La8 Pr8 Cd4 Ir1 Pd3'
_cell_volume   734.55100504
_cell_formula_units_Z   1
loop_
 _symmetry_equiv_pos_site_id
 _symmetry_equiv_pos_as_xyz
  1  'x, y, z'
loop_
 _atom_site_type_symbol
 _atom_site_label
 _atom_site_symmetry_multiplicity
 _atom_site_fract_x
 _atom_site_fract_y
 _atom_site_fract_z
 _atom_site_occupancy
  La  La0  1  0.351913  0.346949  0.348156  1
  La  La1  1  0.351913  0.346949  0.952983  1
  La  La2  1  0.355652  0.950862  0.346743  1
  La  La3  1  0.938516  0.355099  0.353192  1
  La  La4  1  0.805272  0.189235  0.190510  1
  La  La5  1  0.194935  0.808099  0.805591  1
  La  La6  1  0.194935  0.808099  0.191376  1
  La  La7  1  0.805272  0.189235  0.814984  1
  Pr  Pr8  1  0.196857  0.192542  0.805301  1
  Pr  Pr9  1  0.803712  0.810603  0.192843  1
  Pr  Pr10  1  0.938912  0.563285  0.566070  1
  Pr  Pr11  1  0.566677  0.936667  0.933218  1
  Pr  Pr12  1  0.566677  0.936667  0.563439  1
  Pr  Pr13  1  0.938912  0.563285  0.931733  1
  Pr  Pr14  1  0.567304  0.561872  0.935412  1
  Pr  Pr15  1  0.937480  0.933653  0.564433  1
  Cd  Cd16  1  0.580385  0.581947  0.580352  1
  Cd  Cd17  1  0.580385  0.581947  0.257315  1
  Cd  Cd18  1  0.578775  0.257292  0.581966  1
  Cd  Cd19  1  0.258734  0.579339  0.580963  1
  Ir  Ir20  1  0.570789  0.146997  0.141107  1
  Pd  Pd21  1  0.137665  0.143931  0.147757  1
  Pd  Pd22  1  0.137665  0.143931  0.570646  1
  Pd  Pd23  1  0.140659  0.571516  0.143912  1
