# generated using pymatgen
data_Hf5Re23Tc
_symmetry_space_group_name_H-M   'P 1'
_cell_length_a   8.47858843
_cell_length_b   8.46931756
_cell_length_c   8.47708936
_cell_angle_alpha   109.43040808
_cell_angle_beta   109.47472187
_cell_angle_gamma   109.49355710
_symmetry_Int_Tables_number   1
_chemical_formula_structural   Hf5Re23Tc
_chemical_formula_sum   'Hf5 Re23 Tc1'
_cell_volume   468.68059549
_cell_formula_units_Z   1
loop_
 _symmetry_equiv_pos_site_id
 _symmetry_equiv_pos_as_xyz
  1  'x, y, z'
loop_
 _atom_site_type_symbol
 _atom_site_label
 _atom_site_symmetry_multiplicity
 _atom_site_fract_x
 _atom_site_fract_y
 _atom_site_fract_z
 _atom_site_occupancy
  Hf  Hf0  1  0.999815  0.000341  0.000000  1
  Hf  Hf1  1  0.626837  0.998175  0.000000  1
  Hf  Hf2  1  0.000732  0.628393  0.000000  1
  Hf  Hf3  1  0.999690  0.000362  0.628316  1
  Hf  Hf4  1  0.371375  0.372047  0.371684  1
  Re  Re5  1  0.719271  0.323015  0.323068  1
  Re  Re6  1  0.396202  0.999947  0.676932  1
  Re  Re7  1  0.676217  0.396578  0.000000  1
  Re  Re8  1  0.999823  0.395768  0.675783  1
  Re  Re9  1  0.324040  0.719986  0.324217  1
  Re  Re10  1  0.323219  0.322109  0.718500  1
  Re  Re11  1  0.000736  0.677149  0.397183  1
  Re  Re12  1  0.675885  0.998397  0.394673  1
  Re  Re13  1  0.604720  0.603610  0.281500  1
  Re  Re14  1  0.281212  0.603724  0.605327  1
  Re  Re15  1  0.603553  0.279965  0.602817  1
  Re  Re16  1  0.375048  0.195246  0.000000  1
  Re  Re17  1  0.181646  0.806548  0.806472  1
  Re  Re18  1  0.375174  0.000077  0.193528  1
  Re  Re19  1  0.193806  0.376968  0.000000  1
  Re  Re20  1  0.999707  0.375545  0.193444  1
  Re  Re21  1  0.806263  0.182101  0.806556  1
  Re  Re22  1  0.806888  0.805816  0.181900  1
  Re  Re23  1  0.999876  0.193800  0.374960  1
  Re  Re24  1  0.193364  0.999433  0.374948  1
  Re  Re25  1  0.624988  0.623916  0.818100  1
  Re  Re26  1  0.818417  0.624485  0.625052  1
  Re  Re27  1  0.624916  0.818841  0.625040  1
  Tc  Tc28  1  0.396581  0.677658  0.000000  1
