# generated using pymatgen
data_TbY8Er11Pb16
_symmetry_space_group_name_H-M   'P 1'
_cell_length_a   8.18386802
_cell_length_b   8.25957306
_cell_length_c   15.58423716
_cell_angle_alpha   90.00720311
_cell_angle_beta   89.99408571
_cell_angle_gamma   90.05262982
_symmetry_Int_Tables_number   1
_chemical_formula_structural   TbY8Er11Pb16
_chemical_formula_sum   'Tb1 Y8 Er11 Pb16'
_cell_volume   1053.42003947
_cell_formula_units_Z   1
loop_
 _symmetry_equiv_pos_site_id
 _symmetry_equiv_pos_as_xyz
  1  'x, y, z'
loop_
 _atom_site_type_symbol
 _atom_site_label
 _atom_site_symmetry_multiplicity
 _atom_site_fract_x
 _atom_site_fract_y
 _atom_site_fract_z
 _atom_site_occupancy
  Tb  Tb0  1  0.034539  0.176729  0.900094  1
  Y  Y1  1  0.876567  0.659279  0.879379  1
  Y  Y2  1  0.534513  0.322909  0.900218  1
  Y  Y3  1  0.034668  0.176824  0.599726  1
  Y  Y4  1  0.465402  0.676869  0.400137  1
  Y  Y5  1  0.965320  0.823499  0.100303  1
  Y  Y6  1  0.465661  0.676718  0.099889  1
  Y  Y7  1  0.965353  0.823193  0.400118  1
  Y  Y8  1  0.534449  0.323060  0.599767  1
  Er  Er9  1  0.376351  0.840829  0.878927  1
  Er  Er10  1  0.876330  0.658889  0.620909  1
  Er  Er11  1  0.623708  0.158888  0.378986  1
  Er  Er12  1  0.123539  0.341153  0.120904  1
  Er  Er13  1  0.623401  0.158834  0.121334  1
  Er  Er14  1  0.123613  0.340953  0.378978  1
  Er  Er15  1  0.376518  0.841107  0.620839  1
  Er  Er16  1  0.208295  0.504399  0.749813  1
  Er  Er17  1  0.707884  0.995624  0.749761  1
  Er  Er18  1  0.791870  0.495315  0.250118  1
  Er  Er19  1  0.291837  0.004487  0.249941  1
  Pb  Pb20  1  0.282546  0.034127  0.042742  1
  Pb  Pb21  1  0.782588  0.465775  0.457272  1
  Pb  Pb22  1  0.717468  0.965812  0.542634  1
  Pb  Pb23  1  0.219015  0.533743  0.957436  1
  Pb  Pb24  1  0.716604  0.967178  0.957469  1
  Pb  Pb25  1  0.217377  0.534215  0.542635  1
  Pb  Pb26  1  0.282486  0.034271  0.457254  1
  Pb  Pb27  1  0.782223  0.465117  0.043441  1
  Pb  Pb28  1  0.570907  0.627360  0.749660  1
  Pb  Pb29  1  0.071835  0.873281  0.749504  1
  Pb  Pb30  1  0.428571  0.372643  0.250075  1
  Pb  Pb31  1  0.928799  0.127376  0.250029  1
  Pb  Pb32  1  0.345740  0.152351  0.749965  1
  Pb  Pb33  1  0.845561  0.347196  0.749672  1
  Pb  Pb34  1  0.654215  0.847509  0.250029  1
  Pb  Pb35  1  0.154246  0.652486  0.250044  1
