# generated using pymatgen
data_Hf4Mn2CuSi4Pd
_symmetry_space_group_name_H-M   'P 1'
_cell_length_a   3.77946500
_cell_length_b   6.53507603
_cell_length_c   7.55428805
_cell_angle_alpha   90.52333667
_cell_angle_beta   90.00000000
_cell_angle_gamma   90.00000000
_symmetry_Int_Tables_number   1
_chemical_formula_structural   Hf4Mn2CuSi4Pd
_chemical_formula_sum   'Hf4 Mn2 Cu1 Si4 Pd1'
_cell_volume   186.57626569
_cell_formula_units_Z   1
loop_
 _symmetry_equiv_pos_site_id
 _symmetry_equiv_pos_as_xyz
  1  'x, y, z'
loop_
 _atom_site_type_symbol
 _atom_site_label
 _atom_site_symmetry_multiplicity
 _atom_site_fract_x
 _atom_site_fract_y
 _atom_site_fract_z
 _atom_site_occupancy
  Hf  Hf0  1  0.250000  0.527618  0.674883  1
  Hf  Hf1  1  0.750000  0.472204  0.328924  1
  Hf  Hf2  1  0.250000  0.026226  0.816600  1
  Hf  Hf3  1  0.750000  0.975809  0.182953  1
  Mn  Mn4  1  0.750000  0.860192  0.563403  1
  Mn  Mn5  1  0.250000  0.141923  0.436355  1
  Cu  Cu6  1  0.750000  0.351701  0.937302  1
  Si  Si7  1  0.250000  0.263530  0.127490  1
  Si  Si8  1  0.750000  0.739188  0.868407  1
  Si  Si9  1  0.250000  0.774176  0.384241  1
  Si  Si10  1  0.750000  0.227496  0.618475  1
  Pd  Pd11  1  0.250000  0.639938  0.060966  1
