# generated using pymatgen
data_Tb3DyAl18(PtRh)3
_symmetry_space_group_name_H-M   'P 1'
_cell_length_a   7.60097708
_cell_length_b   7.60204874
_cell_length_c   9.44770706
_cell_angle_alpha   89.99143866
_cell_angle_beta   89.98875776
_cell_angle_gamma   119.62490578
_symmetry_Int_Tables_number   1
_chemical_formula_structural   Tb3DyAl18(PtRh)3
_chemical_formula_sum   'Tb3 Dy1 Al18 Pt3 Rh3'
_cell_volume   474.55463736
_cell_formula_units_Z   1
loop_
 _symmetry_equiv_pos_site_id
 _symmetry_equiv_pos_as_xyz
  1  'x, y, z'
loop_
 _atom_site_type_symbol
 _atom_site_label
 _atom_site_symmetry_multiplicity
 _atom_site_fract_x
 _atom_site_fract_y
 _atom_site_fract_z
 _atom_site_occupancy
  Tb  Tb0  1  0.996167  0.669442  0.750144  1
  Tb  Tb1  1  0.006155  0.332466  0.250067  1
  Tb  Tb2  1  0.667493  0.993811  0.749932  1
  Dy  Dy3  1  0.330478  0.003893  0.249802  1
  Al  Al4  1  0.124403  0.125165  0.750711  1
  Al  Al5  1  0.875071  0.875794  0.249288  1
  Al  Al6  1  0.000082  0.330644  0.576275  1
  Al  Al7  1  0.999072  0.669832  0.423142  1
  Al  Al8  1  0.996527  0.665508  0.075211  1
  Al  Al9  1  0.334713  0.003707  0.925326  1
  Al  Al10  1  0.996157  0.330660  0.925060  1
  Al  Al11  1  0.669091  0.003906  0.075249  1
  Al  Al12  1  0.669130  0.999990  0.423423  1
  Al  Al13  1  0.330434  0.001195  0.576305  1
  Al  Al14  1  0.332363  0.328841  0.052802  1
  Al  Al15  1  0.671038  0.667655  0.947685  1
  Al  Al16  1  0.669911  0.669900  0.555347  1
  Al  Al17  1  0.330143  0.329952  0.444197  1
  Al  Al18  1  0.339784  0.543578  0.750547  1
  Al  Al19  1  0.659315  0.451594  0.246541  1
  Al  Al20  1  0.548056  0.340312  0.753481  1
  Al  Al21  1  0.456415  0.660446  0.249433  1
  Pt  Pt22  1  0.671905  0.328107  0.499892  1
  Pt  Pt23  1  0.327448  0.672595  0.499901  1
  Pt  Pt24  1  0.327622  0.672399  0.000077  1
  Rh  Rh25  1  0.671567  0.328355  0.000146  1
  Rh  Rh26  1  0.999555  0.000381  0.499954  1
  Rh  Rh27  1  0.999906  0.999870  0.000063  1
