# generated using pymatgen
data_Be3(BOs)2
_symmetry_space_group_name_H-M   'P 1'
_cell_length_a   5.60112562
_cell_length_b   5.60112521
_cell_length_c   5.81756486
_cell_angle_alpha   98.48151286
_cell_angle_beta   98.48150167
_cell_angle_gamma   43.69262283
_symmetry_Int_Tables_number   1
_chemical_formula_structural   Be3(BOs)2
_chemical_formula_sum   'Be6 B4 Os4'
_cell_volume   124.47556973
_cell_formula_units_Z   2
loop_
 _symmetry_equiv_pos_site_id
 _symmetry_equiv_pos_as_xyz
  1  'x, y, z'
loop_
 _atom_site_type_symbol
 _atom_site_label
 _atom_site_symmetry_multiplicity
 _atom_site_fract_x
 _atom_site_fract_y
 _atom_site_fract_z
 _atom_site_occupancy
  Be  Be0  1  0.076478  0.353684  0.813473  1
  Be  Be1  1  0.646316  0.923522  0.686527  1
  Be  Be2  1  0.923522  0.646316  0.186527  1
  Be  Be3  1  0.353684  0.076478  0.313473  1
  Be  Be4  1  0.839872  0.160128  0.750000  1
  Be  Be5  1  0.160128  0.839872  0.250000  1
  B  B6  1  0.061748  0.742656  0.924920  1
  B  B7  1  0.257344  0.938252  0.575080  1
  B  B8  1  0.938252  0.257344  0.075080  1
  B  B9  1  0.742656  0.061748  0.424920  1
  Os  Os10  1  0.224491  0.547961  0.565821  1
  Os  Os11  1  0.452039  0.775509  0.934179  1
  Os  Os12  1  0.775509  0.452039  0.434179  1
  Os  Os13  1  0.547961  0.224491  0.065821  1
