# generated using pymatgen
data_Ho2Be2AlIr5
_symmetry_space_group_name_H-M   'P 1'
_cell_length_a   9.62117200
_cell_length_b   9.62117200
_cell_length_c   3.21879900
_cell_angle_alpha   90.00000000
_cell_angle_beta   90.00000000
_cell_angle_gamma   90.00000000
_symmetry_Int_Tables_number   1
_chemical_formula_structural   Ho2Be2AlIr5
_chemical_formula_sum   'Ho4 Be4 Al2 Ir10'
_cell_volume   297.95440820
_cell_formula_units_Z   2
loop_
 _symmetry_equiv_pos_site_id
 _symmetry_equiv_pos_as_xyz
  1  'x, y, z'
loop_
 _atom_site_type_symbol
 _atom_site_label
 _atom_site_symmetry_multiplicity
 _atom_site_fract_x
 _atom_site_fract_y
 _atom_site_fract_z
 _atom_site_occupancy
  Ho  Ho0  1  0.676280  0.176280  0.000000  1
  Ho  Ho1  1  0.323720  0.823720  0.000000  1
  Ho  Ho2  1  0.176280  0.323720  0.000000  1
  Ho  Ho3  1  0.823720  0.676280  0.000000  1
  Be  Be4  1  0.122650  0.622650  0.000000  1
  Be  Be5  1  0.877350  0.377350  0.000000  1
  Be  Be6  1  0.622650  0.877350  0.000000  1
  Be  Be7  1  0.377350  0.122650  0.000000  1
  Al  Al8  1  0.000000  0.000000  0.000000  1
  Al  Al9  1  0.500000  0.500000  0.000000  1
  Ir  Ir10  1  0.210941  0.066225  0.500000  1
  Ir  Ir11  1  0.789059  0.933775  0.500000  1
  Ir  Ir12  1  0.066225  0.789059  0.500000  1
  Ir  Ir13  1  0.710941  0.433775  0.500000  1
  Ir  Ir14  1  0.933775  0.210941  0.500000  1
  Ir  Ir15  1  0.289059  0.566225  0.500000  1
  Ir  Ir16  1  0.566225  0.710941  0.500000  1
  Ir  Ir17  1  0.433775  0.289059  0.500000  1
  Ir  Ir18  1  0.500000  0.000000  0.500000  1
  Ir  Ir19  1  0.000000  0.500000  0.500000  1
