# generated using pymatgen
data_Tb5Dy3(PI6)2
_symmetry_space_group_name_H-M   'P 1'
_cell_length_a   4.20894600
_cell_length_b   13.86982416
_cell_length_c   14.66502417
_cell_angle_alpha   89.98264759
_cell_angle_beta   90.00000000
_cell_angle_gamma   90.00000000
_symmetry_Int_Tables_number   1
_chemical_formula_structural   Tb5Dy3(PI6)2
_chemical_formula_sum   'Tb5 Dy3 P2 I12'
_cell_volume   856.10507613
_cell_formula_units_Z   1
loop_
 _symmetry_equiv_pos_site_id
 _symmetry_equiv_pos_as_xyz
  1  'x, y, z'
loop_
 _atom_site_type_symbol
 _atom_site_label
 _atom_site_symmetry_multiplicity
 _atom_site_fract_x
 _atom_site_fract_y
 _atom_site_fract_z
 _atom_site_occupancy
  Tb  Tb0  1  0.500000  0.386909  0.850249  1
  Tb  Tb1  1  0.000000  0.106988  0.571646  1
  Tb  Tb2  1  0.000000  0.893021  0.428348  1
  Tb  Tb3  1  0.000000  0.606946  0.928301  1
  Tb  Tb4  1  0.000000  0.392976  0.071591  1
  Dy  Dy5  1  0.500000  0.112858  0.350548  1
  Dy  Dy6  1  0.500000  0.887144  0.649439  1
  Dy  Dy7  1  0.500000  0.613014  0.149635  1
  P  P8  1  0.500000  0.999998  0.499996  1
  P  P9  1  0.500000  0.500396  0.000518  1
  I  I10  1  0.500000  0.246552  0.161412  1
  I  I11  1  0.500000  0.753477  0.838646  1
  I  I12  1  0.500000  0.746577  0.338662  1
  I  I13  1  0.500000  0.253203  0.661058  1
  I  I14  1  0.000000  0.259263  0.414831  1
  I  I15  1  0.000000  0.740757  0.585158  1
  I  I16  1  0.000000  0.759283  0.085136  1
  I  I17  1  0.000000  0.239924  0.915344  1
  I  I18  1  0.000000  0.999975  0.240458  1
  I  I19  1  0.000000  0.000026  0.759528  1
  I  I20  1  0.000000  0.499945  0.259540  1
  I  I21  1  0.000000  0.500767  0.739958  1
