# generated using pymatgen
data_La8HoIr6
_symmetry_space_group_name_H-M   'P 1'
_cell_length_a   7.76614218
_cell_length_b   7.76614259
_cell_length_c   7.76614336
_cell_angle_alpha   69.98297441
_cell_angle_beta   69.98297424
_cell_angle_gamma   69.98298206
_symmetry_Int_Tables_number   1
_chemical_formula_structural   La8HoIr6
_chemical_formula_sum   'La8 Ho1 Ir6'
_cell_volume   399.84586966
_cell_formula_units_Z   1
loop_
 _symmetry_equiv_pos_site_id
 _symmetry_equiv_pos_as_xyz
  1  'x, y, z'
loop_
 _atom_site_type_symbol
 _atom_site_label
 _atom_site_symmetry_multiplicity
 _atom_site_fract_x
 _atom_site_fract_y
 _atom_site_fract_z
 _atom_site_occupancy
  La  La0  1  0.802919  0.802919  0.802919  1
  La  La1  1  0.197081  0.197081  0.197081  1
  La  La2  1  0.154545  0.388762  0.674395  1
  La  La3  1  0.674395  0.154545  0.388762  1
  La  La4  1  0.388762  0.674395  0.154545  1
  La  La5  1  0.845455  0.611238  0.325605  1
  La  La6  1  0.325605  0.845455  0.611238  1
  La  La7  1  0.611238  0.325605  0.845455  1
  Ho  Ho8  1  0.000000  0.000000  0.000000  1
  Ir  Ir9  1  0.957706  0.164994  0.594727  1
  Ir  Ir10  1  0.594727  0.957706  0.164994  1
  Ir  Ir11  1  0.164994  0.594727  0.957706  1
  Ir  Ir12  1  0.042294  0.835006  0.405273  1
  Ir  Ir13  1  0.405273  0.042294  0.835006  1
  Ir  Ir14  1  0.835006  0.405273  0.042294  1
