# generated using pymatgen
data_Ce2Tm2Al4Ir3Rh
_symmetry_space_group_name_H-M   'P 1'
_cell_length_a   6.81382223
_cell_length_b   4.28637500
_cell_length_c   7.92737042
_cell_angle_alpha   90.00000000
_cell_angle_beta   90.06876846
_cell_angle_gamma   90.00000000
_symmetry_Int_Tables_number   1
_chemical_formula_structural   Ce2Tm2Al4Ir3Rh
_chemical_formula_sum   'Ce2 Tm2 Al4 Ir3 Rh1'
_cell_volume   231.53134854
_cell_formula_units_Z   1
loop_
 _symmetry_equiv_pos_site_id
 _symmetry_equiv_pos_as_xyz
  1  'x, y, z'
loop_
 _atom_site_type_symbol
 _atom_site_label
 _atom_site_symmetry_multiplicity
 _atom_site_fract_x
 _atom_site_fract_y
 _atom_site_fract_z
 _atom_site_occupancy
  Ce  Ce0  1  0.033972  0.750000  0.822094  1
  Ce  Ce1  1  0.533013  0.750000  0.676712  1
  Tm  Tm2  1  0.964830  0.250000  0.184819  1
  Tm  Tm3  1  0.463931  0.250000  0.315673  1
  Al  Al4  1  0.864023  0.250000  0.554236  1
  Al  Al5  1  0.363692  0.250000  0.944300  1
  Al  Al6  1  0.137834  0.750000  0.432957  1
  Al  Al7  1  0.636844  0.750000  0.067547  1
  Ir  Ir8  1  0.238717  0.250000  0.624259  1
  Ir  Ir9  1  0.261133  0.750000  0.117191  1
  Ir  Ir10  1  0.761298  0.750000  0.382209  1
  Rh  Rh11  1  0.740715  0.250000  0.878003  1
