# generated using pymatgen
data_Nd16MgCd(HgPt2)2
_symmetry_space_group_name_H-M   'P 1'
_cell_length_a   9.99005653
_cell_length_b   10.01987202
_cell_length_c   10.01987299
_cell_angle_alpha   60.31348633
_cell_angle_beta   60.15498171
_cell_angle_gamma   60.15499214
_symmetry_Int_Tables_number   1
_chemical_formula_structural   Nd16MgCd(HgPt2)2
_chemical_formula_sum   'Nd16 Mg1 Cd1 Hg2 Pt4'
_cell_volume   712.54771694
_cell_formula_units_Z   1
loop_
 _symmetry_equiv_pos_site_id
 _symmetry_equiv_pos_as_xyz
  1  'x, y, z'
loop_
 _atom_site_type_symbol
 _atom_site_label
 _atom_site_symmetry_multiplicity
 _atom_site_fract_x
 _atom_site_fract_y
 _atom_site_fract_z
 _atom_site_occupancy
  Nd  Nd0  1  0.349336  0.348665  0.348665  1
  Nd  Nd1  1  0.351398  0.350311  0.948417  1
  Nd  Nd2  1  0.351398  0.948417  0.350311  1
  Nd  Nd3  1  0.942534  0.352890  0.352890  1
  Nd  Nd4  1  0.807820  0.193618  0.193618  1
  Nd  Nd5  1  0.188797  0.809633  0.809633  1
  Nd  Nd6  1  0.188922  0.810594  0.192245  1
  Nd  Nd7  1  0.806988  0.192500  0.807647  1
  Nd  Nd8  1  0.188922  0.192245  0.810594  1
  Nd  Nd9  1  0.806988  0.807647  0.192500  1
  Nd  Nd10  1  0.938448  0.564707  0.564707  1
  Nd  Nd11  1  0.560808  0.936412  0.936412  1
  Nd  Nd12  1  0.561954  0.940820  0.564520  1
  Nd  Nd13  1  0.934934  0.563496  0.935546  1
  Nd  Nd14  1  0.561954  0.564520  0.940820  1
  Nd  Nd15  1  0.934934  0.935546  0.563496  1
  Mg  Mg16  1  0.281581  0.571840  0.571840  1
  Cd  Cd17  1  0.581112  0.582201  0.582201  1
  Hg  Hg18  1  0.581469  0.586854  0.246109  1
  Hg  Hg19  1  0.581469  0.246109  0.586854  1
  Pt  Pt20  1  0.142604  0.144613  0.144613  1
  Pt  Pt21  1  0.141955  0.142533  0.571543  1
  Pt  Pt22  1  0.141955  0.571543  0.142533  1
  Pt  Pt23  1  0.571720  0.142283  0.142283  1
