# generated using pymatgen
data_Sc3Al2Ga3Rh
_symmetry_space_group_name_H-M   'P 1'
_cell_length_a   6.67613170
_cell_length_b   6.67613243
_cell_length_c   4.12685700
_cell_angle_alpha   90.00000000
_cell_angle_beta   90.00000000
_cell_angle_gamma   119.74439951
_symmetry_Int_Tables_number   1
_chemical_formula_structural   Sc3Al2Ga3Rh
_chemical_formula_sum   'Sc3 Al2 Ga3 Rh1'
_cell_volume   159.70286487
_cell_formula_units_Z   1
loop_
 _symmetry_equiv_pos_site_id
 _symmetry_equiv_pos_as_xyz
  1  'x, y, z'
loop_
 _atom_site_type_symbol
 _atom_site_label
 _atom_site_symmetry_multiplicity
 _atom_site_fract_x
 _atom_site_fract_y
 _atom_site_fract_z
 _atom_site_occupancy
  Sc  Sc0  1  0.583507  0.999227  0.000000  1
  Sc  Sc1  1  0.999227  0.583507  0.000000  1
  Sc  Sc2  1  0.418208  0.418208  0.000000  1
  Al  Al3  1  0.238006  0.002151  0.500000  1
  Al  Al4  1  0.002151  0.238006  0.500000  1
  Ga  Ga5  1  0.755838  0.755838  0.500000  1
  Ga  Ga6  1  0.331163  0.667096  0.500000  1
  Ga  Ga7  1  0.667096  0.331163  0.500000  1
  Rh  Rh8  1  0.004805  0.004805  0.000000  1
