# generated using pymatgen
data_Ho2PS
_symmetry_space_group_name_H-M   'P 1'
_cell_length_a   6.83335408
_cell_length_b   6.83335364
_cell_length_c   6.83335405
_cell_angle_alpha   33.52902794
_cell_angle_beta   33.52902843
_cell_angle_gamma   33.52904073
_symmetry_Int_Tables_number   1
_chemical_formula_structural   Ho2PS
_chemical_formula_sum   'Ho2 P1 S1'
_cell_volume   86.70977726
_cell_formula_units_Z   1
loop_
 _symmetry_equiv_pos_site_id
 _symmetry_equiv_pos_as_xyz
  1  'x, y, z'
loop_
 _atom_site_type_symbol
 _atom_site_label
 _atom_site_symmetry_multiplicity
 _atom_site_fract_x
 _atom_site_fract_y
 _atom_site_fract_z
 _atom_site_occupancy
  Ho  Ho0  1  0.246858  0.246858  0.246858  1
  Ho  Ho1  1  0.753142  0.753142  0.753142  1
  P  P2  1  0.500000  0.500000  0.500000  1
  S  S3  1  0.000000  0.000000  0.000000  1
