# generated using pymatgen
data_Ca2Tm2Ni13C4
_symmetry_space_group_name_H-M   'P 1'
_cell_length_a   8.33938794
_cell_length_b   8.33938760
_cell_length_c   3.87764200
_cell_angle_alpha   90.00000000
_cell_angle_beta   90.00000000
_cell_angle_gamma   90.55916668
_symmetry_Int_Tables_number   1
_chemical_formula_structural   Ca2Tm2Ni13C4
_chemical_formula_sum   'Ca2 Tm2 Ni13 C4'
_cell_volume   269.65927652
_cell_formula_units_Z   1
loop_
 _symmetry_equiv_pos_site_id
 _symmetry_equiv_pos_as_xyz
  1  'x, y, z'
loop_
 _atom_site_type_symbol
 _atom_site_label
 _atom_site_symmetry_multiplicity
 _atom_site_fract_x
 _atom_site_fract_y
 _atom_site_fract_z
 _atom_site_occupancy
  Ca  Ca0  1  0.351946  0.351946  0.500000  1
  Ca  Ca1  1  0.648054  0.648054  0.500000  1
  Tm  Tm2  1  0.812538  0.187462  0.500000  1
  Tm  Tm3  1  0.187462  0.812538  0.500000  1
  Ni  Ni4  1  0.000000  0.000000  0.000000  1
  Ni  Ni5  1  0.214212  0.574693  0.000000  1
  Ni  Ni6  1  0.785788  0.425307  0.000000  1
  Ni  Ni7  1  0.425307  0.785788  0.000000  1
  Ni  Ni8  1  0.574693  0.214212  0.000000  1
  Ni  Ni9  1  0.000000  0.500000  0.500000  1
  Ni  Ni10  1  0.500000  0.000000  0.500000  1
  Ni  Ni11  1  0.070381  0.288495  0.000000  1
  Ni  Ni12  1  0.929619  0.711505  0.000000  1
  Ni  Ni13  1  0.711505  0.929619  0.000000  1
  Ni  Ni14  1  0.288495  0.070381  0.000000  1
  Ni  Ni15  1  0.121914  0.121914  0.500000  1
  Ni  Ni16  1  0.878086  0.878086  0.500000  1
  C  C17  1  0.000000  0.500000  0.000000  1
  C  C18  1  0.500000  0.000000  0.000000  1
  C  C19  1  0.443368  0.556632  0.000000  1
  C  C20  1  0.556632  0.443368  0.000000  1
