# generated using pymatgen
data_Sr4Sb3Pt4Pb
_symmetry_space_group_name_H-M   'P 1'
_cell_length_a   4.75212800
_cell_length_b   7.77791977
_cell_length_c   8.12355000
_cell_angle_alpha   89.13920346
_cell_angle_beta   90.00000000
_cell_angle_gamma   90.00000000
_symmetry_Int_Tables_number   1
_chemical_formula_structural   Sr4Sb3Pt4Pb
_chemical_formula_sum   'Sr4 Sb3 Pt4 Pb1'
_cell_volume   300.22609137
_cell_formula_units_Z   1
loop_
 _symmetry_equiv_pos_site_id
 _symmetry_equiv_pos_as_xyz
  1  'x, y, z'
loop_
 _atom_site_type_symbol
 _atom_site_label
 _atom_site_symmetry_multiplicity
 _atom_site_fract_x
 _atom_site_fract_y
 _atom_site_fract_z
 _atom_site_occupancy
  Sr  Sr0  1  0.750000  0.990710  0.691253  1
  Sr  Sr1  1  0.250000  0.010823  0.310082  1
  Sr  Sr2  1  0.750000  0.485316  0.803972  1
  Sr  Sr3  1  0.250000  0.512096  0.194588  1
  Sb  Sb4  1  0.750000  0.321372  0.412785  1
  Sb  Sb5  1  0.250000  0.175754  0.916741  1
  Sb  Sb6  1  0.250000  0.675929  0.586160  1
  Pt  Pt7  1  0.250000  0.805370  0.898360  1
  Pt  Pt8  1  0.250000  0.303520  0.590005  1
  Pt  Pt9  1  0.750000  0.692438  0.419173  1
  Pt  Pt10  1  0.750000  0.205524  0.091747  1
  Pb  Pb11  1  0.750000  0.821148  0.085135  1
