# generated using pymatgen
data_YbLu2Sc(Ga2Ag)4
_symmetry_space_group_name_H-M   'P 1'
_cell_length_a   4.29682400
_cell_length_b   6.89201591
_cell_length_c   10.20245118
_cell_angle_alpha   90.12019044
_cell_angle_beta   90.00000000
_cell_angle_gamma   90.00000000
_symmetry_Int_Tables_number   1
_chemical_formula_structural   YbLu2Sc(Ga2Ag)4
_chemical_formula_sum   'Yb1 Lu2 Sc1 Ga8 Ag4'
_cell_volume   302.13247385
_cell_formula_units_Z   1
loop_
 _symmetry_equiv_pos_site_id
 _symmetry_equiv_pos_as_xyz
  1  'x, y, z'
loop_
 _atom_site_type_symbol
 _atom_site_label
 _atom_site_symmetry_multiplicity
 _atom_site_fract_x
 _atom_site_fract_y
 _atom_site_fract_z
 _atom_site_occupancy
  Yb  Yb0  1  0.250000  0.273307  0.674981  1
  Lu  Lu1  1  0.250000  0.774909  0.824916  1
  Lu  Lu2  1  0.750000  0.225033  0.176263  1
  Sc  Sc3  1  0.750000  0.724269  0.325803  1
  Ga  Ga4  1  0.250000  0.707972  0.531682  1
  Ga  Ga5  1  0.750000  0.306207  0.463276  1
  Ga  Ga6  1  0.750000  0.792689  0.040390  1
  Ga  Ga7  1  0.250000  0.191505  0.968160  1
  Ga  Ga8  1  0.250000  0.924178  0.161466  1
  Ga  Ga9  1  0.750000  0.064001  0.848478  1
  Ga  Ga10  1  0.750000  0.571969  0.651647  1
  Ga  Ga11  1  0.250000  0.440557  0.340495  1
  Ag  Ag12  1  0.250000  0.543258  0.093488  1
  Ag  Ag13  1  0.750000  0.451628  0.901851  1
  Ag  Ag14  1  0.750000  0.957181  0.594184  1
  Ag  Ag15  1  0.250000  0.051337  0.402919  1
