# generated using pymatgen
data_ErTm7Tc(B8Ru)3
_symmetry_space_group_name_H-M   'P 1'
_cell_length_a   3.62737400
_cell_length_b   9.07024620
_cell_length_c   11.44720813
_cell_angle_alpha   89.92713745
_cell_angle_beta   90.00000000
_cell_angle_gamma   90.00000000
_symmetry_Int_Tables_number   1
_chemical_formula_structural   ErTm7Tc(B8Ru)3
_chemical_formula_sum   'Er1 Tm7 Tc1 B24 Ru3'
_cell_volume   376.62629621
_cell_formula_units_Z   1
loop_
 _symmetry_equiv_pos_site_id
 _symmetry_equiv_pos_as_xyz
  1  'x, y, z'
loop_
 _atom_site_type_symbol
 _atom_site_label
 _atom_site_symmetry_multiplicity
 _atom_site_fract_x
 _atom_site_fract_y
 _atom_site_fract_z
 _atom_site_occupancy
  Er  Er0  1  0.000000  0.324031  0.413255  1
  Tm  Tm1  1  0.000000  0.677223  0.583359  1
  Tm  Tm2  1  0.000000  0.820011  0.088236  1
  Tm  Tm3  1  0.000000  0.177639  0.915119  1
  Tm  Tm4  1  0.000000  0.943354  0.372267  1
  Tm  Tm5  1  0.000000  0.056906  0.628379  1
  Tm  Tm6  1  0.000000  0.444489  0.127975  1
  Tm  Tm7  1  0.000000  0.556492  0.871540  1
  Tc  Tc8  1  0.000000  0.638039  0.320919  1
  B  B9  1  0.500000  0.552945  0.433640  1
  B  B10  1  0.500000  0.446578  0.567039  1
  B  B11  1  0.500000  0.053420  0.066596  1
  B  B12  1  0.500000  0.946362  0.933658  1
  B  B13  1  0.500000  0.748794  0.419941  1
  B  B14  1  0.500000  0.251531  0.580295  1
  B  B15  1  0.500000  0.248722  0.079793  1
  B  B16  1  0.500000  0.751111  0.920049  1
  B  B17  1  0.500000  0.792386  0.265591  1
  B  B18  1  0.500000  0.208236  0.734439  1
  B  B19  1  0.500000  0.291598  0.233555  1
  B  B20  1  0.500000  0.708631  0.765475  1
  B  B21  1  0.500000  0.631243  0.184901  1
  B  B22  1  0.500000  0.368424  0.815470  1
  B  B23  1  0.500000  0.131340  0.314764  1
  B  B24  1  0.500000  0.869010  0.684641  1
  B  B25  1  0.500000  0.982231  0.212620  1
  B  B26  1  0.500000  0.017701  0.787637  1
  B  B27  1  0.500000  0.481669  0.287172  1
  B  B28  1  0.500000  0.517537  0.712696  1
  B  B29  1  0.500000  0.606264  0.028824  1
  B  B30  1  0.500000  0.393251  0.970222  1
  B  B31  1  0.500000  0.106622  0.470818  1
  B  B32  1  0.500000  0.894501  0.529821  1
  Ru  Ru33  1  0.000000  0.361820  0.679763  1
  Ru  Ru34  1  0.000000  0.137573  0.178502  1
  Ru  Ru35  1  0.000000  0.862314  0.821029  1
