# generated using pymatgen
data_TbEr3ReTcC4
_symmetry_space_group_name_H-M   'P 1'
_cell_length_a   5.07220800
_cell_length_b   6.55957800
_cell_length_c   9.82234200
_cell_angle_alpha   90.00000000
_cell_angle_beta   90.00000000
_cell_angle_gamma   90.00000000
_symmetry_Int_Tables_number   1
_chemical_formula_structural   TbEr3ReTcC4
_chemical_formula_sum   'Tb2 Er6 Re2 Tc2 C8'
_cell_volume   326.80448412
_cell_formula_units_Z   2
loop_
 _symmetry_equiv_pos_site_id
 _symmetry_equiv_pos_as_xyz
  1  'x, y, z'
loop_
 _atom_site_type_symbol
 _atom_site_label
 _atom_site_symmetry_multiplicity
 _atom_site_fract_x
 _atom_site_fract_y
 _atom_site_fract_z
 _atom_site_occupancy
  Tb  Tb0  1  0.750000  0.966497  0.714829  1
  Tb  Tb1  1  0.250000  0.533503  0.214829  1
  Er  Er2  1  0.750000  0.825567  0.057102  1
  Er  Er3  1  0.250000  0.674433  0.557102  1
  Er  Er4  1  0.750000  0.322738  0.441497  1
  Er  Er5  1  0.250000  0.177262  0.941497  1
  Er  Er6  1  0.750000  0.465548  0.783836  1
  Er  Er7  1  0.250000  0.034452  0.283836  1
  Re  Re8  1  0.750000  0.781663  0.367101  1
  Re  Re9  1  0.250000  0.718337  0.867101  1
  Tc  Tc10  1  0.750000  0.281296  0.133154  1
  Tc  Tc11  1  0.250000  0.218704  0.633154  1
  C  C12  1  0.750000  0.177019  0.950455  1
  C  C13  1  0.250000  0.826567  0.050253  1
  C  C14  1  0.750000  0.673433  0.550253  1
  C  C15  1  0.250000  0.322981  0.450455  1
  C  C16  1  0.750000  0.048142  0.260072  1
  C  C17  1  0.250000  0.451858  0.760072  1
  C  C18  1  0.750000  0.550290  0.241702  1
  C  C19  1  0.250000  0.949710  0.741702  1
