# generated using pymatgen
data_Tb6DyP12Rh17
_symmetry_space_group_name_H-M   'P 1'
_cell_length_a   3.95314400
_cell_length_b   11.25805700
_cell_length_c   12.89856600
_cell_angle_alpha   90.00000000
_cell_angle_beta   90.00000000
_cell_angle_gamma   90.00000000
_symmetry_Int_Tables_number   1
_chemical_formula_structural   Tb6DyP12Rh17
_chemical_formula_sum   'Tb6 Dy1 P12 Rh17'
_cell_volume   574.04707444
_cell_formula_units_Z   1
loop_
 _symmetry_equiv_pos_site_id
 _symmetry_equiv_pos_as_xyz
  1  'x, y, z'
loop_
 _atom_site_type_symbol
 _atom_site_label
 _atom_site_symmetry_multiplicity
 _atom_site_fract_x
 _atom_site_fract_y
 _atom_site_fract_z
 _atom_site_occupancy
  Tb  Tb0  1  0.000000  0.500000  0.523089  1
  Tb  Tb1  1  0.500000  0.000000  0.478020  1
  Tb  Tb2  1  0.500000  0.818600  0.206690  1
  Tb  Tb3  1  0.500000  0.181400  0.206690  1
  Tb  Tb4  1  0.000000  0.683268  0.796542  1
  Tb  Tb5  1  0.000000  0.316732  0.796542  1
  Dy  Dy6  1  0.500000  0.500000  0.156191  1
  P  P7  1  0.500000  0.500000  0.877650  1
  P  P8  1  0.000000  0.000000  0.121137  1
  P  P9  1  0.500000  0.500000  0.365445  1
  P  P10  1  0.000000  0.000000  0.648384  1
  P  P11  1  0.500000  0.313757  0.619327  1
  P  P12  1  0.500000  0.686243  0.619327  1
  P  P13  1  0.000000  0.185766  0.384738  1
  P  P14  1  0.000000  0.814234  0.384738  1
  P  P15  1  0.500000  0.851437  0.888258  1
  P  P16  1  0.500000  0.148563  0.888258  1
  P  P17  1  0.000000  0.665211  0.104216  1
  P  P18  1  0.000000  0.334789  0.104216  1
  Rh  Rh19  1  0.000000  0.000000  0.828445  1
  Rh  Rh20  1  0.500000  0.500000  0.700785  1
  Rh  Rh21  1  0.000000  0.000000  0.299096  1
  Rh  Rh22  1  0.000000  0.500000  0.979917  1
  Rh  Rh23  1  0.500000  0.000000  0.021036  1
  Rh  Rh24  1  0.500000  0.327124  0.985876  1
  Rh  Rh25  1  0.500000  0.672876  0.985876  1
  Rh  Rh26  1  0.000000  0.162002  0.003901  1
  Rh  Rh27  1  0.000000  0.837998  0.003901  1
  Rh  Rh28  1  0.500000  0.288140  0.435425  1
  Rh  Rh29  1  0.500000  0.711860  0.435425  1
  Rh  Rh30  1  0.000000  0.203654  0.572164  1
  Rh  Rh31  1  0.000000  0.796346  0.572164  1
  Rh  Rh32  1  0.500000  0.875219  0.709195  1
  Rh  Rh33  1  0.500000  0.124781  0.709195  1
  Rh  Rh34  1  0.000000  0.629024  0.294072  1
  Rh  Rh35  1  0.000000  0.370976  0.294072  1
