# generated using pymatgen
data_Er5Si4Ge2P6Ir19
_symmetry_space_group_name_H-M   'P 1'
_cell_length_a   12.83132128
_cell_length_b   12.84809139
_cell_length_c   3.95437700
_cell_angle_alpha   90.00000000
_cell_angle_beta   90.00000000
_cell_angle_gamma   120.03868173
_symmetry_Int_Tables_number   1
_chemical_formula_structural   Er5Si4Ge2P6Ir19
_chemical_formula_sum   'Er5 Si4 Ge2 P6 Ir19'
_cell_volume   564.35098479
_cell_formula_units_Z   1
loop_
 _symmetry_equiv_pos_site_id
 _symmetry_equiv_pos_as_xyz
  1  'x, y, z'
loop_
 _atom_site_type_symbol
 _atom_site_label
 _atom_site_symmetry_multiplicity
 _atom_site_fract_x
 _atom_site_fract_y
 _atom_site_fract_z
 _atom_site_occupancy
  Er  Er0  1  0.666820  0.333065  0.000000  1
  Er  Er1  1  0.332604  0.665118  0.000000  1
  Er  Er2  1  0.821600  0.819006  0.500000  1
  Er  Er3  1  0.181376  0.002141  0.500000  1
  Er  Er4  1  0.998131  0.182759  0.500000  1
  Si  Si5  1  0.681604  0.162259  0.500000  1
  Si  Si6  1  0.838922  0.518564  0.500000  1
  Si  Si7  1  0.479887  0.319857  0.500000  1
  Si  Si8  1  0.999793  0.363705  0.000000  1
  Ge  Ge9  1  0.639040  0.639797  0.000000  1
  Ge  Ge10  1  0.360999  0.998927  0.000000  1
  P  P11  1  0.179202  0.692928  0.500000  1
  P  P12  1  0.516026  0.821067  0.500000  1
  P  P13  1  0.303650  0.483065  0.500000  1
  P  P14  1  0.174766  0.180050  0.000000  1
  P  P15  1  0.821466  0.997591  0.000000  1
  P  P16  1  0.004301  0.822699  0.000000  1
  Ir  Ir17  1  0.812186  0.176850  0.000000  1
  Ir  Ir18  1  0.826868  0.632442  0.000000  1
  Ir  Ir19  1  0.365206  0.193539  0.000000  1
  Ir  Ir20  1  0.178692  0.791821  0.000000  1
  Ir  Ir21  1  0.615472  0.823131  0.000000  1
  Ir  Ir22  1  0.198748  0.381942  0.000000  1
  Ir  Ir23  1  0.456692  0.439771  0.000000  1
  Ir  Ir24  1  0.562552  0.020694  0.000000  1
  Ir  Ir25  1  0.983224  0.539891  0.000000  1
  Ir  Ir26  1  0.275889  0.283841  0.500000  1
  Ir  Ir27  1  0.719269  0.996236  0.500000  1
  Ir  Ir28  1  0.006051  0.722476  0.500000  1
  Ir  Ir29  1  0.867651  0.351486  0.500000  1
  Ir  Ir30  1  0.648988  0.512290  0.500000  1
  Ir  Ir31  1  0.487502  0.137624  0.500000  1
  Ir  Ir32  1  0.369398  0.869918  0.500000  1
  Ir  Ir33  1  0.500444  0.631041  0.500000  1
  Ir  Ir34  1  0.124974  0.493857  0.500000  1
  Ir  Ir35  1  0.000008  0.998555  0.000000  1
