# generated using pymatgen
data_Zr2V2ReW
_symmetry_space_group_name_H-M   'P 1'
_cell_length_a   5.25851683
_cell_length_b   5.30700802
_cell_length_c   5.25851704
_cell_angle_alpha   119.96789262
_cell_angle_beta   119.44653068
_cell_angle_gamma   90.24231310
_symmetry_Int_Tables_number   1
_chemical_formula_structural   Zr2V2ReW
_chemical_formula_sum   'Zr2 V2 Re1 W1'
_cell_volume   104.46131173
_cell_formula_units_Z   1
loop_
 _symmetry_equiv_pos_site_id
 _symmetry_equiv_pos_as_xyz
  1  'x, y, z'
loop_
 _atom_site_type_symbol
 _atom_site_label
 _atom_site_symmetry_multiplicity
 _atom_site_fract_x
 _atom_site_fract_y
 _atom_site_fract_z
 _atom_site_occupancy
  Zr  Zr0  1  0.375007  0.125800  0.250792  1
  Zr  Zr1  1  0.624993  0.874200  0.749208  1
  V  V2  1  0.500000  0.500000  0.000000  1
  V  V3  1  0.000000  0.500000  0.500000  1
  Re  Re4  1  0.000000  0.500000  0.000000  1
  W  W5  1  0.000000  0.000000  0.500000  1
