# generated using pymatgen
data_HfZrCo2SiP
_symmetry_space_group_name_H-M   'P 1'
_cell_length_a   3.73844700
_cell_length_b   6.35613500
_cell_length_c   7.14109000
_cell_angle_alpha   90.00000000
_cell_angle_beta   90.00000000
_cell_angle_gamma   90.00000000
_symmetry_Int_Tables_number   1
_chemical_formula_structural   HfZrCo2SiP
_chemical_formula_sum   'Hf2 Zr2 Co4 Si2 P2'
_cell_volume   169.68710775
_cell_formula_units_Z   2
loop_
 _symmetry_equiv_pos_site_id
 _symmetry_equiv_pos_as_xyz
  1  'x, y, z'
loop_
 _atom_site_type_symbol
 _atom_site_label
 _atom_site_symmetry_multiplicity
 _atom_site_fract_x
 _atom_site_fract_y
 _atom_site_fract_z
 _atom_site_occupancy
  Hf  Hf0  1  0.750000  0.981017  0.183181  1
  Hf  Hf1  1  0.750000  0.481017  0.316819  1
  Zr  Zr2  1  0.250000  0.014160  0.812745  1
  Zr  Zr3  1  0.250000  0.514160  0.687255  1
  Co  Co4  1  0.250000  0.144722  0.438185  1
  Co  Co5  1  0.250000  0.644722  0.061815  1
  Co  Co6  1  0.750000  0.860771  0.562508  1
  Co  Co7  1  0.750000  0.360771  0.937492  1
  Si  Si8  1  0.250000  0.777053  0.387694  1
  Si  Si9  1  0.250000  0.277053  0.112306  1
  P  P10  1  0.750000  0.222278  0.611143  1
  P  P11  1  0.750000  0.722278  0.888857  1
