# generated using pymatgen
data_Ho4Pa(FeB3)2
_symmetry_space_group_name_H-M   'P 1'
_cell_length_a   5.41140768
_cell_length_b   5.41140714
_cell_length_c   7.90701220
_cell_angle_alpha   69.98961807
_cell_angle_beta   69.98962388
_cell_angle_gamma   59.99998135
_symmetry_Int_Tables_number   1
_chemical_formula_structural   Ho4Pa(FeB3)2
_chemical_formula_sum   'Ho4 Pa1 Fe2 B6'
_cell_volume   184.20538489
_cell_formula_units_Z   1
loop_
 _symmetry_equiv_pos_site_id
 _symmetry_equiv_pos_as_xyz
  1  'x, y, z'
loop_
 _atom_site_type_symbol
 _atom_site_label
 _atom_site_symmetry_multiplicity
 _atom_site_fract_x
 _atom_site_fract_y
 _atom_site_fract_z
 _atom_site_occupancy
  Ho  Ho0  1  0.254295  0.254295  0.237117  1
  Ho  Ho1  1  0.745705  0.745705  0.762883  1
  Ho  Ho2  1  0.412833  0.412833  0.761499  1
  Ho  Ho3  1  0.587167  0.587167  0.238501  1
  Pa  Pa4  1  0.000000  0.000000  0.000000  1
  Fe  Fe5  1  0.108150  0.108150  0.675552  1
  Fe  Fe6  1  0.891850  0.891850  0.324448  1
  B  B7  1  0.167274  0.832726  0.500000  1
  B  B8  1  0.832726  0.500000  0.500000  1
  B  B9  1  0.500000  0.167274  0.500000  1
  B  B10  1  0.167274  0.500000  0.500000  1
  B  B11  1  0.500000  0.832726  0.500000  1
  B  B12  1  0.832726  0.167274  0.500000  1
