# generated using pymatgen
data_Tb19Y(SiBi2)4
_symmetry_space_group_name_H-M   'P 1'
_cell_length_a   12.15553392
_cell_length_b   9.21221600
_cell_length_c   8.10426261
_cell_angle_alpha   90.00000000
_cell_angle_beta   89.95539956
_cell_angle_gamma   90.00000000
_symmetry_Int_Tables_number   1
_chemical_formula_structural   Tb19Y(SiBi2)4
_chemical_formula_sum   'Tb19 Y1 Si4 Bi8'
_cell_volume   907.51022300
_cell_formula_units_Z   1
loop_
 _symmetry_equiv_pos_site_id
 _symmetry_equiv_pos_as_xyz
  1  'x, y, z'
loop_
 _atom_site_type_symbol
 _atom_site_label
 _atom_site_symmetry_multiplicity
 _atom_site_fract_x
 _atom_site_fract_y
 _atom_site_fract_z
 _atom_site_occupancy
  Tb  Tb0  1  0.063505  0.551773  0.820023  1
  Tb  Tb1  1  0.563496  0.948048  0.680115  1
  Tb  Tb2  1  0.936593  0.051628  0.180194  1
  Tb  Tb3  1  0.436485  0.448288  0.319920  1
  Tb  Tb4  1  0.936593  0.448372  0.180194  1
  Tb  Tb5  1  0.436485  0.051712  0.319920  1
  Tb  Tb6  1  0.063505  0.948227  0.820023  1
  Tb  Tb7  1  0.563496  0.551952  0.680115  1
  Tb  Tb8  1  0.500994  0.750000  0.039957  1
  Tb  Tb9  1  0.999019  0.250000  0.540003  1
  Tb  Tb10  1  0.499053  0.250000  0.959885  1
  Tb  Tb11  1  0.211551  0.750000  0.164148  1
  Tb  Tb12  1  0.711453  0.750000  0.335557  1
  Tb  Tb13  1  0.788495  0.250000  0.835636  1
  Tb  Tb14  1  0.288404  0.250000  0.664497  1
  Tb  Tb15  1  0.295384  0.750000  0.635106  1
  Tb  Tb16  1  0.795446  0.750000  0.864738  1
  Tb  Tb17  1  0.704612  0.250000  0.364861  1
  Tb  Tb18  1  0.204528  0.250000  0.135022  1
  Y  Y19  1  0.000753  0.750000  0.459500  1
  Si  Si20  1  0.480042  0.750000  0.414678  1
  Si  Si21  1  0.980210  0.750000  0.086315  1
  Si  Si22  1  0.520048  0.250000  0.585428  1
  Si  Si23  1  0.019857  0.250000  0.914578  1
  Bi  Bi24  1  0.325877  0.510816  0.931457  1
  Bi  Bi25  1  0.826158  0.988802  0.568352  1
  Bi  Bi26  1  0.674118  0.010760  0.068545  1
  Bi  Bi27  1  0.173842  0.489614  0.431441  1
  Bi  Bi28  1  0.674118  0.489240  0.068545  1
  Bi  Bi29  1  0.173842  0.010386  0.431441  1
  Bi  Bi30  1  0.325877  0.989184  0.931457  1
  Bi  Bi31  1  0.826158  0.511198  0.568352  1
