# generated using pymatgen
data_Lu7ScV11Si16Ir
_symmetry_space_group_name_H-M   'P 1'
_cell_length_a   6.73281295
_cell_length_b   6.73353047
_cell_length_c   12.44957840
_cell_angle_alpha   90.07321045
_cell_angle_beta   89.94956225
_cell_angle_gamma   89.64978359
_symmetry_Int_Tables_number   1
_chemical_formula_structural   Lu7ScV11Si16Ir
_chemical_formula_sum   'Lu7 Sc1 V11 Si16 Ir1'
_cell_volume   564.39789354
_cell_formula_units_Z   1
loop_
 _symmetry_equiv_pos_site_id
 _symmetry_equiv_pos_as_xyz
  1  'x, y, z'
loop_
 _atom_site_type_symbol
 _atom_site_label
 _atom_site_symmetry_multiplicity
 _atom_site_fract_x
 _atom_site_fract_y
 _atom_site_fract_z
 _atom_site_occupancy
  Lu  Lu0  1  0.999551  0.663157  0.029344  1
  Lu  Lu1  1  0.836368  0.498632  0.280371  1
  Lu  Lu2  1  0.163102  0.498914  0.779408  1
  Lu  Lu3  1  0.498862  0.836367  0.720355  1
  Lu  Lu4  1  0.499246  0.162884  0.220368  1
  Lu  Lu5  1  0.001270  0.336064  0.529208  1
  Lu  Lu6  1  0.663198  0.999639  0.970768  1
  Sc  Sc7  1  0.338954  0.997517  0.469845  1
  V  V8  1  0.171593  0.833127  0.248254  1
  V  V9  1  0.833044  0.170829  0.751652  1
  V  V10  1  0.668433  0.669299  0.499914  1
  V  V11  1  0.999950  0.154301  0.127995  1
  V  V12  1  0.343178  0.506441  0.374952  1
  V  V13  1  0.667795  0.494335  0.874195  1
  V  V14  1  0.504650  0.343377  0.624673  1
  V  V15  1  0.494050  0.668205  0.126171  1
  V  V16  1  0.992162  0.842978  0.625026  1
  V  V17  1  0.154510  0.999812  0.872252  1
  V  V18  1  0.841674  0.993116  0.374623  1
  Si  Si19  1  0.285419  0.961007  0.062767  1
  Si  Si20  1  0.537831  0.792786  0.316950  1
  Si  Si21  1  0.460186  0.209376  0.814611  1
  Si  Si22  1  0.790842  0.538974  0.684231  1
  Si  Si23  1  0.209261  0.459513  0.185537  1
  Si  Si24  1  0.706391  0.040491  0.564460  1
  Si  Si25  1  0.961012  0.285440  0.937233  1
  Si  Si26  1  0.042999  0.712422  0.434768  1
  Si  Si27  1  0.700654  0.377814  0.067092  1
  Si  Si28  1  0.129777  0.198452  0.318770  1
  Si  Si29  1  0.873167  0.797280  0.815429  1
  Si  Si30  1  0.202164  0.126379  0.681697  1
  Si  Si31  1  0.796999  0.872905  0.184779  1
  Si  Si32  1  0.298308  0.629767  0.565654  1
  Si  Si33  1  0.377689  0.700629  0.933035  1
  Si  Si34  1  0.623616  0.295610  0.433553  1
  Ir  Ir35  1  0.332099  0.332163  0.000061  1
