# generated using pymatgen
data_Ho5TmCo16(P6Os)2
_symmetry_space_group_name_H-M   'P 1'
_cell_length_a   3.71023200
_cell_length_b   10.48445884
_cell_length_c   12.21932297
_cell_angle_alpha   89.95425005
_cell_angle_beta   90.00000000
_cell_angle_gamma   90.00000000
_symmetry_Int_Tables_number   1
_chemical_formula_structural   Ho5TmCo16(P6Os)2
_chemical_formula_sum   'Ho5 Tm1 Co16 P12 Os2'
_cell_volume   475.32875883
_cell_formula_units_Z   1
loop_
 _symmetry_equiv_pos_site_id
 _symmetry_equiv_pos_as_xyz
  1  'x, y, z'
loop_
 _atom_site_type_symbol
 _atom_site_label
 _atom_site_symmetry_multiplicity
 _atom_site_fract_x
 _atom_site_fract_y
 _atom_site_fract_z
 _atom_site_occupancy
  Ho  Ho0  1  0.000000  0.499872  0.525159  1
  Ho  Ho1  1  0.500000  0.999995  0.475118  1
  Ho  Ho2  1  0.500000  0.817358  0.206942  1
  Ho  Ho3  1  0.500000  0.182648  0.207257  1
  Ho  Ho4  1  0.000000  0.682430  0.792846  1
  Tm  Tm5  1  0.000000  0.317610  0.792794  1
  Co  Co6  1  0.500000  0.499321  0.703818  1
  Co  Co7  1  0.000000  0.000209  0.296344  1
  Co  Co8  1  0.000000  0.499546  0.986641  1
  Co  Co9  1  0.500000  0.000455  0.012686  1
  Co  Co10  1  0.500000  0.332500  0.989365  1
  Co  Co11  1  0.500000  0.667153  0.989874  1
  Co  Co12  1  0.000000  0.167808  0.009656  1
  Co  Co13  1  0.000000  0.832618  0.009792  1
  Co  Co14  1  0.500000  0.297602  0.431543  1
  Co  Co15  1  0.500000  0.702256  0.431038  1
  Co  Co16  1  0.000000  0.202421  0.569529  1
  Co  Co17  1  0.000000  0.797570  0.568985  1
  Co  Co18  1  0.500000  0.879357  0.708403  1
  Co  Co19  1  0.500000  0.121480  0.708827  1
  Co  Co20  1  0.000000  0.620762  0.291458  1
  Co  Co21  1  0.000000  0.379189  0.291896  1
  P  P22  1  0.500000  0.499413  0.880356  1
  P  P23  1  0.000000  0.000243  0.119081  1
  P  P24  1  0.500000  0.499960  0.351348  1
  P  P25  1  0.000000  0.999917  0.648792  1
  P  P26  1  0.500000  0.312102  0.617047  1
  P  P27  1  0.500000  0.687695  0.616240  1
  P  P28  1  0.000000  0.187986  0.384205  1
  P  P29  1  0.000000  0.812103  0.383761  1
  P  P30  1  0.500000  0.846114  0.892607  1
  P  P31  1  0.500000  0.154380  0.892083  1
  P  P32  1  0.000000  0.653693  0.107088  1
  P  P33  1  0.000000  0.346331  0.107461  1
  Os  Os34  1  0.500000  0.499248  0.159154  1
  Os  Os35  1  0.000000  0.000654  0.840805  1
