# generated using pymatgen
data_Dy3Th(Al3Rh)6
_symmetry_space_group_name_H-M   'P 1'
_cell_length_a   7.57419258
_cell_length_b   7.58881985
_cell_length_c   9.47792100
_cell_angle_alpha   90.00000000
_cell_angle_beta   90.00000000
_cell_angle_gamma   119.40222188
_symmetry_Int_Tables_number   1
_chemical_formula_structural   Dy3Th(Al3Rh)6
_chemical_formula_sum   'Dy3 Th1 Al18 Rh6'
_cell_volume   474.61223786
_cell_formula_units_Z   1
loop_
 _symmetry_equiv_pos_site_id
 _symmetry_equiv_pos_as_xyz
  1  'x, y, z'
loop_
 _atom_site_type_symbol
 _atom_site_label
 _atom_site_symmetry_multiplicity
 _atom_site_fract_x
 _atom_site_fract_y
 _atom_site_fract_z
 _atom_site_occupancy
  Dy  Dy0  1  0.004434  0.328637  0.250000  1
  Dy  Dy1  1  0.671288  0.994523  0.750000  1
  Dy  Dy2  1  0.328603  0.005012  0.250000  1
  Th  Th3  1  0.994859  0.670828  0.750000  1
  Al  Al4  1  0.130284  0.131857  0.750000  1
  Al  Al5  1  0.872588  0.874918  0.250000  1
  Al  Al6  1  0.001248  0.330691  0.572119  1
  Al  Al7  1  0.999043  0.664490  0.417807  1
  Al  Al8  1  0.999043  0.664490  0.082193  1
  Al  Al9  1  0.340014  0.005330  0.927731  1
  Al  Al10  1  0.001248  0.330691  0.927881  1
  Al  Al11  1  0.664767  0.000565  0.076279  1
  Al  Al12  1  0.664767  0.000565  0.423721  1
  Al  Al13  1  0.340014  0.005330  0.572269  1
  Al  Al14  1  0.332324  0.332414  0.054112  1
  Al  Al15  1  0.663298  0.666708  0.955552  1
  Al  Al16  1  0.663298  0.666708  0.544448  1
  Al  Al17  1  0.332324  0.332414  0.445888  1
  Al  Al18  1  0.343482  0.548308  0.750000  1
  Al  Al19  1  0.658102  0.448387  0.250000  1
  Al  Al20  1  0.544882  0.336414  0.750000  1
  Al  Al21  1  0.449455  0.660854  0.250000  1
  Rh  Rh22  1  0.673104  0.329404  0.500226  1
  Rh  Rh23  1  0.326777  0.671647  0.500338  1
  Rh  Rh24  1  0.326777  0.671647  0.999662  1
  Rh  Rh25  1  0.673104  0.329404  0.999774  1
  Rh  Rh26  1  0.000436  0.998881  0.500452  1
  Rh  Rh27  1  0.000436  0.998881  0.999548  1
