# generated using pymatgen
data_Np3Pa(NiB10)2
_symmetry_space_group_name_H-M   'P 1'
_cell_length_a   4.11943900
_cell_length_b   5.54587634
_cell_length_c   11.01181471
_cell_angle_alpha   90.04059463
_cell_angle_beta   90.00000000
_cell_angle_gamma   90.00000000
_symmetry_Int_Tables_number   1
_chemical_formula_structural   Np3Pa(NiB10)2
_chemical_formula_sum   'Np3 Pa1 Ni2 B20'
_cell_volume   251.57474659
_cell_formula_units_Z   1
loop_
 _symmetry_equiv_pos_site_id
 _symmetry_equiv_pos_as_xyz
  1  'x, y, z'
loop_
 _atom_site_type_symbol
 _atom_site_label
 _atom_site_symmetry_multiplicity
 _atom_site_fract_x
 _atom_site_fract_y
 _atom_site_fract_z
 _atom_site_occupancy
  Np  Np0  1  0.500000  0.818066  0.639574  1
  Np  Np1  1  0.500000  0.318892  0.859087  1
  Np  Np2  1  0.500000  0.682211  0.139521  1
  Pa  Pa3  1  0.500000  0.182786  0.361761  1
  Ni  Ni4  1  0.000000  0.000254  0.000302  1
  Ni  Ni5  1  0.000000  0.497973  0.499076  1
  B  B6  1  0.000000  0.372986  0.038978  1
  B  B7  1  0.000000  0.626524  0.960842  1
  B  B8  1  0.000000  0.125706  0.539164  1
  B  B9  1  0.000000  0.873407  0.461011  1
  B  B10  1  0.000000  0.341710  0.198002  1
  B  B11  1  0.000000  0.657969  0.802047  1
  B  B12  1  0.000000  0.157622  0.698049  1
  B  B13  1  0.000000  0.843157  0.302404  1
  B  B14  1  0.000000  0.028413  0.187459  1
  B  B15  1  0.000000  0.972787  0.813308  1
  B  B16  1  0.000000  0.472774  0.686764  1
  B  B17  1  0.000000  0.528314  0.312532  1
  B  B18  1  0.302099  0.199198  0.113451  1
  B  B19  1  0.697860  0.800824  0.886689  1
  B  B20  1  0.302140  0.800824  0.886689  1
  B  B21  1  0.697537  0.300480  0.613634  1
  B  B22  1  0.697901  0.199198  0.113451  1
  B  B23  1  0.302391  0.698723  0.386285  1
  B  B24  1  0.697609  0.698723  0.386285  1
  B  B25  1  0.302463  0.300480  0.613634  1
