# generated using pymatgen
data_Be2InP3O10
_symmetry_space_group_name_H-M   'P 1'
_cell_length_a   7.57966575
_cell_length_b   7.57966601
_cell_length_c   9.07228912
_cell_angle_alpha   67.91104296
_cell_angle_beta   67.91104308
_cell_angle_gamma   70.65868233
_symmetry_Int_Tables_number   1
_chemical_formula_structural   Be2InP3O10
_chemical_formula_sum   'Be4 In2 P6 O20'
_cell_volume   436.44040852
_cell_formula_units_Z   2
loop_
 _symmetry_equiv_pos_site_id
 _symmetry_equiv_pos_as_xyz
  1  'x, y, z'
loop_
 _atom_site_type_symbol
 _atom_site_label
 _atom_site_symmetry_multiplicity
 _atom_site_fract_x
 _atom_site_fract_y
 _atom_site_fract_z
 _atom_site_occupancy
  Be  Be0  1  0.202426  0.288229  0.436245  1
  Be  Be1  1  0.711771  0.797574  0.063755  1
  Be  Be2  1  0.797574  0.711771  0.563755  1
  Be  Be3  1  0.288229  0.202426  0.936245  1
  In  In4  1  0.818056  0.181944  0.250000  1
  In  In5  1  0.181944  0.818056  0.750000  1
  P  P6  1  0.002723  0.632398  0.247103  1
  P  P7  1  0.367602  0.997277  0.252897  1
  P  P8  1  0.997277  0.367602  0.752897  1
  P  P9  1  0.632398  0.002723  0.747103  1
  P  P10  1  0.382575  0.617425  0.250000  1
  P  P11  1  0.617425  0.382575  0.750000  1
  O  O12  1  0.920093  0.691567  0.102399  1
  O  O13  1  0.308433  0.079907  0.397601  1
  O  O14  1  0.079907  0.308433  0.897601  1
  O  O15  1  0.691567  0.920093  0.602399  1
  O  O16  1  0.037153  0.414035  0.336717  1
  O  O17  1  0.585965  0.962847  0.163283  1
  O  O18  1  0.962847  0.585965  0.663283  1
  O  O19  1  0.414035  0.037153  0.836717  1
  O  O20  1  0.895062  0.761508  0.363747  1
  O  O21  1  0.238492  0.104938  0.136253  1
  O  O22  1  0.104938  0.238492  0.636253  1
  O  O23  1  0.761508  0.895062  0.863747  1
  O  O24  1  0.222311  0.680778  0.153294  1
  O  O25  1  0.319222  0.777689  0.346706  1
  O  O26  1  0.777689  0.319222  0.846706  1
  O  O27  1  0.680778  0.222311  0.653294  1
  O  O28  1  0.367914  0.420435  0.375928  1
  O  O29  1  0.579565  0.632086  0.124072  1
  O  O30  1  0.632086  0.579565  0.624072  1
  O  O31  1  0.420435  0.367914  0.875928  1
