# generated using pymatgen
data_AcZnSiOsPd
_symmetry_space_group_name_H-M   'P 1'
_cell_length_a   4.33186200
_cell_length_b   4.33186200
_cell_length_c   10.48356300
_cell_angle_alpha   90.00000000
_cell_angle_beta   90.00000000
_cell_angle_gamma   90.00000000
_symmetry_Int_Tables_number   1
_chemical_formula_structural   AcZnSiOsPd
_chemical_formula_sum   'Ac2 Zn2 Si2 Os2 Pd2'
_cell_volume   196.72435729
_cell_formula_units_Z   2
loop_
 _symmetry_equiv_pos_site_id
 _symmetry_equiv_pos_as_xyz
  1  'x, y, z'
loop_
 _atom_site_type_symbol
 _atom_site_label
 _atom_site_symmetry_multiplicity
 _atom_site_fract_x
 _atom_site_fract_y
 _atom_site_fract_z
 _atom_site_occupancy
  Ac  Ac0  1  0.000000  0.500000  0.239903  1
  Ac  Ac1  1  0.500000  0.000000  0.760097  1
  Zn  Zn2  1  0.500000  0.500000  0.500000  1
  Zn  Zn3  1  0.000000  0.000000  0.500000  1
  Si  Si4  1  0.500000  0.000000  0.106729  1
  Si  Si5  1  0.000000  0.500000  0.893271  1
  Os  Os6  1  0.000000  0.000000  0.000000  1
  Os  Os7  1  0.500000  0.500000  0.000000  1
  Pd  Pd8  1  0.000000  0.500000  0.648771  1
  Pd  Pd9  1  0.500000  0.000000  0.351229  1
