# generated using pymatgen
data_Gd4ErReRuO12
_symmetry_space_group_name_H-M   'P 1'
_cell_length_a   6.90982328
_cell_length_b   6.90982512
_cell_length_c   7.57516694
_cell_angle_alpha   73.76643601
_cell_angle_beta   73.76643240
_cell_angle_gamma   48.85860447
_symmetry_Int_Tables_number   1
_chemical_formula_structural   Gd4ErReRuO12
_chemical_formula_sum   'Gd4 Er1 Re1 Ru1 O12'
_cell_volume   259.22103393
_cell_formula_units_Z   1
loop_
 _symmetry_equiv_pos_site_id
 _symmetry_equiv_pos_as_xyz
  1  'x, y, z'
loop_
 _atom_site_type_symbol
 _atom_site_label
 _atom_site_symmetry_multiplicity
 _atom_site_fract_x
 _atom_site_fract_y
 _atom_site_fract_z
 _atom_site_occupancy
  Gd  Gd0  1  0.711446  0.682015  0.642654  1
  Gd  Gd1  1  0.317985  0.288554  0.357346  1
  Gd  Gd2  1  0.689474  0.679588  0.172828  1
  Gd  Gd3  1  0.320412  0.310526  0.827172  1
  Er  Er4  1  0.009230  0.990770  0.500000  1
  Re  Re5  1  0.201696  0.798304  0.000000  1
  Ru  Ru6  1  0.768092  0.231908  0.000000  1
  O  O7  1  0.004359  0.998888  0.202792  1
  O  O8  1  0.001112  0.995641  0.797208  1
  O  O9  1  0.570898  0.085243  0.084957  1
  O  O10  1  0.401777  0.912083  0.916839  1
  O  O11  1  0.914757  0.429102  0.915043  1
  O  O12  1  0.087917  0.598223  0.083161  1
  O  O13  1  0.483477  0.513635  0.172312  1
  O  O14  1  0.486365  0.516523  0.827688  1
  O  O15  1  0.404475  0.891632  0.432312  1
  O  O16  1  0.606451  0.088292  0.575201  1
  O  O17  1  0.108368  0.595525  0.567688  1
  O  O18  1  0.911708  0.393549  0.424799  1
