# generated using pymatgen
data_Er7Lu(WC2)4
_symmetry_space_group_name_H-M   'P 1'
_cell_length_a   5.70681291
_cell_length_b   5.70681251
_cell_length_c   9.76112269
_cell_angle_alpha   90.09363172
_cell_angle_beta   90.09363281
_cell_angle_gamma   90.03871757
_symmetry_Int_Tables_number   1
_chemical_formula_structural   Er7Lu(WC2)4
_chemical_formula_sum   'Er7 Lu1 W4 C8'
_cell_volume   317.89650335
_cell_formula_units_Z   1
loop_
 _symmetry_equiv_pos_site_id
 _symmetry_equiv_pos_as_xyz
  1  'x, y, z'
loop_
 _atom_site_type_symbol
 _atom_site_label
 _atom_site_symmetry_multiplicity
 _atom_site_fract_x
 _atom_site_fract_y
 _atom_site_fract_z
 _atom_site_occupancy
  Er  Er0  1  0.199842  0.199842  0.341963  1
  Er  Er1  1  0.299882  0.700630  0.841480  1
  Er  Er2  1  0.700630  0.299882  0.841480  1
  Er  Er3  1  0.700520  0.300110  0.158177  1
  Er  Er4  1  0.300110  0.700520  0.158177  1
  Er  Er5  1  0.199985  0.199985  0.658297  1
  Er  Er6  1  0.799652  0.799652  0.341834  1
  Lu  Lu7  1  0.799247  0.799247  0.657943  1
  W  W8  1  0.321034  0.678048  0.500340  1
  W  W9  1  0.821987  0.821987  0.999244  1
  W  W10  1  0.178571  0.178571  0.999704  1
  W  W11  1  0.678048  0.321034  0.500340  1
  C  C12  1  0.000054  0.000054  0.155827  1
  C  C13  1  0.501216  0.501216  0.656457  1
  C  C14  1  0.500978  0.998683  0.501191  1
  C  C15  1  0.499518  0.499518  0.344052  1
  C  C16  1  0.998920  0.998920  0.842256  1
  C  C17  1  0.500328  0.000796  0.000025  1
  C  C18  1  0.000796  0.500328  0.000025  1
  C  C19  1  0.998683  0.500978  0.501191  1
