# generated using pymatgen
data_Tb3Co8P6Os
_symmetry_space_group_name_H-M   'P 1'
_cell_length_a   3.72418800
_cell_length_b   10.51346200
_cell_length_c   12.26837600
_cell_angle_alpha   90.00000000
_cell_angle_beta   90.00000000
_cell_angle_gamma   90.00000000
_symmetry_Int_Tables_number   1
_chemical_formula_structural   Tb3Co8P6Os
_chemical_formula_sum   'Tb6 Co16 P12 Os2'
_cell_volume   480.35733139
_cell_formula_units_Z   2
loop_
 _symmetry_equiv_pos_site_id
 _symmetry_equiv_pos_as_xyz
  1  'x, y, z'
loop_
 _atom_site_type_symbol
 _atom_site_label
 _atom_site_symmetry_multiplicity
 _atom_site_fract_x
 _atom_site_fract_y
 _atom_site_fract_z
 _atom_site_occupancy
  Tb  Tb0  1  0.000000  0.500000  0.523794  1
  Tb  Tb1  1  0.500000  0.000000  0.476206  1
  Tb  Tb2  1  0.500000  0.817217  0.206657  1
  Tb  Tb3  1  0.500000  0.182783  0.206657  1
  Tb  Tb4  1  0.000000  0.682783  0.793343  1
  Tb  Tb5  1  0.000000  0.317217  0.793343  1
  Co  Co6  1  0.500000  0.500000  0.703921  1
  Co  Co7  1  0.000000  0.000000  0.296079  1
  Co  Co8  1  0.000000  0.500000  0.987010  1
  Co  Co9  1  0.500000  0.000000  0.012990  1
  Co  Co10  1  0.500000  0.332734  0.990747  1
  Co  Co11  1  0.500000  0.667266  0.990747  1
  Co  Co12  1  0.000000  0.167266  0.009253  1
  Co  Co13  1  0.000000  0.832734  0.009253  1
  Co  Co14  1  0.500000  0.297369  0.430526  1
  Co  Co15  1  0.500000  0.702631  0.430526  1
  Co  Co16  1  0.000000  0.202631  0.569474  1
  Co  Co17  1  0.000000  0.797369  0.569474  1
  Co  Co18  1  0.500000  0.879682  0.709327  1
  Co  Co19  1  0.500000  0.120318  0.709327  1
  Co  Co20  1  0.000000  0.620318  0.290673  1
  Co  Co21  1  0.000000  0.379682  0.290673  1
  P  P22  1  0.500000  0.500000  0.881591  1
  P  P23  1  0.000000  0.000000  0.118409  1
  P  P24  1  0.500000  0.500000  0.349749  1
  P  P25  1  0.000000  0.000000  0.650251  1
  P  P26  1  0.500000  0.311107  0.615842  1
  P  P27  1  0.500000  0.688893  0.615842  1
  P  P28  1  0.000000  0.188893  0.384158  1
  P  P29  1  0.000000  0.811107  0.384158  1
  P  P30  1  0.500000  0.846443  0.893565  1
  P  P31  1  0.500000  0.153557  0.893565  1
  P  P32  1  0.000000  0.653557  0.106435  1
  P  P33  1  0.000000  0.346443  0.106435  1
  Os  Os34  1  0.500000  0.500000  0.158252  1
  Os  Os35  1  0.000000  0.000000  0.841748  1
