# generated using pymatgen
data_Ba4Li2Ru2O11
_symmetry_space_group_name_H-M   'P 1'
_cell_length_a   5.77638773
_cell_length_b   5.77638864
_cell_length_c   8.54652400
_cell_angle_alpha   90.00000000
_cell_angle_beta   90.00000000
_cell_angle_gamma   91.41089869
_symmetry_Int_Tables_number   1
_chemical_formula_structural   Ba4Li2Ru2O11
_chemical_formula_sum   'Ba4 Li2 Ru2 O11'
_cell_volume   285.08250836
_cell_formula_units_Z   1
loop_
 _symmetry_equiv_pos_site_id
 _symmetry_equiv_pos_as_xyz
  1  'x, y, z'
loop_
 _atom_site_type_symbol
 _atom_site_label
 _atom_site_symmetry_multiplicity
 _atom_site_fract_x
 _atom_site_fract_y
 _atom_site_fract_z
 _atom_site_occupancy
  Ba  Ba0  1  0.008489  0.485103  0.275264  1
  Ba  Ba1  1  0.008489  0.485103  0.724736  1
  Ba  Ba2  1  0.514897  0.991511  0.275264  1
  Ba  Ba3  1  0.514897  0.991511  0.724736  1
  Li  Li4  1  0.508283  0.491717  0.500000  1
  Li  Li5  1  0.961225  0.038775  0.000000  1
  Ru  Ru6  1  0.515107  0.484893  0.000000  1
  Ru  Ru7  1  0.014513  0.985487  0.500000  1
  O  O8  1  0.248414  0.751585  0.500000  1
  O  O9  1  0.777428  0.222572  0.500000  1
  O  O10  1  0.771859  0.751270  0.500000  1
  O  O11  1  0.248730  0.228141  0.500000  1
  O  O12  1  0.017911  0.982089  0.261273  1
  O  O13  1  0.017911  0.982089  0.738727  1
  O  O14  1  0.508506  0.491494  0.770226  1
  O  O15  1  0.508506  0.491494  0.229774  1
  O  O16  1  0.734617  0.265383  0.000000  1
  O  O17  1  0.621055  0.787100  0.000000  1
  O  O18  1  0.212900  0.378945  0.000000  1
