# generated using pymatgen
data_Sc8Ir5Ru3
_symmetry_space_group_name_H-M   'P 1'
_cell_length_a   6.36278000
_cell_length_b   4.56409400
_cell_length_c   9.15269900
_cell_angle_alpha   90.00000000
_cell_angle_beta   90.00005403
_cell_angle_gamma   89.99997489
_symmetry_Int_Tables_number   1
_chemical_formula_structural   Sc8Ir5Ru3
_chemical_formula_sum   'Sc8 Ir5 Ru3'
_cell_volume   265.79736294
_cell_formula_units_Z   1
loop_
 _symmetry_equiv_pos_site_id
 _symmetry_equiv_pos_as_xyz
  1  'x, y, z'
loop_
 _atom_site_type_symbol
 _atom_site_label
 _atom_site_symmetry_multiplicity
 _atom_site_fract_x
 _atom_site_fract_y
 _atom_site_fract_z
 _atom_site_occupancy
  Sc  Sc0  1  0.501102  0.750000  0.126530  1
  Sc  Sc1  1  0.998896  0.750000  0.126531  1
  Sc  Sc2  1  0.500116  0.250000  0.374993  1
  Sc  Sc3  1  0.999878  0.250000  0.374994  1
  Sc  Sc4  1  0.998925  0.750000  0.623459  1
  Sc  Sc5  1  0.501083  0.750000  0.623459  1
  Sc  Sc6  1  0.998035  0.250000  0.875001  1
  Sc  Sc7  1  0.501964  0.250000  0.875003  1
  Ir  Ir8  1  0.250000  0.750000  0.874987  1
  Ir  Ir9  1  0.249998  0.250000  0.124756  1
  Ir  Ir10  1  0.749998  0.750000  0.375001  1
  Ir  Ir11  1  0.250002  0.250000  0.625236  1
  Ir  Ir12  1  0.750001  0.750000  0.874999  1
  Ru  Ru13  1  0.749999  0.250000  0.124316  1
  Ru  Ru14  1  0.249999  0.750000  0.374974  1
  Ru  Ru15  1  0.750002  0.250000  0.625761  1
