# generated using pymatgen
data_Nb2NiSe5
_symmetry_space_group_name_H-M   'P 1'
_cell_length_a   7.14580662
_cell_length_b   7.14580757
_cell_length_c   15.78874000
_cell_angle_alpha   90.00000000
_cell_angle_beta   90.00000000
_cell_angle_gamma   151.90359309
_symmetry_Int_Tables_number   1
_chemical_formula_structural   Nb2NiSe5
_chemical_formula_sum   'Nb4 Ni2 Se10'
_cell_volume   379.69152260
_cell_formula_units_Z   2
loop_
 _symmetry_equiv_pos_site_id
 _symmetry_equiv_pos_as_xyz
  1  'x, y, z'
loop_
 _atom_site_type_symbol
 _atom_site_label
 _atom_site_symmetry_multiplicity
 _atom_site_fract_x
 _atom_site_fract_y
 _atom_site_fract_z
 _atom_site_occupancy
  Nb  Nb0  1  0.223726  0.776274  0.107588  1
  Nb  Nb1  1  0.223726  0.776274  0.392412  1
  Nb  Nb2  1  0.776274  0.223726  0.892412  1
  Nb  Nb3  1  0.776274  0.223726  0.607588  1
  Ni  Ni4  1  0.701514  0.298486  0.250000  1
  Ni  Ni5  1  0.298486  0.701514  0.750000  1
  Se  Se6  1  0.589671  0.410329  0.139668  1
  Se  Se7  1  0.589671  0.410329  0.360332  1
  Se  Se8  1  0.410329  0.589671  0.860332  1
  Se  Se9  1  0.410329  0.589671  0.639668  1
  Se  Se10  1  0.148104  0.851896  0.951646  1
  Se  Se11  1  0.148104  0.851896  0.548354  1
  Se  Se12  1  0.851896  0.148104  0.048354  1
  Se  Se13  1  0.851896  0.148104  0.451646  1
  Se  Se14  1  0.318906  0.681094  0.250000  1
  Se  Se15  1  0.681094  0.318906  0.750000  1
