# generated using pymatgen
data_Nd6AlGaSe12
_symmetry_space_group_name_H-M   'P 1'
_cell_length_a   9.19171963
_cell_length_b   9.19171915
_cell_length_c   6.95185301
_cell_angle_alpha   90.06780213
_cell_angle_beta   89.93219414
_cell_angle_gamma   102.18374785
_symmetry_Int_Tables_number   1
_chemical_formula_structural   Nd6AlGaSe12
_chemical_formula_sum   'Nd6 Al1 Ga1 Se12'
_cell_volume   574.11594280
_cell_formula_units_Z   1
loop_
 _symmetry_equiv_pos_site_id
 _symmetry_equiv_pos_as_xyz
  1  'x, y, z'
loop_
 _atom_site_type_symbol
 _atom_site_label
 _atom_site_symmetry_multiplicity
 _atom_site_fract_x
 _atom_site_fract_y
 _atom_site_fract_z
 _atom_site_occupancy
  Nd  Nd0  1  0.281985  0.084539  0.226919  1
  Nd  Nd1  1  0.915461  0.718015  0.226919  1
  Nd  Nd2  1  0.717857  0.915177  0.727261  1
  Nd  Nd3  1  0.084823  0.282143  0.727261  1
  Nd  Nd4  1  0.400276  0.599724  0.134884  1
  Nd  Nd5  1  0.599526  0.400474  0.634810  1
  Al  Al6  1  0.200578  0.799422  0.766989  1
  Ga  Ga7  1  0.799218  0.200782  0.264421  1
  Se  Se8  1  0.569833  0.098398  0.439081  1
  Se  Se9  1  0.901602  0.430167  0.439081  1
  Se  Se10  1  0.428013  0.900279  0.936202  1
  Se  Se11  1  0.099721  0.571987  0.936202  1
  Se  Se12  1  0.632486  0.690927  0.431360  1
  Se  Se13  1  0.309073  0.367514  0.431360  1
  Se  Se14  1  0.367457  0.309105  0.931491  1
  Se  Se15  1  0.690895  0.632543  0.931491  1
  Se  Se16  1  0.218380  0.781620  0.421802  1
  Se  Se17  1  0.781111  0.218889  0.915804  1
  Se  Se18  1  0.959592  0.040408  0.404306  1
  Se  Se19  1  0.042115  0.957885  0.902354  1
