# generated using pymatgen
data_Tm4V4OF27
_symmetry_space_group_name_H-M   'P 1'
_cell_length_a   5.47776504
_cell_length_b   8.73613331
_cell_length_c   11.71969700
_cell_angle_alpha   63.50521463
_cell_angle_beta   89.95059883
_cell_angle_gamma   89.70766542
_symmetry_Int_Tables_number   1
_chemical_formula_structural   Tm4V4OF27
_chemical_formula_sum   'Tm4 V4 O1 F27'
_cell_volume   501.93066450
_cell_formula_units_Z   1
loop_
 _symmetry_equiv_pos_site_id
 _symmetry_equiv_pos_as_xyz
  1  'x, y, z'
loop_
 _atom_site_type_symbol
 _atom_site_label
 _atom_site_symmetry_multiplicity
 _atom_site_fract_x
 _atom_site_fract_y
 _atom_site_fract_z
 _atom_site_occupancy
  Tm  Tm0  1  0.763959  0.809931  0.766115  1
  Tm  Tm1  1  0.258023  0.189648  0.731248  1
  Tm  Tm2  1  0.243367  0.194030  0.227833  1
  Tm  Tm3  1  0.750609  0.808782  0.269041  1
  V  V4  1  0.753475  0.275094  0.953351  1
  V  V5  1  0.258959  0.725493  0.544884  1
  V  V6  1  0.257949  0.724745  0.036802  1
  V  V7  1  0.745992  0.272708  0.454920  1
  O  O8  1  0.443320  0.706680  0.934201  1
  F  F9  1  0.956036  0.292143  0.576243  1
  F  F10  1  0.543078  0.298423  0.073397  1
  F  F11  1  0.048860  0.704997  0.424244  1
  F  F12  1  0.464192  0.281696  0.549367  1
  F  F13  1  0.961896  0.717081  0.954291  1
  F  F14  1  0.541635  0.715089  0.453174  1
  F  F15  1  0.036419  0.284853  0.045692  1
  F  F16  1  0.764934  0.511425  0.861507  1
  F  F17  1  0.269243  0.490946  0.638756  1
  F  F18  1  0.221763  0.490643  0.142115  1
  F  F19  1  0.732072  0.506716  0.361635  1
  F  F20  1  0.752548  0.044217  0.043648  1
  F  F21  1  0.257379  0.956847  0.455772  1
  F  F22  1  0.236682  0.960923  0.953852  1
  F  F23  1  0.744246  0.039536  0.547618  1
  F  F24  1  0.983426  0.731014  0.643264  1
  F  F25  1  0.480537  0.269600  0.854861  1
  F  F26  1  0.018542  0.263506  0.358256  1
  F  F27  1  0.501414  0.733296  0.145968  1
  F  F28  1  0.028540  0.751050  0.165046  1
  F  F29  1  0.537618  0.250347  0.331632  1
  F  F30  1  0.960550  0.255030  0.828545  1
  F  F31  1  0.463527  0.747139  0.671003  1
  F  F32  1  0.436883  0.978750  0.233757  1
  F  F33  1  0.934364  0.024622  0.265742  1
  F  F34  1  0.571824  0.019817  0.769603  1
  F  F35  1  0.076135  0.973181  0.732620  1
