# generated using pymatgen
data_Er4BiPbC2
_symmetry_space_group_name_H-M   'P 1'
_cell_length_a   3.60662300
_cell_length_b   3.60659782
_cell_length_c   15.83461100
_cell_angle_alpha   90.00000000
_cell_angle_beta   90.00000000
_cell_angle_gamma   119.99724624
_symmetry_Int_Tables_number   1
_chemical_formula_structural   Er4BiPbC2
_chemical_formula_sum   'Er4 Bi1 Pb1 C2'
_cell_volume   178.38097951
_cell_formula_units_Z   1
loop_
 _symmetry_equiv_pos_site_id
 _symmetry_equiv_pos_as_xyz
  1  'x, y, z'
loop_
 _atom_site_type_symbol
 _atom_site_label
 _atom_site_symmetry_multiplicity
 _atom_site_fract_x
 _atom_site_fract_y
 _atom_site_fract_z
 _atom_site_occupancy
  Er  Er0  1  0.666646  0.333342  0.081098  1
  Er  Er1  1  0.666646  0.333342  0.418902  1
  Er  Er2  1  0.333359  0.666675  0.583413  1
  Er  Er3  1  0.333359  0.666675  0.916587  1
  Bi  Bi4  1  0.666693  0.333339  0.750000  1
  Pb  Pb5  1  0.333370  0.666603  0.250000  1
  C  C6  1  0.999962  0.000014  0.998143  1
  C  C7  1  0.999962  0.000014  0.501857  1
