# generated using pymatgen
data_MnV4Co3P4
_symmetry_space_group_name_H-M   'P 1'
_cell_length_a   3.49557200
_cell_length_b   5.89204500
_cell_length_c   6.71806353
_cell_angle_alpha   89.72421843
_cell_angle_beta   90.00000000
_cell_angle_gamma   90.00000000
_symmetry_Int_Tables_number   1
_chemical_formula_structural   MnV4Co3P4
_chemical_formula_sum   'Mn1 V4 Co3 P4'
_cell_volume   138.36408724
_cell_formula_units_Z   1
loop_
 _symmetry_equiv_pos_site_id
 _symmetry_equiv_pos_as_xyz
  1  'x, y, z'
loop_
 _atom_site_type_symbol
 _atom_site_label
 _atom_site_symmetry_multiplicity
 _atom_site_fract_x
 _atom_site_fract_y
 _atom_site_fract_z
 _atom_site_occupancy
  Mn  Mn0  1  0.250000  0.141733  0.559784  1
  V  V1  1  0.250000  0.027337  0.174246  1
  V  V2  1  0.250000  0.528999  0.332696  1
  V  V3  1  0.750000  0.976487  0.827199  1
  V  V4  1  0.750000  0.468918  0.667083  1
  Co  Co5  1  0.250000  0.642287  0.939566  1
  Co  Co6  1  0.750000  0.855098  0.437636  1
  Co  Co7  1  0.750000  0.357514  0.061899  1
  P  P8  1  0.250000  0.767368  0.626677  1
  P  P9  1  0.250000  0.266909  0.875215  1
  P  P10  1  0.750000  0.233211  0.373203  1
  P  P11  1  0.750000  0.734139  0.124795  1
