# generated using pymatgen
data_Cs3K5In8(SnSe4)8
_symmetry_space_group_name_H-M   'P 1'
_cell_length_a   13.37204602
_cell_length_b   8.04354972
_cell_length_c   19.03396783
_cell_angle_alpha   82.85717114
_cell_angle_beta   90.16414691
_cell_angle_gamma   89.66088741
_symmetry_Int_Tables_number   1
_chemical_formula_structural   Cs3K5In8(SnSe4)8
_chemical_formula_sum   'Cs3 K5 In8 Sn8 Se32'
_cell_volume   2031.33189611
_cell_formula_units_Z   1
loop_
 _symmetry_equiv_pos_site_id
 _symmetry_equiv_pos_as_xyz
  1  'x, y, z'
loop_
 _atom_site_type_symbol
 _atom_site_label
 _atom_site_symmetry_multiplicity
 _atom_site_fract_x
 _atom_site_fract_y
 _atom_site_fract_z
 _atom_site_occupancy
  Cs  Cs0  1  0.068577  0.732380  0.674509  1
  Cs  Cs1  1  0.429567  0.732967  0.174951  1
  Cs  Cs2  1  0.602702  0.255911  0.450622  1
  K  K3  1  0.398954  0.729012  0.546803  1
  K  K4  1  0.562666  0.247909  0.820352  1
  K  K5  1  0.100050  0.731891  0.046297  1
  K  K6  1  0.939437  0.251776  0.315528  1
  K  K7  1  0.898423  0.270480  0.954651  1
  In  In8  1  0.766092  0.535226  0.153638  1
  In  In9  1  0.253632  0.468065  0.344311  1
  In  In10  1  0.240140  0.965325  0.859415  1
  In  In11  1  0.762560  0.038709  0.141013  1
  In  In12  1  0.242534  0.468326  0.844731  1
  In  In13  1  0.255629  0.963702  0.358718  1
  In  In14  1  0.741233  0.034902  0.643269  1
  In  In15  1  0.736589  0.529051  0.656742  1
  Sn  Sn16  1  0.322947  0.202891  0.016525  1
  Sn  Sn17  1  0.290781  0.243985  0.678611  1
  Sn  Sn18  1  0.822026  0.797930  0.485375  1
  Sn  Sn19  1  0.712013  0.764604  0.321723  1
  Sn  Sn20  1  0.174102  0.202905  0.517145  1
  Sn  Sn21  1  0.680294  0.801531  0.983870  1
  Sn  Sn22  1  0.205609  0.243537  0.177745  1
  Sn  Sn23  1  0.791724  0.760504  0.823065  1
  Se  Se24  1  0.166127  0.529562  0.216895  1
  Se  Se25  1  0.392381  0.209879  0.143925  1
  Se  Se26  1  0.866561  0.750866  0.950361  1
  Se  Se27  1  0.635903  0.758745  0.448346  1
  Se  Se28  1  0.104084  0.210284  0.644123  1
  Se  Se29  1  0.820571  0.470265  0.785486  1
  Se  Se30  1  0.850915  0.084737  0.526045  1
  Se  Se31  1  0.125310  0.993981  0.252998  1
  Se  Se32  1  0.375756  0.706173  0.366380  1
  Se  Se33  1  0.885968  0.542058  0.565874  1
  Se  Se34  1  0.371103  0.993944  0.754720  1
  Se  Se35  1  0.615567  0.283017  0.645398  1
  Se  Se36  1  0.683790  0.476794  0.281770  1
  Se  Se37  1  0.159072  0.907757  0.481774  1
  Se  Se38  1  0.886599  0.287753  0.138895  1
  Se  Se39  1  0.659009  0.094428  0.020516  1
  Se  Se40  1  0.375309  0.216707  0.343394  1
  Se  Se41  1  0.896556  0.808917  0.358898  1
  Se  Se42  1  0.120943  0.709603  0.866200  1
  Se  Se43  1  0.329515  0.529254  0.717677  1
  Se  Se44  1  0.613625  0.551766  0.065068  1
  Se  Se45  1  0.097556  0.434084  0.428985  1
  Se  Se46  1  0.885810  0.787049  0.149795  1
  Se  Se47  1  0.631091  0.012165  0.244967  1
  Se  Se48  1  0.136051  0.256578  0.048576  1
  Se  Se49  1  0.618019  0.785976  0.649010  1
  Se  Se50  1  0.606276  0.808612  0.857355  1
  Se  Se51  1  0.340924  0.907837  0.981503  1
  Se  Se52  1  0.360362  0.256843  0.550116  1
  Se  Se53  1  0.399580  0.433224  0.929396  1
  Se  Se54  1  0.118959  0.220355  0.847919  1
  Se  Se55  1  0.872431  0.007267  0.748027  1
