# generated using pymatgen
data_Mg3Cd(BrO3)8
_symmetry_space_group_name_H-M   'P 1'
_cell_length_a   5.75599568
_cell_length_b   10.70957097
_cell_length_c   10.76273847
_cell_angle_alpha   119.23779964
_cell_angle_beta   90.08637552
_cell_angle_gamma   89.34125028
_symmetry_Int_Tables_number   1
_chemical_formula_structural   Mg3Cd(BrO3)8
_chemical_formula_sum   'Mg3 Cd1 Br8 O24'
_cell_volume   578.89130467
_cell_formula_units_Z   1
loop_
 _symmetry_equiv_pos_site_id
 _symmetry_equiv_pos_as_xyz
  1  'x, y, z'
loop_
 _atom_site_type_symbol
 _atom_site_label
 _atom_site_symmetry_multiplicity
 _atom_site_fract_x
 _atom_site_fract_y
 _atom_site_fract_z
 _atom_site_occupancy
  Mg  Mg0  1  0.641973  0.235957  0.492659  1
  Mg  Mg1  1  0.138882  0.261557  0.005722  1
  Mg  Mg2  1  0.640628  0.739152  0.992462  1
  Cd  Cd3  1  0.140259  0.766149  0.506504  1
  Br  Br4  1  0.268248  0.409587  0.345147  1
  Br  Br5  1  0.754738  0.577696  0.650736  1
  Br  Br6  1  0.264516  0.917211  0.857299  1
  Br  Br7  1  0.764330  0.085091  0.150445  1
  Br  Br8  1  0.778676  0.098550  0.699368  1
  Br  Br9  1  0.296927  0.920864  0.307340  1
  Br  Br10  1  0.286753  0.414851  0.812293  1
  Br  Br11  1  0.783353  0.582294  0.179441  1
  O  O12  1  0.428879  0.888287  0.970329  1
  O  O13  1  0.934181  0.120121  0.044356  1
  O  O14  1  0.380143  0.805169  0.695326  1
  O  O15  1  0.867858  0.190825  0.316634  1
  O  O16  1  0.362294  0.295570  0.177949  1
  O  O17  1  0.856420  0.689911  0.815681  1
  O  O18  1  0.933271  0.231081  0.829759  1
  O  O19  1  0.435906  0.780830  0.172383  1
  O  O20  1  0.907397  0.945387  0.673769  1
  O  O21  1  0.437685  0.069681  0.335725  1
  O  O22  1  0.350580  0.079969  0.886688  1
  O  O23  1  0.856560  0.919335  0.112261  1
  O  O24  1  0.430117  0.280184  0.674141  1
  O  O25  1  0.914193  0.724615  0.313658  1
  O  O26  1  0.352048  0.387662  0.950609  1
  O  O27  1  0.844431  0.601539  0.036187  1
  O  O28  1  0.426650  0.565920  0.847174  1
  O  O29  1  0.939084  0.437499  0.155052  1
  O  O30  1  0.374619  0.568734  0.374600  1
  O  O31  1  0.845982  0.414229  0.620140  1
  O  O32  1  0.432863  0.374698  0.453929  1
  O  O33  1  0.927124  0.604542  0.540121  1
  O  O34  1  0.845381  0.109565  0.551990  1
  O  O35  1  0.366649  0.905687  0.452123  1
