# generated using pymatgen
data_Hf4Ga3Mo
_symmetry_space_group_name_H-M   'P 1'
_cell_length_a   7.94046800
_cell_length_b   7.94046749
_cell_length_c   5.46374000
_cell_angle_alpha   90.00000000
_cell_angle_beta   90.00000000
_cell_angle_gamma   119.99999377
_symmetry_Int_Tables_number   1
_chemical_formula_structural   Hf4Ga3Mo
_chemical_formula_sum   'Hf8 Ga6 Mo2'
_cell_volume   298.34094136
_cell_formula_units_Z   2
loop_
 _symmetry_equiv_pos_site_id
 _symmetry_equiv_pos_as_xyz
  1  'x, y, z'
loop_
 _atom_site_type_symbol
 _atom_site_label
 _atom_site_symmetry_multiplicity
 _atom_site_fract_x
 _atom_site_fract_y
 _atom_site_fract_z
 _atom_site_occupancy
  Hf  Hf0  1  0.333333  0.666667  0.500000  1
  Hf  Hf1  1  0.666667  0.333333  0.500000  1
  Hf  Hf2  1  0.756092  0.756092  0.754659  1
  Hf  Hf3  1  0.243908  0.000000  0.754659  1
  Hf  Hf4  1  0.000000  0.243908  0.754659  1
  Hf  Hf5  1  0.243908  0.243908  0.245341  1
  Hf  Hf6  1  0.756092  0.000000  0.245341  1
  Hf  Hf7  1  0.000000  0.756092  0.245341  1
  Ga  Ga8  1  0.398961  0.398961  0.764535  1
  Ga  Ga9  1  0.601039  0.000000  0.764535  1
  Ga  Ga10  1  0.000000  0.601039  0.764535  1
  Ga  Ga11  1  0.601039  0.601039  0.235465  1
  Ga  Ga12  1  0.398961  0.000000  0.235465  1
  Ga  Ga13  1  0.000000  0.398961  0.235465  1
  Mo  Mo14  1  0.666667  0.333333  0.000000  1
  Mo  Mo15  1  0.333333  0.666667  0.000000  1
