# generated using pymatgen
data_GdY(SBr)2
_symmetry_space_group_name_H-M   'P 1'
_cell_length_a   4.08759800
_cell_length_b   5.38780400
_cell_length_c   10.35444700
_cell_angle_alpha   90.00000000
_cell_angle_beta   90.00000000
_cell_angle_gamma   90.00000000
_symmetry_Int_Tables_number   1
_chemical_formula_structural   GdY(SBr)2
_chemical_formula_sum   'Gd1 Y1 S2 Br2'
_cell_volume   228.03781751
_cell_formula_units_Z   1
loop_
 _symmetry_equiv_pos_site_id
 _symmetry_equiv_pos_as_xyz
  1  'x, y, z'
loop_
 _atom_site_type_symbol
 _atom_site_label
 _atom_site_symmetry_multiplicity
 _atom_site_fract_x
 _atom_site_fract_y
 _atom_site_fract_z
 _atom_site_occupancy
  Gd  Gd0  1  0.500000  0.500000  0.885213  1
  Y  Y1  1  0.000000  0.000000  0.114977  1
  S  S2  1  0.500000  0.000000  0.936600  1
  S  S3  1  0.000000  0.500000  0.066285  1
  Br  Br4  1  0.000000  0.500000  0.691661  1
  Br  Br5  1  0.500000  0.000000  0.305265  1
