# generated using pymatgen
data_NaCa3(InAu)4
_symmetry_space_group_name_H-M   'P 1'
_cell_length_a   4.41005800
_cell_length_b   7.64068208
_cell_length_c   8.74875589
_cell_angle_alpha   89.92007716
_cell_angle_beta   90.00000000
_cell_angle_gamma   90.00000000
_symmetry_Int_Tables_number   1
_chemical_formula_structural   NaCa3(InAu)4
_chemical_formula_sum   'Na1 Ca3 In4 Au4'
_cell_volume   294.79648921
_cell_formula_units_Z   1
loop_
 _symmetry_equiv_pos_site_id
 _symmetry_equiv_pos_as_xyz
  1  'x, y, z'
loop_
 _atom_site_type_symbol
 _atom_site_label
 _atom_site_symmetry_multiplicity
 _atom_site_fract_x
 _atom_site_fract_y
 _atom_site_fract_z
 _atom_site_occupancy
  Na  Na0  1  0.750000  0.975333  0.678526  1
  Ca  Ca1  1  0.250000  0.028386  0.325040  1
  Ca  Ca2  1  0.750000  0.468747  0.820570  1
  Ca  Ca3  1  0.250000  0.527555  0.179466  1
  In  In4  1  0.750000  0.349874  0.438139  1
  In  In5  1  0.250000  0.143646  0.932868  1
  In  In6  1  0.250000  0.659147  0.564367  1
  In  In7  1  0.750000  0.852764  0.061146  1
  Au  Au8  1  0.250000  0.757654  0.876255  1
  Au  Au9  1  0.250000  0.272639  0.628210  1
  Au  Au10  1  0.750000  0.729704  0.369151  1
  Au  Au11  1  0.750000  0.234551  0.126264  1
