# generated using pymatgen
data_Hf8Nb12ZnSi14Ge
_symmetry_space_group_name_H-M   'P 1'
_cell_length_a   6.68487186
_cell_length_b   6.85811782
_cell_length_c   13.15352845
_cell_angle_alpha   89.92509050
_cell_angle_beta   89.96343326
_cell_angle_gamma   89.91401424
_symmetry_Int_Tables_number   1
_chemical_formula_structural   Hf8Nb12ZnSi14Ge
_chemical_formula_sum   'Hf8 Nb12 Zn1 Si14 Ge1'
_cell_volume   603.03059812
_cell_formula_units_Z   1
loop_
 _symmetry_equiv_pos_site_id
 _symmetry_equiv_pos_as_xyz
  1  'x, y, z'
loop_
 _atom_site_type_symbol
 _atom_site_label
 _atom_site_symmetry_multiplicity
 _atom_site_fract_x
 _atom_site_fract_y
 _atom_site_fract_z
 _atom_site_occupancy
  Hf  Hf0  1  0.493655  0.670652  0.595272  1
  Hf  Hf1  1  0.997114  0.826915  0.907156  1
  Hf  Hf2  1  0.501103  0.326417  0.092845  1
  Hf  Hf3  1  0.008542  0.171763  0.409610  1
  Hf  Hf4  1  0.501250  0.332707  0.408496  1
  Hf  Hf5  1  0.004526  0.171124  0.091432  1
  Hf  Hf6  1  0.495248  0.673007  0.906760  1
  Hf  Hf7  1  0.002669  0.823805  0.595801  1
  Nb  Nb8  1  0.662611  0.176430  0.626243  1
  Nb  Nb9  1  0.162860  0.330602  0.876073  1
  Nb  Nb10  1  0.334420  0.829496  0.122498  1
  Nb  Nb11  1  0.838721  0.669139  0.374674  1
  Nb  Nb12  1  0.331121  0.829139  0.375436  1
  Nb  Nb13  1  0.837394  0.671515  0.122334  1
  Nb  Nb14  1  0.664704  0.171228  0.876584  1
  Nb  Nb15  1  0.162986  0.329235  0.623676  1
  Nb  Nb16  1  0.836557  0.497779  0.749828  1
  Nb  Nb17  1  0.337440  0.003314  0.749906  1
  Nb  Nb18  1  0.164732  0.503009  0.248635  1
  Nb  Nb19  1  0.661128  0.991101  0.245475  1
  Zn  Zn20  1  0.673701  0.966201  0.461696  1
  Si  Si21  1  0.171747  0.535653  0.038145  1
  Si  Si22  1  0.328849  0.037588  0.961088  1
  Si  Si23  1  0.826252  0.464400  0.537112  1
  Si  Si24  1  0.333114  0.034943  0.538521  1
  Si  Si25  1  0.827514  0.463499  0.961696  1
  Si  Si26  1  0.670785  0.963607  0.037491  1
  Si  Si27  1  0.170258  0.536517  0.461952  1
  Si  Si28  1  0.460334  0.388136  0.750671  1
  Si  Si29  1  0.961514  0.112664  0.750303  1
  Si  Si30  1  0.537542  0.616040  0.250450  1
  Si  Si31  1  0.037610  0.889131  0.249840  1
  Si  Si32  1  0.703256  0.860998  0.749327  1
  Si  Si33  1  0.203235  0.639593  0.750782  1
  Si  Si34  1  0.298280  0.139827  0.251377  1
  Ge  Ge35  1  0.797225  0.352822  0.250814  1
