# generated using pymatgen
data_KRb3Zn4(SiAs2)4
_symmetry_space_group_name_H-M   'P 1'
_cell_length_a   8.37542842
_cell_length_b   8.22707612
_cell_length_c   8.45375246
_cell_angle_alpha   71.28651785
_cell_angle_beta   75.75313224
_cell_angle_gamma   73.30433906
_symmetry_Int_Tables_number   1
_chemical_formula_structural   KRb3Zn4(SiAs2)4
_chemical_formula_sum   'K1 Rb3 Zn4 Si4 As8'
_cell_volume   520.79359579
_cell_formula_units_Z   1
loop_
 _symmetry_equiv_pos_site_id
 _symmetry_equiv_pos_as_xyz
  1  'x, y, z'
loop_
 _atom_site_type_symbol
 _atom_site_label
 _atom_site_symmetry_multiplicity
 _atom_site_fract_x
 _atom_site_fract_y
 _atom_site_fract_z
 _atom_site_occupancy
  K  K0  1  0.453611  0.766503  0.318997  1
  Rb  Rb1  1  0.546132  0.231580  0.681010  1
  Rb  Rb2  1  0.440349  0.801166  0.814726  1
  Rb  Rb3  1  0.559604  0.198424  0.185533  1
  Zn  Zn4  1  0.996206  0.894601  0.685136  1
  Zn  Zn5  1  0.003435  0.105301  0.315170  1
  Zn  Zn6  1  0.964201  0.814271  0.173452  1
  Zn  Zn7  1  0.035870  0.185501  0.826758  1
  Si  Si8  1  0.961532  0.588162  0.594608  1
  Si  Si9  1  0.038574  0.412118  0.404989  1
  Si  Si10  1  0.145913  0.448179  0.977361  1
  Si  Si11  1  0.855136  0.552140  0.022253  1
  As  As12  1  0.818957  0.877792  0.455650  1
  As  As13  1  0.180500  0.121811  0.543958  1
  As  As14  1  0.788318  0.404563  0.315840  1
  As  As15  1  0.211153  0.598427  0.682373  1
  As  As16  1  0.785576  0.867816  0.958289  1
  As  As17  1  0.214057  0.131063  0.043378  1
  As  As18  1  0.778305  0.441096  0.826379  1
  As  As19  1  0.222572  0.559484  0.174138  1
