# generated using pymatgen
data_Mg2Ta3VOs6
_symmetry_space_group_name_H-M   'P 1'
_cell_length_a   4.43907300
_cell_length_b   6.28185600
_cell_length_c   13.31493500
_cell_angle_alpha   90.00000000
_cell_angle_beta   89.99780560
_cell_angle_gamma   90.00000000
_symmetry_Int_Tables_number   1
_chemical_formula_structural   Mg2Ta3VOs6
_chemical_formula_sum   'Mg4 Ta6 V2 Os12'
_cell_volume   371.29518244
_cell_formula_units_Z   2
loop_
 _symmetry_equiv_pos_site_id
 _symmetry_equiv_pos_as_xyz
  1  'x, y, z'
loop_
 _atom_site_type_symbol
 _atom_site_label
 _atom_site_symmetry_multiplicity
 _atom_site_fract_x
 _atom_site_fract_y
 _atom_site_fract_z
 _atom_site_occupancy
  Mg  Mg0  1  0.999804  0.000000  0.333432  1
  Mg  Mg1  1  0.499992  0.500000  0.500256  1
  Mg  Mg2  1  0.000187  0.000000  0.666416  1
  Mg  Mg3  1  0.500167  0.500000  0.833232  1
  Ta  Ta4  1  0.999991  0.500000  0.996985  1
  Ta  Ta5  1  0.499861  0.000000  0.169671  1
  Ta  Ta6  1  0.999837  0.500000  0.339265  1
  Ta  Ta7  1  0.500013  0.000000  0.501514  1
  Ta  Ta8  1  0.000151  0.500000  0.665154  1
  Ta  Ta9  1  0.500142  0.000000  0.827400  1
  V  V10  1  0.999985  0.000000  0.997131  1
  V  V11  1  0.499845  0.500000  0.169537  1
  Os  Os12  1  0.499987  0.244852  0.004973  1
  Os  Os13  1  0.499987  0.755148  0.004973  1
  Os  Os14  1  0.999867  0.255152  0.161700  1
  Os  Os15  1  0.999867  0.744848  0.161700  1
  Os  Os16  1  0.499823  0.255841  0.325925  1
  Os  Os17  1  0.499823  0.744159  0.325925  1
  Os  Os18  1  0.000009  0.250401  0.498936  1
  Os  Os19  1  0.000009  0.749600  0.498936  1
  Os  Os20  1  0.500171  0.249614  0.667739  1
  Os  Os21  1  0.500171  0.750386  0.667739  1
  Os  Os22  1  0.000155  0.244154  0.840730  1
  Os  Os23  1  0.000155  0.755846  0.840730  1
