# generated using pymatgen
data_Y3Er3TcOs
_symmetry_space_group_name_H-M   'P 1'
_cell_length_a   6.27343945
_cell_length_b   7.44102200
_cell_length_c   9.04814212
_cell_angle_alpha   90.00000000
_cell_angle_beta   90.25382622
_cell_angle_gamma   90.00000000
_symmetry_Int_Tables_number   1
_chemical_formula_structural   Y3Er3TcOs
_chemical_formula_sum   'Y6 Er6 Tc2 Os2'
_cell_volume   422.37037625
_cell_formula_units_Z   2
loop_
 _symmetry_equiv_pos_site_id
 _symmetry_equiv_pos_as_xyz
  1  'x, y, z'
loop_
 _atom_site_type_symbol
 _atom_site_label
 _atom_site_symmetry_multiplicity
 _atom_site_fract_x
 _atom_site_fract_y
 _atom_site_fract_z
 _atom_site_occupancy
  Y  Y0  1  0.338810  0.675549  0.062211  1
  Y  Y1  1  0.161190  0.175549  0.437789  1
  Y  Y2  1  0.876752  0.539395  0.250300  1
  Y  Y3  1  0.623248  0.039395  0.249700  1
  Y  Y4  1  0.128556  0.459816  0.749994  1
  Y  Y5  1  0.371444  0.959816  0.750006  1
  Er  Er6  1  0.664091  0.325380  0.563276  1
  Er  Er7  1  0.835909  0.825380  0.936724  1
  Er  Er8  1  0.664291  0.324752  0.936851  1
  Er  Er9  1  0.835709  0.824752  0.563149  1
  Er  Er10  1  0.338840  0.674462  0.438200  1
  Er  Er11  1  0.161160  0.174462  0.061800  1
  Tc  Tc12  1  0.040829  0.883567  0.250019  1
  Tc  Tc13  1  0.459171  0.383567  0.249981  1
  Os  Os14  1  0.955374  0.117082  0.751540  1
  Os  Os15  1  0.544626  0.617082  0.748460  1
