# generated using pymatgen
data_Cs3K2CuSb2
_symmetry_space_group_name_H-M   'P 1'
_cell_length_a   10.34447310
_cell_length_b   10.34447318
_cell_length_c   10.34447213
_cell_angle_alpha   35.57657953
_cell_angle_beta   35.57657868
_cell_angle_gamma   35.57657630
_symmetry_Int_Tables_number   1
_chemical_formula_structural   Cs3K2CuSb2
_chemical_formula_sum   'Cs3 K2 Cu1 Sb2'
_cell_volume   334.87508111
_cell_formula_units_Z   1
loop_
 _symmetry_equiv_pos_site_id
 _symmetry_equiv_pos_as_xyz
  1  'x, y, z'
loop_
 _atom_site_type_symbol
 _atom_site_label
 _atom_site_symmetry_multiplicity
 _atom_site_fract_x
 _atom_site_fract_y
 _atom_site_fract_z
 _atom_site_occupancy
  Cs  Cs0  1  0.500000  0.500000  0.500000  1
  Cs  Cs1  1  0.362437  0.362437  0.362437  1
  Cs  Cs2  1  0.637563  0.637563  0.637563  1
  K  K3  1  0.216196  0.216196  0.216196  1
  K  K4  1  0.783804  0.783804  0.783804  1
  Cu  Cu5  1  0.000000  0.000000  0.000000  1
  Sb  Sb6  1  0.087683  0.087683  0.087683  1
  Sb  Sb7  1  0.912317  0.912317  0.912317  1
