# generated using pymatgen
data_TbLu15(Ga3Co)2
_symmetry_space_group_name_H-M   'P 1'
_cell_length_a   9.80309700
_cell_length_b   9.80309672
_cell_length_c   6.81544300
_cell_angle_alpha   90.00000000
_cell_angle_beta   90.00000000
_cell_angle_gamma   119.99999758
_symmetry_Int_Tables_number   1
_chemical_formula_structural   TbLu15(Ga3Co)2
_chemical_formula_sum   'Tb1 Lu15 Ga6 Co2'
_cell_volume   567.21971799
_cell_formula_units_Z   1
loop_
 _symmetry_equiv_pos_site_id
 _symmetry_equiv_pos_as_xyz
  1  'x, y, z'
loop_
 _atom_site_type_symbol
 _atom_site_label
 _atom_site_symmetry_multiplicity
 _atom_site_fract_x
 _atom_site_fract_y
 _atom_site_fract_z
 _atom_site_occupancy
  Tb  Tb0  1  0.000000  0.000000  0.269791  1
  Lu  Lu1  1  0.826006  0.652013  0.490703  1
  Lu  Lu2  1  0.347987  0.173994  0.490703  1
  Lu  Lu3  1  0.826006  0.173994  0.490703  1
  Lu  Lu4  1  0.174047  0.348092  0.988326  1
  Lu  Lu5  1  0.651908  0.825953  0.988326  1
  Lu  Lu6  1  0.174047  0.825953  0.988326  1
  Lu  Lu7  1  0.666667  0.333333  0.171515  1
  Lu  Lu8  1  0.333333  0.666667  0.673105  1
  Lu  Lu9  1  0.536256  0.072510  0.792656  1
  Lu  Lu10  1  0.927490  0.463744  0.792656  1
  Lu  Lu11  1  0.536256  0.463744  0.792656  1
  Lu  Lu12  1  0.463700  0.927401  0.292492  1
  Lu  Lu13  1  0.072599  0.536300  0.292492  1
  Lu  Lu14  1  0.463700  0.536300  0.292492  1
  Lu  Lu15  1  0.000000  0.000000  0.768305  1
  Ga  Ga16  1  0.836317  0.672636  0.038845  1
  Ga  Ga17  1  0.327364  0.163683  0.038845  1
  Ga  Ga18  1  0.836317  0.163683  0.038845  1
  Ga  Ga19  1  0.163670  0.327338  0.540725  1
  Ga  Ga20  1  0.672662  0.836330  0.540725  1
  Ga  Ga21  1  0.163670  0.836330  0.540725  1
  Co  Co22  1  0.666667  0.333333  0.555277  1
  Co  Co23  1  0.333333  0.666667  0.056839  1
