# generated using pymatgen
data_K2AuIBr8
_symmetry_space_group_name_H-M   'P 1'
_cell_length_a   6.28582650
_cell_length_b   7.64966093
_cell_length_c   10.83130300
_cell_angle_alpha   57.34149640
_cell_angle_beta   92.18291399
_cell_angle_gamma   91.32377125
_symmetry_Int_Tables_number   1
_chemical_formula_structural   K2AuIBr8
_chemical_formula_sum   'K2 Au1 I1 Br8'
_cell_volume   438.15671181
_cell_formula_units_Z   1
loop_
 _symmetry_equiv_pos_site_id
 _symmetry_equiv_pos_as_xyz
  1  'x, y, z'
loop_
 _atom_site_type_symbol
 _atom_site_label
 _atom_site_symmetry_multiplicity
 _atom_site_fract_x
 _atom_site_fract_y
 _atom_site_fract_z
 _atom_site_occupancy
  K  K0  1  0.000000  0.500000  0.500000  1
  K  K1  1  0.500000  0.500000  0.000000  1
  Au  Au2  1  0.000000  0.000000  0.000000  1
  I  I3  1  0.500000  0.000000  0.500000  1
  Br  Br4  1  0.193606  0.958401  0.684507  1
  Br  Br5  1  0.707871  0.037139  0.827852  1
  Br  Br6  1  0.806394  0.041599  0.315493  1
  Br  Br7  1  0.292129  0.962861  0.172148  1
  Br  Br8  1  0.983128  0.618308  0.121206  1
  Br  Br9  1  0.486056  0.417131  0.365157  1
  Br  Br10  1  0.016872  0.381692  0.878794  1
  Br  Br11  1  0.513944  0.582869  0.634843  1
