# generated using pymatgen
data_Tm2Hf4Fe7Co16
_symmetry_space_group_name_H-M   'P 1'
_cell_length_a   8.18393868
_cell_length_b   8.19490256
_cell_length_c   8.19490135
_cell_angle_alpha   59.83033548
_cell_angle_beta   60.04425304
_cell_angle_gamma   60.04424739
_symmetry_Int_Tables_number   1
_chemical_formula_structural   Tm2Hf4Fe7Co16
_chemical_formula_sum   'Tm2 Hf4 Fe7 Co16'
_cell_volume   388.38668945
_cell_formula_units_Z   1
loop_
 _symmetry_equiv_pos_site_id
 _symmetry_equiv_pos_as_xyz
  1  'x, y, z'
loop_
 _atom_site_type_symbol
 _atom_site_label
 _atom_site_symmetry_multiplicity
 _atom_site_fract_x
 _atom_site_fract_y
 _atom_site_fract_z
 _atom_site_occupancy
  Tm  Tm0  1  0.705595  0.292545  0.707455  1
  Tm  Tm1  1  0.705595  0.707455  0.292545  1
  Hf  Hf2  1  0.712429  0.284880  0.284880  1
  Hf  Hf3  1  0.282188  0.715120  0.715120  1
  Hf  Hf4  1  0.287205  0.710070  0.289930  1
  Hf  Hf5  1  0.287205  0.289930  0.710070  1
  Fe  Fe6  1  0.496663  0.000000  0.000000  1
  Fe  Fe7  1  0.003396  0.500000  0.500000  1
  Fe  Fe8  1  0.001327  0.498427  0.998502  1
  Fe  Fe9  1  0.001327  0.998502  0.498427  1
  Fe  Fe10  1  0.498255  0.001498  0.501573  1
  Fe  Fe11  1  0.498255  0.501573  0.001498  1
  Fe  Fe12  1  0.999121  0.000000  0.000000  1
  Co  Co13  1  0.326628  0.326481  0.326481  1
  Co  Co14  1  0.323994  0.325982  0.024152  1
  Co  Co15  1  0.028605  0.323178  0.323178  1
  Co  Co16  1  0.323994  0.024152  0.325982  1
  Co  Co17  1  0.674959  0.676822  0.676822  1
  Co  Co18  1  0.674126  0.674018  0.975848  1
  Co  Co19  1  0.674126  0.975848  0.674018  1
  Co  Co20  1  0.979588  0.673519  0.673519  1
  Co  Co21  1  0.122122  0.120885  0.120885  1
  Co  Co22  1  0.126182  0.120213  0.634612  1
  Co  Co23  1  0.632935  0.124576  0.124576  1
  Co  Co24  1  0.126182  0.634612  0.120213  1
  Co  Co25  1  0.882087  0.875424  0.875424  1
  Co  Co26  1  0.881009  0.879787  0.365388  1
  Co  Co27  1  0.881009  0.365388  0.879787  1
  Co  Co28  1  0.363892  0.879115  0.879115  1
