# generated using pymatgen
data_Rb2Ta6PbCl18
_symmetry_space_group_name_H-M   'P 1'
_cell_length_a   10.44326634
_cell_length_b   10.44326545
_cell_length_c   10.44326600
_cell_angle_alpha   54.77485012
_cell_angle_beta   54.77485717
_cell_angle_gamma   54.77485435
_symmetry_Int_Tables_number   1
_chemical_formula_structural   Rb2Ta6PbCl18
_chemical_formula_sum   'Rb2 Ta6 Pb1 Cl18'
_cell_volume   707.36684802
_cell_formula_units_Z   1
loop_
 _symmetry_equiv_pos_site_id
 _symmetry_equiv_pos_as_xyz
  1  'x, y, z'
loop_
 _atom_site_type_symbol
 _atom_site_label
 _atom_site_symmetry_multiplicity
 _atom_site_fract_x
 _atom_site_fract_y
 _atom_site_fract_z
 _atom_site_occupancy
  Rb  Rb0  1  0.723105  0.723105  0.723105  1
  Rb  Rb1  1  0.276895  0.276895  0.276895  1
  Ta  Ta2  1  0.579393  0.355230  0.699007  1
  Ta  Ta3  1  0.355230  0.699007  0.579393  1
  Ta  Ta4  1  0.699007  0.579393  0.355230  1
  Ta  Ta5  1  0.644770  0.300993  0.420607  1
  Ta  Ta6  1  0.420607  0.644770  0.300993  1
  Ta  Ta7  1  0.300993  0.420607  0.644770  1
  Pb  Pb8  1  0.000000  0.000000  0.000000  1
  Cl  Cl9  1  0.908320  0.358203  0.232802  1
  Cl  Cl10  1  0.831860  0.422519  0.565606  1
  Cl  Cl11  1  0.767198  0.091680  0.641797  1
  Cl  Cl12  1  0.091680  0.641797  0.767198  1
  Cl  Cl13  1  0.671565  0.174532  0.961351  1
  Cl  Cl14  1  0.232802  0.908320  0.358203  1
  Cl  Cl15  1  0.434394  0.168140  0.577481  1
  Cl  Cl16  1  0.641797  0.767198  0.091680  1
  Cl  Cl17  1  0.577481  0.434394  0.168140  1
  Cl  Cl18  1  0.038649  0.328435  0.825468  1
  Cl  Cl19  1  0.565606  0.831860  0.422519  1
  Cl  Cl20  1  0.358203  0.232802  0.908320  1
  Cl  Cl21  1  0.961351  0.671565  0.174532  1
  Cl  Cl22  1  0.168140  0.577481  0.434394  1
  Cl  Cl23  1  0.825468  0.038649  0.328435  1
  Cl  Cl24  1  0.422519  0.565606  0.831860  1
  Cl  Cl25  1  0.174532  0.961351  0.671565  1
  Cl  Cl26  1  0.328435  0.825468  0.038649  1
