# generated using pymatgen
data_Y3GaCoSn5
_symmetry_space_group_name_H-M   'P 1'
_cell_length_a   8.41053603
_cell_length_b   8.41053618
_cell_length_c   13.10949900
_cell_angle_alpha   90.00000000
_cell_angle_beta   90.00000000
_cell_angle_gamma   149.07419282
_symmetry_Int_Tables_number   1
_chemical_formula_structural   Y3GaCoSn5
_chemical_formula_sum   'Y6 Ga2 Co2 Sn10'
_cell_volume   476.57962534
_cell_formula_units_Z   2
loop_
 _symmetry_equiv_pos_site_id
 _symmetry_equiv_pos_as_xyz
  1  'x, y, z'
loop_
 _atom_site_type_symbol
 _atom_site_label
 _atom_site_symmetry_multiplicity
 _atom_site_fract_x
 _atom_site_fract_y
 _atom_site_fract_z
 _atom_site_occupancy
  Y  Y0  1  0.898156  0.101844  0.094566  1
  Y  Y1  1  0.101844  0.898156  0.594566  1
  Y  Y2  1  0.898447  0.101553  0.750000  1
  Y  Y3  1  0.101844  0.898156  0.905434  1
  Y  Y4  1  0.101553  0.898447  0.250000  1
  Y  Y5  1  0.898156  0.101844  0.405434  1
  Ga  Ga6  1  0.740604  0.259396  0.250000  1
  Ga  Ga7  1  0.259396  0.740604  0.750000  1
  Co  Co8  1  0.295518  0.704482  0.250000  1
  Co  Co9  1  0.704482  0.295518  0.750000  1
  Sn  Sn10  1  0.757954  0.242046  0.572790  1
  Sn  Sn11  1  0.427144  0.572856  0.577031  1
  Sn  Sn12  1  0.572856  0.427144  0.422969  1
  Sn  Sn13  1  0.242046  0.757954  0.072790  1
  Sn  Sn14  1  0.242046  0.757954  0.427210  1
  Sn  Sn15  1  0.572856  0.427144  0.077031  1
  Sn  Sn16  1  0.452101  0.547899  0.250000  1
  Sn  Sn17  1  0.547899  0.452101  0.750000  1
  Sn  Sn18  1  0.757954  0.242046  0.927210  1
  Sn  Sn19  1  0.427144  0.572856  0.922969  1
