# generated using pymatgen
data_LaTh2(MgIr)3
_symmetry_space_group_name_H-M   'P 1'
_cell_length_a   7.41769000
_cell_length_b   7.52330306
_cell_length_c   4.13857100
_cell_angle_alpha   90.00000000
_cell_angle_beta   90.00000000
_cell_angle_gamma   119.53669024
_symmetry_Int_Tables_number   1
_chemical_formula_structural   LaTh2(MgIr)3
_chemical_formula_sum   'La1 Th2 Mg3 Ir3'
_cell_volume   200.94025975
_cell_formula_units_Z   1
loop_
 _symmetry_equiv_pos_site_id
 _symmetry_equiv_pos_as_xyz
  1  'x, y, z'
loop_
 _atom_site_type_symbol
 _atom_site_label
 _atom_site_symmetry_multiplicity
 _atom_site_fract_x
 _atom_site_fract_y
 _atom_site_fract_z
 _atom_site_occupancy
  La  La0  1  0.412256  0.000000  0.500000  1
  Th  Th1  1  0.000701  0.411056  0.500000  1
  Th  Th2  1  0.589645  0.588944  0.500000  1
  Mg  Mg3  1  0.003014  0.766848  0.000000  1
  Mg  Mg4  1  0.236165  0.233152  0.000000  1
  Mg  Mg5  1  0.753635  0.000000  0.000000  1
  Ir  Ir6  1  0.331598  0.645483  0.000000  1
  Ir  Ir7  1  0.686117  0.354517  0.000000  1
  Ir  Ir8  1  0.986868  0.000000  0.500000  1
