# generated using pymatgen
data_Y12InTc3Pb
_symmetry_space_group_name_H-M   'P 1'
_cell_length_a   8.52137211
_cell_length_b   8.52137119
_cell_length_c   8.52137200
_cell_angle_alpha   108.94761935
_cell_angle_beta   109.03436920
_cell_angle_gamma   110.43601627
_symmetry_Int_Tables_number   1
_chemical_formula_structural   Y12InTc3Pb
_chemical_formula_sum   'Y12 In1 Tc3 Pb1'
_cell_volume   476.22681506
_cell_formula_units_Z   1
loop_
 _symmetry_equiv_pos_site_id
 _symmetry_equiv_pos_as_xyz
  1  'x, y, z'
loop_
 _atom_site_type_symbol
 _atom_site_label
 _atom_site_symmetry_multiplicity
 _atom_site_fract_x
 _atom_site_fract_y
 _atom_site_fract_z
 _atom_site_occupancy
  Y  Y0  1  0.302754  0.307046  0.609801  1
  Y  Y1  1  0.697246  0.692954  0.390199  1
  Y  Y2  1  0.697246  0.307046  0.004292  1
  Y  Y3  1  0.302754  0.692954  0.995708  1
  Y  Y4  1  0.189379  0.429346  0.239967  1
  Y  Y5  1  0.810621  0.570654  0.760033  1
  Y  Y6  1  0.189379  0.949411  0.760033  1
  Y  Y7  1  0.951819  0.190881  0.760939  1
  Y  Y8  1  0.810621  0.050589  0.239967  1
  Y  Y9  1  0.048181  0.809119  0.239061  1
  Y  Y10  1  0.429942  0.190881  0.239061  1
  Y  Y11  1  0.570058  0.809119  0.760939  1
  In  In12  1  0.000000  0.500000  0.500000  1
  Tc  Tc13  1  0.375991  0.375991  0.000000  1
  Tc  Tc14  1  0.624009  0.624009  0.000000  1
  Tc  Tc15  1  0.000000  0.000000  0.000000  1
  Pb  Pb16  1  0.500000  0.000000  0.500000  1
