# generated using pymatgen
data_Yb3Pr(Sc3Sn4)2
_symmetry_space_group_name_H-M   'P 1'
_cell_length_a   7.67571148
_cell_length_b   8.02892517
_cell_length_c   15.04587900
_cell_angle_alpha   89.91480836
_cell_angle_beta   89.86133827
_cell_angle_gamma   90.22366968
_symmetry_Int_Tables_number   1
_chemical_formula_structural   Yb3Pr(Sc3Sn4)2
_chemical_formula_sum   'Yb6 Pr2 Sc12 Sn16'
_cell_volume   927.23229495
_cell_formula_units_Z   2
loop_
 _symmetry_equiv_pos_site_id
 _symmetry_equiv_pos_as_xyz
  1  'x, y, z'
loop_
 _atom_site_type_symbol
 _atom_site_label
 _atom_site_symmetry_multiplicity
 _atom_site_fract_x
 _atom_site_fract_y
 _atom_site_fract_z
 _atom_site_occupancy
  Yb  Yb0  1  0.995562  0.176784  0.092319  1
  Yb  Yb1  1  0.004438  0.823216  0.907681  1
  Yb  Yb2  1  0.505386  0.676820  0.907011  1
  Yb  Yb3  1  0.005064  0.822447  0.592082  1
  Yb  Yb4  1  0.494614  0.323180  0.092989  1
  Yb  Yb5  1  0.994936  0.177553  0.407918  1
  Pr  Pr6  1  0.499682  0.324705  0.406534  1
  Pr  Pr7  1  0.500318  0.675295  0.593466  1
  Sc  Sc8  1  0.163889  0.498096  0.750851  1
  Sc  Sc9  1  0.836111  0.501904  0.249149  1
  Sc  Sc10  1  0.335024  0.998740  0.249307  1
  Sc  Sc11  1  0.664976  0.001260  0.750693  1
  Sc  Sc12  1  0.331275  0.159261  0.626736  1
  Sc  Sc13  1  0.668725  0.840739  0.373264  1
  Sc  Sc14  1  0.168005  0.660091  0.373116  1
  Sc  Sc15  1  0.669923  0.840593  0.126722  1
  Sc  Sc16  1  0.831995  0.339909  0.626884  1
  Sc  Sc17  1  0.330077  0.159407  0.873278  1
  Sc  Sc18  1  0.832099  0.339297  0.873490  1
  Sc  Sc19  1  0.167901  0.660703  0.126510  1
  Sn  Sn20  1  0.025466  0.127420  0.749335  1
  Sn  Sn21  1  0.974534  0.872580  0.250665  1
  Sn  Sn22  1  0.474230  0.625754  0.249933  1
  Sn  Sn23  1  0.525770  0.374246  0.750067  1
  Sn  Sn24  1  0.303652  0.854929  0.751183  1
  Sn  Sn25  1  0.696348  0.145071  0.248817  1
  Sn  Sn26  1  0.194559  0.355020  0.250520  1
  Sn  Sn27  1  0.805441  0.644980  0.749480  1
  Sn  Sn28  1  0.170766  0.454720  0.542853  1
  Sn  Sn29  1  0.829234  0.545280  0.457147  1
  Sn  Sn30  1  0.327720  0.958540  0.457104  1
  Sn  Sn31  1  0.828186  0.541837  0.043431  1
  Sn  Sn32  1  0.672280  0.041460  0.542896  1
  Sn  Sn33  1  0.171814  0.458163  0.956569  1
  Sn  Sn34  1  0.671101  0.041453  0.956416  1
  Sn  Sn35  1  0.328899  0.958547  0.043584  1
