# generated using pymatgen
data_Y6Ho10Cd4Co3Ir
_symmetry_space_group_name_H-M   'P 1'
_cell_length_a   9.53174813
_cell_length_b   9.49668302
_cell_length_c   9.49668300
_cell_angle_alpha   59.99999658
_cell_angle_beta   60.12161492
_cell_angle_gamma   60.12161623
_symmetry_Int_Tables_number   1
_chemical_formula_structural   Y6Ho10Cd4Co3Ir
_chemical_formula_sum   'Y6 Ho10 Cd4 Co3 Ir1'
_cell_volume   608.97199320
_cell_formula_units_Z   1
loop_
 _symmetry_equiv_pos_site_id
 _symmetry_equiv_pos_as_xyz
  1  'x, y, z'
loop_
 _atom_site_type_symbol
 _atom_site_label
 _atom_site_symmetry_multiplicity
 _atom_site_fract_x
 _atom_site_fract_y
 _atom_site_fract_z
 _atom_site_occupancy
  Y  Y0  1  0.937560  0.562124  0.562124  1
  Y  Y1  1  0.561868  0.938659  0.938659  1
  Y  Y2  1  0.561868  0.938659  0.560815  1
  Y  Y3  1  0.937560  0.562124  0.938193  1
  Y  Y4  1  0.561868  0.560815  0.938659  1
  Y  Y5  1  0.937560  0.938193  0.562124  1
  Ho  Ho6  1  0.342823  0.349906  0.349906  1
  Ho  Ho7  1  0.342823  0.349906  0.957366  1
  Ho  Ho8  1  0.342823  0.957366  0.349906  1
  Ho  Ho9  1  0.960472  0.346509  0.346509  1
  Ho  Ho10  1  0.816640  0.187890  0.187890  1
  Ho  Ho11  1  0.187823  0.812606  0.812606  1
  Ho  Ho12  1  0.187823  0.812606  0.186965  1
  Ho  Ho13  1  0.816640  0.187890  0.807581  1
  Ho  Ho14  1  0.187823  0.186965  0.812606  1
  Ho  Ho15  1  0.816640  0.807581  0.187890  1
  Cd  Cd16  1  0.580349  0.579861  0.579861  1
  Cd  Cd17  1  0.580349  0.579861  0.259928  1
  Cd  Cd18  1  0.580349  0.259928  0.579861  1
  Cd  Cd19  1  0.259444  0.580185  0.580185  1
  Co  Co20  1  0.141287  0.141355  0.141355  1
  Co  Co21  1  0.141287  0.141355  0.576003  1
  Co  Co22  1  0.141287  0.576003  0.141355  1
  Ir  Ir23  1  0.575033  0.141656  0.141656  1
