# generated using pymatgen
data_Lu10Cd3Au
_symmetry_space_group_name_H-M   'P 1'
_cell_length_a   9.47252600
_cell_length_b   9.47252537
_cell_length_c   9.66155500
_cell_angle_alpha   90.00000000
_cell_angle_beta   90.00000000
_cell_angle_gamma   119.99999523
_symmetry_Int_Tables_number   1
_chemical_formula_structural   Lu10Cd3Au
_chemical_formula_sum   'Lu20 Cd6 Au2'
_cell_volume   750.77407234
_cell_formula_units_Z   2
loop_
 _symmetry_equiv_pos_site_id
 _symmetry_equiv_pos_as_xyz
  1  'x, y, z'
loop_
 _atom_site_type_symbol
 _atom_site_label
 _atom_site_symmetry_multiplicity
 _atom_site_fract_x
 _atom_site_fract_y
 _atom_site_fract_z
 _atom_site_occupancy
  Lu  Lu0  1  0.207464  0.792536  0.946807  1
  Lu  Lu1  1  0.207464  0.414930  0.946807  1
  Lu  Lu2  1  0.585070  0.792536  0.946807  1
  Lu  Lu3  1  0.792536  0.207464  0.053193  1
  Lu  Lu4  1  0.792536  0.585070  0.053193  1
  Lu  Lu5  1  0.414930  0.207464  0.053193  1
  Lu  Lu6  1  0.792536  0.207464  0.446807  1
  Lu  Lu7  1  0.792536  0.585070  0.446807  1
  Lu  Lu8  1  0.414930  0.207464  0.446807  1
  Lu  Lu9  1  0.207464  0.792536  0.553193  1
  Lu  Lu10  1  0.207464  0.414930  0.553193  1
  Lu  Lu11  1  0.585070  0.792536  0.553193  1
  Lu  Lu12  1  0.543022  0.456978  0.750000  1
  Lu  Lu13  1  0.543022  0.086045  0.750000  1
  Lu  Lu14  1  0.913955  0.456978  0.750000  1
  Lu  Lu15  1  0.456978  0.543022  0.250000  1
  Lu  Lu16  1  0.456978  0.913955  0.250000  1
  Lu  Lu17  1  0.086045  0.543022  0.250000  1
  Lu  Lu18  1  0.000000  0.000000  0.000000  1
  Lu  Lu19  1  0.000000  0.000000  0.500000  1
  Cd  Cd20  1  0.885278  0.114722  0.750000  1
  Cd  Cd21  1  0.885278  0.770555  0.750000  1
  Cd  Cd22  1  0.229445  0.114722  0.750000  1
  Cd  Cd23  1  0.114722  0.885278  0.250000  1
  Cd  Cd24  1  0.114722  0.229445  0.250000  1
  Cd  Cd25  1  0.770555  0.885278  0.250000  1
  Au  Au26  1  0.333333  0.666667  0.750000  1
  Au  Au27  1  0.666667  0.333333  0.250000  1
