# generated using pymatgen
data_Nd4Y12Cd4Co3Ni
_symmetry_space_group_name_H-M   'P 1'
_cell_length_a   9.64303668
_cell_length_b   9.62901028
_cell_length_c   9.62901000
_cell_angle_alpha   60.00000096
_cell_angle_beta   60.04810584
_cell_angle_gamma   60.04810376
_symmetry_Int_Tables_number   1
_chemical_formula_structural   Nd4Y12Cd4Co3Ni
_chemical_formula_sum   'Nd4 Y12 Cd4 Co3 Ni1'
_cell_volume   632.67038646
_cell_formula_units_Z   1
loop_
 _symmetry_equiv_pos_site_id
 _symmetry_equiv_pos_as_xyz
  1  'x, y, z'
loop_
 _atom_site_type_symbol
 _atom_site_label
 _atom_site_symmetry_multiplicity
 _atom_site_fract_x
 _atom_site_fract_y
 _atom_site_fract_z
 _atom_site_occupancy
  Nd  Nd0  1  0.597005  0.600087  0.600087  1
  Nd  Nd1  1  0.597005  0.600087  0.202821  1
  Nd  Nd2  1  0.597005  0.202821  0.600087  1
  Nd  Nd3  1  0.206214  0.597928  0.597928  1
  Y  Y4  1  0.066592  0.437135  0.437135  1
  Y  Y5  1  0.436214  0.063416  0.063416  1
  Y  Y6  1  0.436214  0.063416  0.436955  1
  Y  Y7  1  0.066592  0.437135  0.059138  1
  Y  Y8  1  0.436214  0.436955  0.063416  1
  Y  Y9  1  0.066592  0.059138  0.437135  1
  Y  Y10  1  0.185393  0.813809  0.813809  1
  Y  Y11  1  0.811398  0.186621  0.186621  1
  Y  Y12  1  0.811398  0.186621  0.815361  1
  Y  Y13  1  0.185393  0.813809  0.186988  1
  Y  Y14  1  0.811398  0.815361  0.186621  1
  Y  Y15  1  0.185393  0.186988  0.813809  1
  Cd  Cd16  1  0.830610  0.830809  0.830809  1
  Cd  Cd17  1  0.830610  0.830809  0.507770  1
  Cd  Cd18  1  0.830610  0.507770  0.830809  1
  Cd  Cd19  1  0.506917  0.831027  0.831027  1
  Co  Co20  1  0.392171  0.390300  0.390300  1
  Co  Co21  1  0.392171  0.390300  0.827231  1
  Co  Co22  1  0.392171  0.827231  0.390300  1
  Ni  Ni23  1  0.828716  0.390429  0.390429  1
