# generated using pymatgen
data_AlGa3Si2(Pb2O7)2
_symmetry_space_group_name_H-M   'P 1'
_cell_length_a   5.49777681
_cell_length_b   8.09051191
_cell_length_c   8.05347136
_cell_angle_alpha   89.96759359
_cell_angle_beta   89.98878113
_cell_angle_gamma   89.57466561
_symmetry_Int_Tables_number   1
_chemical_formula_structural   AlGa3Si2(Pb2O7)2
_chemical_formula_sum   'Al1 Ga3 Si2 Pb4 O14'
_cell_volume   358.20709257
_cell_formula_units_Z   1
loop_
 _symmetry_equiv_pos_site_id
 _symmetry_equiv_pos_as_xyz
  1  'x, y, z'
loop_
 _atom_site_type_symbol
 _atom_site_label
 _atom_site_symmetry_multiplicity
 _atom_site_fract_x
 _atom_site_fract_y
 _atom_site_fract_z
 _atom_site_occupancy
  Al  Al0  1  0.002519  0.499766  0.501583  1
  Ga  Ga1  1  0.997603  0.000390  0.001137  1
  Ga  Ga2  1  0.973167  0.637153  0.144481  1
  Ga  Ga3  1  0.027490  0.858872  0.639770  1
  Si  Si4  1  0.964842  0.354414  0.857746  1
  Si  Si5  1  0.034586  0.149571  0.360490  1
  Pb  Pb6  1  0.518719  0.818823  0.333404  1
  Pb  Pb7  1  0.482318  0.677429  0.831652  1
  Pb  Pb8  1  0.522769  0.150798  0.654980  1
  Pb  Pb9  1  0.475594  0.347272  0.154811  1
  O  O10  1  0.154744  0.018101  0.495652  1
  O  O11  1  0.844863  0.483016  0.995618  1
  O  O12  1  0.161082  0.331651  0.404070  1
  O  O13  1  0.828374  0.173928  0.896941  1
  O  O14  1  0.187547  0.663172  0.577283  1
  O  O15  1  0.805242  0.831290  0.083277  1
  O  O16  1  0.810289  0.585810  0.344416  1
  O  O17  1  0.198291  0.911146  0.837085  1
  O  O18  1  0.851021  0.411316  0.675465  1
  O  O19  1  0.159003  0.098730  0.178852  1
  O  O20  1  0.305763  0.633373  0.148420  1
  O  O21  1  0.695123  0.866636  0.650347  1
  O  O22  1  0.259001  0.345776  0.867342  1
  O  O23  1  0.740049  0.151568  0.365178  1
