# generated using pymatgen
data_Lu5Th3(Si3Pd)4
_symmetry_space_group_name_H-M   'P 1'
_cell_length_a   8.05418500
_cell_length_b   8.05418574
_cell_length_c   8.21943300
_cell_angle_alpha   90.00000000
_cell_angle_beta   90.00000000
_cell_angle_gamma   119.90462958
_symmetry_Int_Tables_number   1
_chemical_formula_structural   Lu5Th3(Si3Pd)4
_chemical_formula_sum   'Lu5 Th3 Si12 Pd4'
_cell_volume   462.20250528
_cell_formula_units_Z   1
loop_
 _symmetry_equiv_pos_site_id
 _symmetry_equiv_pos_as_xyz
  1  'x, y, z'
loop_
 _atom_site_type_symbol
 _atom_site_label
 _atom_site_symmetry_multiplicity
 _atom_site_fract_x
 _atom_site_fract_y
 _atom_site_fract_z
 _atom_site_occupancy
  Lu  Lu0  1  0.499842  0.500158  0.750000  1
  Lu  Lu1  1  0.000211  0.500119  0.750000  1
  Lu  Lu2  1  0.999762  0.499911  0.250000  1
  Lu  Lu3  1  0.499881  0.999789  0.750000  1
  Lu  Lu4  1  0.500089  0.000238  0.250000  1
  Th  Th5  1  0.500055  0.499945  0.250000  1
  Th  Th6  1  0.999984  0.000016  0.750000  1
  Th  Th7  1  0.000293  0.999707  0.250000  1
  Si  Si8  1  0.833025  0.166975  0.000460  1
  Si  Si9  1  0.166957  0.833043  0.000571  1
  Si  Si10  1  0.333516  0.165762  0.997136  1
  Si  Si11  1  0.166957  0.833043  0.499429  1
  Si  Si12  1  0.666503  0.834288  0.997315  1
  Si  Si13  1  0.833025  0.166975  0.499540  1
  Si  Si14  1  0.834238  0.666484  0.997136  1
  Si  Si15  1  0.666503  0.834288  0.502685  1
  Si  Si16  1  0.165712  0.333497  0.997315  1
  Si  Si17  1  0.333516  0.165762  0.502864  1
  Si  Si18  1  0.165712  0.333497  0.502685  1
  Si  Si19  1  0.834238  0.666484  0.502864  1
  Pd  Pd20  1  0.667579  0.332421  0.993581  1
  Pd  Pd21  1  0.332413  0.667587  0.994068  1
  Pd  Pd22  1  0.332413  0.667587  0.505932  1
  Pd  Pd23  1  0.667579  0.332421  0.506419  1
