# generated using pymatgen
data_TbAlCo3B
_symmetry_space_group_name_H-M   'P 1'
_cell_length_a   5.17477700
_cell_length_b   5.17483115
_cell_length_c   6.64287800
_cell_angle_alpha   90.00000000
_cell_angle_beta   90.00000000
_cell_angle_gamma   119.99967304
_symmetry_Int_Tables_number   1
_chemical_formula_structural   TbAlCo3B
_chemical_formula_sum   'Tb2 Al2 Co6 B2'
_cell_volume   154.05512894
_cell_formula_units_Z   2
loop_
 _symmetry_equiv_pos_site_id
 _symmetry_equiv_pos_as_xyz
  1  'x, y, z'
loop_
 _atom_site_type_symbol
 _atom_site_label
 _atom_site_symmetry_multiplicity
 _atom_site_fract_x
 _atom_site_fract_y
 _atom_site_fract_z
 _atom_site_occupancy
  Tb  Tb0  1  0.999977  0.000000  0.000000  1
  Tb  Tb1  1  0.999990  0.000000  0.500000  1
  Al  Al2  1  0.333354  0.666748  0.000000  1
  Al  Al3  1  0.666606  0.333252  0.000000  1
  Co  Co4  1  0.499987  0.000000  0.294503  1
  Co  Co5  1  0.499985  0.500001  0.294417  1
  Co  Co6  1  0.999983  0.499999  0.294417  1
  Co  Co7  1  0.499987  0.000000  0.705497  1
  Co  Co8  1  0.499985  0.500001  0.705583  1
  Co  Co9  1  0.999983  0.499999  0.705583  1
  B  B10  1  0.333336  0.666708  0.500000  1
  B  B11  1  0.666628  0.333292  0.500000  1
