# generated using pymatgen
data_La5Zn2TcRh2
_symmetry_space_group_name_H-M   'P 1'
_cell_length_a   8.67100943
_cell_length_b   8.63838629
_cell_length_c   8.64262000
_cell_angle_alpha   109.40927423
_cell_angle_beta   109.70642794
_cell_angle_gamma   109.54769885
_symmetry_Int_Tables_number   1
_chemical_formula_structural   La5Zn2TcRh2
_chemical_formula_sum   'La10 Zn4 Tc2 Rh4'
_cell_volume   496.79568353
_cell_formula_units_Z   2
loop_
 _symmetry_equiv_pos_site_id
 _symmetry_equiv_pos_as_xyz
  1  'x, y, z'
loop_
 _atom_site_type_symbol
 _atom_site_label
 _atom_site_symmetry_multiplicity
 _atom_site_fract_x
 _atom_site_fract_y
 _atom_site_fract_z
 _atom_site_occupancy
  La  La0  1  0.252910  0.689099  0.443868  1
  La  La1  1  0.743215  0.806440  0.056450  1
  La  La2  1  0.439583  0.251813  0.690648  1
  La  La3  1  0.688105  0.443960  0.251441  1
  La  La4  1  0.059787  0.749027  0.808027  1
  La  La5  1  0.805669  0.053870  0.743388  1
  La  La6  1  0.221598  0.221787  0.221062  1
  La  La7  1  0.502892  0.997587  0.279339  1
  La  La8  1  0.282242  0.504416  0.002342  1
  La  La9  1  0.004716  0.281914  0.503005  1
  Zn  Zn10  1  0.498956  0.998650  0.911911  1
  Zn  Zn11  1  0.585464  0.587664  0.586794  1
  Zn  Zn12  1  0.911723  0.499394  0.000057  1
  Zn  Zn13  1  0.997785  0.911448  0.498393  1
  Tc  Tc14  1  0.625725  0.751623  0.375135  1
  Tc  Tc15  1  0.371559  0.621318  0.749704  1
  Rh  Rh16  1  0.250888  0.126557  0.877806  1
  Rh  Rh17  1  0.751074  0.373959  0.624192  1
  Rh  Rh18  1  0.877453  0.250812  0.126120  1
  Rh  Rh19  1  0.128657  0.878661  0.250321  1
