# generated using pymatgen
data_Tb4Y4Hf9Si16W3
_symmetry_space_group_name_H-M   'P 1'
_cell_length_a   7.19636770
_cell_length_b   7.19576732
_cell_length_c   13.17480215
_cell_angle_alpha   90.10339793
_cell_angle_beta   90.10090569
_cell_angle_gamma   90.09586993
_symmetry_Int_Tables_number   1
_chemical_formula_structural   Tb4Y4Hf9Si16W3
_chemical_formula_sum   'Tb4 Y4 Hf9 Si16 W3'
_cell_volume   682.23275695
_cell_formula_units_Z   1
loop_
 _symmetry_equiv_pos_site_id
 _symmetry_equiv_pos_as_xyz
  1  'x, y, z'
loop_
 _atom_site_type_symbol
 _atom_site_label
 _atom_site_symmetry_multiplicity
 _atom_site_fract_x
 _atom_site_fract_y
 _atom_site_fract_z
 _atom_site_occupancy
  Tb  Tb0  1  0.846029  0.502191  0.967754  1
  Tb  Tb1  1  0.497846  0.153976  0.532202  1
  Tb  Tb2  1  0.343441  0.996398  0.785404  1
  Tb  Tb3  1  0.655741  0.000954  0.284583  1
  Y  Y4  1  0.999146  0.344318  0.215390  1
  Y  Y5  1  0.003618  0.656531  0.714612  1
  Y  Y6  1  0.154912  0.499696  0.463934  1
  Y  Y7  1  0.500328  0.845089  0.036008  1
  Hf  Hf8  1  0.675697  0.324298  0.750001  1
  Hf  Hf9  1  0.146897  0.992740  0.373412  1
  Hf  Hf10  1  0.854507  0.004816  0.876393  1
  Hf  Hf11  1  0.506154  0.649618  0.621139  1
  Hf  Hf12  1  0.350329  0.493907  0.878930  1
  Hf  Hf13  1  0.492732  0.352492  0.125463  1
  Hf  Hf14  1  0.647507  0.507199  0.374530  1
  Hf  Hf15  1  0.995338  0.145386  0.623645  1
  Hf  Hf16  1  0.007053  0.853170  0.126592  1
  Si  Si17  1  0.360523  0.298292  0.316525  1
  Si  Si18  1  0.638166  0.704633  0.816934  1
  Si  Si19  1  0.202744  0.861202  0.565547  1
  Si  Si20  1  0.138692  0.797110  0.934561  1
  Si  Si21  1  0.797837  0.138637  0.067096  1
  Si  Si22  1  0.861546  0.202358  0.433034  1
  Si  Si23  1  0.295255  0.362035  0.683016  1
  Si  Si24  1  0.701800  0.639231  0.183394  1
  Si  Si25  1  0.295666  0.050834  0.184015  1
  Si  Si26  1  0.704957  0.947299  0.681986  1
  Si  Si27  1  0.448753  0.795177  0.432209  1
  Si  Si28  1  0.204699  0.551077  0.067852  1
  Si  Si29  1  0.547464  0.202869  0.936288  1
  Si  Si30  1  0.797237  0.452742  0.563730  1
  Si  Si31  1  0.052641  0.295210  0.817917  1
  Si  Si32  1  0.949270  0.704044  0.315891  1
  W  W33  1  0.176762  0.175455  0.001517  1
  W  W34  1  0.824601  0.823205  0.498490  1
  W  W35  1  0.324112  0.675812  0.250005  1
