# generated using pymatgen
data_Ce4ScNb(B2Ru5)2
_symmetry_space_group_name_H-M   'P 1'
_cell_length_a   9.77732200
_cell_length_b   9.77732200
_cell_length_c   3.15492800
_cell_angle_alpha   90.00000000
_cell_angle_beta   90.00000000
_cell_angle_gamma   90.00000000
_symmetry_Int_Tables_number   1
_chemical_formula_structural   Ce4ScNb(B2Ru5)2
_chemical_formula_sum   'Ce4 Sc1 Nb1 B4 Ru10'
_cell_volume   301.59857751
_cell_formula_units_Z   1
loop_
 _symmetry_equiv_pos_site_id
 _symmetry_equiv_pos_as_xyz
  1  'x, y, z'
loop_
 _atom_site_type_symbol
 _atom_site_label
 _atom_site_symmetry_multiplicity
 _atom_site_fract_x
 _atom_site_fract_y
 _atom_site_fract_z
 _atom_site_occupancy
  Ce  Ce0  1  0.822687  0.674092  0.000000  1
  Ce  Ce1  1  0.177313  0.325908  0.000000  1
  Ce  Ce2  1  0.325908  0.822687  0.000000  1
  Ce  Ce3  1  0.674092  0.177313  0.000000  1
  Sc  Sc4  1  0.500000  0.500000  0.000000  1
  Nb  Nb5  1  0.000000  0.000000  0.000000  1
  B  B6  1  0.620414  0.877229  0.000000  1
  B  B7  1  0.379586  0.122771  0.000000  1
  B  B8  1  0.122771  0.620414  0.000000  1
  B  B9  1  0.877229  0.379586  0.000000  1
  Ru  Ru10  1  0.574387  0.724522  0.500000  1
  Ru  Ru11  1  0.425613  0.275478  0.500000  1
  Ru  Ru12  1  0.068331  0.781417  0.500000  1
  Ru  Ru13  1  0.931669  0.218583  0.500000  1
  Ru  Ru14  1  0.275478  0.574387  0.500000  1
  Ru  Ru15  1  0.724522  0.425613  0.500000  1
  Ru  Ru16  1  0.218583  0.068331  0.500000  1
  Ru  Ru17  1  0.781417  0.931669  0.500000  1
  Ru  Ru18  1  0.500000  0.000000  0.500000  1
  Ru  Ru19  1  0.000000  0.500000  0.500000  1
