# generated using pymatgen
data_NdHo(Al3Zn5)2
_symmetry_space_group_name_H-M   'P 1'
_cell_length_a   8.56542214
_cell_length_b   8.56542173
_cell_length_c   10.46785400
_cell_angle_alpha   114.15018721
_cell_angle_beta   114.15017865
_cell_angle_gamma   89.99999343
_symmetry_Int_Tables_number   1
_chemical_formula_structural   NdHo(Al3Zn5)2
_chemical_formula_sum   'Nd2 Ho2 Al12 Zn20'
_cell_volume   626.38256969
_cell_formula_units_Z   2
loop_
 _symmetry_equiv_pos_site_id
 _symmetry_equiv_pos_as_xyz
  1  'x, y, z'
loop_
 _atom_site_type_symbol
 _atom_site_label
 _atom_site_symmetry_multiplicity
 _atom_site_fract_x
 _atom_site_fract_y
 _atom_site_fract_z
 _atom_site_occupancy
  Nd  Nd0  1  0.500000  0.000000  0.000000  1
  Nd  Nd1  1  0.000000  0.500000  0.000000  1
  Ho  Ho2  1  0.721627  0.721627  0.443256  1
  Ho  Ho3  1  0.278372  0.278372  0.556744  1
  Al  Al4  1  0.369724  0.139052  0.278104  1
  Al  Al5  1  0.908381  0.139052  0.278104  1
  Al  Al6  1  0.139052  0.369724  0.278104  1
  Al  Al7  1  0.139052  0.908381  0.278104  1
  Al  Al8  1  0.000000  0.000000  0.500000  1
  Al  Al9  1  0.500000  0.000000  0.500000  1
  Al  Al10  1  0.000000  0.500000  0.500000  1
  Al  Al11  1  0.500000  0.500000  0.500000  1
  Al  Al12  1  0.860947  0.091620  0.721895  1
  Al  Al13  1  0.860947  0.630275  0.721895  1
  Al  Al14  1  0.091620  0.860947  0.721895  1
  Al  Al15  1  0.630275  0.860947  0.721895  1
  Zn  Zn16  1  0.152199  0.152199  0.000000  1
  Zn  Zn17  1  0.847801  0.152199  0.000000  1
  Zn  Zn18  1  0.152199  0.847801  0.000000  1
  Zn  Zn19  1  0.847801  0.847801  0.000000  1
  Zn  Zn20  1  0.417036  0.417036  0.157069  1
  Zn  Zn21  1  0.740034  0.417036  0.157069  1
  Zn  Zn22  1  0.417036  0.740034  0.157069  1
  Zn  Zn23  1  0.740034  0.740034  0.157069  1
  Zn  Zn24  1  0.673579  0.021636  0.347159  1
  Zn  Zn25  1  0.673579  0.325523  0.347159  1
  Zn  Zn26  1  0.021636  0.673579  0.347159  1
  Zn  Zn27  1  0.325523  0.673579  0.347159  1
  Zn  Zn28  1  0.674477  0.326421  0.652841  1
  Zn  Zn29  1  0.978364  0.326421  0.652841  1
  Zn  Zn30  1  0.326421  0.674477  0.652841  1
  Zn  Zn31  1  0.326421  0.978364  0.652841  1
  Zn  Zn32  1  0.259967  0.259967  0.842931  1
  Zn  Zn33  1  0.582965  0.259967  0.842931  1
  Zn  Zn34  1  0.259967  0.582965  0.842931  1
  Zn  Zn35  1  0.582965  0.582965  0.842931  1
