# generated using pymatgen
data_Ho5ErCrB14Os
_symmetry_space_group_name_H-M   'P 1'
_cell_length_a   8.02812703
_cell_length_b   8.02812752
_cell_length_c   9.30138000
_cell_angle_alpha   90.00000000
_cell_angle_beta   90.00000000
_cell_angle_gamma   155.01799918
_symmetry_Int_Tables_number   1
_chemical_formula_structural   Ho5ErCrB14Os
_chemical_formula_sum   'Ho5 Er1 Cr1 B14 Os1'
_cell_volume   253.18119596
_cell_formula_units_Z   1
loop_
 _symmetry_equiv_pos_site_id
 _symmetry_equiv_pos_as_xyz
  1  'x, y, z'
loop_
 _atom_site_type_symbol
 _atom_site_label
 _atom_site_symmetry_multiplicity
 _atom_site_fract_x
 _atom_site_fract_y
 _atom_site_fract_z
 _atom_site_occupancy
  Ho  Ho0  1  0.755899  0.244101  0.250000  1
  Ho  Ho1  1  0.894288  0.105712  0.561858  1
  Ho  Ho2  1  0.105646  0.894354  0.441375  1
  Ho  Ho3  1  0.105646  0.894354  0.058625  1
  Ho  Ho4  1  0.894288  0.105712  0.938142  1
  Er  Er5  1  0.241728  0.758272  0.750000  1
  Cr  Cr6  1  0.052704  0.947296  0.750000  1
  B  B7  1  0.543551  0.456449  0.250000  1
  B  B8  1  0.457785  0.542215  0.750000  1
  B  B9  1  0.520947  0.479053  0.903710  1
  B  B10  1  0.479632  0.520368  0.095353  1
  B  B11  1  0.479632  0.520368  0.404647  1
  B  B12  1  0.520947  0.479053  0.596290  1
  B  B13  1  0.631364  0.368636  0.848087  1
  B  B14  1  0.368308  0.631692  0.149963  1
  B  B15  1  0.727911  0.272089  0.965900  1
  B  B16  1  0.273023  0.726977  0.033821  1
  B  B17  1  0.273023  0.726977  0.466179  1
  B  B18  1  0.727911  0.272089  0.534100  1
  B  B19  1  0.631364  0.368636  0.651913  1
  B  B20  1  0.368308  0.631692  0.350037  1
  Os  Os21  1  0.946095  0.053905  0.250000  1
