# generated using pymatgen
data_Pr8Nd12Si15Ir
_symmetry_space_group_name_H-M   'P 1'
_cell_length_a   7.72909166
_cell_length_b   7.96626666
_cell_length_c   15.30758000
_cell_angle_alpha   90.00000000
_cell_angle_beta   90.00000000
_cell_angle_gamma   90.44622691
_symmetry_Int_Tables_number   1
_chemical_formula_structural   Pr8Nd12Si15Ir
_chemical_formula_sum   'Pr8 Nd12 Si15 Ir1'
_cell_volume   942.48981108
_cell_formula_units_Z   1
loop_
 _symmetry_equiv_pos_site_id
 _symmetry_equiv_pos_as_xyz
  1  'x, y, z'
loop_
 _atom_site_type_symbol
 _atom_site_label
 _atom_site_symmetry_multiplicity
 _atom_site_fract_x
 _atom_site_fract_y
 _atom_site_fract_z
 _atom_site_occupancy
  Pr  Pr0  1  0.033484  0.186044  0.400539  1
  Pr  Pr1  1  0.532930  0.318428  0.399750  1
  Pr  Pr2  1  0.468022  0.681952  0.905191  1
  Pr  Pr3  1  0.468022  0.681952  0.594809  1
  Pr  Pr4  1  0.963578  0.816163  0.595665  1
  Pr  Pr5  1  0.963578  0.816163  0.904335  1
  Pr  Pr6  1  0.532930  0.318428  0.100250  1
  Pr  Pr7  1  0.033484  0.186044  0.099461  1
  Nd  Nd8  1  0.307992  0.177045  0.622332  1
  Nd  Nd9  1  0.685785  0.818199  0.377570  1
  Nd  Nd10  1  0.625291  0.981481  0.750000  1
  Nd  Nd11  1  0.183549  0.684251  0.377484  1
  Nd  Nd12  1  0.820571  0.317205  0.876463  1
  Nd  Nd13  1  0.820571  0.317205  0.623537  1
  Nd  Nd14  1  0.854539  0.488842  0.250000  1
  Nd  Nd15  1  0.357280  0.016491  0.250000  1
  Nd  Nd16  1  0.307992  0.177045  0.877668  1
  Nd  Nd17  1  0.183549  0.684251  0.122516  1
  Nd  Nd18  1  0.685785  0.818199  0.122430  1
  Nd  Nd19  1  0.156027  0.538859  0.750000  1
  Si  Si20  1  0.475478  0.602136  0.250000  1
  Si  Si21  1  0.020271  0.074951  0.750000  1
  Si  Si22  1  0.526141  0.393792  0.750000  1
  Si  Si23  1  0.139259  0.472248  0.538032  1
  Si  Si24  1  0.977143  0.900788  0.250000  1
  Si  Si25  1  0.746029  0.120689  0.250000  1
  Si  Si26  1  0.861113  0.525299  0.039337  1
  Si  Si27  1  0.363945  0.977316  0.041598  1
  Si  Si28  1  0.139259  0.472248  0.961968  1
  Si  Si29  1  0.637921  0.031458  0.537822  1
  Si  Si30  1  0.363945  0.977316  0.458402  1
  Si  Si31  1  0.861113  0.525299  0.460663  1
  Si  Si32  1  0.754207  0.616407  0.750000  1
  Si  Si33  1  0.243179  0.383627  0.250000  1
  Si  Si34  1  0.637921  0.031458  0.962178  1
  Ir  Ir35  1  0.268117  0.870719  0.750000  1
