# generated using pymatgen
data_SmYFe4(CoB2)4
_symmetry_space_group_name_H-M   'P 1'
_cell_length_a   6.97336229
_cell_length_b   6.99611222
_cell_length_c   3.80906400
_cell_angle_alpha   90.00000000
_cell_angle_beta   90.00000000
_cell_angle_gamma   89.77678734
_symmetry_Int_Tables_number   1
_chemical_formula_structural   SmYFe4(CoB2)4
_chemical_formula_sum   'Sm1 Y1 Fe4 Co4 B8'
_cell_volume   185.82920525
_cell_formula_units_Z   1
loop_
 _symmetry_equiv_pos_site_id
 _symmetry_equiv_pos_as_xyz
  1  'x, y, z'
loop_
 _atom_site_type_symbol
 _atom_site_label
 _atom_site_symmetry_multiplicity
 _atom_site_fract_x
 _atom_site_fract_y
 _atom_site_fract_z
 _atom_site_occupancy
  Sm  Sm0  1  0.500000  0.500000  0.503087  1
  Y  Y1  1  0.000000  0.000000  0.003091  1
  Fe  Fe2  1  0.384527  0.132104  0.892418  1
  Fe  Fe3  1  0.615473  0.867896  0.892418  1
  Fe  Fe4  1  0.366419  0.885763  0.392886  1
  Fe  Fe5  1  0.633581  0.114237  0.392886  1
  Co  Co6  1  0.115408  0.360084  0.608794  1
  Co  Co7  1  0.884592  0.639916  0.608794  1
  Co  Co8  1  0.137608  0.616855  0.108997  1
  Co  Co9  1  0.862392  0.383145  0.108997  1
  B  B10  1  0.799567  0.664924  0.103531  1
  B  B11  1  0.200433  0.335076  0.103531  1
  B  B12  1  0.837113  0.294773  0.604736  1
  B  B13  1  0.162887  0.705227  0.604736  1
  B  B14  1  0.700030  0.835364  0.392108  1
  B  B15  1  0.299970  0.164636  0.392108  1
  B  B16  1  0.666496  0.196404  0.893443  1
  B  B17  1  0.333504  0.803596  0.893443  1
