# generated using pymatgen
data_Sc12Ni4HgRh
_symmetry_space_group_name_H-M   'P 1'
_cell_length_a   7.75092359
_cell_length_b   7.75094198
_cell_length_c   7.75093400
_cell_angle_alpha   107.20799418
_cell_angle_beta   110.11453128
_cell_angle_gamma   111.11657947
_symmetry_Int_Tables_number   1
_chemical_formula_structural   Sc12Ni4HgRh
_chemical_formula_sum   'Sc12 Ni4 Hg1 Rh1'
_cell_volume   358.01187381
_cell_formula_units_Z   1
loop_
 _symmetry_equiv_pos_site_id
 _symmetry_equiv_pos_as_xyz
  1  'x, y, z'
loop_
 _atom_site_type_symbol
 _atom_site_label
 _atom_site_symmetry_multiplicity
 _atom_site_fract_x
 _atom_site_fract_y
 _atom_site_fract_z
 _atom_site_occupancy
  Sc  Sc0  1  0.693977  0.270565  0.964687  1
  Sc  Sc1  1  0.305963  0.729209  0.035291  1
  Sc  Sc2  1  0.694032  0.729157  0.423288  1
  Sc  Sc3  1  0.305936  0.270704  0.576782  1
  Sc  Sc4  1  0.799042  0.123373  0.324562  1
  Sc  Sc5  1  0.799007  0.474521  0.675556  1
  Sc  Sc6  1  0.200975  0.876430  0.675364  1
  Sc  Sc7  1  0.200965  0.525401  0.324539  1
  Sc  Sc8  1  0.597587  0.780416  0.817031  1
  Sc  Sc9  1  0.963446  0.780433  0.182871  1
  Sc  Sc10  1  0.036543  0.219514  0.817015  1
  Sc  Sc11  1  0.402465  0.219459  0.182982  1
  Ni  Ni12  1  0.853052  0.499977  0.352929  1
  Ni  Ni13  1  0.146965  0.500551  0.647162  1
  Ni  Ni14  1  0.999729  0.126170  0.125931  1
  Ni  Ni15  1  0.000256  0.874180  0.873904  1
  Hg  Hg16  1  0.499972  0.999942  0.499983  1
  Rh  Rh17  1  0.500087  0.499999  0.000122  1
