# generated using pymatgen
data_Ac6Ga3Si8Hg
_symmetry_space_group_name_H-M   'P 1'
_cell_length_a   4.56389481
_cell_length_b   4.45268995
_cell_length_c   22.10180105
_cell_angle_alpha   84.21871386
_cell_angle_beta   95.92619806
_cell_angle_gamma   89.99999699
_symmetry_Int_Tables_number   1
_chemical_formula_structural   Ac6Ga3Si8Hg
_chemical_formula_sum   'Ac6 Ga3 Si8 Hg1'
_cell_volume   444.44695680
_cell_formula_units_Z   1
loop_
 _symmetry_equiv_pos_site_id
 _symmetry_equiv_pos_as_xyz
  1  'x, y, z'
loop_
 _atom_site_type_symbol
 _atom_site_label
 _atom_site_symmetry_multiplicity
 _atom_site_fract_x
 _atom_site_fract_y
 _atom_site_fract_z
 _atom_site_occupancy
  Ac  Ac0  1  0.373190  0.876810  0.246380  1
  Ac  Ac1  1  0.041485  0.208515  0.582968  1
  Ac  Ac2  1  0.705055  0.544945  0.910113  1
  Ac  Ac3  1  0.291735  0.458265  0.083471  1
  Ac  Ac4  1  0.962231  0.787769  0.424463  1
  Ac  Ac5  1  0.625909  0.124091  0.751817  1
  Ga  Ga6  1  0.570682  0.679318  0.641362  1
  Ga  Ga7  1  0.234568  0.015432  0.969137  1
  Ga  Ga8  1  0.762640  0.987360  0.025280  1
  Si  Si9  1  0.434388  0.315612  0.368776  1
  Si  Si10  1  0.097268  0.652732  0.694536  1
  Si  Si11  1  0.844698  0.405302  0.189397  1
  Si  Si12  1  0.514864  0.735136  0.529726  1
  Si  Si13  1  0.178393  0.071607  0.856786  1
  Si  Si14  1  0.818965  0.931035  0.137931  1
  Si  Si15  1  0.488417  0.261583  0.476834  1
  Si  Si16  1  0.151524  0.598476  0.803045  1
  Hg  Hg17  1  0.903989  0.346011  0.307979  1
