# generated using pymatgen
data_CdIn2Rh3
_symmetry_space_group_name_H-M   'P 1'
_cell_length_a   4.54351100
_cell_length_b   4.54350993
_cell_length_c   11.12574700
_cell_angle_alpha   90.00000000
_cell_angle_beta   90.00000000
_cell_angle_gamma   120.00000052
_symmetry_Int_Tables_number   1
_chemical_formula_structural   CdIn2Rh3
_chemical_formula_sum   'Cd2 In4 Rh6'
_cell_volume   198.90370577
_cell_formula_units_Z   2
loop_
 _symmetry_equiv_pos_site_id
 _symmetry_equiv_pos_as_xyz
  1  'x, y, z'
loop_
 _atom_site_type_symbol
 _atom_site_label
 _atom_site_symmetry_multiplicity
 _atom_site_fract_x
 _atom_site_fract_y
 _atom_site_fract_z
 _atom_site_occupancy
  Cd  Cd0  1  0.333333  0.666667  0.667087  1
  Cd  Cd1  1  0.666667  0.333333  0.332913  1
  In  In2  1  0.000000  0.000000  0.500000  1
  In  In3  1  0.333333  0.666667  0.171465  1
  In  In4  1  0.666667  0.333333  0.828535  1
  In  In5  1  0.000000  0.000000  0.000000  1
  Rh  Rh6  1  0.333333  0.666667  0.417779  1
  Rh  Rh7  1  0.666667  0.333333  0.079174  1
  Rh  Rh8  1  0.000000  0.000000  0.753838  1
  Rh  Rh9  1  0.000000  0.000000  0.246162  1
  Rh  Rh10  1  0.333333  0.666667  0.920826  1
  Rh  Rh11  1  0.666667  0.333333  0.582221  1
