# generated using pymatgen
data_NaLuB2O5
_symmetry_space_group_name_H-M   'P 1'
_cell_length_a   10.14569300
_cell_length_b   6.21832634
_cell_length_c   7.39243585
_cell_angle_alpha   71.01230867
_cell_angle_beta   90.00000000
_cell_angle_gamma   90.00000000
_symmetry_Int_Tables_number   1
_chemical_formula_structural   NaLuB2O5
_chemical_formula_sum   'Na4 Lu4 B8 O20'
_cell_volume   441.00648034
_cell_formula_units_Z   4
loop_
 _symmetry_equiv_pos_site_id
 _symmetry_equiv_pos_as_xyz
  1  'x, y, z'
loop_
 _atom_site_type_symbol
 _atom_site_label
 _atom_site_symmetry_multiplicity
 _atom_site_fract_x
 _atom_site_fract_y
 _atom_site_fract_z
 _atom_site_occupancy
  Na  Na0  1  0.582281  0.303008  0.221165  1
  Na  Na1  1  0.917719  0.803008  0.221165  1
  Na  Na2  1  0.082281  0.196992  0.778835  1
  Na  Na3  1  0.417719  0.696992  0.778835  1
  Lu  Lu4  1  0.828106  0.784791  0.754261  1
  Lu  Lu5  1  0.171894  0.215209  0.245739  1
  Lu  Lu6  1  0.671894  0.284791  0.754261  1
  Lu  Lu7  1  0.328106  0.715209  0.245739  1
  B  B8  1  0.620337  0.828165  0.091969  1
  B  B9  1  0.120337  0.671835  0.908031  1
  B  B10  1  0.379663  0.171835  0.908031  1
  B  B11  1  0.904982  0.255454  0.445431  1
  B  B12  1  0.595018  0.755454  0.445431  1
  B  B13  1  0.879663  0.328165  0.091969  1
  B  B14  1  0.095018  0.744546  0.554569  1
  B  B15  1  0.404982  0.244546  0.554569  1
  O  O16  1  0.333648  0.159816  0.729863  1
  O  O17  1  0.493964  0.279488  0.922187  1
  O  O18  1  0.704270  0.924877  0.939650  1
  O  O19  1  0.833648  0.340184  0.270137  1
  O  O20  1  0.330900  0.338916  0.390657  1
  O  O21  1  0.962378  0.730872  0.549045  1
  O  O22  1  0.169100  0.838916  0.390657  1
  O  O23  1  0.006036  0.779488  0.922187  1
  O  O24  1  0.666352  0.840184  0.270137  1
  O  O25  1  0.795730  0.424877  0.939650  1
  O  O26  1  0.669100  0.661084  0.609343  1
  O  O27  1  0.037622  0.269128  0.450955  1
  O  O28  1  0.537622  0.230872  0.549045  1
  O  O29  1  0.506036  0.720512  0.077813  1
  O  O30  1  0.462378  0.769128  0.450955  1
  O  O31  1  0.204270  0.575123  0.060350  1
  O  O32  1  0.295730  0.075123  0.060350  1
  O  O33  1  0.993964  0.220512  0.077813  1
  O  O34  1  0.166352  0.659816  0.729863  1
  O  O35  1  0.830900  0.161084  0.609343  1
