# generated using pymatgen
data_Ho12Cd2Fe2Tc
_symmetry_space_group_name_H-M   'P 1'
_cell_length_a   8.31265097
_cell_length_b   8.31265087
_cell_length_c   8.31265200
_cell_angle_alpha   108.03779595
_cell_angle_beta   108.03781023
_cell_angle_gamma   112.37774719
_symmetry_Int_Tables_number   1
_chemical_formula_structural   Ho12Cd2Fe2Tc
_chemical_formula_sum   'Ho12 Cd2 Fe2 Tc1'
_cell_volume   441.31949310
_cell_formula_units_Z   1
loop_
 _symmetry_equiv_pos_site_id
 _symmetry_equiv_pos_as_xyz
  1  'x, y, z'
loop_
 _atom_site_type_symbol
 _atom_site_label
 _atom_site_symmetry_multiplicity
 _atom_site_fract_x
 _atom_site_fract_y
 _atom_site_fract_z
 _atom_site_occupancy
  Ho  Ho0  1  0.193525  0.432451  0.238926  1
  Ho  Ho1  1  0.806475  0.567549  0.761074  1
  Ho  Ho2  1  0.193525  0.954600  0.761074  1
  Ho  Ho3  1  0.954600  0.193525  0.761074  1
  Ho  Ho4  1  0.806475  0.045400  0.238926  1
  Ho  Ho5  1  0.045400  0.806475  0.238926  1
  Ho  Ho6  1  0.432451  0.193525  0.238926  1
  Ho  Ho7  1  0.567549  0.806475  0.761074  1
  Ho  Ho8  1  0.307909  0.307909  0.615819  1
  Ho  Ho9  1  0.692091  0.692091  0.384181  1
  Ho  Ho10  1  0.692091  0.307909  0.000000  1
  Ho  Ho11  1  0.307909  0.692091  0.000000  1
  Cd  Cd12  1  0.000000  0.500000  0.500000  1
  Cd  Cd13  1  0.500000  0.000000  0.500000  1
  Fe  Fe14  1  0.383544  0.383544  0.000000  1
  Fe  Fe15  1  0.616456  0.616456  0.000000  1
  Tc  Tc16  1  0.000000  0.000000  0.000000  1
