# generated using pymatgen
data_Ho8Tm4InCo4Cu
_symmetry_space_group_name_H-M   'P 1'
_cell_length_a   8.22897211
_cell_length_b   8.22899778
_cell_length_c   8.22897167
_cell_angle_alpha   111.10924017
_cell_angle_beta   110.73811904
_cell_angle_gamma   106.60389240
_symmetry_Int_Tables_number   1
_chemical_formula_structural   Ho8Tm4InCo4Cu
_chemical_formula_sum   'Ho8 Tm4 In1 Co4 Cu1'
_cell_volume   428.15477999
_cell_formula_units_Z   1
loop_
 _symmetry_equiv_pos_site_id
 _symmetry_equiv_pos_as_xyz
  1  'x, y, z'
loop_
 _atom_site_type_symbol
 _atom_site_label
 _atom_site_symmetry_multiplicity
 _atom_site_fract_x
 _atom_site_fract_y
 _atom_site_fract_z
 _atom_site_occupancy
  Ho  Ho0  1  0.185769  0.289993  0.475764  1
  Ho  Ho1  1  0.814231  0.710007  0.524236  1
  Ho  Ho2  1  0.185771  0.710007  0.895775  1
  Ho  Ho3  1  0.814229  0.289993  0.104225  1
  Ho  Ho4  1  0.417547  0.218425  0.199124  1
  Ho  Ho5  1  0.582453  0.781575  0.800876  1
  Ho  Ho6  1  0.019302  0.218425  0.800878  1
  Ho  Ho7  1  0.980698  0.781575  0.199122  1
  Tm  Tm8  1  0.316147  0.621535  0.305388  1
  Tm  Tm9  1  0.683853  0.378465  0.694612  1
  Tm  Tm10  1  0.316146  0.010759  0.694615  1
  Tm  Tm11  1  0.683854  0.989241  0.305385  1
  In  In12  1  0.500000  0.500000  0.000000  1
  Co  Co13  1  0.113118  0.613117  0.500000  1
  Co  Co14  1  0.886882  0.386883  0.500000  1
  Co  Co15  1  0.376416  0.000000  0.376416  1
  Co  Co16  1  0.623584  0.000000  0.623584  1
  Cu  Cu17  1  0.000000  0.000000  0.000000  1
