# generated using pymatgen
data_LiCaTbZnSi3
_symmetry_space_group_name_H-M   'P 1'
_cell_length_a   9.34438340
_cell_length_b   9.34438236
_cell_length_c   6.72627500
_cell_angle_alpha   90.00000000
_cell_angle_beta   90.00000000
_cell_angle_gamma   153.37872652
_symmetry_Int_Tables_number   1
_chemical_formula_structural   LiCaTbZnSi3
_chemical_formula_sum   'Li2 Ca2 Tb2 Zn2 Si6'
_cell_volume   263.17348910
_cell_formula_units_Z   2
loop_
 _symmetry_equiv_pos_site_id
 _symmetry_equiv_pos_as_xyz
  1  'x, y, z'
loop_
 _atom_site_type_symbol
 _atom_site_label
 _atom_site_symmetry_multiplicity
 _atom_site_fract_x
 _atom_site_fract_y
 _atom_site_fract_z
 _atom_site_occupancy
  Li  Li0  1  0.812111  0.187889  0.938238  1
  Li  Li1  1  0.187889  0.812111  0.438238  1
  Ca  Ca2  1  0.655807  0.344193  0.745128  1
  Ca  Ca3  1  0.344193  0.655807  0.245128  1
  Tb  Tb4  1  0.450488  0.549512  0.755807  1
  Tb  Tb5  1  0.549512  0.450488  0.255807  1
  Zn  Zn6  1  0.193462  0.806538  0.054951  1
  Zn  Zn7  1  0.806538  0.193462  0.554951  1
  Si  Si8  1  0.281772  0.718228  0.747799  1
  Si  Si9  1  0.718228  0.281772  0.247799  1
  Si  Si10  1  0.939531  0.060469  0.430338  1
  Si  Si11  1  0.056364  0.943636  0.577740  1
  Si  Si12  1  0.943636  0.056364  0.077740  1
  Si  Si13  1  0.060469  0.939531  0.930338  1
