# generated using pymatgen
data_Zr6Co15Si7Pt
_symmetry_space_group_name_H-M   'P 1'
_cell_length_a   8.11477177
_cell_length_b   8.11477138
_cell_length_c   8.12443224
_cell_angle_alpha   60.03932857
_cell_angle_beta   60.03932992
_cell_angle_gamma   60.00000509
_symmetry_Int_Tables_number   1
_chemical_formula_structural   Zr6Co15Si7Pt
_chemical_formula_sum   'Zr6 Co15 Si7 Pt1'
_cell_volume   378.51975817
_cell_formula_units_Z   1
loop_
 _symmetry_equiv_pos_site_id
 _symmetry_equiv_pos_as_xyz
  1  'x, y, z'
loop_
 _atom_site_type_symbol
 _atom_site_label
 _atom_site_symmetry_multiplicity
 _atom_site_fract_x
 _atom_site_fract_y
 _atom_site_fract_z
 _atom_site_occupancy
  Zr  Zr0  1  0.207413  0.795060  0.790114  1
  Zr  Zr1  1  0.796695  0.796695  0.206297  1
  Zr  Zr2  1  0.796695  0.200312  0.206297  1
  Zr  Zr3  1  0.207413  0.207413  0.790114  1
  Zr  Zr4  1  0.795060  0.207413  0.790114  1
  Zr  Zr5  1  0.200312  0.796695  0.206297  1
  Co  Co6  1  0.171812  0.482438  0.173939  1
  Co  Co7  1  0.859664  0.378211  0.383913  1
  Co  Co8  1  0.513409  0.830624  0.825341  1
  Co  Co9  1  0.482438  0.171812  0.173939  1
  Co  Co10  1  0.828430  0.828430  0.514709  1
  Co  Co11  1  0.173439  0.173439  0.479684  1
  Co  Co12  1  0.139413  0.620067  0.620452  1
  Co  Co13  1  0.171812  0.171812  0.173939  1
  Co  Co14  1  0.378885  0.378885  0.863344  1
  Co  Co15  1  0.620067  0.620067  0.620452  1
  Co  Co16  1  0.378211  0.859664  0.383913  1
  Co  Co17  1  0.378211  0.378211  0.383913  1
  Co  Co18  1  0.830624  0.830624  0.825341  1
  Co  Co19  1  0.620067  0.139413  0.620452  1
  Co  Co20  1  0.830624  0.513409  0.825341  1
  Si  Si21  1  0.500762  0.999937  0.499365  1
  Si  Si22  1  0.498311  0.498311  0.992294  1
  Si  Si23  1  0.493975  0.493975  0.518073  1
  Si  Si24  1  0.999937  0.999937  0.499365  1
  Si  Si25  1  0.011083  0.498311  0.992294  1
  Si  Si26  1  0.999937  0.500762  0.499365  1
  Si  Si27  1  0.498311  0.011083  0.992294  1
  Pt  Pt28  1  0.616986  0.616986  0.149042  1
