# generated using pymatgen
data_Zr5Nb(ReSi)6
_symmetry_space_group_name_H-M   'P 1'
_cell_length_a   7.77158590
_cell_length_b   7.77207580
_cell_length_c   7.77158663
_cell_angle_alpha   126.42494516
_cell_angle_beta   127.87914255
_cell_angle_gamma   78.00704099
_symmetry_Int_Tables_number   1
_chemical_formula_structural   Zr5Nb(ReSi)6
_chemical_formula_sum   'Zr5 Nb1 Re6 Si6'
_cell_volume   288.90068484
_cell_formula_units_Z   1
loop_
 _symmetry_equiv_pos_site_id
 _symmetry_equiv_pos_as_xyz
  1  'x, y, z'
loop_
 _atom_site_type_symbol
 _atom_site_label
 _atom_site_symmetry_multiplicity
 _atom_site_fract_x
 _atom_site_fract_y
 _atom_site_fract_z
 _atom_site_occupancy
  Zr  Zr0  1  0.549671  0.090530  0.040859  1
  Zr  Zr1  1  0.452623  0.499388  0.546766  1
  Zr  Zr2  1  0.950362  0.491206  0.040844  1
  Zr  Zr3  1  0.047396  0.094134  0.546739  1
  Zr  Zr4  1  0.750023  0.901262  0.651239  1
  Nb  Nb5  1  0.250053  0.902735  0.152682  1
  Re  Re6  1  0.496523  0.241587  0.738223  1
  Re  Re7  1  0.003364  0.241587  0.245064  1
  Re  Re8  1  0.127106  0.752103  0.626196  1
  Re  Re9  1  0.873999  0.498783  0.625915  1
  Re  Re10  1  0.625908  0.752103  0.124997  1
  Re  Re11  1  0.372868  0.498783  0.124784  1
  Si  Si12  1  0.750049  0.497041  0.246992  1
  Si  Si13  1  0.250022  0.500304  0.750282  1
  Si  Si14  1  0.329923  0.829637  0.490503  1
  Si  Si15  1  0.660888  0.160689  0.490600  1
  Si  Si16  1  0.839133  0.829637  0.999714  1
  Si  Si17  1  0.170090  0.160689  0.999802  1
