# generated using pymatgen
data_Yb2NbRh3
_symmetry_space_group_name_H-M   'P 1'
_cell_length_a   3.25577600
_cell_length_b   4.75011548
_cell_length_c   7.44057112
_cell_angle_alpha   70.35619192
_cell_angle_beta   90.00000000
_cell_angle_gamma   90.00000000
_symmetry_Int_Tables_number   1
_chemical_formula_structural   Yb2NbRh3
_chemical_formula_sum   'Yb2 Nb1 Rh3'
_cell_volume   108.37371562
_cell_formula_units_Z   1
loop_
 _symmetry_equiv_pos_site_id
 _symmetry_equiv_pos_as_xyz
  1  'x, y, z'
loop_
 _atom_site_type_symbol
 _atom_site_label
 _atom_site_symmetry_multiplicity
 _atom_site_fract_x
 _atom_site_fract_y
 _atom_site_fract_z
 _atom_site_occupancy
  Yb  Yb0  1  0.000000  0.335592  0.327856  1
  Yb  Yb1  1  0.000000  0.999532  0.004446  1
  Nb  Nb2  1  0.000000  0.666587  0.667135  1
  Rh  Rh3  1  0.500000  0.524007  0.959796  1
  Rh  Rh4  1  0.500000  0.809166  0.374488  1
  Rh  Rh5  1  0.500000  0.165117  0.666278  1
