# generated using pymatgen
data_Pr5HgSe4
_symmetry_space_group_name_H-M   'P 1'
_cell_length_a   7.46928824
_cell_length_b   7.46928918
_cell_length_c   7.46928841
_cell_angle_alpha   99.71269688
_cell_angle_beta   99.71271044
_cell_angle_gamma   131.49725614
_symmetry_Int_Tables_number   1
_chemical_formula_structural   Pr5HgSe4
_chemical_formula_sum   'Pr5 Hg1 Se4'
_cell_volume   284.56997765
_cell_formula_units_Z   1
loop_
 _symmetry_equiv_pos_site_id
 _symmetry_equiv_pos_as_xyz
  1  'x, y, z'
loop_
 _atom_site_type_symbol
 _atom_site_label
 _atom_site_symmetry_multiplicity
 _atom_site_fract_x
 _atom_site_fract_y
 _atom_site_fract_z
 _atom_site_occupancy
  Pr  Pr0  1  0.397524  0.806733  0.204257  1
  Pr  Pr1  1  0.000000  0.000000  0.000000  1
  Pr  Pr2  1  0.602476  0.193267  0.795743  1
  Pr  Pr3  1  0.193267  0.397524  0.590791  1
  Pr  Pr4  1  0.806733  0.602476  0.409209  1
  Hg  Hg5  1  0.500000  0.500000  0.000000  1
  Se  Se6  1  0.101494  0.699341  0.800833  1
  Se  Se7  1  0.699341  0.898506  0.597846  1
  Se  Se8  1  0.300659  0.101494  0.402154  1
  Se  Se9  1  0.898506  0.300659  0.199167  1
