# generated using pymatgen
data_Y2Ho(SnPt)3
_symmetry_space_group_name_H-M   'P 1'
_cell_length_a   7.53021079
_cell_length_b   7.54491073
_cell_length_c   4.01528700
_cell_angle_alpha   90.00000000
_cell_angle_beta   90.00000000
_cell_angle_gamma   120.06460417
_symmetry_Int_Tables_number   1
_chemical_formula_structural   Y2Ho(SnPt)3
_chemical_formula_sum   'Y2 Ho1 Sn3 Pt3'
_cell_volume   197.43555818
_cell_formula_units_Z   1
loop_
 _symmetry_equiv_pos_site_id
 _symmetry_equiv_pos_as_xyz
  1  'x, y, z'
loop_
 _atom_site_type_symbol
 _atom_site_label
 _atom_site_symmetry_multiplicity
 _atom_site_fract_x
 _atom_site_fract_y
 _atom_site_fract_z
 _atom_site_occupancy
  Y  Y0  1  0.404674  0.404619  0.500000  1
  Y  Y1  1  0.595326  0.999945  0.500000  1
  Ho  Ho2  1  0.000000  0.595396  0.500000  1
  Sn  Sn3  1  0.000000  0.259641  0.000000  1
  Sn  Sn4  1  0.741076  0.740588  0.000000  1
  Sn  Sn5  1  0.258924  0.999513  0.000000  1
  Pt  Pt6  1  0.667678  0.334250  0.000000  1
  Pt  Pt7  1  0.000000  0.999475  0.500000  1
  Pt  Pt8  1  0.332322  0.666573  0.000000  1
