# generated using pymatgen
data_Dy11In9HgRu3
_symmetry_space_group_name_H-M   'P 1'
_cell_length_a   3.73372700
_cell_length_b   13.09906739
_cell_length_c   13.11246400
_cell_angle_alpha   111.67758534
_cell_angle_beta   90.00000000
_cell_angle_gamma   90.00000000
_symmetry_Int_Tables_number   1
_chemical_formula_structural   Dy11In9HgRu3
_chemical_formula_sum   'Dy11 In9 Hg1 Ru3'
_cell_volume   595.95367690
_cell_formula_units_Z   1
loop_
 _symmetry_equiv_pos_site_id
 _symmetry_equiv_pos_as_xyz
  1  'x, y, z'
loop_
 _atom_site_type_symbol
 _atom_site_label
 _atom_site_symmetry_multiplicity
 _atom_site_fract_x
 _atom_site_fract_y
 _atom_site_fract_z
 _atom_site_occupancy
  Dy  Dy0  1  0.000000  0.941959  0.586338  1
  Dy  Dy1  1  0.000000  0.086265  0.421859  1
  Dy  Dy2  1  0.000000  0.580307  0.922293  1
  Dy  Dy3  1  0.000000  0.415615  0.076857  1
  Dy  Dy4  1  0.000000  0.163173  0.840518  1
  Dy  Dy5  1  0.000000  0.837439  0.159250  1
  Dy  Dy6  1  0.000000  0.373224  0.625482  1
  Dy  Dy7  1  0.000000  0.610645  0.354441  1
  Dy  Dy8  1  0.000000  0.676149  0.699543  1
  Dy  Dy9  1  0.000000  0.309550  0.310998  1
  Dy  Dy10  1  0.000000  0.000588  0.002189  1
  In  In11  1  0.500000  0.164521  0.633125  1
  In  In12  1  0.500000  0.851673  0.366915  1
  In  In13  1  0.500000  0.630333  0.158984  1
  In  In14  1  0.500000  0.368320  0.842388  1
  In  In15  1  0.500000  0.933373  0.785915  1
  In  In16  1  0.500000  0.073668  0.219764  1
  In  In17  1  0.500000  0.778832  0.923011  1
  In  In18  1  0.500000  0.217577  0.075667  1
  In  In19  1  0.500000  0.496560  0.497800  1
  Hg  Hg20  1  0.500000  0.749082  0.547540  1
  Ru  Ru21  1  0.500000  0.251502  0.450141  1
  Ru  Ru22  1  0.500000  0.545937  0.754345  1
  Ru  Ru23  1  0.500000  0.443709  0.244635  1
