# generated using pymatgen
data_Tb6Ho10CdHg3Rh4
_symmetry_space_group_name_H-M   'P 1'
_cell_length_a   9.58952430
_cell_length_b   9.59520078
_cell_length_c   9.59520000
_cell_angle_alpha   59.99999579
_cell_angle_beta   59.98041246
_cell_angle_gamma   59.98041730
_symmetry_Int_Tables_number   1
_chemical_formula_structural   Tb6Ho10CdHg3Rh4
_chemical_formula_sum   'Tb6 Ho10 Cd1 Hg3 Rh4'
_cell_volume   624.11054929
_cell_formula_units_Z   1
loop_
 _symmetry_equiv_pos_site_id
 _symmetry_equiv_pos_as_xyz
  1  'x, y, z'
loop_
 _atom_site_type_symbol
 _atom_site_label
 _atom_site_symmetry_multiplicity
 _atom_site_fract_x
 _atom_site_fract_y
 _atom_site_fract_z
 _atom_site_occupancy
  Tb  Tb0  1  0.186473  0.812921  0.812921  1
  Tb  Tb1  1  0.812441  0.187264  0.187264  1
  Tb  Tb2  1  0.812441  0.187264  0.813031  1
  Tb  Tb3  1  0.186473  0.812921  0.187687  1
  Tb  Tb4  1  0.812441  0.813031  0.187264  1
  Tb  Tb5  1  0.186473  0.187687  0.812921  1
  Ho  Ho6  1  0.600607  0.599919  0.599919  1
  Ho  Ho7  1  0.600607  0.599919  0.199555  1
  Ho  Ho8  1  0.600607  0.199555  0.599919  1
  Ho  Ho9  1  0.196615  0.601129  0.601129  1
  Ho  Ho10  1  0.061205  0.438712  0.438712  1
  Ho  Ho11  1  0.437380  0.062145  0.062145  1
  Ho  Ho12  1  0.437380  0.062145  0.438330  1
  Ho  Ho13  1  0.061205  0.438712  0.061370  1
  Ho  Ho14  1  0.437380  0.438330  0.062145  1
  Ho  Ho15  1  0.061205  0.061370  0.438712  1
  Cd  Cd16  1  0.512399  0.829200  0.829200  1
  Hg  Hg17  1  0.832858  0.834548  0.834548  1
  Hg  Hg18  1  0.832858  0.834548  0.498047  1
  Hg  Hg19  1  0.832858  0.498047  0.834548  1
  Rh  Rh20  1  0.392092  0.393023  0.393023  1
  Rh  Rh21  1  0.392092  0.393023  0.821861  1
  Rh  Rh22  1  0.392092  0.821861  0.393023  1
  Rh  Rh23  1  0.821825  0.392725  0.392725  1
