# generated using pymatgen
data_Hf3ScPa2(AlPt)6
_symmetry_space_group_name_H-M   'P 1'
_cell_length_a   6.99662764
_cell_length_b   6.99613470
_cell_length_c   7.86142200
_cell_angle_alpha   90.00000000
_cell_angle_beta   90.00000000
_cell_angle_gamma   120.10606553
_symmetry_Int_Tables_number   1
_chemical_formula_structural   Hf3ScPa2(AlPt)6
_chemical_formula_sum   'Hf3 Sc1 Pa2 Al6 Pt6'
_cell_volume   332.89977736
_cell_formula_units_Z   1
loop_
 _symmetry_equiv_pos_site_id
 _symmetry_equiv_pos_as_xyz
  1  'x, y, z'
loop_
 _atom_site_type_symbol
 _atom_site_label
 _atom_site_symmetry_multiplicity
 _atom_site_fract_x
 _atom_site_fract_y
 _atom_site_fract_z
 _atom_site_occupancy
  Hf  Hf0  1  0.595384  0.999000  0.750000  1
  Hf  Hf1  1  0.998642  0.594923  0.750000  1
  Hf  Hf2  1  0.409335  0.409038  0.750000  1
  Sc  Sc3  1  0.406956  0.407822  0.250000  1
  Pa  Pa4  1  0.001215  0.579203  0.250000  1
  Pa  Pa5  1  0.578673  0.000918  0.250000  1
  Al  Al6  1  0.748888  0.748880  0.996174  1
  Al  Al7  1  0.248020  0.005514  0.991260  1
  Al  Al8  1  0.005258  0.247696  0.991165  1
  Al  Al9  1  0.748888  0.748880  0.503826  1
  Al  Al10  1  0.248020  0.005514  0.508740  1
  Al  Al11  1  0.005258  0.247696  0.508835  1
  Pt  Pt12  1  0.999002  0.998755  0.750000  1
  Pt  Pt13  1  0.000164  0.000477  0.250000  1
  Pt  Pt14  1  0.669415  0.333669  0.982820  1
  Pt  Pt15  1  0.669415  0.333669  0.517180  1
  Pt  Pt16  1  0.333734  0.669174  0.517789  1
  Pt  Pt17  1  0.333734  0.669174  0.982212  1
