# generated using pymatgen
data_HfTa3(GaRh5)2
_symmetry_space_group_name_H-M   'P 1'
_cell_length_a   4.03344400
_cell_length_b   5.51536505
_cell_length_c   10.84989211
_cell_angle_alpha   89.98372649
_cell_angle_beta   90.00000000
_cell_angle_gamma   90.00000000
_symmetry_Int_Tables_number   1
_chemical_formula_structural   HfTa3(GaRh5)2
_chemical_formula_sum   'Hf1 Ta3 Ga2 Rh10'
_cell_volume   241.36577973
_cell_formula_units_Z   1
loop_
 _symmetry_equiv_pos_site_id
 _symmetry_equiv_pos_as_xyz
  1  'x, y, z'
loop_
 _atom_site_type_symbol
 _atom_site_label
 _atom_site_symmetry_multiplicity
 _atom_site_fract_x
 _atom_site_fract_y
 _atom_site_fract_z
 _atom_site_occupancy
  Hf  Hf0  1  0.500000  0.313210  0.138609  1
  Ta  Ta1  1  0.500000  0.183187  0.638750  1
  Ta  Ta2  1  0.500000  0.815263  0.358090  1
  Ta  Ta3  1  0.500000  0.682820  0.860700  1
  Ga  Ga4  1  0.000000  0.501220  0.500898  1
  Ga  Ga5  1  0.000000  0.000931  0.999113  1
  Rh  Rh6  1  0.500000  0.196529  0.885385  1
  Rh  Rh7  1  0.500000  0.805211  0.110047  1
  Rh  Rh8  1  0.500000  0.698719  0.610826  1
  Rh  Rh9  1  0.500000  0.300752  0.394462  1
  Rh  Rh10  1  0.000000  0.433677  0.743593  1
  Rh  Rh11  1  0.000000  0.567653  0.258497  1
  Rh  Rh12  1  0.000000  0.999332  0.501399  1
  Rh  Rh13  1  0.000000  0.507298  0.995858  1
  Rh  Rh14  1  0.000000  0.060664  0.249269  1
  Rh  Rh15  1  0.000000  0.933533  0.754501  1
