# generated using pymatgen
data_Y2MgAs2(PRh3)4
_symmetry_space_group_name_H-M   'P 1'
_cell_length_a   9.71244870
_cell_length_b   9.85364972
_cell_length_c   3.90925592
_cell_angle_alpha   90.06822800
_cell_angle_beta   89.93675860
_cell_angle_gamma   119.50099553
_symmetry_Int_Tables_number   1
_chemical_formula_structural   Y2MgAs2(PRh3)4
_chemical_formula_sum   'Y2 Mg1 As2 P4 Rh12'
_cell_volume   325.62075694
_cell_formula_units_Z   1
loop_
 _symmetry_equiv_pos_site_id
 _symmetry_equiv_pos_as_xyz
  1  'x, y, z'
loop_
 _atom_site_type_symbol
 _atom_site_label
 _atom_site_symmetry_multiplicity
 _atom_site_fract_x
 _atom_site_fract_y
 _atom_site_fract_z
 _atom_site_occupancy
  Y  Y0  1  0.331369  0.666941  0.740094  1
  Y  Y1  1  0.673224  0.336614  0.238760  1
  Mg  Mg2  1  0.997663  0.003889  0.715767  1
  As  As3  1  0.403380  0.283063  0.738212  1
  As  As4  1  0.717815  0.114105  0.737932  1
  P  P5  1  0.884530  0.600089  0.739678  1
  P  P6  1  0.597134  0.709440  0.241642  1
  P  P7  1  0.283821  0.885050  0.239929  1
  P  P8  1  0.120564  0.409421  0.238393  1
  Rh  Rh9  1  0.442354  0.055408  0.739046  1
  Rh  Rh10  1  0.937501  0.394264  0.738139  1
  Rh  Rh11  1  0.623177  0.550328  0.739688  1
  Rh  Rh12  1  0.542100  0.926939  0.240249  1
  Rh  Rh13  1  0.066195  0.614302  0.238834  1
  Rh  Rh14  1  0.389787  0.456763  0.238973  1
  Rh  Rh15  1  0.161196  0.300856  0.738054  1
  Rh  Rh16  1  0.697352  0.855250  0.742319  1
  Rh  Rh17  1  0.125972  0.832216  0.739547  1
  Rh  Rh18  1  0.850625  0.727763  0.240474  1
  Rh  Rh19  1  0.260658  0.111392  0.237143  1
  Rh  Rh20  1  0.893582  0.165906  0.237129  1
