# generated using pymatgen
data_YCo3Ni2P3
_symmetry_space_group_name_H-M   'P 1'
_cell_length_a   3.68686000
_cell_length_b   10.27849400
_cell_length_c   11.85158000
_cell_angle_alpha   90.00000000
_cell_angle_beta   90.00000000
_cell_angle_gamma   90.00000000
_symmetry_Int_Tables_number   1
_chemical_formula_structural   YCo3Ni2P3
_chemical_formula_sum   'Y4 Co12 Ni8 P12'
_cell_volume   449.11999009
_cell_formula_units_Z   4
loop_
 _symmetry_equiv_pos_site_id
 _symmetry_equiv_pos_as_xyz
  1  'x, y, z'
loop_
 _atom_site_type_symbol
 _atom_site_label
 _atom_site_symmetry_multiplicity
 _atom_site_fract_x
 _atom_site_fract_y
 _atom_site_fract_z
 _atom_site_occupancy
  Y  Y0  1  0.250000  0.917540  0.203117  1
  Y  Y1  1  0.750000  0.082460  0.796883  1
  Y  Y2  1  0.750000  0.417540  0.296883  1
  Y  Y3  1  0.250000  0.582460  0.703117  1
  Co  Co4  1  0.250000  0.278509  0.676341  1
  Co  Co5  1  0.750000  0.721491  0.323659  1
  Co  Co6  1  0.750000  0.778509  0.823659  1
  Co  Co7  1  0.250000  0.221491  0.176341  1
  Co  Co8  1  0.250000  0.618390  0.197474  1
  Co  Co9  1  0.750000  0.381610  0.802526  1
  Co  Co10  1  0.750000  0.118390  0.302526  1
  Co  Co11  1  0.250000  0.881610  0.697474  1
  Co  Co12  1  0.250000  0.032196  0.432842  1
  Co  Co13  1  0.750000  0.967804  0.567158  1
  Co  Co14  1  0.750000  0.532196  0.067158  1
  Co  Co15  1  0.250000  0.467804  0.932842  1
  Ni  Ni16  1  0.250000  0.786508  0.489821  1
  Ni  Ni17  1  0.750000  0.213492  0.510179  1
  Ni  Ni18  1  0.750000  0.286508  0.010179  1
  Ni  Ni19  1  0.250000  0.713492  0.989821  1
  Ni  Ni20  1  0.250000  0.092042  0.985880  1
  Ni  Ni21  1  0.750000  0.907958  0.014120  1
  Ni  Ni22  1  0.750000  0.592042  0.514120  1
  Ni  Ni23  1  0.250000  0.407958  0.485880  1
  P  P24  1  0.250000  0.080361  0.612550  1
  P  P25  1  0.750000  0.919639  0.387450  1
  P  P26  1  0.750000  0.580361  0.887450  1
  P  P27  1  0.250000  0.419639  0.112550  1
  P  P28  1  0.250000  0.227006  0.365745  1
  P  P29  1  0.750000  0.772994  0.634255  1
  P  P30  1  0.750000  0.727006  0.134255  1
  P  P31  1  0.250000  0.272994  0.865745  1
  P  P32  1  0.250000  0.894728  0.887567  1
  P  P33  1  0.750000  0.105272  0.112433  1
  P  P34  1  0.750000  0.394728  0.612433  1
  P  P35  1  0.250000  0.605272  0.387567  1
