# generated using pymatgen
data_Hf2Zr8Sn2Sb5
_symmetry_space_group_name_H-M   'P 1'
_cell_length_a   5.89558931
_cell_length_b   8.66279201
_cell_length_c   8.65248002
_cell_angle_alpha   120.03943994
_cell_angle_beta   89.91945751
_cell_angle_gamma   90.16087030
_symmetry_Int_Tables_number   1
_chemical_formula_structural   Hf2Zr8Sn2Sb5
_chemical_formula_sum   'Hf2 Zr8 Sn2 Sb5'
_cell_volume   382.54444418
_cell_formula_units_Z   1
loop_
 _symmetry_equiv_pos_site_id
 _symmetry_equiv_pos_as_xyz
  1  'x, y, z'
loop_
 _atom_site_type_symbol
 _atom_site_label
 _atom_site_symmetry_multiplicity
 _atom_site_fract_x
 _atom_site_fract_y
 _atom_site_fract_z
 _atom_site_occupancy
  Hf  Hf0  1  0.499565  0.333596  0.667748  1
  Hf  Hf1  1  0.499565  0.665848  0.332252  1
  Zr  Zr2  1  0.001449  0.666079  0.332568  1
  Zr  Zr3  1  0.001449  0.333511  0.667432  1
  Zr  Zr4  1  0.770848  0.268809  0.000000  1
  Zr  Zr5  1  0.773132  0.733125  0.732675  1
  Zr  Zr6  1  0.773132  0.000448  0.267325  1
  Zr  Zr7  1  0.226909  0.729626  0.000000  1
  Zr  Zr8  1  0.226891  0.268356  0.268444  1
  Zr  Zr9  1  0.226891  0.999912  0.731556  1
  Sn  Sn10  1  0.258166  0.614124  0.614043  1
  Sn  Sn11  1  0.258166  0.000080  0.385957  1
  Sb  Sb12  1  0.743296  0.613609  0.000000  1
  Sb  Sb13  1  0.743779  0.388306  0.388917  1
  Sb  Sb14  1  0.743779  0.999389  0.611083  1
  Sb  Sb15  1  0.255440  0.385849  0.000000  1
  Sb  Sb16  1  0.497540  0.999335  0.000000  1
