# generated using pymatgen
data_Nd3Th(Zn5Ge)2
_symmetry_space_group_name_H-M   'P 1'
_cell_length_a   8.37995627
_cell_length_b   8.37995585
_cell_length_c   8.92035600
_cell_angle_alpha   90.00000000
_cell_angle_beta   90.00000000
_cell_angle_gamma   149.29201601
_symmetry_Int_Tables_number   1
_chemical_formula_structural   Nd3Th(Zn5Ge)2
_chemical_formula_sum   'Nd3 Th1 Zn10 Ge2'
_cell_volume   319.88938782
_cell_formula_units_Z   1
loop_
 _symmetry_equiv_pos_site_id
 _symmetry_equiv_pos_as_xyz
  1  'x, y, z'
loop_
 _atom_site_type_symbol
 _atom_site_label
 _atom_site_symmetry_multiplicity
 _atom_site_fract_x
 _atom_site_fract_y
 _atom_site_fract_z
 _atom_site_occupancy
  Nd  Nd0  1  0.797664  0.202336  0.750000  1
  Nd  Nd1  1  0.000079  0.999921  0.503471  1
  Nd  Nd2  1  0.000079  0.999921  0.996529  1
  Th  Th3  1  0.202282  0.797718  0.250000  1
  Zn  Zn4  1  0.813758  0.186242  0.393648  1
  Zn  Zn5  1  0.184929  0.815071  0.608140  1
  Zn  Zn6  1  0.813758  0.186242  0.106352  1
  Zn  Zn7  1  0.184929  0.815071  0.891860  1
  Zn  Zn8  1  0.652923  0.347077  0.479380  1
  Zn  Zn9  1  0.348286  0.651714  0.521585  1
  Zn  Zn10  1  0.652923  0.347077  0.020620  1
  Zn  Zn11  1  0.348286  0.651714  0.978415  1
  Zn  Zn12  1  0.402201  0.597799  0.250000  1
  Zn  Zn13  1  0.597840  0.402160  0.750000  1
  Ge  Ge14  1  0.556746  0.443254  0.250000  1
  Ge  Ge15  1  0.443316  0.556684  0.750000  1
