# generated using pymatgen
data_Ta4Si3PRh4
_symmetry_space_group_name_H-M   'P 1'
_cell_length_a   3.75429500
_cell_length_b   6.40260186
_cell_length_c   7.32606561
_cell_angle_alpha   90.14150751
_cell_angle_beta   90.00000000
_cell_angle_gamma   90.00000000
_symmetry_Int_Tables_number   1
_chemical_formula_structural   Ta4Si3PRh4
_chemical_formula_sum   'Ta4 Si3 P1 Rh4'
_cell_volume   176.09797858
_cell_formula_units_Z   1
loop_
 _symmetry_equiv_pos_site_id
 _symmetry_equiv_pos_as_xyz
  1  'x, y, z'
loop_
 _atom_site_type_symbol
 _atom_site_label
 _atom_site_symmetry_multiplicity
 _atom_site_fract_x
 _atom_site_fract_y
 _atom_site_fract_z
 _atom_site_occupancy
  Ta  Ta0  1  0.250000  0.526947  0.671192  1
  Ta  Ta1  1  0.750000  0.472662  0.326919  1
  Ta  Ta2  1  0.250000  0.028010  0.830743  1
  Ta  Ta3  1  0.750000  0.975229  0.171803  1
  Si  Si4  1  0.750000  0.734831  0.874234  1
  Si  Si5  1  0.250000  0.766914  0.374495  1
  Si  Si6  1  0.750000  0.232401  0.625606  1
  P  P7  1  0.250000  0.263236  0.125813  1
  Rh  Rh8  1  0.750000  0.855177  0.562765  1
  Rh  Rh9  1  0.250000  0.146855  0.434155  1
  Rh  Rh10  1  0.750000  0.353800  0.939018  1
  Rh  Rh11  1  0.250000  0.643937  0.063257  1
