# generated using pymatgen
data_Sr8Ca16Mo5W3N32
_symmetry_space_group_name_H-M   'P 1'
_cell_length_a   9.34338823
_cell_length_b   10.20362116
_cell_length_c   11.39745014
_cell_angle_alpha   90.00600110
_cell_angle_beta   90.01669753
_cell_angle_gamma   89.98074131
_symmetry_Int_Tables_number   1
_chemical_formula_structural   Sr8Ca16Mo5W3N32
_chemical_formula_sum   'Sr8 Ca16 Mo5 W3 N32'
_cell_volume   1086.59168156
_cell_formula_units_Z   1
loop_
 _symmetry_equiv_pos_site_id
 _symmetry_equiv_pos_as_xyz
  1  'x, y, z'
loop_
 _atom_site_type_symbol
 _atom_site_label
 _atom_site_symmetry_multiplicity
 _atom_site_fract_x
 _atom_site_fract_y
 _atom_site_fract_z
 _atom_site_occupancy
  Sr  Sr0  1  0.810426  0.220394  0.118127  1
  Sr  Sr1  1  0.189408  0.280063  0.618746  1
  Sr  Sr2  1  0.310806  0.778563  0.382116  1
  Sr  Sr3  1  0.688933  0.221866  0.618284  1
  Sr  Sr4  1  0.189433  0.779914  0.881329  1
  Sr  Sr5  1  0.810567  0.719911  0.381280  1
  Sr  Sr6  1  0.310218  0.278491  0.118029  1
  Sr  Sr7  1  0.689517  0.719980  0.882224  1
  Ca  Ca8  1  0.368333  0.967124  0.639207  1
  Ca  Ca9  1  0.027352  0.378307  0.897984  1
  Ca  Ca10  1  0.971730  0.622092  0.102065  1
  Ca  Ca11  1  0.527160  0.621214  0.602090  1
  Ca  Ca12  1  0.369473  0.466577  0.861355  1
  Ca  Ca13  1  0.130472  0.466426  0.362193  1
  Ca  Ca14  1  0.130453  0.966393  0.137804  1
  Ca  Ca15  1  0.631679  0.532525  0.138200  1
  Ca  Ca16  1  0.869450  0.033191  0.862352  1
  Ca  Ca17  1  0.631762  0.033049  0.360878  1
  Ca  Ca18  1  0.472999  0.878901  0.101879  1
  Ca  Ca19  1  0.527441  0.121865  0.897757  1
  Ca  Ca20  1  0.971631  0.122047  0.397977  1
  Ca  Ca21  1  0.028310  0.877986  0.601956  1
  Ca  Ca22  1  0.472964  0.378898  0.397863  1
  Ca  Ca23  1  0.869429  0.533456  0.638006  1
  Mo  Mo24  1  0.808510  0.898391  0.111770  1
  Mo  Mo25  1  0.191469  0.101810  0.888138  1
  Mo  Mo26  1  0.691478  0.398091  0.888174  1
  Mo  Mo27  1  0.808544  0.398292  0.388155  1
  Mo  Mo28  1  0.191424  0.601654  0.611890  1
  W  W29  1  0.308543  0.601690  0.111880  1
  W  W30  1  0.691373  0.898332  0.612024  1
  W  W31  1  0.308650  0.101776  0.388090  1
  N  N32  1  0.604656  0.000380  0.730277  1
  N  N33  1  0.205933  0.243542  0.324996  1
  N  N34  1  0.293517  0.243194  0.825590  1
  N  N35  1  0.817015  0.506495  0.973908  1
  N  N36  1  0.894442  0.500141  0.270160  1
  N  N37  1  0.447372  0.162604  0.495572  1
  N  N38  1  0.894482  0.000163  0.229785  1
  N  N39  1  0.105474  0.999934  0.770185  1
  N  N40  1  0.817254  0.006677  0.526053  1
  N  N41  1  0.552639  0.837451  0.504575  1
  N  N42  1  0.293041  0.743319  0.674424  1
  N  N43  1  0.946931  0.838413  0.004603  1
  N  N44  1  0.317231  0.493472  0.526340  1
  N  N45  1  0.946937  0.338333  0.495382  1
  N  N46  1  0.707001  0.256732  0.325437  1
  N  N47  1  0.317146  0.993656  0.973760  1
  N  N48  1  0.682882  0.006842  0.026273  1
  N  N49  1  0.182555  0.493242  0.026048  1
  N  N50  1  0.395468  0.000081  0.269653  1
  N  N51  1  0.605183  0.499361  0.769971  1
  N  N52  1  0.707000  0.756627  0.174169  1
  N  N53  1  0.053084  0.661628  0.504638  1
  N  N54  1  0.105282  0.499812  0.729757  1
  N  N55  1  0.447171  0.662449  0.004326  1
  N  N56  1  0.793593  0.256756  0.825733  1
  N  N57  1  0.395554  0.499899  0.230180  1
  N  N58  1  0.682842  0.506415  0.473891  1
  N  N59  1  0.552942  0.338177  0.995269  1
  N  N60  1  0.205884  0.743452  0.174979  1
  N  N61  1  0.052898  0.161796  0.995192  1
  N  N62  1  0.182773  0.993327  0.473995  1
  N  N63  1  0.793884  0.756361  0.675056  1
