# generated using pymatgen
data_Ce3Th(B10Ru)2
_symmetry_space_group_name_H-M   'P 1'
_cell_length_a   4.18307100
_cell_length_b   5.72147589
_cell_length_c   11.41521991
_cell_angle_alpha   90.00902233
_cell_angle_beta   90.00000000
_cell_angle_gamma   90.00000000
_symmetry_Int_Tables_number   1
_chemical_formula_structural   Ce3Th(B10Ru)2
_chemical_formula_sum   'Ce3 Th1 B20 Ru2'
_cell_volume   273.20433440
_cell_formula_units_Z   1
loop_
 _symmetry_equiv_pos_site_id
 _symmetry_equiv_pos_as_xyz
  1  'x, y, z'
loop_
 _atom_site_type_symbol
 _atom_site_label
 _atom_site_symmetry_multiplicity
 _atom_site_fract_x
 _atom_site_fract_y
 _atom_site_fract_z
 _atom_site_occupancy
  Ce  Ce0  1  0.500000  0.283969  0.868093  1
  Ce  Ce1  1  0.500000  0.715719  0.129870  1
  Ce  Ce2  1  0.500000  0.783936  0.633668  1
  Th  Th3  1  0.500000  0.216279  0.368160  1
  B  B4  1  0.000000  0.118627  0.542846  1
  B  B5  1  0.000000  0.881441  0.457723  1
  B  B6  1  0.000000  0.618005  0.957331  1
  B  B7  1  0.000000  0.381709  0.042427  1
  B  B8  1  0.000000  0.132963  0.697534  1
  B  B9  1  0.000000  0.866723  0.302395  1
  B  B10  1  0.301213  0.220956  0.118268  1
  B  B11  1  0.301226  0.778406  0.881553  1
  B  B12  1  0.699003  0.721603  0.381284  1
  B  B13  1  0.698976  0.278407  0.618821  1
  B  B14  1  0.698774  0.778406  0.881553  1
  B  B15  1  0.698787  0.220956  0.118268  1
  B  B16  1  0.301024  0.278407  0.618821  1
  B  B17  1  0.300997  0.721603  0.381284  1
  B  B18  1  0.000000  0.058353  0.192740  1
  B  B19  1  0.000000  0.941479  0.807140  1
  B  B20  1  0.000000  0.558975  0.306864  1
  B  B21  1  0.000000  0.441566  0.693167  1
  B  B22  1  0.000000  0.367484  0.196885  1
  B  B23  1  0.000000  0.632933  0.802770  1
  Ru  Ru24  1  0.000000  0.501352  0.500713  1
  Ru  Ru25  1  0.000000  0.999745  0.999822  1
