# generated using pymatgen
data_LuTh2Sn3IrRh2
_symmetry_space_group_name_H-M   'P 1'
_cell_length_a   7.53670418
_cell_length_b   7.55888769
_cell_length_c   4.04853200
_cell_angle_alpha   90.00000000
_cell_angle_beta   90.00000000
_cell_angle_gamma   120.12814557
_symmetry_Int_Tables_number   1
_chemical_formula_structural   LuTh2Sn3IrRh2
_chemical_formula_sum   'Lu1 Th2 Sn3 Ir1 Rh2'
_cell_volume   199.48273990
_cell_formula_units_Z   1
loop_
 _symmetry_equiv_pos_site_id
 _symmetry_equiv_pos_as_xyz
  1  'x, y, z'
loop_
 _atom_site_type_symbol
 _atom_site_label
 _atom_site_symmetry_multiplicity
 _atom_site_fract_x
 _atom_site_fract_y
 _atom_site_fract_z
 _atom_site_occupancy
  Lu  Lu0  1  0.408646  0.405039  0.500000  1
  Th  Th1  1  0.586513  0.000701  0.500000  1
  Th  Th2  1  0.998006  0.585753  0.500000  1
  Sn  Sn3  1  0.736821  0.738951  0.000000  1
  Sn  Sn4  1  0.253000  0.008949  0.000000  1
  Sn  Sn5  1  0.013130  0.255672  0.000000  1
  Ir  Ir6  1  0.672986  0.332925  0.000000  1
  Rh  Rh7  1  0.332747  0.673423  0.000000  1
  Rh  Rh8  1  0.998153  0.998589  0.500000  1
