# generated using pymatgen
data_Nb3I7
_symmetry_space_group_name_H-M   'P 1'
_cell_length_a   11.16276800
_cell_length_b   11.16276855
_cell_length_c   12.92259800
_cell_angle_alpha   90.00000000
_cell_angle_beta   90.00000000
_cell_angle_gamma   93.81529236
_symmetry_Int_Tables_number   1
_chemical_formula_structural   Nb3I7
_chemical_formula_sum   'Nb12 I28'
_cell_volume   1606.68255200
_cell_formula_units_Z   4
loop_
 _symmetry_equiv_pos_site_id
 _symmetry_equiv_pos_as_xyz
  1  'x, y, z'
loop_
 _atom_site_type_symbol
 _atom_site_label
 _atom_site_symmetry_multiplicity
 _atom_site_fract_x
 _atom_site_fract_y
 _atom_site_fract_z
 _atom_site_occupancy
  Nb  Nb0  1  0.906504  0.093496  0.933039  1
  Nb  Nb1  1  0.593496  0.406504  0.433039  1
  Nb  Nb2  1  0.406504  0.593496  0.566961  1
  Nb  Nb3  1  0.093496  0.906504  0.066961  1
  Nb  Nb4  1  0.846612  0.942999  0.107743  1
  Nb  Nb5  1  0.653388  0.557001  0.607743  1
  Nb  Nb6  1  0.557001  0.653388  0.392257  1
  Nb  Nb7  1  0.942999  0.846612  0.892257  1
  Nb  Nb8  1  0.153388  0.057001  0.892257  1
  Nb  Nb9  1  0.346612  0.442999  0.392257  1
  Nb  Nb10  1  0.442999  0.346612  0.607743  1
  Nb  Nb11  1  0.057001  0.153388  0.107743  1
  I  I12  1  0.625589  0.874411  0.250000  1
  I  I13  1  0.874411  0.625589  0.750000  1
  I  I14  1  0.374411  0.125589  0.750000  1
  I  I15  1  0.125589  0.374411  0.250000  1
  I  I16  1  0.671081  0.082288  0.019311  1
  I  I17  1  0.828919  0.417712  0.519311  1
  I  I18  1  0.417712  0.828919  0.480689  1
  I  I19  1  0.082288  0.671081  0.980689  1
  I  I20  1  0.328919  0.917712  0.980689  1
  I  I21  1  0.171081  0.582288  0.480689  1
  I  I22  1  0.582288  0.171081  0.519311  1
  I  I23  1  0.917712  0.328919  0.019311  1
  I  I24  1  0.256722  0.256722  0.000000  1
  I  I25  1  0.243278  0.243278  0.500000  1
  I  I26  1  0.743278  0.743278  0.000000  1
  I  I27  1  0.756722  0.756722  0.500000  1
  I  I28  1  0.881011  0.118989  0.263381  1
  I  I29  1  0.618989  0.381011  0.763381  1
  I  I30  1  0.381011  0.618989  0.236619  1
  I  I31  1  0.118989  0.881011  0.736619  1
  I  I32  1  0.713148  0.530921  0.266524  1
  I  I33  1  0.786852  0.969079  0.766524  1
  I  I34  1  0.969079  0.786852  0.233476  1
  I  I35  1  0.530921  0.713148  0.733476  1
  I  I36  1  0.286852  0.469079  0.733476  1
  I  I37  1  0.213148  0.030921  0.233476  1
  I  I38  1  0.030921  0.213148  0.766524  1
  I  I39  1  0.469079  0.286852  0.266524  1
