# generated using pymatgen
data_Er4Tc3Ni2Os3
_symmetry_space_group_name_H-M   'P 1'
_cell_length_a   5.35570668
_cell_length_b   5.34589337
_cell_length_c   8.77203600
_cell_angle_alpha   90.00000000
_cell_angle_beta   90.00000000
_cell_angle_gamma   123.65646487
_symmetry_Int_Tables_number   1
_chemical_formula_structural   Er4Tc3Ni2Os3
_chemical_formula_sum   'Er4 Tc3 Ni2 Os3'
_cell_volume   209.05316871
_cell_formula_units_Z   1
loop_
 _symmetry_equiv_pos_site_id
 _symmetry_equiv_pos_as_xyz
  1  'x, y, z'
loop_
 _atom_site_type_symbol
 _atom_site_label
 _atom_site_symmetry_multiplicity
 _atom_site_fract_x
 _atom_site_fract_y
 _atom_site_fract_z
 _atom_site_occupancy
  Er  Er0  1  0.336279  0.665805  0.437927  1
  Er  Er1  1  0.665400  0.335504  0.563266  1
  Er  Er2  1  0.665400  0.335504  0.936734  1
  Er  Er3  1  0.336279  0.665805  0.062073  1
  Tc  Tc4  1  0.822932  0.662093  0.250000  1
  Tc  Tc5  1  0.334634  0.174387  0.250000  1
  Tc  Tc6  1  0.172774  0.333563  0.750000  1
  Ni  Ni7  1  0.827208  0.171937  0.250000  1
  Ni  Ni8  1  0.169979  0.828385  0.750000  1
  Os  Os9  1  0.004062  0.002410  0.499265  1
  Os  Os10  1  0.004062  0.002410  0.000735  1
  Os  Os11  1  0.660992  0.822194  0.750000  1
