# generated using pymatgen
data_Tb2Nb3P7Ir4Rh5
_symmetry_space_group_name_H-M   'P 1'
_cell_length_a   3.97315500
_cell_length_b   9.63433968
_cell_length_c   9.64007137
_cell_angle_alpha   120.02242704
_cell_angle_beta   89.99960619
_cell_angle_gamma   90.00067846
_symmetry_Int_Tables_number   1
_chemical_formula_structural   Tb2Nb3P7Ir4Rh5
_chemical_formula_sum   'Tb2 Nb3 P7 Ir4 Rh5'
_cell_volume   319.49947804
_cell_formula_units_Z   1
loop_
 _symmetry_equiv_pos_site_id
 _symmetry_equiv_pos_as_xyz
  1  'x, y, z'
loop_
 _atom_site_type_symbol
 _atom_site_label
 _atom_site_symmetry_multiplicity
 _atom_site_fract_x
 _atom_site_fract_y
 _atom_site_fract_z
 _atom_site_occupancy
  Tb  Tb0  1  0.261701  0.666847  0.333608  1
  Tb  Tb1  1  0.762059  0.333495  0.666879  1
  Nb  Nb2  1  0.761943  0.095328  0.872365  1
  Nb  Nb3  1  0.761934  0.128677  0.222577  1
  Nb  Nb4  1  0.761965  0.777351  0.904755  1
  P  P5  1  0.262206  0.999379  0.999497  1
  P  P6  1  0.761771  0.877080  0.590677  1
  P  P7  1  0.761752  0.409218  0.285645  1
  P  P8  1  0.761765  0.714668  0.123593  1
  P  P9  1  0.261928  0.117135  0.416674  1
  P  P10  1  0.261950  0.583439  0.702142  1
  P  P11  1  0.261918  0.298548  0.881886  1
  Ir  Ir12  1  0.261875  0.885652  0.161554  1
  Ir  Ir13  1  0.261875  0.837959  0.723269  1
  Ir  Ir14  1  0.261862  0.275664  0.114380  1
  Ir  Ir15  1  0.261962  0.366794  0.440789  1
  Rh  Rh16  1  0.761870  0.609951  0.553165  1
  Rh  Rh17  1  0.761862  0.445723  0.055705  1
  Rh  Rh18  1  0.761868  0.945453  0.390322  1
  Rh  Rh19  1  0.261978  0.560602  0.929107  1
  Rh  Rh20  1  0.261957  0.071039  0.631410  1
