# generated using pymatgen
data_Sr5Ga2F16
_symmetry_space_group_name_H-M   'P 1'
_cell_length_a   7.36031400
_cell_length_b   7.36031416
_cell_length_c   14.30435500
_cell_angle_alpha   90.00000000
_cell_angle_beta   90.00000000
_cell_angle_gamma   117.93740239
_symmetry_Int_Tables_number   1
_chemical_formula_structural   Sr5Ga2F16
_chemical_formula_sum   'Sr10 Ga4 F32'
_cell_volume   684.61727698
_cell_formula_units_Z   2
loop_
 _symmetry_equiv_pos_site_id
 _symmetry_equiv_pos_as_xyz
  1  'x, y, z'
loop_
 _atom_site_type_symbol
 _atom_site_label
 _atom_site_symmetry_multiplicity
 _atom_site_fract_x
 _atom_site_fract_y
 _atom_site_fract_z
 _atom_site_occupancy
  Sr  Sr0  1  0.000000  0.000000  0.716264  1
  Sr  Sr1  1  0.000000  0.000000  0.283736  1
  Sr  Sr2  1  0.500000  0.500000  0.783736  1
  Sr  Sr3  1  0.500000  0.500000  0.216264  1
  Sr  Sr4  1  0.500000  0.500000  0.500000  1
  Sr  Sr5  1  0.000000  0.000000  0.000000  1
  Sr  Sr6  1  0.000000  0.500000  0.631273  1
  Sr  Sr7  1  0.500000  0.000000  0.368727  1
  Sr  Sr8  1  0.500000  0.000000  0.868727  1
  Sr  Sr9  1  0.000000  0.500000  0.131273  1
  Ga  Ga10  1  0.500000  0.000000  0.617786  1
  Ga  Ga11  1  0.000000  0.500000  0.382214  1
  Ga  Ga12  1  0.000000  0.500000  0.882214  1
  Ga  Ga13  1  0.500000  0.000000  0.117786  1
  F  F14  1  0.529144  0.192339  0.713332  1
  F  F15  1  0.470856  0.807661  0.713332  1
  F  F16  1  0.192339  0.529144  0.286668  1
  F  F17  1  0.807661  0.470856  0.286668  1
  F  F18  1  0.970856  0.307661  0.786668  1
  F  F19  1  0.029144  0.692339  0.786668  1
  F  F20  1  0.307661  0.970856  0.213332  1
  F  F21  1  0.692339  0.029144  0.213332  1
  F  F22  1  0.203264  0.880097  0.617960  1
  F  F23  1  0.796736  0.119903  0.617960  1
  F  F24  1  0.880097  0.203264  0.382040  1
  F  F25  1  0.119903  0.796736  0.382040  1
  F  F26  1  0.296736  0.619903  0.882040  1
  F  F27  1  0.703264  0.380097  0.882040  1
  F  F28  1  0.670835  0.993755  0.020723  1
  F  F29  1  0.329165  0.006245  0.020723  1
  F  F30  1  0.993755  0.670835  0.979277  1
  F  F31  1  0.006245  0.329165  0.979277  1
  F  F32  1  0.829165  0.506245  0.479277  1
  F  F33  1  0.170835  0.493755  0.479277  1
  F  F34  1  0.506245  0.829165  0.520723  1
  F  F35  1  0.493755  0.170835  0.520723  1
  F  F36  1  0.863145  0.759504  0.149111  1
  F  F37  1  0.136855  0.240496  0.149111  1
  F  F38  1  0.759504  0.863145  0.850889  1
  F  F39  1  0.240496  0.136855  0.850889  1
  F  F40  1  0.636855  0.740496  0.350889  1
  F  F41  1  0.363145  0.259504  0.350889  1
  F  F42  1  0.740496  0.636855  0.649111  1
  F  F43  1  0.259504  0.363145  0.649111  1
  F  F44  1  0.380097  0.703264  0.117960  1
  F  F45  1  0.619903  0.296736  0.117960  1
