# generated using pymatgen
data_Sr4HoPa5O18
_symmetry_space_group_name_H-M   'P 1'
_cell_length_a   6.94440454
_cell_length_b   7.87334076
_cell_length_c   8.83574490
_cell_angle_alpha   101.74482670
_cell_angle_beta   98.02653354
_cell_angle_gamma   106.98976880
_symmetry_Int_Tables_number   1
_chemical_formula_structural   Sr4HoPa5O18
_chemical_formula_sum   'Sr4 Ho1 Pa5 O18'
_cell_volume   441.99775070
_cell_formula_units_Z   1
loop_
 _symmetry_equiv_pos_site_id
 _symmetry_equiv_pos_as_xyz
  1  'x, y, z'
loop_
 _atom_site_type_symbol
 _atom_site_label
 _atom_site_symmetry_multiplicity
 _atom_site_fract_x
 _atom_site_fract_y
 _atom_site_fract_z
 _atom_site_occupancy
  Sr  Sr0  1  0.807026  0.111386  0.594942  1
  Sr  Sr1  1  0.591765  0.690870  0.192339  1
  Sr  Sr2  1  0.408235  0.309130  0.807661  1
  Sr  Sr3  1  0.192974  0.888614  0.405058  1
  Ho  Ho4  1  0.000000  0.500000  0.000000  1
  Pa  Pa5  1  0.000000  0.000000  0.000000  1
  Pa  Pa6  1  0.791937  0.582804  0.584170  1
  Pa  Pa7  1  0.631783  0.194653  0.198375  1
  Pa  Pa8  1  0.368217  0.805347  0.801625  1
  Pa  Pa9  1  0.208063  0.417196  0.415830  1
  O  O10  1  0.817861  0.787609  0.465068  1
  O  O11  1  0.989913  0.204470  0.200135  1
  O  O12  1  0.694726  0.397455  0.071901  1
  O  O13  1  0.460168  0.002615  0.683904  1
  O  O14  1  0.857906  0.345652  0.433854  1
  O  O15  1  0.504417  0.396963  0.347229  1
  O  O16  1  0.218917  0.579584  0.251622  1
  O  O17  1  0.976208  0.788130  0.120104  1
  O  O18  1  0.660498  0.935580  0.992572  1
  O  O19  1  0.339502  0.064420  0.007428  1
  O  O20  1  0.023792  0.211870  0.879896  1
  O  O21  1  0.781083  0.420416  0.748378  1
  O  O22  1  0.495583  0.603037  0.652771  1
  O  O23  1  0.142094  0.654348  0.566146  1
  O  O24  1  0.539832  0.997385  0.316096  1
  O  O25  1  0.305274  0.602545  0.928099  1
  O  O26  1  0.010087  0.795530  0.799865  1
  O  O27  1  0.182139  0.212391  0.534932  1
