# generated using pymatgen
data_Na2LiNi11P7
_symmetry_space_group_name_H-M   'P 1'
_cell_length_a   3.64319300
_cell_length_b   9.08571388
_cell_length_c   9.07795332
_cell_angle_alpha   120.25792277
_cell_angle_beta   90.00000000
_cell_angle_gamma   90.00000000
_symmetry_Int_Tables_number   1
_chemical_formula_structural   Na2LiNi11P7
_chemical_formula_sum   'Na2 Li1 Ni11 P7'
_cell_volume   259.55249204
_cell_formula_units_Z   1
loop_
 _symmetry_equiv_pos_site_id
 _symmetry_equiv_pos_as_xyz
  1  'x, y, z'
loop_
 _atom_site_type_symbol
 _atom_site_label
 _atom_site_symmetry_multiplicity
 _atom_site_fract_x
 _atom_site_fract_y
 _atom_site_fract_z
 _atom_site_occupancy
  Na  Na0  1  0.500000  0.332285  0.664925  1
  Na  Na1  1  0.000000  0.669830  0.337651  1
  Li  Li2  1  0.500000  0.114478  0.898214  1
  Ni  Ni3  1  0.000000  0.882689  0.727677  1
  Ni  Ni4  1  0.000000  0.278726  0.157000  1
  Ni  Ni5  1  0.000000  0.837654  0.121195  1
  Ni  Ni6  1  0.500000  0.951560  0.568567  1
  Ni  Ni7  1  0.500000  0.433017  0.383709  1
  Ni  Ni8  1  0.500000  0.615614  0.046292  1
  Ni  Ni9  1  0.000000  0.377204  0.944773  1
  Ni  Ni10  1  0.000000  0.057360  0.429489  1
  Ni  Ni11  1  0.000000  0.566593  0.624241  1
  Ni  Ni12  1  0.500000  0.090806  0.208534  1
  Ni  Ni13  1  0.500000  0.789128  0.882828  1
  P  P14  1  0.500000  0.709564  0.599249  1
  P  P15  1  0.500000  0.412264  0.116861  1
  P  P16  1  0.500000  0.888908  0.293095  1
  P  P17  1  0.000000  0.996734  0.006105  1
  P  P18  1  0.000000  0.115377  0.699936  1
  P  P19  1  0.000000  0.293298  0.409003  1
  P  P20  1  0.000000  0.586912  0.880653  1
