# generated using pymatgen
data_Hf(NbSe2)4
_symmetry_space_group_name_H-M   'P 1'
_cell_length_a   7.02266100
_cell_length_b   7.02266090
_cell_length_c   13.36871500
_cell_angle_alpha   90.00000000
_cell_angle_beta   90.00000000
_cell_angle_gamma   119.99999577
_symmetry_Int_Tables_number   1
_chemical_formula_structural   Hf(NbSe2)4
_chemical_formula_sum   'Hf2 Nb8 Se16'
_cell_volume   570.98370975
_cell_formula_units_Z   2
loop_
 _symmetry_equiv_pos_site_id
 _symmetry_equiv_pos_as_xyz
  1  'x, y, z'
loop_
 _atom_site_type_symbol
 _atom_site_label
 _atom_site_symmetry_multiplicity
 _atom_site_fract_x
 _atom_site_fract_y
 _atom_site_fract_z
 _atom_site_occupancy
  Hf  Hf0  1  0.000000  0.000000  0.500000  1
  Hf  Hf1  1  0.000000  0.000000  0.000000  1
  Nb  Nb2  1  0.000000  0.000000  0.250000  1
  Nb  Nb3  1  0.000000  0.000000  0.750000  1
  Nb  Nb4  1  0.507263  0.014525  0.250000  1
  Nb  Nb5  1  0.985475  0.492737  0.250000  1
  Nb  Nb6  1  0.507263  0.492737  0.250000  1
  Nb  Nb7  1  0.492737  0.985475  0.750000  1
  Nb  Nb8  1  0.014525  0.507263  0.750000  1
  Nb  Nb9  1  0.492737  0.507263  0.750000  1
  Se  Se10  1  0.333333  0.666667  0.879044  1
  Se  Se11  1  0.666667  0.333333  0.120956  1
  Se  Se12  1  0.666667  0.333333  0.379044  1
  Se  Se13  1  0.333333  0.666667  0.620956  1
  Se  Se14  1  0.169591  0.830409  0.375320  1
  Se  Se15  1  0.169591  0.339181  0.375320  1
  Se  Se16  1  0.660819  0.830409  0.375320  1
  Se  Se17  1  0.830409  0.169591  0.624680  1
  Se  Se18  1  0.830409  0.660819  0.624680  1
  Se  Se19  1  0.339181  0.169591  0.624680  1
  Se  Se20  1  0.830409  0.169591  0.875320  1
  Se  Se21  1  0.830409  0.660819  0.875320  1
  Se  Se22  1  0.339181  0.169591  0.875320  1
  Se  Se23  1  0.169591  0.830409  0.124680  1
  Se  Se24  1  0.169591  0.339181  0.124680  1
  Se  Se25  1  0.660819  0.830409  0.124680  1
