# generated using pymatgen
data_Na2Ni3P7Ru9
_symmetry_space_group_name_H-M   'P 1'
_cell_length_a   9.39087700
_cell_length_b   9.39087671
_cell_length_c   3.75981700
_cell_angle_alpha   90.00000000
_cell_angle_beta   90.00000000
_cell_angle_gamma   119.99999750
_symmetry_Int_Tables_number   1
_chemical_formula_structural   Na2Ni3P7Ru9
_chemical_formula_sum   'Na2 Ni3 P7 Ru9'
_cell_volume   287.15054243
_cell_formula_units_Z   1
loop_
 _symmetry_equiv_pos_site_id
 _symmetry_equiv_pos_as_xyz
  1  'x, y, z'
loop_
 _atom_site_type_symbol
 _atom_site_label
 _atom_site_symmetry_multiplicity
 _atom_site_fract_x
 _atom_site_fract_y
 _atom_site_fract_z
 _atom_site_occupancy
  Na  Na0  1  0.666667  0.333333  0.500000  1
  Na  Na1  1  0.333333  0.666667  0.000000  1
  Ni  Ni2  1  0.729712  0.889691  0.000000  1
  Ni  Ni3  1  0.110309  0.840019  0.000000  1
  Ni  Ni4  1  0.159981  0.270288  0.000000  1
  P  P5  1  0.598909  0.711554  0.500000  1
  P  P6  1  0.000000  0.000000  0.000000  1
  P  P7  1  0.288446  0.887353  0.500000  1
  P  P8  1  0.112647  0.401091  0.500000  1
  P  P9  1  0.888612  0.586494  0.000000  1
  P  P10  1  0.413506  0.302119  0.000000  1
  P  P11  1  0.697881  0.111388  0.000000  1
  Ru  Ru12  1  0.565361  0.948013  0.500000  1
  Ru  Ru13  1  0.382653  0.434639  0.500000  1
  Ru  Ru14  1  0.917578  0.118568  0.500000  1
  Ru  Ru15  1  0.200990  0.082422  0.500000  1
  Ru  Ru16  1  0.881432  0.799010  0.500000  1
  Ru  Ru17  1  0.423527  0.060271  0.000000  1
  Ru  Ru18  1  0.939729  0.363257  0.000000  1
  Ru  Ru19  1  0.636743  0.576473  0.000000  1
  Ru  Ru20  1  0.051987  0.617347  0.500000  1
