# generated using pymatgen
data_Tb15DyCd4Co3Os
_symmetry_space_group_name_H-M   'P 1'
_cell_length_a   9.62381596
_cell_length_b   9.62381749
_cell_length_c   9.62277029
_cell_angle_alpha   59.51158185
_cell_angle_beta   59.51157708
_cell_angle_gamma   59.51190733
_symmetry_Int_Tables_number   1
_chemical_formula_structural   Tb15DyCd4Co3Os
_chemical_formula_sum   'Tb15 Dy1 Cd4 Co3 Os1'
_cell_volume   623.20382862
_cell_formula_units_Z   1
loop_
 _symmetry_equiv_pos_site_id
 _symmetry_equiv_pos_as_xyz
  1  'x, y, z'
loop_
 _atom_site_type_symbol
 _atom_site_label
 _atom_site_symmetry_multiplicity
 _atom_site_fract_x
 _atom_site_fract_y
 _atom_site_fract_z
 _atom_site_occupancy
  Tb  Tb0  1  0.596014  0.596014  0.596312  1
  Tb  Tb1  1  0.187766  0.812670  0.812896  1
  Tb  Tb2  1  0.060972  0.060972  0.436001  1
  Tb  Tb3  1  0.436098  0.061241  0.060978  1
  Tb  Tb4  1  0.812670  0.187766  0.812896  1
  Tb  Tb5  1  0.437806  0.057530  0.437550  1
  Tb  Tb6  1  0.600030  0.210822  0.599975  1
  Tb  Tb7  1  0.812776  0.812776  0.187707  1
  Tb  Tb8  1  0.210822  0.600030  0.599975  1
  Tb  Tb9  1  0.805618  0.190485  0.190355  1
  Tb  Tb10  1  0.057530  0.437806  0.437550  1
  Tb  Tb11  1  0.190485  0.805618  0.190355  1
  Tb  Tb12  1  0.599964  0.599964  0.210616  1
  Tb  Tb13  1  0.190390  0.190390  0.805742  1
  Tb  Tb14  1  0.061241  0.436098  0.060978  1
  Dy  Dy15  1  0.437763  0.437763  0.057528  1
  Cd  Cd16  1  0.829655  0.829655  0.508048  1
  Cd  Cd17  1  0.829809  0.829809  0.829794  1
  Cd  Cd18  1  0.508028  0.829534  0.829742  1
  Cd  Cd19  1  0.829534  0.508028  0.829742  1
  Co  Co20  1  0.829419  0.392221  0.392365  1
  Co  Co21  1  0.392221  0.829419  0.392365  1
  Co  Co22  1  0.392277  0.392277  0.829591  1
  Os  Os23  1  0.391112  0.391112  0.390939  1
