# generated using pymatgen
data_TaNb13Co12
_symmetry_space_group_name_H-M   'P 1'
_cell_length_a   5.00053614
_cell_length_b   5.00053668
_cell_length_c   17.68944739
_cell_angle_alpha   98.12553684
_cell_angle_beta   98.12553736
_cell_angle_gamma   60.00000860
_symmetry_Int_Tables_number   1
_chemical_formula_structural   TaNb13Co12
_chemical_formula_sum   'Ta1 Nb13 Co12'
_cell_volume   377.93364412
_cell_formula_units_Z   1
loop_
 _symmetry_equiv_pos_site_id
 _symmetry_equiv_pos_as_xyz
  1  'x, y, z'
loop_
 _atom_site_type_symbol
 _atom_site_label
 _atom_site_symmetry_multiplicity
 _atom_site_fract_x
 _atom_site_fract_y
 _atom_site_fract_z
 _atom_site_occupancy
  Ta  Ta0  1  0.000000  0.000000  0.000000  1
  Nb  Nb1  1  0.416883  0.416883  0.250648  1
  Nb  Nb2  1  0.917022  0.917022  0.751065  1
  Nb  Nb3  1  0.082978  0.082978  0.248935  1
  Nb  Nb4  1  0.583117  0.583117  0.749352  1
  Nb  Nb5  1  0.774320  0.774320  0.322962  1
  Nb  Nb6  1  0.274831  0.274831  0.824493  1
  Nb  Nb7  1  0.725169  0.725169  0.175507  1
  Nb  Nb8  1  0.225680  0.225680  0.677038  1
  Nb  Nb9  1  0.826288  0.826288  0.478862  1
  Nb  Nb10  1  0.326800  0.326800  0.980400  1
  Nb  Nb11  1  0.673200  0.673200  0.019600  1
  Nb  Nb12  1  0.173712  0.173712  0.521138  1
  Nb  Nb13  1  0.500000  0.500000  0.500000  1
  Co  Co14  1  0.696926  0.210028  0.116982  1
  Co  Co15  1  0.196313  0.710542  0.617399  1
  Co  Co16  1  0.210028  0.210028  0.116982  1
  Co  Co17  1  0.710542  0.710542  0.617399  1
  Co  Co18  1  0.210028  0.696926  0.116982  1
  Co  Co19  1  0.710542  0.196313  0.617399  1
  Co  Co20  1  0.803687  0.289458  0.382601  1
  Co  Co21  1  0.303074  0.789972  0.883018  1
  Co  Co22  1  0.289458  0.289458  0.382601  1
  Co  Co23  1  0.789972  0.789972  0.883018  1
  Co  Co24  1  0.289458  0.803687  0.382601  1
  Co  Co25  1  0.789972  0.303074  0.883018  1
