# generated using pymatgen
data_DyTm3(TcB4)4
_symmetry_space_group_name_H-M   'P 1'
_cell_length_a   3.58459500
_cell_length_b   5.94665170
_cell_length_c   11.50307404
_cell_angle_alpha   90.02329977
_cell_angle_beta   90.00000000
_cell_angle_gamma   90.00000000
_symmetry_Int_Tables_number   1
_chemical_formula_structural   DyTm3(TcB4)4
_chemical_formula_sum   'Dy1 Tm3 Tc4 B16'
_cell_volume   245.20339328
_cell_formula_units_Z   1
loop_
 _symmetry_equiv_pos_site_id
 _symmetry_equiv_pos_as_xyz
  1  'x, y, z'
loop_
 _atom_site_type_symbol
 _atom_site_label
 _atom_site_symmetry_multiplicity
 _atom_site_fract_x
 _atom_site_fract_y
 _atom_site_fract_z
 _atom_site_occupancy
  Dy  Dy0  1  0.000000  0.872611  0.849522  1
  Tm  Tm1  1  0.000000  0.627728  0.350495  1
  Tm  Tm2  1  0.000000  0.372226  0.649249  1
  Tm  Tm3  1  0.000000  0.127221  0.150468  1
  Tc  Tc4  1  0.000000  0.632803  0.088261  1
  Tc  Tc5  1  0.000000  0.366982  0.912756  1
  Tc  Tc6  1  0.000000  0.134398  0.411492  1
  Tc  Tc7  1  0.000000  0.865787  0.587467  1
  B  B8  1  0.500000  0.788257  0.185662  1
  B  B9  1  0.500000  0.212895  0.814535  1
  B  B10  1  0.500000  0.288331  0.314733  1
  B  B11  1  0.500000  0.711552  0.684570  1
  B  B12  1  0.500000  0.864682  0.032096  1
  B  B13  1  0.500000  0.135279  0.969207  1
  B  B14  1  0.500000  0.365023  0.468645  1
  B  B15  1  0.500000  0.634982  0.530725  1
  B  B16  1  0.500000  0.886250  0.452129  1
  B  B17  1  0.500000  0.114184  0.547139  1
  B  B18  1  0.500000  0.385526  0.048313  1
  B  B19  1  0.500000  0.612972  0.953019  1
  B  B20  1  0.500000  0.976927  0.307046  1
  B  B21  1  0.500000  0.023974  0.692038  1
  B  B22  1  0.500000  0.477176  0.193462  1
  B  B23  1  0.500000  0.522234  0.806973  1
