# generated using pymatgen
data_Tb5Tm3Re2(RuC4)2
_symmetry_space_group_name_H-M   'P 1'
_cell_length_a   5.09103100
_cell_length_b   6.54339196
_cell_length_c   9.78581769
_cell_angle_alpha   90.16826811
_cell_angle_beta   90.00000000
_cell_angle_gamma   90.00000000
_symmetry_Int_Tables_number   1
_chemical_formula_structural   Tb5Tm3Re2(RuC4)2
_chemical_formula_sum   'Tb5 Tm3 Re2 Ru2 C8'
_cell_volume   325.98973535
_cell_formula_units_Z   1
loop_
 _symmetry_equiv_pos_site_id
 _symmetry_equiv_pos_as_xyz
  1  'x, y, z'
loop_
 _atom_site_type_symbol
 _atom_site_label
 _atom_site_symmetry_multiplicity
 _atom_site_fract_x
 _atom_site_fract_y
 _atom_site_fract_z
 _atom_site_occupancy
  Tb  Tb0  1  0.250000  0.180642  0.943476  1
  Tb  Tb1  1  0.750000  0.467452  0.784783  1
  Tb  Tb2  1  0.250000  0.032202  0.287742  1
  Tb  Tb3  1  0.750000  0.969232  0.712953  1
  Tb  Tb4  1  0.250000  0.530394  0.214474  1
  Tm  Tm5  1  0.750000  0.827389  0.056373  1
  Tm  Tm6  1  0.250000  0.671956  0.555238  1
  Tm  Tm7  1  0.750000  0.323744  0.441763  1
  Re  Re8  1  0.750000  0.778344  0.365976  1
  Re  Re9  1  0.250000  0.721974  0.864539  1
  Ru  Ru10  1  0.750000  0.277168  0.135456  1
  Ru  Ru11  1  0.250000  0.222242  0.632524  1
  C  C12  1  0.750000  0.171779  0.950558  1
  C  C13  1  0.250000  0.823744  0.051360  1
  C  C14  1  0.750000  0.671994  0.551404  1
  C  C15  1  0.250000  0.329231  0.448704  1
  C  C16  1  0.750000  0.044042  0.261687  1
  C  C17  1  0.250000  0.457159  0.758692  1
  C  C18  1  0.750000  0.546355  0.242078  1
  C  C19  1  0.250000  0.952957  0.740222  1
