# generated using pymatgen
data_Hf3Tc2Pt
_symmetry_space_group_name_H-M   'P 1'
_cell_length_a   8.00914800
_cell_length_b   8.00914919
_cell_length_c   5.69372400
_cell_angle_alpha   90.00000000
_cell_angle_beta   90.00000000
_cell_angle_gamma   119.99999510
_symmetry_Int_Tables_number   1
_chemical_formula_structural   Hf3Tc2Pt
_chemical_formula_sum   'Hf9 Tc6 Pt3'
_cell_volume   316.30041854
_cell_formula_units_Z   3
loop_
 _symmetry_equiv_pos_site_id
 _symmetry_equiv_pos_as_xyz
  1  'x, y, z'
loop_
 _atom_site_type_symbol
 _atom_site_label
 _atom_site_symmetry_multiplicity
 _atom_site_fract_x
 _atom_site_fract_y
 _atom_site_fract_z
 _atom_site_occupancy
  Hf  Hf0  1  0.666762  0.000000  0.225431  1
  Hf  Hf1  1  0.333237  0.333238  0.225431  1
  Hf  Hf2  1  0.000000  0.666762  0.225431  1
  Hf  Hf3  1  0.000000  0.000000  0.551019  1
  Hf  Hf4  1  0.666666  0.333333  0.550996  1
  Hf  Hf5  1  0.333334  0.666667  0.550996  1
  Hf  Hf6  1  0.333461  0.000000  0.899919  1
  Hf  Hf7  1  0.000000  0.333461  0.899919  1
  Hf  Hf8  1  0.666539  0.666539  0.899919  1
  Tc  Tc9  1  0.000000  0.000000  0.055748  1
  Tc  Tc10  1  0.666666  0.333333  0.055833  1
  Tc  Tc11  1  0.333334  0.666667  0.055833  1
  Tc  Tc12  1  0.333373  0.000000  0.395052  1
  Tc  Tc13  1  0.000000  0.333373  0.395052  1
  Tc  Tc14  1  0.666628  0.666627  0.395052  1
  Pt  Pt15  1  0.666802  0.000000  0.725409  1
  Pt  Pt16  1  0.333199  0.333199  0.725409  1
  Pt  Pt17  1  0.000000  0.666801  0.725409  1
