# generated using pymatgen
data_Tb4HoTm7(GaCo2)2
_symmetry_space_group_name_H-M   'P 1'
_cell_length_a   8.19995875
_cell_length_b   8.20900917
_cell_length_c   8.20901023
_cell_angle_alpha   106.97202628
_cell_angle_beta   109.21946679
_cell_angle_gamma   112.31445110
_symmetry_Int_Tables_number   1
_chemical_formula_structural   Tb4HoTm7(GaCo2)2
_chemical_formula_sum   'Tb4 Ho1 Tm7 Ga2 Co4'
_cell_volume   424.18856264
_cell_formula_units_Z   1
loop_
 _symmetry_equiv_pos_site_id
 _symmetry_equiv_pos_as_xyz
  1  'x, y, z'
loop_
 _atom_site_type_symbol
 _atom_site_label
 _atom_site_symmetry_multiplicity
 _atom_site_fract_x
 _atom_site_fract_y
 _atom_site_fract_z
 _atom_site_occupancy
  Tb  Tb0  1  0.698914  0.260888  0.958983  1
  Tb  Tb1  1  0.301334  0.738208  0.040500  1
  Tb  Tb2  1  0.698914  0.739931  0.438026  1
  Tb  Tb3  1  0.301334  0.260834  0.563125  1
  Ho  Ho4  1  0.398058  0.219032  0.179026  1
  Tm  Tm5  1  0.812971  0.140093  0.328312  1
  Tm  Tm6  1  0.812971  0.484660  0.672877  1
  Tm  Tm7  1  0.187506  0.859370  0.671539  1
  Tm  Tm8  1  0.187506  0.515968  0.328137  1
  Tm  Tm9  1  0.601956  0.780715  0.821242  1
  Tm  Tm10  1  0.959460  0.780793  0.178668  1
  Tm  Tm11  1  0.039749  0.219118  0.820631  1
  Ga  Ga12  1  0.500551  0.500855  0.999698  1
  Ga  Ga13  1  0.500019  0.000098  0.499920  1
  Co  Co14  1  0.839387  0.500558  0.338829  1
  Co  Co15  1  0.161709  0.500218  0.661491  1
  Co  Co16  1  0.998829  0.114771  0.114939  1
  Co  Co17  1  0.998829  0.883891  0.884059  1
