# generated using pymatgen
data_Sr5P4
_symmetry_space_group_name_H-M   'P 1'
_cell_length_a   7.95785266
_cell_length_b   8.00593900
_cell_length_c   8.86508113
_cell_angle_alpha   90.00000000
_cell_angle_beta   116.66872759
_cell_angle_gamma   90.00000000
_symmetry_Int_Tables_number   1
_chemical_formula_structural   Sr5P4
_chemical_formula_sum   'Sr10 P8'
_cell_volume   504.71017778
_cell_formula_units_Z   2
loop_
 _symmetry_equiv_pos_site_id
 _symmetry_equiv_pos_as_xyz
  1  'x, y, z'
loop_
 _atom_site_type_symbol
 _atom_site_label
 _atom_site_symmetry_multiplicity
 _atom_site_fract_x
 _atom_site_fract_y
 _atom_site_fract_z
 _atom_site_occupancy
  Sr  Sr0  1  0.184186  0.163337  0.705987  1
  Sr  Sr1  1  0.521802  0.836663  0.705987  1
  Sr  Sr2  1  0.021802  0.663337  0.705987  1
  Sr  Sr3  1  0.684186  0.336663  0.705987  1
  Sr  Sr4  1  0.815814  0.836663  0.294013  1
  Sr  Sr5  1  0.478198  0.163337  0.294013  1
  Sr  Sr6  1  0.978198  0.336663  0.294013  1
  Sr  Sr7  1  0.315814  0.663337  0.294013  1
  Sr  Sr8  1  0.500000  0.500000  0.000000  1
  Sr  Sr9  1  0.000000  0.000000  0.000000  1
  P  P10  1  0.303649  0.500000  0.607300  1
  P  P11  1  0.803649  0.000000  0.607300  1
  P  P12  1  0.696351  0.500000  0.392700  1
  P  P13  1  0.196351  0.000000  0.392700  1
  P  P14  1  0.602861  0.102232  0.000000  1
  P  P15  1  0.397139  0.897768  0.000000  1
  P  P16  1  0.897139  0.602232  0.000000  1
  P  P17  1  0.102861  0.397768  0.000000  1
