# generated using pymatgen
data_Li4Dy8Sc8Si15Ge
_symmetry_space_group_name_H-M   'P 1'
_cell_length_a   6.90185384
_cell_length_b   7.40763920
_cell_length_c   14.07779660
_cell_angle_alpha   90.01611561
_cell_angle_beta   89.94785157
_cell_angle_gamma   90.02164248
_symmetry_Int_Tables_number   1
_chemical_formula_structural   Li4Dy8Sc8Si15Ge
_chemical_formula_sum   'Li4 Dy8 Sc8 Si15 Ge1'
_cell_volume   719.74728849
_cell_formula_units_Z   1
loop_
 _symmetry_equiv_pos_site_id
 _symmetry_equiv_pos_as_xyz
  1  'x, y, z'
loop_
 _atom_site_type_symbol
 _atom_site_label
 _atom_site_symmetry_multiplicity
 _atom_site_fract_x
 _atom_site_fract_y
 _atom_site_fract_z
 _atom_site_occupancy
  Li  Li0  1  0.159114  0.505377  0.750293  1
  Li  Li1  1  0.840885  0.494717  0.250024  1
  Li  Li2  1  0.340891  0.005322  0.249993  1
  Li  Li3  1  0.659111  0.994639  0.750030  1
  Dy  Dy4  1  0.013830  0.181978  0.099218  1
  Dy  Dy5  1  0.986229  0.818063  0.900750  1
  Dy  Dy6  1  0.486208  0.681941  0.900728  1
  Dy  Dy7  1  0.985568  0.819186  0.599341  1
  Dy  Dy8  1  0.513765  0.318098  0.099252  1
  Dy  Dy9  1  0.013191  0.181126  0.400302  1
  Dy  Dy10  1  0.514373  0.317473  0.400304  1
  Dy  Dy11  1  0.487729  0.682877  0.599514  1
  Sc  Sc12  1  0.331167  0.177756  0.626889  1
  Sc  Sc13  1  0.669572  0.820994  0.373441  1
  Sc  Sc14  1  0.169422  0.679963  0.373021  1
  Sc  Sc15  1  0.669755  0.820825  0.126459  1
  Sc  Sc16  1  0.828931  0.320458  0.626555  1
  Sc  Sc17  1  0.330227  0.179184  0.873644  1
  Sc  Sc18  1  0.830150  0.320779  0.873573  1
  Sc  Sc19  1  0.169827  0.679179  0.126429  1
  Si  Si20  1  0.031550  0.104402  0.749980  1
  Si  Si21  1  0.968484  0.895746  0.249891  1
  Si  Si22  1  0.468536  0.604296  0.249977  1
  Si  Si23  1  0.531370  0.395619  0.750027  1
  Si  Si24  1  0.281931  0.881484  0.750008  1
  Si  Si25  1  0.718040  0.118300  0.249965  1
  Si  Si26  1  0.217940  0.381647  0.250059  1
  Si  Si27  1  0.782174  0.618340  0.749978  1
  Si  Si28  1  0.837861  0.537748  0.463879  1
  Si  Si29  1  0.341777  0.963154  0.464709  1
  Si  Si30  1  0.841929  0.536834  0.035291  1
  Si  Si31  1  0.658103  0.036957  0.535216  1
  Si  Si32  1  0.158066  0.463239  0.964789  1
  Si  Si33  1  0.658096  0.036780  0.964787  1
  Si  Si34  1  0.341895  0.963159  0.035279  1
  Ge  Ge35  1  0.162304  0.462360  0.536405  1
