# generated using pymatgen
data_Ce2HfZr3F22
_symmetry_space_group_name_H-M   'P 1'
_cell_length_a   8.56756148
_cell_length_b   8.56756100
_cell_length_c   8.54217148
_cell_angle_alpha   125.10496313
_cell_angle_beta   106.64957192
_cell_angle_gamma   98.10339580
_symmetry_Int_Tables_number   1
_chemical_formula_structural   Ce2HfZr3F22
_chemical_formula_sum   'Ce2 Hf1 Zr3 F22'
_cell_volume   452.53167238
_cell_formula_units_Z   1
loop_
 _symmetry_equiv_pos_site_id
 _symmetry_equiv_pos_as_xyz
  1  'x, y, z'
loop_
 _atom_site_type_symbol
 _atom_site_label
 _atom_site_symmetry_multiplicity
 _atom_site_fract_x
 _atom_site_fract_y
 _atom_site_fract_z
 _atom_site_occupancy
  Ce  Ce0  1  0.750163  0.249169  0.499751  1
  Ce  Ce1  1  0.250582  0.749588  0.499751  1
  Hf  Hf2  1  0.818858  0.134368  0.953225  1
  Zr  Zr3  1  0.681600  0.633793  0.315393  1
  Zr  Zr4  1  0.319434  0.366715  0.686150  1
  Zr  Zr5  1  0.179871  0.867007  0.046879  1
  F  F6  1  0.705715  0.893309  0.340649  1
  F  F7  1  0.294397  0.106529  0.659400  1
  F  F8  1  0.552871  0.365003  0.659400  1
  F  F9  1  0.947103  0.606459  0.812076  1
  F  F10  1  0.447339  0.634934  0.340649  1
  F  F11  1  0.049657  0.390370  0.184856  1
  F  F12  1  0.794486  0.135199  0.184856  1
  F  F13  1  0.205617  0.864973  0.812076  1
  F  F14  1  0.500608  0.499926  0.000534  1
  F  F15  1  0.998034  0.001520  0.999554  1
  F  F16  1  0.780478  0.872796  0.653274  1
  F  F17  1  0.219278  0.129557  0.348835  1
  F  F18  1  0.280281  0.629920  0.910202  1
  F  F19  1  0.720781  0.368670  0.089450  1
  F  F20  1  0.951215  0.738308  0.417191  1
  F  F21  1  0.048810  0.261670  0.582843  1
  F  F22  1  0.321173  0.534033  0.582843  1
  F  F23  1  0.178892  0.761873  0.212743  1
  F  F24  1  0.678882  0.465976  0.417191  1
  F  F25  1  0.820837  0.236576  0.788744  1
  F  F26  1  0.552168  0.967907  0.788744  1
  F  F27  1  0.450870  0.033851  0.212743  1
