# generated using pymatgen
data_Ac7Nd(AgSn)8
_symmetry_space_group_name_H-M   'P 1'
_cell_length_a   9.82106400
_cell_length_b   9.82106494
_cell_length_c   8.26563100
_cell_angle_alpha   90.00000000
_cell_angle_beta   90.00000000
_cell_angle_gamma   119.99999684
_symmetry_Int_Tables_number   1
_chemical_formula_structural   Ac7Nd(AgSn)8
_chemical_formula_sum   'Ac7 Nd1 Ag8 Sn8'
_cell_volume   690.43656416
_cell_formula_units_Z   1
loop_
 _symmetry_equiv_pos_site_id
 _symmetry_equiv_pos_as_xyz
  1  'x, y, z'
loop_
 _atom_site_type_symbol
 _atom_site_label
 _atom_site_symmetry_multiplicity
 _atom_site_fract_x
 _atom_site_fract_y
 _atom_site_fract_z
 _atom_site_occupancy
  Ac  Ac0  1  0.513453  0.026909  0.496691  1
  Ac  Ac1  1  0.513453  0.486547  0.496691  1
  Ac  Ac2  1  0.973091  0.486547  0.496691  1
  Ac  Ac3  1  0.485500  0.971000  0.996467  1
  Ac  Ac4  1  0.485500  0.514500  0.996467  1
  Ac  Ac5  1  0.029000  0.514500  0.996467  1
  Ac  Ac6  1  0.000000  0.000000  0.495770  1
  Nd  Nd7  1  0.000000  0.000000  0.997101  1
  Ag  Ag8  1  0.165931  0.331863  0.278253  1
  Ag  Ag9  1  0.165931  0.834069  0.278253  1
  Ag  Ag10  1  0.668137  0.834069  0.278253  1
  Ag  Ag11  1  0.834968  0.669936  0.798357  1
  Ag  Ag12  1  0.834968  0.165032  0.798357  1
  Ag  Ag13  1  0.330064  0.165032  0.798357  1
  Ag  Ag14  1  0.333333  0.666667  0.696995  1
  Ag  Ag15  1  0.666667  0.333333  0.195759  1
  Sn  Sn16  1  0.164408  0.328817  0.721751  1
  Sn  Sn17  1  0.164408  0.835592  0.721751  1
  Sn  Sn18  1  0.671183  0.835592  0.721751  1
  Sn  Sn19  1  0.836578  0.673155  0.208439  1
  Sn  Sn20  1  0.836578  0.163422  0.208439  1
  Sn  Sn21  1  0.326845  0.163422  0.208439  1
  Sn  Sn22  1  0.333333  0.666667  0.284145  1
  Sn  Sn23  1  0.666667  0.333333  0.772333  1
