# generated using pymatgen
data_Dy15Er5(IrPt5)2
_symmetry_space_group_name_H-M   'P 1'
_cell_length_a   11.00944327
_cell_length_b   11.00567817
_cell_length_c   6.39266107
_cell_angle_alpha   89.99482098
_cell_angle_beta   89.98338138
_cell_angle_gamma   89.98078229
_symmetry_Int_Tables_number   1
_chemical_formula_structural   Dy15Er5(IrPt5)2
_chemical_formula_sum   'Dy15 Er5 Ir2 Pt10'
_cell_volume   774.57558180
_cell_formula_units_Z   1
loop_
 _symmetry_equiv_pos_site_id
 _symmetry_equiv_pos_as_xyz
  1  'x, y, z'
loop_
 _atom_site_type_symbol
 _atom_site_label
 _atom_site_symmetry_multiplicity
 _atom_site_fract_x
 _atom_site_fract_y
 _atom_site_fract_z
 _atom_site_occupancy
  Dy  Dy0  1  0.291546  0.088401  0.376220  1
  Dy  Dy1  1  0.291651  0.911848  0.876354  1
  Dy  Dy2  1  0.708344  0.088181  0.876483  1
  Dy  Dy3  1  0.708352  0.911829  0.376358  1
  Dy  Dy4  1  0.588140  0.791694  0.876399  1
  Dy  Dy5  1  0.588161  0.208285  0.376436  1
  Dy  Dy6  1  0.411828  0.791664  0.376287  1
  Dy  Dy7  1  0.411770  0.208316  0.876497  1
  Dy  Dy8  1  0.205703  0.412513  0.624023  1
  Dy  Dy9  1  0.205815  0.586943  0.124175  1
  Dy  Dy10  1  0.794459  0.412557  0.124065  1
  Dy  Dy11  1  0.794155  0.587304  0.624042  1
  Dy  Dy12  1  0.912784  0.705802  0.124142  1
  Dy  Dy13  1  0.912938  0.294164  0.623937  1
  Dy  Dy14  1  0.087259  0.705871  0.624182  1
  Er  Er15  1  0.087127  0.294816  0.123604  1
  Er  Er16  1  0.000063  0.000102  0.500481  1
  Er  Er17  1  0.000142  0.000328  0.000759  1
  Er  Er18  1  0.499992  0.499973  0.000672  1
  Er  Er19  1  0.499944  0.499975  0.500563  1
  Ir  Ir20  1  0.000248  0.499456  0.880273  1
  Ir  Ir21  1  0.000187  0.499552  0.379439  1
  Pt  Pt22  1  0.847003  0.152262  0.249737  1
  Pt  Pt23  1  0.846667  0.847930  0.749938  1
  Pt  Pt24  1  0.153112  0.152479  0.750941  1
  Pt  Pt25  1  0.153338  0.847866  0.249925  1
  Pt  Pt26  1  0.652067  0.346642  0.749938  1
  Pt  Pt27  1  0.652050  0.653360  0.249988  1
  Pt  Pt28  1  0.347357  0.346465  0.249709  1
  Pt  Pt29  1  0.347900  0.653332  0.749944  1
  Pt  Pt30  1  0.499952  0.000043  0.117245  1
  Pt  Pt31  1  0.499948  0.000048  0.617235  1
