# generated using pymatgen
data_CaNd2TmIn4
_symmetry_space_group_name_H-M   'P 1'
_cell_length_a   6.68676900
_cell_length_b   6.68676923
_cell_length_c   10.19669300
_cell_angle_alpha   90.00000000
_cell_angle_beta   90.00000000
_cell_angle_gamma   99.34989013
_symmetry_Int_Tables_number   1
_chemical_formula_structural   CaNd2TmIn4
_chemical_formula_sum   'Ca2 Nd4 Tm2 In8'
_cell_volume   449.86640820
_cell_formula_units_Z   2
loop_
 _symmetry_equiv_pos_site_id
 _symmetry_equiv_pos_as_xyz
  1  'x, y, z'
loop_
 _atom_site_type_symbol
 _atom_site_label
 _atom_site_symmetry_multiplicity
 _atom_site_fract_x
 _atom_site_fract_y
 _atom_site_fract_z
 _atom_site_occupancy
  Ca  Ca0  1  0.533652  0.533652  0.250000  1
  Ca  Ca1  1  0.466348  0.466348  0.750000  1
  Nd  Nd2  1  0.251943  0.748057  0.500000  1
  Nd  Nd3  1  0.251943  0.748057  0.000000  1
  Nd  Nd4  1  0.748057  0.251943  0.500000  1
  Nd  Nd5  1  0.748057  0.251943  0.000000  1
  Tm  Tm6  1  0.962316  0.962315  0.250000  1
  Tm  Tm7  1  0.037685  0.037684  0.750000  1
  In  In8  1  0.247320  0.247320  0.025777  1
  In  In9  1  0.752680  0.752680  0.974223  1
  In  In10  1  0.247320  0.247320  0.474223  1
  In  In11  1  0.752680  0.752680  0.525777  1
  In  In12  1  0.474508  0.025100  0.250000  1
  In  In13  1  0.974900  0.525492  0.750000  1
  In  In14  1  0.525492  0.974900  0.750000  1
  In  In15  1  0.025100  0.474508  0.250000  1
