# generated using pymatgen
data_AcIn(BH4)4
_symmetry_space_group_name_H-M   'P 1'
_cell_length_a   7.52953700
_cell_length_b   7.59380017
_cell_length_c   4.69060700
_cell_angle_alpha   90.00000000
_cell_angle_beta   90.00000000
_cell_angle_gamma   91.42883792
_symmetry_Int_Tables_number   1
_chemical_formula_structural   AcIn(BH4)4
_chemical_formula_sum   'Ac1 In1 B4 H16'
_cell_volume   268.11519384
_cell_formula_units_Z   1
loop_
 _symmetry_equiv_pos_site_id
 _symmetry_equiv_pos_as_xyz
  1  'x, y, z'
loop_
 _atom_site_type_symbol
 _atom_site_label
 _atom_site_symmetry_multiplicity
 _atom_site_fract_x
 _atom_site_fract_y
 _atom_site_fract_z
 _atom_site_occupancy
  Ac  Ac0  1  0.000000  0.500000  0.519689  1
  In  In1  1  0.500000  0.000000  0.028318  1
  B  B2  1  0.204351  0.326314  0.022090  1
  B  B3  1  0.795649  0.673686  0.022090  1
  B  B4  1  0.282097  0.741222  0.523101  1
  B  B5  1  0.717903  0.258778  0.523101  1
  H  H6  1  0.156725  0.482051  0.019935  1
  H  H7  1  0.843275  0.517949  0.019935  1
  H  H8  1  0.365428  0.331926  0.040235  1
  H  H9  1  0.634572  0.668074  0.040235  1
  H  H10  1  0.134751  0.246357  0.223096  1
  H  H11  1  0.865249  0.753643  0.223096  1
  H  H12  1  0.196100  0.756666  0.300431  1
  H  H13  1  0.803900  0.243334  0.300431  1
  H  H14  1  0.410609  0.842769  0.527612  1
  H  H15  1  0.589391  0.157231  0.527612  1
  H  H16  1  0.332153  0.588145  0.540066  1
  H  H17  1  0.667847  0.411855  0.540066  1
  H  H18  1  0.180737  0.769741  0.724360  1
  H  H19  1  0.819263  0.230259  0.724360  1
  H  H20  1  0.153893  0.250897  0.803080  1
  H  H21  1  0.846107  0.749103  0.803080  1
