# generated using pymatgen
data_Lu8Ta11Si16Tc
_symmetry_space_group_name_H-M   'P 1'
_cell_length_a   6.78283766
_cell_length_b   6.98503925
_cell_length_c   13.20319518
_cell_angle_alpha   90.06395469
_cell_angle_beta   89.91935436
_cell_angle_gamma   89.95951478
_symmetry_Int_Tables_number   1
_chemical_formula_structural   Lu8Ta11Si16Tc
_chemical_formula_sum   'Lu8 Ta11 Si16 Tc1'
_cell_volume   625.54492801
_cell_formula_units_Z   1
loop_
 _symmetry_equiv_pos_site_id
 _symmetry_equiv_pos_as_xyz
  1  'x, y, z'
loop_
 _atom_site_type_symbol
 _atom_site_label
 _atom_site_symmetry_multiplicity
 _atom_site_fract_x
 _atom_site_fract_y
 _atom_site_fract_z
 _atom_site_occupancy
  Lu  Lu0  1  0.502062  0.328340  0.094881  1
  Lu  Lu1  1  0.999579  0.173754  0.404182  1
  Lu  Lu2  1  0.498233  0.673656  0.594753  1
  Lu  Lu3  1  0.000294  0.829440  0.905089  1
  Lu  Lu4  1  0.498727  0.671488  0.904245  1
  Lu  Lu5  1  0.999470  0.827781  0.595453  1
  Lu  Lu6  1  0.501846  0.328200  0.406059  1
  Lu  Lu7  1  0.002215  0.173430  0.095592  1
  Ta  Ta8  1  0.838990  0.327358  0.624348  1
  Ta  Ta9  1  0.337220  0.173140  0.872987  1
  Ta  Ta10  1  0.163806  0.674174  0.125562  1
  Ta  Ta11  1  0.660001  0.828547  0.375547  1
  Ta  Ta12  1  0.166851  0.673297  0.377489  1
  Ta  Ta13  1  0.662731  0.826210  0.125646  1
  Ta  Ta14  1  0.836696  0.325035  0.873301  1
  Ta  Ta15  1  0.664248  0.008597  0.748799  1
  Ta  Ta16  1  0.160617  0.491983  0.749555  1
  Ta  Ta17  1  0.337534  0.994549  0.250933  1
  Ta  Ta18  1  0.838037  0.507574  0.250603  1
  Si  Si19  1  0.661017  0.037443  0.542860  1
  Si  Si20  1  0.165487  0.464331  0.958512  1
  Si  Si21  1  0.333592  0.965112  0.040940  1
  Si  Si22  1  0.834676  0.536954  0.458725  1
  Si  Si23  1  0.331464  0.967048  0.461153  1
  Si  Si24  1  0.834570  0.534945  0.040782  1
  Si  Si25  1  0.664969  0.034231  0.958822  1
  Si  Si26  1  0.168117  0.456922  0.543370  1
  Si  Si27  1  0.535740  0.378502  0.746460  1
  Si  Si28  1  0.043796  0.119373  0.747936  1
  Si  Si29  1  0.460649  0.618021  0.250454  1
  Si  Si30  1  0.960327  0.881109  0.251022  1
  Si  Si31  1  0.794712  0.632176  0.749972  1
  Si  Si32  1  0.297859  0.868385  0.750041  1
  Si  Si33  1  0.204980  0.368065  0.250421  1
  Si  Si34  1  0.703511  0.133900  0.249625  1
  Tc  Tc35  1  0.335379  0.166928  0.623879  1
