# generated using pymatgen
data_Cs6NbAsO8
_symmetry_space_group_name_H-M   'P 1'
_cell_length_a   6.74091100
_cell_length_b   9.19864400
_cell_length_c   12.73989500
_cell_angle_alpha   90.00000000
_cell_angle_beta   90.00000000
_cell_angle_gamma   90.00000000
_symmetry_Int_Tables_number   1
_chemical_formula_structural   Cs6NbAsO8
_chemical_formula_sum   'Cs12 Nb2 As2 O16'
_cell_volume   789.96573352
_cell_formula_units_Z   2
loop_
 _symmetry_equiv_pos_site_id
 _symmetry_equiv_pos_as_xyz
  1  'x, y, z'
loop_
 _atom_site_type_symbol
 _atom_site_label
 _atom_site_symmetry_multiplicity
 _atom_site_fract_x
 _atom_site_fract_y
 _atom_site_fract_z
 _atom_site_occupancy
  Cs  Cs0  1  0.190757  0.994177  0.357148  1
  Cs  Cs1  1  0.853984  0.750000  0.921381  1
  Cs  Cs2  1  0.645634  0.750000  0.429207  1
  Cs  Cs3  1  0.146016  0.250000  0.078619  1
  Cs  Cs4  1  0.354366  0.250000  0.570793  1
  Cs  Cs5  1  0.693722  0.010246  0.148890  1
  Cs  Cs6  1  0.809243  0.494177  0.642852  1
  Cs  Cs7  1  0.306278  0.510246  0.851110  1
  Cs  Cs8  1  0.809243  0.005823  0.642852  1
  Cs  Cs9  1  0.306278  0.989754  0.851110  1
  Cs  Cs10  1  0.190757  0.505823  0.357148  1
  Cs  Cs11  1  0.693722  0.489754  0.148890  1
  Nb  Nb12  1  0.272522  0.750000  0.113887  1
  Nb  Nb13  1  0.727478  0.250000  0.886113  1
  As  As14  1  0.773378  0.250000  0.387000  1
  As  As15  1  0.226622  0.750000  0.613000  1
  O  O16  1  0.627788  0.405185  0.391942  1
  O  O17  1  0.114563  0.582141  0.110714  1
  O  O18  1  0.372212  0.905185  0.608058  1
  O  O19  1  0.885437  0.082141  0.889286  1
  O  O20  1  0.372212  0.594815  0.608058  1
  O  O21  1  0.885437  0.417859  0.889286  1
  O  O22  1  0.627788  0.094815  0.391942  1
  O  O23  1  0.114563  0.917859  0.110714  1
  O  O24  1  0.060993  0.750000  0.508182  1
  O  O25  1  0.421401  0.750000  0.239150  1
  O  O26  1  0.939007  0.250000  0.491818  1
  O  O27  1  0.445308  0.750000  0.997020  1
  O  O28  1  0.088308  0.750000  0.728288  1
  O  O29  1  0.578599  0.250000  0.760850  1
  O  O30  1  0.911692  0.250000  0.271712  1
  O  O31  1  0.554692  0.250000  0.002980  1
