# generated using pymatgen
data_Ho5Hf3Pt4
_symmetry_space_group_name_H-M   'P 1'
_cell_length_a   4.70728600
_cell_length_b   7.05802983
_cell_length_c   8.32303683
_cell_angle_alpha   89.74302247
_cell_angle_beta   90.00000000
_cell_angle_gamma   90.00000000
_symmetry_Int_Tables_number   1
_chemical_formula_structural   Ho5Hf3Pt4
_chemical_formula_sum   'Ho5 Hf3 Pt4'
_cell_volume   276.52316773
_cell_formula_units_Z   1
loop_
 _symmetry_equiv_pos_site_id
 _symmetry_equiv_pos_as_xyz
  1  'x, y, z'
loop_
 _atom_site_type_symbol
 _atom_site_label
 _atom_site_symmetry_multiplicity
 _atom_site_fract_x
 _atom_site_fract_y
 _atom_site_fract_z
 _atom_site_occupancy
  Ho  Ho0  1  0.750000  0.646464  0.417864  1
  Ho  Ho1  1  0.250000  0.990295  0.325705  1
  Ho  Ho2  1  0.250000  0.479538  0.171248  1
  Ho  Ho3  1  0.750000  0.018024  0.681810  1
  Ho  Ho4  1  0.750000  0.516479  0.821455  1
  Hf  Hf5  1  0.250000  0.857372  0.924735  1
  Hf  Hf6  1  0.250000  0.353894  0.578628  1
  Hf  Hf7  1  0.750000  0.147395  0.077580  1
  Pt  Pt8  1  0.250000  0.230804  0.904148  1
  Pt  Pt9  1  0.250000  0.733845  0.609507  1
  Pt  Pt10  1  0.750000  0.772889  0.080938  1
  Pt  Pt11  1  0.750000  0.253000  0.406382  1
