# generated using pymatgen
data_Pr6Al24Ir5Os2Pt
_symmetry_space_group_name_H-M   'P 1'
_cell_length_a   8.94189100
_cell_length_b   8.94235054
_cell_length_c   9.67344413
_cell_angle_alpha   89.98405162
_cell_angle_beta   90.00000000
_cell_angle_gamma   119.99830378
_symmetry_Int_Tables_number   1
_chemical_formula_structural   Pr6Al24Ir5Os2Pt
_chemical_formula_sum   'Pr6 Al24 Ir5 Os2 Pt1'
_cell_volume   669.88495070
_cell_formula_units_Z   1
loop_
 _symmetry_equiv_pos_site_id
 _symmetry_equiv_pos_as_xyz
  1  'x, y, z'
loop_
 _atom_site_type_symbol
 _atom_site_label
 _atom_site_symmetry_multiplicity
 _atom_site_fract_x
 _atom_site_fract_y
 _atom_site_fract_z
 _atom_site_occupancy
  Pr  Pr0  1  0.190308  0.380617  0.251122  1
  Pr  Pr1  1  0.809692  0.619383  0.748878  1
  Pr  Pr2  1  0.619572  0.809340  0.249711  1
  Pr  Pr3  1  0.380428  0.190660  0.750289  1
  Pr  Pr4  1  0.189768  0.809340  0.249711  1
  Pr  Pr5  1  0.810232  0.190660  0.750289  1
  Al  Al6  1  0.331547  0.663096  0.023066  1
  Al  Al7  1  0.668453  0.336904  0.976934  1
  Al  Al8  1  0.666719  0.333436  0.522775  1
  Al  Al9  1  0.333281  0.666564  0.477225  1
  Al  Al10  1  0.164045  0.328089  0.574147  1
  Al  Al11  1  0.835955  0.671911  0.425853  1
  Al  Al12  1  0.672410  0.835927  0.574124  1
  Al  Al13  1  0.836085  0.672170  0.074697  1
  Al  Al14  1  0.327590  0.164073  0.425876  1
  Al  Al15  1  0.163915  0.327830  0.925303  1
  Al  Al16  1  0.163519  0.835927  0.574124  1
  Al  Al17  1  0.326279  0.166937  0.076295  1
  Al  Al18  1  0.836481  0.164073  0.425876  1
  Al  Al19  1  0.673721  0.833063  0.923705  1
  Al  Al20  1  0.840656  0.166937  0.076295  1
  Al  Al21  1  0.159344  0.833063  0.923705  1
  Al  Al22  1  0.563943  0.127886  0.252395  1
  Al  Al23  1  0.436057  0.872114  0.747605  1
  Al  Al24  1  0.873951  0.437066  0.250048  1
  Al  Al25  1  0.126049  0.562934  0.749952  1
  Al  Al26  1  0.563116  0.437066  0.250048  1
  Al  Al27  1  0.436884  0.562934  0.749952  1
  Al  Al28  1  0.999744  0.999488  0.250197  1
  Al  Al29  1  0.000256  0.000512  0.749803  1
  Ir  Ir30  1  0.000000  0.500000  0.000000  1
  Ir  Ir31  1  0.500000  0.000000  0.500000  1
  Ir  Ir32  1  0.500000  0.500000  0.000000  1
  Ir  Ir33  1  0.000000  0.500000  0.500000  1
  Ir  Ir34  1  0.500000  0.500000  0.500000  1
  Os  Os35  1  0.000000  0.000000  0.000000  1
  Os  Os36  1  0.000000  0.000000  0.500000  1
  Pt  Pt37  1  0.500000  0.000000  0.000000  1
