# generated using pymatgen
data_Sr3Cd3HgAu2
_symmetry_space_group_name_H-M   'P 1'
_cell_length_a   8.13913300
_cell_length_b   8.13913243
_cell_length_c   4.41437300
_cell_angle_alpha   90.00000000
_cell_angle_beta   90.00000000
_cell_angle_gamma   120.00000637
_symmetry_Int_Tables_number   1
_chemical_formula_structural   Sr3Cd3HgAu2
_chemical_formula_sum   'Sr3 Cd3 Hg1 Au2'
_cell_volume   253.25375359
_cell_formula_units_Z   1
loop_
 _symmetry_equiv_pos_site_id
 _symmetry_equiv_pos_as_xyz
  1  'x, y, z'
loop_
 _atom_site_type_symbol
 _atom_site_label
 _atom_site_symmetry_multiplicity
 _atom_site_fract_x
 _atom_site_fract_y
 _atom_site_fract_z
 _atom_site_occupancy
  Sr  Sr0  1  0.409062  0.000000  0.000000  1
  Sr  Sr1  1  0.590938  0.590938  0.000000  1
  Sr  Sr2  1  0.000000  0.409062  0.000000  1
  Cd  Cd3  1  0.739028  0.000000  0.500000  1
  Cd  Cd4  1  0.260972  0.260972  0.500000  1
  Cd  Cd5  1  0.000000  0.739028  0.500000  1
  Hg  Hg6  1  0.000000  0.000000  0.000000  1
  Au  Au7  1  0.666667  0.333333  0.500000  1
  Au  Au8  1  0.333333  0.666667  0.500000  1
