# generated using pymatgen
data_LaCuSiRh3
_symmetry_space_group_name_H-M   'P 1'
_cell_length_a   5.59085937
_cell_length_b   6.74900668
_cell_length_c   6.74900613
_cell_angle_alpha   68.24956134
_cell_angle_beta   65.24527529
_cell_angle_gamma   65.24527149
_symmetry_Int_Tables_number   1
_chemical_formula_structural   LaCuSiRh3
_chemical_formula_sum   'La2 Cu2 Si2 Rh6'
_cell_volume   204.03745800
_cell_formula_units_Z   2
loop_
 _symmetry_equiv_pos_site_id
 _symmetry_equiv_pos_as_xyz
  1  'x, y, z'
loop_
 _atom_site_type_symbol
 _atom_site_label
 _atom_site_symmetry_multiplicity
 _atom_site_fract_x
 _atom_site_fract_y
 _atom_site_fract_z
 _atom_site_occupancy
  La  La0  1  0.545709  0.735512  0.735512  1
  La  La1  1  0.454291  0.264488  0.264488  1
  Cu  Cu2  1  0.226448  0.574054  0.574054  1
  Cu  Cu3  1  0.773552  0.425946  0.425946  1
  Si  Si4  1  0.127196  0.093802  0.093802  1
  Si  Si5  1  0.872804  0.906198  0.906198  1
  Rh  Rh6  1  0.500000  0.205669  0.794331  1
  Rh  Rh7  1  0.000000  0.760793  0.239207  1
  Rh  Rh8  1  0.500000  0.794331  0.205669  1
  Rh  Rh9  1  0.000000  0.239207  0.760793  1
  Rh  Rh10  1  0.000000  0.500000  0.000000  1
  Rh  Rh11  1  0.000000  0.000000  0.500000  1
