# generated using pymatgen
data_Sm2Y5Er3(In2Pd)4
_symmetry_space_group_name_H-M   'P 1'
_cell_length_a   3.62797900
_cell_length_b   8.20115910
_cell_length_c   18.34637523
_cell_angle_alpha   90.01828848
_cell_angle_beta   90.00000000
_cell_angle_gamma   90.00000000
_symmetry_Int_Tables_number   1
_chemical_formula_structural   Sm2Y5Er3(In2Pd)4
_chemical_formula_sum   'Sm2 Y5 Er3 In8 Pd4'
_cell_volume   545.87128790
_cell_formula_units_Z   1
loop_
 _symmetry_equiv_pos_site_id
 _symmetry_equiv_pos_as_xyz
  1  'x, y, z'
loop_
 _atom_site_type_symbol
 _atom_site_label
 _atom_site_symmetry_multiplicity
 _atom_site_fract_x
 _atom_site_fract_y
 _atom_site_fract_z
 _atom_site_occupancy
  Sm  Sm0  1  0.000000  0.499984  0.500014  1
  Sm  Sm1  1  0.000000  0.000312  0.999918  1
  Y  Y2  1  0.000000  0.738829  0.281956  1
  Y  Y3  1  0.000000  0.261177  0.718143  1
  Y  Y4  1  0.000000  0.761225  0.781884  1
  Y  Y5  1  0.000000  0.238666  0.218200  1
  Y  Y6  1  0.000000  0.620494  0.083478  1
  Er  Er7  1  0.000000  0.380076  0.915611  1
  Er  Er8  1  0.000000  0.880152  0.584278  1
  Er  Er9  1  0.000000  0.119830  0.415713  1
  In  In10  1  0.500000  0.702012  0.932338  1
  In  In11  1  0.500000  0.297345  0.067424  1
  In  In12  1  0.500000  0.798193  0.432658  1
  In  In13  1  0.500000  0.201810  0.567343  1
  In  In14  1  0.500000  0.582297  0.652316  1
  In  In15  1  0.500000  0.417656  0.347717  1
  In  In16  1  0.500000  0.918391  0.152494  1
  In  In17  1  0.500000  0.082261  0.847665  1
  Pd  Pd18  1  0.500000  0.523668  0.195903  1
  Pd  Pd19  1  0.500000  0.475613  0.804943  1
  Pd  Pd20  1  0.500000  0.975626  0.695026  1
  Pd  Pd21  1  0.500000  0.024383  0.304979  1
