# generated using pymatgen
data_Ca3Hg5Pt
_symmetry_space_group_name_H-M   'P 1'
_cell_length_a   8.25245200
_cell_length_b   8.25245367
_cell_length_c   3.90591500
_cell_angle_alpha   90.00000000
_cell_angle_beta   90.00000000
_cell_angle_gamma   119.99999332
_symmetry_Int_Tables_number   1
_chemical_formula_structural   Ca3Hg5Pt
_chemical_formula_sum   'Ca3 Hg5 Pt1'
_cell_volume   230.36662015
_cell_formula_units_Z   1
loop_
 _symmetry_equiv_pos_site_id
 _symmetry_equiv_pos_as_xyz
  1  'x, y, z'
loop_
 _atom_site_type_symbol
 _atom_site_label
 _atom_site_symmetry_multiplicity
 _atom_site_fract_x
 _atom_site_fract_y
 _atom_site_fract_z
 _atom_site_occupancy
  Ca  Ca0  1  0.415497  0.380892  0.500000  1
  Ca  Ca1  1  0.619108  0.034605  0.500000  1
  Ca  Ca2  1  0.965395  0.584503  0.500000  1
  Hg  Hg3  1  0.715916  0.710302  0.000000  1
  Hg  Hg4  1  0.289698  0.005615  0.000000  1
  Hg  Hg5  1  0.994385  0.284084  0.000000  1
  Hg  Hg6  1  0.333333  0.666667  0.000000  1
  Hg  Hg7  1  0.000000  0.000000  0.500000  1
  Pt  Pt8  1  0.666667  0.333333  0.000000  1
