# generated using pymatgen
data_KHo2ErF10
_symmetry_space_group_name_H-M   'P 1'
_cell_length_a   8.19966218
_cell_length_b   8.20212733
_cell_length_c   8.20212740
_cell_angle_alpha   59.97895758
_cell_angle_beta   60.01009163
_cell_angle_gamma   60.01009492
_symmetry_Int_Tables_number   1
_chemical_formula_structural   KHo2ErF10
_chemical_formula_sum   'K2 Ho4 Er2 F20'
_cell_volume   390.05970278
_cell_formula_units_Z   2
loop_
 _symmetry_equiv_pos_site_id
 _symmetry_equiv_pos_as_xyz
  1  'x, y, z'
loop_
 _atom_site_type_symbol
 _atom_site_label
 _atom_site_symmetry_multiplicity
 _atom_site_fract_x
 _atom_site_fract_y
 _atom_site_fract_z
 _atom_site_occupancy
  K  K0  1  0.750026  0.749975  0.749975  1
  K  K1  1  0.250022  0.250018  0.250018  1
  Ho  Ho2  1  0.240677  0.759406  0.240595  1
  Ho  Ho3  1  0.759456  0.240630  0.240630  1
  Ho  Ho4  1  0.240714  0.759369  0.759369  1
  Ho  Ho5  1  0.240677  0.240595  0.759406  1
  Er  Er6  1  0.759318  0.240767  0.759232  1
  Er  Er7  1  0.759318  0.759232  0.240767  1
  F  F8  1  0.829796  0.170220  0.500878  1
  F  F9  1  0.500884  0.170257  0.829740  1
  F  F10  1  0.829796  0.500878  0.170220  1
  F  F11  1  0.500009  0.169863  0.500011  1
  F  F12  1  0.829449  0.500002  0.500002  1
  F  F13  1  0.169877  0.499992  0.830140  1
  F  F14  1  0.500892  0.829780  0.499119  1
  F  F15  1  0.500009  0.500011  0.169863  1
  F  F16  1  0.887918  0.334966  0.887993  1
  F  F17  1  0.110875  0.112011  0.665033  1
  F  F18  1  0.665306  0.111193  0.111193  1
  F  F19  1  0.111699  0.111768  0.111768  1
  F  F20  1  0.335232  0.888233  0.888233  1
  F  F21  1  0.887687  0.888808  0.888808  1
  F  F22  1  0.887918  0.887993  0.334966  1
  F  F23  1  0.110875  0.665033  0.112011  1
  F  F24  1  0.169877  0.830140  0.499992  1
  F  F25  1  0.500884  0.829740  0.170257  1
  F  F26  1  0.169917  0.500001  0.500001  1
  F  F27  1  0.500892  0.499119  0.829780  1
