# generated using pymatgen
data_Fe3Cl8
_symmetry_space_group_name_H-M   'P 1'
_cell_length_a   7.52631924
_cell_length_b   7.52631006
_cell_length_c   5.97028035
_cell_angle_alpha   92.41676186
_cell_angle_beta   92.41619445
_cell_angle_gamma   80.15036977
_symmetry_Int_Tables_number   1
_chemical_formula_structural   Fe3Cl8
_chemical_formula_sum   'Fe3 Cl8'
_cell_volume   332.69791524
_cell_formula_units_Z   1
loop_
 _symmetry_equiv_pos_site_id
 _symmetry_equiv_pos_as_xyz
  1  'x, y, z'
loop_
 _atom_site_type_symbol
 _atom_site_label
 _atom_site_symmetry_multiplicity
 _atom_site_fract_x
 _atom_site_fract_y
 _atom_site_fract_z
 _atom_site_occupancy
  Fe  Fe0  1  0.809085  0.809087  0.356002  1
  Fe  Fe1  1  0.190915  0.190913  0.643998  1
  Fe  Fe2  1  0.000000  0.000000  0.000000  1
  Cl  Cl3  1  0.730421  0.087917  0.217530  1
  Cl  Cl4  1  0.087917  0.730420  0.217530  1
  Cl  Cl5  1  0.628270  0.628272  0.250105  1
  Cl  Cl6  1  0.178520  0.178519  0.264030  1
  Cl  Cl7  1  0.821480  0.821481  0.735970  1
  Cl  Cl8  1  0.371730  0.371728  0.749896  1
  Cl  Cl9  1  0.912084  0.269581  0.782470  1
  Cl  Cl10  1  0.269580  0.912084  0.782470  1
