# generated using pymatgen
data_DyErFeB6
_symmetry_space_group_name_H-M   'P 1'
_cell_length_a   3.54583100
_cell_length_b   9.07764700
_cell_length_c   11.44638100
_cell_angle_alpha   90.00000000
_cell_angle_beta   90.00000000
_cell_angle_gamma   90.00000000
_symmetry_Int_Tables_number   1
_chemical_formula_structural   DyErFeB6
_chemical_formula_sum   'Dy4 Er4 Fe4 B24'
_cell_volume   368.43384684
_cell_formula_units_Z   4
loop_
 _symmetry_equiv_pos_site_id
 _symmetry_equiv_pos_as_xyz
  1  'x, y, z'
loop_
 _atom_site_type_symbol
 _atom_site_label
 _atom_site_symmetry_multiplicity
 _atom_site_fract_x
 _atom_site_fract_y
 _atom_site_fract_z
 _atom_site_occupancy
  Dy  Dy0  1  0.000000  0.824317  0.085627  1
  Dy  Dy1  1  0.000000  0.175683  0.914373  1
  Dy  Dy2  1  0.000000  0.324317  0.414373  1
  Dy  Dy3  1  0.000000  0.675683  0.585627  1
  Er  Er4  1  0.000000  0.443246  0.129560  1
  Er  Er5  1  0.000000  0.556754  0.870440  1
  Er  Er6  1  0.000000  0.943246  0.370440  1
  Er  Er7  1  0.000000  0.056754  0.629560  1
  Fe  Fe8  1  0.000000  0.138470  0.179857  1
  Fe  Fe9  1  0.000000  0.861530  0.820143  1
  Fe  Fe10  1  0.000000  0.638470  0.320143  1
  Fe  Fe11  1  0.000000  0.361530  0.679857  1
  B  B12  1  0.500000  0.054740  0.068392  1
  B  B13  1  0.500000  0.945260  0.931608  1
  B  B14  1  0.500000  0.554740  0.431608  1
  B  B15  1  0.500000  0.445260  0.568392  1
  B  B16  1  0.500000  0.247054  0.081737  1
  B  B17  1  0.500000  0.752946  0.918263  1
  B  B18  1  0.500000  0.747054  0.418263  1
  B  B19  1  0.500000  0.252946  0.581737  1
  B  B20  1  0.500000  0.289658  0.233585  1
  B  B21  1  0.500000  0.710342  0.766415  1
  B  B22  1  0.500000  0.789658  0.266415  1
  B  B23  1  0.500000  0.210342  0.733585  1
  B  B24  1  0.500000  0.132196  0.314286  1
  B  B25  1  0.500000  0.867804  0.685714  1
  B  B26  1  0.500000  0.632196  0.185714  1
  B  B27  1  0.500000  0.367804  0.814286  1
  B  B28  1  0.500000  0.486438  0.288026  1
  B  B29  1  0.500000  0.513562  0.711974  1
  B  B30  1  0.500000  0.986438  0.211974  1
  B  B31  1  0.500000  0.013562  0.788026  1
  B  B32  1  0.500000  0.108210  0.470424  1
  B  B33  1  0.500000  0.891790  0.529576  1
  B  B34  1  0.500000  0.608210  0.029576  1
  B  B35  1  0.500000  0.391790  0.970424  1
