# generated using pymatgen
data_Pa2MnCo3P4
_symmetry_space_group_name_H-M   'P 1'
_cell_length_a   3.95699000
_cell_length_b   3.95699000
_cell_length_c   8.93066400
_cell_angle_alpha   90.00000000
_cell_angle_beta   90.00000000
_cell_angle_gamma   90.00000000
_symmetry_Int_Tables_number   1
_chemical_formula_structural   Pa2MnCo3P4
_chemical_formula_sum   'Pa2 Mn1 Co3 P4'
_cell_volume   139.83428161
_cell_formula_units_Z   1
loop_
 _symmetry_equiv_pos_site_id
 _symmetry_equiv_pos_as_xyz
  1  'x, y, z'
loop_
 _atom_site_type_symbol
 _atom_site_label
 _atom_site_symmetry_multiplicity
 _atom_site_fract_x
 _atom_site_fract_y
 _atom_site_fract_z
 _atom_site_occupancy
  Pa  Pa0  1  0.500000  0.000000  0.249955  1
  Pa  Pa1  1  0.000000  0.500000  0.750045  1
  Mn  Mn2  1  0.000000  0.000000  0.500000  1
  Co  Co3  1  0.000000  0.500000  0.113076  1
  Co  Co4  1  0.500000  0.000000  0.886924  1
  Co  Co5  1  0.500000  0.500000  0.500000  1
  P  P6  1  0.000000  0.500000  0.365704  1
  P  P7  1  0.500000  0.500000  0.000000  1
  P  P8  1  0.500000  0.000000  0.634296  1
  P  P9  1  0.000000  0.000000  0.000000  1
