# generated using pymatgen
data_Tb15TmInHg3Rh4
_symmetry_space_group_name_H-M   'P 1'
_cell_length_a   9.63753356
_cell_length_b   9.65202179
_cell_length_c   9.64187900
_cell_angle_alpha   60.03475221
_cell_angle_beta   59.98508023
_cell_angle_gamma   59.95066685
_symmetry_Int_Tables_number   1
_chemical_formula_structural   Tb15TmInHg3Rh4
_chemical_formula_sum   'Tb15 Tm1 In1 Hg3 Rh4'
_cell_volume   634.06467742
_cell_formula_units_Z   1
loop_
 _symmetry_equiv_pos_site_id
 _symmetry_equiv_pos_as_xyz
  1  'x, y, z'
loop_
 _atom_site_type_symbol
 _atom_site_label
 _atom_site_symmetry_multiplicity
 _atom_site_fract_x
 _atom_site_fract_y
 _atom_site_fract_z
 _atom_site_occupancy
  Tb  Tb0  1  0.811149  0.190017  0.808837  1
  Tb  Tb1  1  0.189323  0.189960  0.810358  1
  Tb  Tb2  1  0.649123  0.052321  0.649279  1
  Tb  Tb3  1  0.065377  0.060609  0.437007  1
  Tb  Tb4  1  0.438673  0.437277  0.062025  1
  Tb  Tb5  1  0.649731  0.649170  0.648854  1
  Tb  Tb6  1  0.811149  0.190017  0.189997  1
  Tb  Tb7  1  0.188861  0.811160  0.810580  1
  Tb  Tb8  1  0.053518  0.648128  0.649176  1
  Tb  Tb9  1  0.439681  0.060916  0.063097  1
  Tb  Tb10  1  0.439681  0.060916  0.436306  1
  Tb  Tb11  1  0.063984  0.437685  0.062164  1
  Tb  Tb12  1  0.649731  0.649170  0.052246  1
  Tb  Tb13  1  0.188861  0.811160  0.189398  1
  Tb  Tb14  1  0.063984  0.437685  0.436169  1
  Tm  Tm15  1  0.810735  0.808333  0.190466  1
  In  In16  1  0.743513  0.419920  0.418282  1
  Hg  Hg17  1  0.414629  0.414968  0.414889  1
  Hg  Hg18  1  0.414629  0.414968  0.755512  1
  Hg  Hg19  1  0.414844  0.756828  0.414163  1
  Rh  Rh20  1  0.856782  0.428066  0.857577  1
  Rh  Rh21  1  0.856576  0.856899  0.860055  1
  Rh  Rh22  1  0.856576  0.856899  0.426472  1
  Rh  Rh23  1  0.428893  0.856927  0.857091  1
