# generated using pymatgen
data_Sr4Ca2ReRuO12
_symmetry_space_group_name_H-M   'P 1'
_cell_length_a   5.80128492
_cell_length_b   5.92561681
_cell_length_c   8.25319530
_cell_angle_alpha   89.56700148
_cell_angle_beta   90.37758054
_cell_angle_gamma   89.91269466
_symmetry_Int_Tables_number   1
_chemical_formula_structural   Sr4Ca2ReRuO12
_chemical_formula_sum   'Sr4 Ca2 Re1 Ru1 O12'
_cell_volume   283.69880788
_cell_formula_units_Z   1
loop_
 _symmetry_equiv_pos_site_id
 _symmetry_equiv_pos_as_xyz
  1  'x, y, z'
loop_
 _atom_site_type_symbol
 _atom_site_label
 _atom_site_symmetry_multiplicity
 _atom_site_fract_x
 _atom_site_fract_y
 _atom_site_fract_z
 _atom_site_occupancy
  Sr  Sr0  1  0.491605  0.540653  0.233056  1
  Sr  Sr1  1  0.009416  0.049185  0.233617  1
  Sr  Sr2  1  0.990583  0.950814  0.766383  1
  Sr  Sr3  1  0.508396  0.459346  0.766944  1
  Ca  Ca4  1  0.499999  0.000000  0.000000  1
  Ca  Ca5  1  0.000000  0.500000  0.500001  1
  Re  Re6  1  0.500001  0.000000  0.500001  1
  Ru  Ru7  1  0.000000  0.500000  0.000000  1
  O  O8  1  0.273009  0.304670  0.039776  1
  O  O9  1  0.190635  0.772368  0.044748  1
  O  O10  1  0.917650  0.472826  0.232428  1
  O  O11  1  0.580651  0.977003  0.277267  1
  O  O12  1  0.321930  0.264738  0.452814  1
  O  O13  1  0.235642  0.818052  0.459660  1
  O  O14  1  0.764357  0.181947  0.540340  1
  O  O15  1  0.678071  0.735262  0.547186  1
  O  O16  1  0.419349  0.022998  0.722733  1
  O  O17  1  0.082350  0.527173  0.767572  1
  O  O18  1  0.809365  0.227631  0.955253  1
  O  O19  1  0.726991  0.695329  0.960224  1
