# generated using pymatgen
data_Li8DyEr7(BiPb3)2
_symmetry_space_group_name_H-M   'P 1'
_cell_length_a   9.51952510
_cell_length_b   9.52156911
_cell_length_c   7.22873003
_cell_angle_alpha   89.99997263
_cell_angle_beta   90.09400967
_cell_angle_gamma   120.00718913
_symmetry_Int_Tables_number   1
_chemical_formula_structural   Li8DyEr7(BiPb3)2
_chemical_formula_sum   'Li8 Dy1 Er7 Bi2 Pb6'
_cell_volume   567.39329438
_cell_formula_units_Z   1
loop_
 _symmetry_equiv_pos_site_id
 _symmetry_equiv_pos_as_xyz
  1  'x, y, z'
loop_
 _atom_site_type_symbol
 _atom_site_label
 _atom_site_symmetry_multiplicity
 _atom_site_fract_x
 _atom_site_fract_y
 _atom_site_fract_z
 _atom_site_occupancy
  Li  Li0  1  0.167842  0.334149  0.283418  1
  Li  Li1  1  0.167841  0.833693  0.283418  1
  Li  Li2  1  0.664930  0.832465  0.286410  1
  Li  Li3  1  0.829921  0.664613  0.786682  1
  Li  Li4  1  0.829921  0.165310  0.786683  1
  Li  Li5  1  0.337106  0.168554  0.790952  1
  Li  Li6  1  0.336733  0.668366  0.669870  1
  Li  Li7  1  0.665592  0.332794  0.174196  1
  Dy  Dy8  1  0.996581  0.998290  0.004089  1
  Er  Er9  1  0.516301  0.026358  0.491544  1
  Er  Er10  1  0.516302  0.489943  0.491544  1
  Er  Er11  1  0.972794  0.486397  0.489585  1
  Er  Er12  1  0.492065  0.977778  0.996423  1
  Er  Er13  1  0.492065  0.514288  0.996422  1
  Er  Er14  1  0.018495  0.509247  0.998191  1
  Er  Er15  1  0.995795  0.997898  0.496683  1
  Bi  Bi16  1  0.166289  0.333798  0.733198  1
  Bi  Bi17  1  0.166289  0.832491  0.733198  1
  Pb  Pb18  1  0.666491  0.833246  0.731618  1
  Pb  Pb19  1  0.833712  0.666221  0.233136  1
  Pb  Pb20  1  0.833712  0.167490  0.233137  1
  Pb  Pb21  1  0.333635  0.166818  0.232400  1
  Pb  Pb22  1  0.332021  0.666011  0.258960  1
  Pb  Pb23  1  0.667568  0.333784  0.760233  1
