# generated using pymatgen
data_Hf9ZnCrRe3
_symmetry_space_group_name_H-M   'P 1'
_cell_length_a   8.62508201
_cell_length_b   8.62508208
_cell_length_c   8.48314700
_cell_angle_alpha   90.00000000
_cell_angle_beta   90.00000000
_cell_angle_gamma   119.99895956
_symmetry_Int_Tables_number   1
_chemical_formula_structural   Hf9ZnCrRe3
_chemical_formula_sum   'Hf18 Zn2 Cr2 Re6'
_cell_volume   546.53584036
_cell_formula_units_Z   2
loop_
 _symmetry_equiv_pos_site_id
 _symmetry_equiv_pos_as_xyz
  1  'x, y, z'
loop_
 _atom_site_type_symbol
 _atom_site_label
 _atom_site_symmetry_multiplicity
 _atom_site_fract_x
 _atom_site_fract_y
 _atom_site_fract_z
 _atom_site_occupancy
  Hf  Hf0  1  0.807504  0.614990  0.549304  1
  Hf  Hf1  1  0.807491  0.192509  0.549332  1
  Hf  Hf2  1  0.385010  0.192496  0.549304  1
  Hf  Hf3  1  0.192496  0.385010  0.450696  1
  Hf  Hf4  1  0.192509  0.807491  0.450668  1
  Hf  Hf5  1  0.614990  0.807504  0.450696  1
  Hf  Hf6  1  0.192496  0.385010  0.049304  1
  Hf  Hf7  1  0.192509  0.807491  0.049332  1
  Hf  Hf8  1  0.614990  0.807504  0.049304  1
  Hf  Hf9  1  0.807504  0.614990  0.950696  1
  Hf  Hf10  1  0.807491  0.192509  0.950668  1
  Hf  Hf11  1  0.385010  0.192496  0.950696  1
  Hf  Hf12  1  0.459369  0.918646  0.750000  1
  Hf  Hf13  1  0.459369  0.540631  0.750000  1
  Hf  Hf14  1  0.081354  0.540631  0.750000  1
  Hf  Hf15  1  0.540631  0.081354  0.250000  1
  Hf  Hf16  1  0.540631  0.459369  0.250000  1
  Hf  Hf17  1  0.918646  0.459369  0.250000  1
  Zn  Zn18  1  0.666665  0.333335  0.750000  1
  Zn  Zn19  1  0.333335  0.666665  0.250000  1
  Cr  Cr20  1  0.000000  0.000000  0.500000  1
  Cr  Cr21  1  0.000000  0.000000  0.000000  1
  Re  Re22  1  0.108027  0.215960  0.750000  1
  Re  Re23  1  0.108055  0.891945  0.750000  1
  Re  Re24  1  0.784040  0.891973  0.750000  1
  Re  Re25  1  0.891973  0.784040  0.250000  1
  Re  Re26  1  0.891945  0.108055  0.250000  1
  Re  Re27  1  0.215960  0.108027  0.250000  1
