# generated using pymatgen
data_Dy9Lu(PPb3)2
_symmetry_space_group_name_H-M   'P 1'
_cell_length_a   9.14838200
_cell_length_b   9.14838281
_cell_length_c   6.78247400
_cell_angle_alpha   90.00000000
_cell_angle_beta   90.00000000
_cell_angle_gamma   120.00001152
_symmetry_Int_Tables_number   1
_chemical_formula_structural   Dy9Lu(PPb3)2
_chemical_formula_sum   'Dy9 Lu1 P2 Pb6'
_cell_volume   491.59486631
_cell_formula_units_Z   1
loop_
 _symmetry_equiv_pos_site_id
 _symmetry_equiv_pos_as_xyz
  1  'x, y, z'
loop_
 _atom_site_type_symbol
 _atom_site_label
 _atom_site_symmetry_multiplicity
 _atom_site_fract_x
 _atom_site_fract_y
 _atom_site_fract_z
 _atom_site_occupancy
  Dy  Dy0  1  0.762161  0.761780  0.750271  1
  Dy  Dy1  1  0.238220  0.000381  0.750271  1
  Dy  Dy2  1  0.999619  0.237839  0.750271  1
  Dy  Dy3  1  0.238220  0.237839  0.249729  1
  Dy  Dy4  1  0.762161  0.000381  0.249729  1
  Dy  Dy5  1  0.999619  0.761780  0.249729  1
  Dy  Dy6  1  0.333333  0.666667  0.000000  1
  Dy  Dy7  1  0.333333  0.666667  0.500000  1
  Dy  Dy8  1  0.666667  0.333333  0.500000  1
  Lu  Lu9  1  0.666667  0.333333  0.000000  1
  P  P10  1  0.000000  0.000000  0.000000  1
  P  P11  1  0.000000  0.000000  0.500000  1
  Pb  Pb12  1  0.400382  0.399620  0.750599  1
  Pb  Pb13  1  0.600380  0.000762  0.750599  1
  Pb  Pb14  1  0.999238  0.599618  0.750599  1
  Pb  Pb15  1  0.600380  0.599618  0.249401  1
  Pb  Pb16  1  0.400382  0.000762  0.249401  1
  Pb  Pb17  1  0.999238  0.399620  0.249401  1
