# generated using pymatgen
data_CaPr16(TmGa4)3
_symmetry_space_group_name_H-M   'P 1'
_cell_length_a   7.85721300
_cell_length_b   7.85721300
_cell_length_c   14.71108800
_cell_angle_alpha   90.00000000
_cell_angle_beta   90.00000000
_cell_angle_gamma   90.00000000
_symmetry_Int_Tables_number   1
_chemical_formula_structural   CaPr16(TmGa4)3
_chemical_formula_sum   'Ca1 Pr16 Tm3 Ga12'
_cell_volume   908.20072958
_cell_formula_units_Z   1
loop_
 _symmetry_equiv_pos_site_id
 _symmetry_equiv_pos_as_xyz
  1  'x, y, z'
loop_
 _atom_site_type_symbol
 _atom_site_label
 _atom_site_symmetry_multiplicity
 _atom_site_fract_x
 _atom_site_fract_y
 _atom_site_fract_z
 _atom_site_occupancy
  Ca  Ca0  1  0.000000  0.500000  0.731285  1
  Pr  Pr1  1  0.816077  0.838795  0.602720  1
  Pr  Pr2  1  0.183100  0.838989  0.103739  1
  Pr  Pr3  1  0.160691  0.815724  0.395712  1
  Pr  Pr4  1  0.839309  0.184276  0.395712  1
  Pr  Pr5  1  0.684276  0.660691  0.395712  1
  Pr  Pr6  1  0.661205  0.316077  0.602720  1
  Pr  Pr7  1  0.338795  0.683923  0.602720  1
  Pr  Pr8  1  0.661011  0.683100  0.103739  1
  Pr  Pr9  1  0.681339  0.338037  0.897740  1
  Pr  Pr10  1  0.838037  0.818661  0.897740  1
  Pr  Pr11  1  0.315724  0.339309  0.395712  1
  Pr  Pr12  1  0.183923  0.161205  0.602720  1
  Pr  Pr13  1  0.816900  0.161011  0.103739  1
  Pr  Pr14  1  0.318661  0.661963  0.897740  1
  Pr  Pr15  1  0.338989  0.316900  0.103739  1
  Pr  Pr16  1  0.161963  0.181339  0.897740  1
  Tm  Tm17  1  0.000000  0.500000  0.224594  1
  Tm  Tm18  1  0.500000  0.000000  0.276802  1
  Tm  Tm19  1  0.500000  0.000000  0.775294  1
  Ga  Ga20  1  0.622128  0.378793  0.249550  1
  Ga  Ga21  1  0.124679  0.885230  0.750015  1
  Ga  Ga22  1  0.385230  0.375321  0.750015  1
  Ga  Ga23  1  0.377872  0.621207  0.249550  1
  Ga  Ga24  1  0.878793  0.877872  0.249550  1
  Ga  Ga25  1  0.614770  0.624679  0.750015  1
  Ga  Ga26  1  0.000000  0.500000  0.507804  1
  Ga  Ga27  1  0.875321  0.114770  0.750015  1
  Ga  Ga28  1  0.500000  0.000000  0.486459  1
  Ga  Ga29  1  0.500000  0.000000  0.987135  1
  Ga  Ga30  1  0.121207  0.122128  0.249550  1
  Ga  Ga31  1  0.000000  0.500000  0.012725  1
