# generated using pymatgen
data_La8Nd8Cd4Pd3Ru
_symmetry_space_group_name_H-M   'P 1'
_cell_length_a   10.11972767
_cell_length_b   10.11972756
_cell_length_c   10.14386922
_cell_angle_alpha   59.55476685
_cell_angle_beta   59.55476753
_cell_angle_gamma   59.68027751
_symmetry_Int_Tables_number   1
_chemical_formula_structural   La8Nd8Cd4Pd3Ru
_chemical_formula_sum   'La8 Nd8 Cd4 Pd3 Ru1'
_cell_volume   727.82087265
_cell_formula_units_Z   1
loop_
 _symmetry_equiv_pos_site_id
 _symmetry_equiv_pos_as_xyz
  1  'x, y, z'
loop_
 _atom_site_type_symbol
 _atom_site_label
 _atom_site_symmetry_multiplicity
 _atom_site_fract_x
 _atom_site_fract_y
 _atom_site_fract_z
 _atom_site_occupancy
  La  La0  1  0.352293  0.352293  0.352883  1
  La  La1  1  0.344515  0.344515  0.954306  1
  La  La2  1  0.347001  0.953286  0.345839  1
  La  La3  1  0.953286  0.347001  0.345839  1
  La  La4  1  0.819943  0.188713  0.188576  1
  La  La5  1  0.190361  0.806397  0.807132  1
  La  La6  1  0.188713  0.819943  0.188576  1
  La  La7  1  0.806397  0.190361  0.807132  1
  Nd  Nd8  1  0.192421  0.192421  0.812663  1
  Nd  Nd9  1  0.804485  0.804485  0.192875  1
  Nd  Nd10  1  0.933071  0.566740  0.566097  1
  Nd  Nd11  1  0.562051  0.933830  0.933695  1
  Nd  Nd12  1  0.566740  0.933071  0.566097  1
  Nd  Nd13  1  0.933830  0.562051  0.933695  1
  Nd  Nd14  1  0.565677  0.565677  0.934035  1
  Nd  Nd15  1  0.934846  0.934846  0.560780  1
  Cd  Cd16  1  0.580225  0.580225  0.578809  1
  Cd  Cd17  1  0.582176  0.582176  0.256601  1
  Cd  Cd18  1  0.579704  0.256946  0.582471  1
  Cd  Cd19  1  0.256946  0.579704  0.582471  1
  Pd  Pd20  1  0.144818  0.144818  0.572925  1
  Pd  Pd21  1  0.146192  0.573817  0.144484  1
  Pd  Pd22  1  0.573817  0.146192  0.144484  1
  Ru  Ru23  1  0.140493  0.140493  0.147535  1
