# generated using pymatgen
data_Ca12Y3Tm5(GeO4)12
_symmetry_space_group_name_H-M   'P 1'
_cell_length_a   11.18274635
_cell_length_b   11.18278111
_cell_length_c   11.18212102
_cell_angle_alpha   109.46715059
_cell_angle_beta   109.46538969
_cell_angle_gamma   109.47008556
_symmetry_Int_Tables_number   1
_chemical_formula_structural   Ca12Y3Tm5(GeO4)12
_chemical_formula_sum   'Ca12 Y3 Tm5 Ge12 O48'
_cell_volume   1076.61327857
_cell_formula_units_Z   1
loop_
 _symmetry_equiv_pos_site_id
 _symmetry_equiv_pos_as_xyz
  1  'x, y, z'
loop_
 _atom_site_type_symbol
 _atom_site_label
 _atom_site_symmetry_multiplicity
 _atom_site_fract_x
 _atom_site_fract_y
 _atom_site_fract_z
 _atom_site_occupancy
  Ca  Ca0  1  0.374616  0.124971  0.249017  1
  Ca  Ca1  1  0.623943  0.250126  0.875958  1
  Ca  Ca2  1  0.250959  0.374675  0.125264  1
  Ca  Ca3  1  0.625384  0.875029  0.750983  1
  Ca  Ca4  1  0.750118  0.124331  0.374404  1
  Ca  Ca5  1  0.125217  0.249048  0.374387  1
  Ca  Ca6  1  0.874018  0.625891  0.250119  1
  Ca  Ca7  1  0.749041  0.625325  0.874736  1
  Ca  Ca8  1  0.249882  0.875669  0.625596  1
  Ca  Ca9  1  0.874783  0.750952  0.625613  1
  Ca  Ca10  1  0.125982  0.374109  0.749881  1
  Ca  Ca11  1  0.376057  0.749874  0.124042  1
  Y  Y12  1  0.000000  0.500000  0.500000  1
  Y  Y13  1  0.500000  0.000000  0.500000  1
  Y  Y14  1  0.000000  0.500000  0.000000  1
  Tm  Tm15  1  0.500000  0.500000  0.500000  1
  Tm  Tm16  1  0.000000  0.000000  0.500000  1
  Tm  Tm17  1  0.000000  0.000000  0.000000  1
  Tm  Tm18  1  0.500000  0.500000  0.000000  1
  Tm  Tm19  1  0.500000  0.000000  0.000000  1
  Ge  Ge20  1  0.873683  0.247749  0.124042  1
  Ge  Ge21  1  0.749952  0.874929  0.125042  1
  Ge  Ge22  1  0.126317  0.752251  0.875958  1
  Ge  Ge23  1  0.748767  0.375151  0.624232  1
  Ge  Ge24  1  0.376408  0.625239  0.751046  1
  Ge  Ge25  1  0.251233  0.624849  0.375768  1
  Ge  Ge26  1  0.123786  0.875978  0.249766  1
  Ge  Ge27  1  0.876214  0.124022  0.750234  1
  Ge  Ge28  1  0.250048  0.125071  0.874958  1
  Ge  Ge29  1  0.625513  0.749042  0.374150  1
  Ge  Ge30  1  0.623592  0.374761  0.248954  1
  Ge  Ge31  1  0.374487  0.250958  0.625850  1
  O  O32  1  0.712698  0.694397  0.089587  1
  O  O33  1  0.876152  0.979181  0.785857  1
  O  O34  1  0.697512  0.091485  0.717117  1
  O  O35  1  0.908624  0.281953  0.303730  1
  O  O36  1  0.408676  0.105700  0.625964  1
  O  O37  1  0.395094  0.089401  0.876568  1
  O  O38  1  0.806438  0.786425  0.410547  1
  O  O39  1  0.021604  0.303620  0.895028  1
  O  O40  1  0.193562  0.213575  0.589453  1
  O  O41  1  0.396110  0.803947  0.522086  1
  O  O42  1  0.909821  0.122743  0.604210  1
  O  O43  1  0.302488  0.908515  0.282883  1
  O  O44  1  0.874075  0.393882  0.091325  1
  O  O45  1  0.518597  0.396205  0.805828  1
  O  O46  1  0.604906  0.910599  0.123432  1
  O  O47  1  0.520325  0.624460  0.714001  1
  O  O48  1  0.218016  0.591383  0.196682  1
  O  O49  1  0.376588  0.286941  0.481834  1
  O  O50  1  0.895113  0.018128  0.305516  1
  O  O51  1  0.377200  0.590183  0.896204  1
  O  O52  1  0.479675  0.375540  0.285999  1
  O  O53  1  0.104887  0.981872  0.694484  1
  O  O54  1  0.481403  0.603795  0.194172  1
  O  O55  1  0.410427  0.805204  0.787369  1
  O  O56  1  0.981371  0.786794  0.877220  1
  O  O57  1  0.714095  0.520360  0.623802  1
  O  O58  1  0.091376  0.718047  0.696270  1
  O  O59  1  0.197199  0.480112  0.605687  1
  O  O60  1  0.622800  0.409817  0.103796  1
  O  O61  1  0.125925  0.606118  0.908675  1
  O  O62  1  0.623412  0.713059  0.518166  1
  O  O63  1  0.802801  0.519888  0.394313  1
  O  O64  1  0.213124  0.123454  0.018599  1
  O  O65  1  0.306677  0.896911  0.020325  1
  O  O66  1  0.018629  0.213206  0.122780  1
  O  O67  1  0.781984  0.408617  0.803318  1
  O  O68  1  0.591324  0.894300  0.374036  1
  O  O69  1  0.285905  0.479640  0.376198  1
  O  O70  1  0.786876  0.876546  0.981401  1
  O  O71  1  0.693323  0.103089  0.979675  1
  O  O72  1  0.105022  0.625307  0.407900  1
  O  O73  1  0.123848  0.020819  0.214143  1
  O  O74  1  0.603890  0.196053  0.477914  1
  O  O75  1  0.090179  0.877257  0.395790  1
  O  O76  1  0.978396  0.696380  0.104972  1
  O  O77  1  0.589573  0.194796  0.212631  1
  O  O78  1  0.287302  0.305603  0.910413  1
  O  O79  1  0.894978  0.374693  0.592100  1
