# generated using pymatgen
data_Hf4TiSn3B
_symmetry_space_group_name_H-M   'P 1'
_cell_length_a   8.42433400
_cell_length_b   8.42433415
_cell_length_c   5.69474500
_cell_angle_alpha   90.00000000
_cell_angle_beta   90.00000000
_cell_angle_gamma   119.99999157
_symmetry_Int_Tables_number   1
_chemical_formula_structural   Hf4TiSn3B
_chemical_formula_sum   'Hf8 Ti2 Sn6 B2'
_cell_volume   350.00650189
_cell_formula_units_Z   2
loop_
 _symmetry_equiv_pos_site_id
 _symmetry_equiv_pos_as_xyz
  1  'x, y, z'
loop_
 _atom_site_type_symbol
 _atom_site_label
 _atom_site_symmetry_multiplicity
 _atom_site_fract_x
 _atom_site_fract_y
 _atom_site_fract_z
 _atom_site_occupancy
  Hf  Hf0  1  0.333333  0.666667  0.500000  1
  Hf  Hf1  1  0.666667  0.333333  0.500000  1
  Hf  Hf2  1  0.771302  0.771302  0.747970  1
  Hf  Hf3  1  0.228698  0.000000  0.747970  1
  Hf  Hf4  1  0.000000  0.228698  0.747970  1
  Hf  Hf5  1  0.228698  0.228698  0.252030  1
  Hf  Hf6  1  0.771302  0.000000  0.252030  1
  Hf  Hf7  1  0.000000  0.771302  0.252030  1
  Ti  Ti8  1  0.666667  0.333333  0.000000  1
  Ti  Ti9  1  0.333333  0.666667  0.000000  1
  Sn  Sn10  1  0.401894  0.401894  0.759295  1
  Sn  Sn11  1  0.598106  0.000000  0.759295  1
  Sn  Sn12  1  0.000000  0.598106  0.759295  1
  Sn  Sn13  1  0.598106  0.598106  0.240705  1
  Sn  Sn14  1  0.401894  0.000000  0.240705  1
  Sn  Sn15  1  0.000000  0.401894  0.240705  1
  B  B16  1  0.000000  0.000000  0.000000  1
  B  B17  1  0.000000  0.000000  0.500000  1
