# generated using pymatgen
data_Ho5(In2Au)2
_symmetry_space_group_name_H-M   'P 1'
_cell_length_a   3.65433800
_cell_length_b   8.19409700
_cell_length_c   18.39371100
_cell_angle_alpha   90.00000000
_cell_angle_beta   90.00000000
_cell_angle_gamma   90.00000000
_symmetry_Int_Tables_number   1
_chemical_formula_structural   Ho5(In2Au)2
_chemical_formula_sum   'Ho10 In8 Au4'
_cell_volume   550.78128297
_cell_formula_units_Z   2
loop_
 _symmetry_equiv_pos_site_id
 _symmetry_equiv_pos_as_xyz
  1  'x, y, z'
loop_
 _atom_site_type_symbol
 _atom_site_label
 _atom_site_symmetry_multiplicity
 _atom_site_fract_x
 _atom_site_fract_y
 _atom_site_fract_z
 _atom_site_occupancy
  Ho  Ho0  1  0.000000  0.500000  0.500000  1
  Ho  Ho1  1  0.000000  0.000000  0.000000  1
  Ho  Ho2  1  0.000000  0.737408  0.281146  1
  Ho  Ho3  1  0.000000  0.262592  0.718854  1
  Ho  Ho4  1  0.000000  0.762592  0.781146  1
  Ho  Ho5  1  0.000000  0.237408  0.218854  1
  Ho  Ho6  1  0.000000  0.617876  0.079906  1
  Ho  Ho7  1  0.000000  0.382124  0.920094  1
  Ho  Ho8  1  0.000000  0.882124  0.579906  1
  Ho  Ho9  1  0.000000  0.117876  0.420094  1
  In  In10  1  0.500000  0.713129  0.932402  1
  In  In11  1  0.500000  0.286871  0.067598  1
  In  In12  1  0.500000  0.786871  0.432402  1
  In  In13  1  0.500000  0.213129  0.567598  1
  In  In14  1  0.500000  0.580664  0.646964  1
  In  In15  1  0.500000  0.419336  0.353036  1
  In  In16  1  0.500000  0.919336  0.146964  1
  In  In17  1  0.500000  0.080664  0.853036  1
  Au  Au18  1  0.500000  0.525610  0.196608  1
  Au  Au19  1  0.500000  0.474390  0.803392  1
  Au  Au20  1  0.500000  0.974390  0.696608  1
  Au  Au21  1  0.500000  0.025610  0.303392  1
