# generated using pymatgen
data_Yb3Th(Pd2Pb)2
_symmetry_space_group_name_H-M   'P 1'
_cell_length_a   7.91104060
_cell_length_b   7.91104033
_cell_length_c   3.73056700
_cell_angle_alpha   90.00000000
_cell_angle_beta   90.00000000
_cell_angle_gamma   91.26819903
_symmetry_Int_Tables_number   1
_chemical_formula_structural   Yb3Th(Pd2Pb)2
_chemical_formula_sum   'Yb3 Th1 Pd4 Pb2'
_cell_volume   233.41870833
_cell_formula_units_Z   1
loop_
 _symmetry_equiv_pos_site_id
 _symmetry_equiv_pos_as_xyz
  1  'x, y, z'
loop_
 _atom_site_type_symbol
 _atom_site_label
 _atom_site_symmetry_multiplicity
 _atom_site_fract_x
 _atom_site_fract_y
 _atom_site_fract_z
 _atom_site_occupancy
  Yb  Yb0  1  0.675453  0.175453  0.500000  1
  Yb  Yb1  1  0.167441  0.329028  0.500000  1
  Yb  Yb2  1  0.829028  0.667441  0.500000  1
  Th  Th3  1  0.329505  0.829505  0.500000  1
  Pd  Pd4  1  0.371909  0.121550  0.000000  1
  Pd  Pd5  1  0.130440  0.630440  0.000000  1
  Pd  Pd6  1  0.621550  0.871909  0.000000  1
  Pd  Pd7  1  0.877027  0.377027  0.000000  1
  Pb  Pb8  1  0.993194  0.004452  0.000000  1
  Pb  Pb9  1  0.504452  0.493194  0.000000  1
