# generated using pymatgen
data_Nb4Fe2CoSi4Ni
_symmetry_space_group_name_H-M   'P 1'
_cell_length_a   3.68521700
_cell_length_b   6.26154813
_cell_length_c   7.07131588
_cell_angle_alpha   90.70574099
_cell_angle_beta   90.00000000
_cell_angle_gamma   90.00000000
_symmetry_Int_Tables_number   1
_chemical_formula_structural   Nb4Fe2CoSi4Ni
_chemical_formula_sum   'Nb4 Fe2 Co1 Si4 Ni1'
_cell_volume   163.15939274
_cell_formula_units_Z   1
loop_
 _symmetry_equiv_pos_site_id
 _symmetry_equiv_pos_as_xyz
  1  'x, y, z'
loop_
 _atom_site_type_symbol
 _atom_site_label
 _atom_site_symmetry_multiplicity
 _atom_site_fract_x
 _atom_site_fract_y
 _atom_site_fract_z
 _atom_site_occupancy
  Nb  Nb0  1  0.250000  0.519164  0.176223  1
  Nb  Nb1  1  0.750000  0.476520  0.824155  1
  Nb  Nb2  1  0.750000  0.983462  0.686146  1
  Nb  Nb3  1  0.250000  0.017712  0.314331  1
  Fe  Fe4  1  0.750000  0.857285  0.063876  1
  Fe  Fe5  1  0.250000  0.143888  0.934499  1
  Co  Co6  1  0.750000  0.360071  0.437559  1
  Si  Si7  1  0.250000  0.776416  0.885757  1
  Si  Si8  1  0.750000  0.222424  0.117133  1
  Si  Si9  1  0.750000  0.725107  0.380150  1
  Si  Si10  1  0.250000  0.274278  0.616058  1
  Ni  Ni11  1  0.250000  0.643674  0.564113  1
