# generated using pymatgen
data_Hf18Re7Rh2W
_symmetry_space_group_name_H-M   'P 1'
_cell_length_a   8.67254400
_cell_length_b   8.67254450
_cell_length_c   8.50271300
_cell_angle_alpha   90.00000000
_cell_angle_beta   90.00000000
_cell_angle_gamma   119.99999808
_symmetry_Int_Tables_number   1
_chemical_formula_structural   Hf18Re7Rh2W
_chemical_formula_sum   'Hf18 Re7 Rh2 W1'
_cell_volume   553.83603477
_cell_formula_units_Z   1
loop_
 _symmetry_equiv_pos_site_id
 _symmetry_equiv_pos_as_xyz
  1  'x, y, z'
loop_
 _atom_site_type_symbol
 _atom_site_label
 _atom_site_symmetry_multiplicity
 _atom_site_fract_x
 _atom_site_fract_y
 _atom_site_fract_z
 _atom_site_occupancy
  Hf  Hf0  1  0.196776  0.803224  0.445875  1
  Hf  Hf1  1  0.196776  0.393551  0.445875  1
  Hf  Hf2  1  0.606449  0.803224  0.445875  1
  Hf  Hf3  1  0.803224  0.196776  0.554125  1
  Hf  Hf4  1  0.803224  0.606449  0.554125  1
  Hf  Hf5  1  0.393551  0.196776  0.554125  1
  Hf  Hf6  1  0.804418  0.195582  0.944711  1
  Hf  Hf7  1  0.804418  0.608839  0.944711  1
  Hf  Hf8  1  0.391161  0.195582  0.944711  1
  Hf  Hf9  1  0.195582  0.804418  0.055289  1
  Hf  Hf10  1  0.195582  0.391161  0.055289  1
  Hf  Hf11  1  0.608839  0.804418  0.055289  1
  Hf  Hf12  1  0.542682  0.457318  0.248834  1
  Hf  Hf13  1  0.542682  0.085363  0.248834  1
  Hf  Hf14  1  0.914637  0.457318  0.248834  1
  Hf  Hf15  1  0.457318  0.542682  0.751166  1
  Hf  Hf16  1  0.457318  0.914637  0.751166  1
  Hf  Hf17  1  0.085363  0.542682  0.751166  1
  Re  Re18  1  0.889071  0.110929  0.250632  1
  Re  Re19  1  0.889071  0.778140  0.250632  1
  Re  Re20  1  0.221860  0.110929  0.250632  1
  Re  Re21  1  0.110929  0.889071  0.749368  1
  Re  Re22  1  0.110929  0.221860  0.749368  1
  Re  Re23  1  0.778140  0.889071  0.749368  1
  Re  Re24  1  0.000000  0.000000  0.000000  1
  Rh  Rh25  1  0.333333  0.666667  0.249598  1
  Rh  Rh26  1  0.666667  0.333333  0.750402  1
  W  W27  1  0.000000  0.000000  0.500000  1
