# generated using pymatgen
data_Nd16Y4(Ir3Rh)3
_symmetry_space_group_name_H-M   'P 1'
_cell_length_a   11.18864200
_cell_length_b   11.18864200
_cell_length_c   6.55900000
_cell_angle_alpha   90.00000000
_cell_angle_beta   90.00000000
_cell_angle_gamma   90.00000000
_symmetry_Int_Tables_number   1
_chemical_formula_structural   Nd16Y4(Ir3Rh)3
_chemical_formula_sum   'Nd16 Y4 Ir9 Rh3'
_cell_volume   821.09307061
_cell_formula_units_Z   1
loop_
 _symmetry_equiv_pos_site_id
 _symmetry_equiv_pos_as_xyz
  1  'x, y, z'
loop_
 _atom_site_type_symbol
 _atom_site_label
 _atom_site_symmetry_multiplicity
 _atom_site_fract_x
 _atom_site_fract_y
 _atom_site_fract_z
 _atom_site_occupancy
  Nd  Nd0  1  0.288930  0.088270  0.382356  1
  Nd  Nd1  1  0.288763  0.911302  0.882305  1
  Nd  Nd2  1  0.711237  0.088698  0.882305  1
  Nd  Nd3  1  0.711070  0.911730  0.382356  1
  Nd  Nd4  1  0.588698  0.788763  0.882305  1
  Nd  Nd5  1  0.588270  0.211070  0.382356  1
  Nd  Nd6  1  0.411730  0.788930  0.382356  1
  Nd  Nd7  1  0.411302  0.211237  0.882305  1
  Nd  Nd8  1  0.210576  0.411670  0.616648  1
  Nd  Nd9  1  0.211062  0.588683  0.118907  1
  Nd  Nd10  1  0.788938  0.411317  0.118907  1
  Nd  Nd11  1  0.789424  0.588330  0.616648  1
  Nd  Nd12  1  0.911317  0.711062  0.118907  1
  Nd  Nd13  1  0.911670  0.289424  0.616648  1
  Nd  Nd14  1  0.088330  0.710576  0.616648  1
  Nd  Nd15  1  0.088683  0.288938  0.118907  1
  Y  Y16  1  0.000000  0.000000  0.499884  1
  Y  Y17  1  0.000000  0.000000  0.000257  1
  Y  Y18  1  0.500000  0.500000  0.000257  1
  Y  Y19  1  0.500000  0.500000  0.499884  1
  Ir  Ir20  1  0.849049  0.149555  0.249951  1
  Ir  Ir21  1  0.849545  0.849779  0.749455  1
  Ir  Ir22  1  0.150455  0.150221  0.749455  1
  Ir  Ir23  1  0.150951  0.850445  0.249951  1
  Ir  Ir24  1  0.650221  0.349545  0.749455  1
  Ir  Ir25  1  0.649555  0.650951  0.249951  1
  Ir  Ir26  1  0.350445  0.349049  0.249951  1
  Ir  Ir27  1  0.349779  0.650455  0.749455  1
  Ir  Ir28  1  0.000000  0.500000  0.377827  1
  Rh  Rh29  1  0.500000  0.000000  0.121639  1
  Rh  Rh30  1  0.500000  0.000000  0.622185  1
  Rh  Rh31  1  0.000000  0.500000  0.879576  1
