# generated using pymatgen
data_NaHf2NiF11
_symmetry_space_group_name_H-M   'P 1'
_cell_length_a   5.67371611
_cell_length_b   5.67371714
_cell_length_c   7.75457602
_cell_angle_alpha   69.39800197
_cell_angle_beta   69.39799690
_cell_angle_gamma   72.94437615
_symmetry_Int_Tables_number   1
_chemical_formula_structural   NaHf2NiF11
_chemical_formula_sum   'Na1 Hf2 Ni1 F11'
_cell_volume   214.58926218
_cell_formula_units_Z   1
loop_
 _symmetry_equiv_pos_site_id
 _symmetry_equiv_pos_as_xyz
  1  'x, y, z'
loop_
 _atom_site_type_symbol
 _atom_site_label
 _atom_site_symmetry_multiplicity
 _atom_site_fract_x
 _atom_site_fract_y
 _atom_site_fract_z
 _atom_site_occupancy
  Na  Na0  1  0.000000  0.000000  0.000000  1
  Hf  Hf1  1  0.507557  0.507557  0.762813  1
  Hf  Hf2  1  0.492443  0.492443  0.237187  1
  Ni  Ni3  1  0.000000  0.000000  0.500000  1
  F  F4  1  0.222920  0.811753  0.686714  1
  F  F5  1  0.188247  0.777080  0.313286  1
  F  F6  1  0.777080  0.188247  0.313286  1
  F  F7  1  0.811753  0.222920  0.686714  1
  F  F8  1  0.500000  0.500000  0.500000  1
  F  F9  1  0.670254  0.329746  0.000000  1
  F  F10  1  0.329746  0.670254  0.000000  1
  F  F11  1  0.246473  0.246473  0.350457  1
  F  F12  1  0.753527  0.753527  0.649543  1
  F  F13  1  0.269707  0.269707  0.888783  1
  F  F14  1  0.730293  0.730293  0.111217  1
