# generated using pymatgen
data_Zr10In2CuBi4Sb
_symmetry_space_group_name_H-M   'P 1'
_cell_length_a   8.86994643
_cell_length_b   8.86994567
_cell_length_c   5.98455201
_cell_angle_alpha   90.00335713
_cell_angle_beta   90.00335981
_cell_angle_gamma   119.68006890
_symmetry_Int_Tables_number   1
_chemical_formula_structural   Zr10In2CuBi4Sb
_chemical_formula_sum   'Zr10 In2 Cu1 Bi4 Sb1'
_cell_volume   409.06782152
_cell_formula_units_Z   1
loop_
 _symmetry_equiv_pos_site_id
 _symmetry_equiv_pos_as_xyz
  1  'x, y, z'
loop_
 _atom_site_type_symbol
 _atom_site_label
 _atom_site_symmetry_multiplicity
 _atom_site_fract_x
 _atom_site_fract_y
 _atom_site_fract_z
 _atom_site_occupancy
  Zr  Zr0  1  0.724368  0.004843  0.234588  1
  Zr  Zr1  1  0.004843  0.724368  0.234588  1
  Zr  Zr2  1  0.275727  0.275727  0.233426  1
  Zr  Zr3  1  0.261594  0.998646  0.767680  1
  Zr  Zr4  1  0.998646  0.261594  0.767680  1
  Zr  Zr5  1  0.736500  0.736500  0.762465  1
  Zr  Zr6  1  0.331779  0.667097  0.493985  1
  Zr  Zr7  1  0.667097  0.331779  0.493985  1
  Zr  Zr8  1  0.667329  0.331798  0.004164  1
  Zr  Zr9  1  0.331798  0.667329  0.004164  1
  In  In10  1  0.381774  0.000701  0.252218  1
  In  In11  1  0.000701  0.381774  0.252218  1
  Cu  Cu12  1  0.002426  0.002426  0.022411  1
  Bi  Bi13  1  0.618626  0.618626  0.250170  1
  Bi  Bi14  1  0.605714  0.999938  0.747006  1
  Bi  Bi15  1  0.999938  0.605714  0.747006  1
  Bi  Bi16  1  0.390091  0.390091  0.746124  1
  Sb  Sb17  1  0.001047  0.001047  0.486121  1
