# generated using pymatgen
data_Pr6OsRuI6
_symmetry_space_group_name_H-M   'P 1'
_cell_length_a   4.35688800
_cell_length_b   9.42027422
_cell_length_c   12.70198839
_cell_angle_alpha   87.01191203
_cell_angle_beta   90.00000000
_cell_angle_gamma   90.00000000
_symmetry_Int_Tables_number   1
_chemical_formula_structural   Pr6OsRuI6
_chemical_formula_sum   'Pr6 Os1 Ru1 I6'
_cell_volume   520.61992027
_cell_formula_units_Z   1
loop_
 _symmetry_equiv_pos_site_id
 _symmetry_equiv_pos_as_xyz
  1  'x, y, z'
loop_
 _atom_site_type_symbol
 _atom_site_label
 _atom_site_symmetry_multiplicity
 _atom_site_fract_x
 _atom_site_fract_y
 _atom_site_fract_z
 _atom_site_occupancy
  Pr  Pr0  1  0.750000  0.691740  0.117995  1
  Pr  Pr1  1  0.250000  0.308757  0.882129  1
  Pr  Pr2  1  0.250000  0.884125  0.331156  1
  Pr  Pr3  1  0.750000  0.115933  0.670476  1
  Pr  Pr4  1  0.250000  0.901650  0.890854  1
  Pr  Pr5  1  0.750000  0.097210  0.109132  1
  Os  Os6  1  0.250000  0.891078  0.119031  1
  Ru  Ru7  1  0.750000  0.109632  0.879348  1
  I  I8  1  0.250000  0.868634  0.618297  1
  I  I9  1  0.750000  0.131307  0.381777  1
  I  I10  1  0.750000  0.635306  0.376191  1
  I  I11  1  0.250000  0.364618  0.624021  1
  I  I12  1  0.250000  0.395498  0.133601  1
  I  I13  1  0.750000  0.604511  0.865991  1
