# generated using pymatgen
data_Th2Ta2Ni10P7
_symmetry_space_group_name_H-M   'P 1'
_cell_length_a   9.32115064
_cell_length_b   9.28333221
_cell_length_c   3.78655100
_cell_angle_alpha   90.00000000
_cell_angle_beta   90.00000000
_cell_angle_gamma   120.36874038
_symmetry_Int_Tables_number   1
_chemical_formula_structural   Th2Ta2Ni10P7
_chemical_formula_sum   'Th2 Ta2 Ni10 P7'
_cell_volume   282.69761409
_cell_formula_units_Z   1
loop_
 _symmetry_equiv_pos_site_id
 _symmetry_equiv_pos_as_xyz
  1  'x, y, z'
loop_
 _atom_site_type_symbol
 _atom_site_label
 _atom_site_symmetry_multiplicity
 _atom_site_fract_x
 _atom_site_fract_y
 _atom_site_fract_z
 _atom_site_occupancy
  Th  Th0  1  0.994467  0.000927  0.000000  1
  Th  Th1  1  0.337787  0.673761  0.500000  1
  Ta  Ta2  1  0.881285  0.443628  0.500000  1
  Ta  Ta3  1  0.551448  0.433884  0.500000  1
  Ni  Ni4  1  0.297119  0.395849  0.000000  1
  Ni  Ni5  1  0.097387  0.702016  0.000000  1
  Ni  Ni6  1  0.384359  0.177276  0.000000  1
  Ni  Ni7  1  0.797172  0.616593  0.000000  1
  Ni  Ni8  1  0.817900  0.206204  0.000000  1
  Ni  Ni9  1  0.237104  0.952371  0.500000  1
  Ni  Ni10  1  0.050492  0.278744  0.500000  1
  Ni  Ni11  1  0.721682  0.773541  0.500000  1
  Ni  Ni12  1  0.565875  0.109702  0.500000  1
  Ni  Ni13  1  0.602869  0.899843  0.000000  1
  P  P14  1  0.660434  0.324275  0.000000  1
  P  P15  1  0.077624  0.440404  0.000000  1
  P  P16  1  0.259417  0.219339  0.500000  1
  P  P17  1  0.770609  0.044460  0.500000  1
  P  P18  1  0.962231  0.739636  0.500000  1
  P  P19  1  0.562709  0.636251  0.000000  1
  P  P20  1  0.370030  0.931295  0.000000  1
