# generated using pymatgen
data_Er7U(Si3Ni)4
_symmetry_space_group_name_H-M   'P 1'
_cell_length_a   7.93563300
_cell_length_b   7.93439525
_cell_length_c   8.03323700
_cell_angle_alpha   90.00000000
_cell_angle_beta   90.00000000
_cell_angle_gamma   119.99024778
_symmetry_Int_Tables_number   1
_chemical_formula_structural   Er7U(Si3Ni)4
_chemical_formula_sum   'Er7 U1 Si12 Ni4'
_cell_volume   438.08591157
_cell_formula_units_Z   1
loop_
 _symmetry_equiv_pos_site_id
 _symmetry_equiv_pos_as_xyz
  1  'x, y, z'
loop_
 _atom_site_type_symbol
 _atom_site_label
 _atom_site_symmetry_multiplicity
 _atom_site_fract_x
 _atom_site_fract_y
 _atom_site_fract_z
 _atom_site_occupancy
  Er  Er0  1  0.499854  0.500168  0.750000  1
  Er  Er1  1  0.500133  0.499900  0.250000  1
  Er  Er2  1  0.000286  0.500158  0.750000  1
  Er  Er3  1  0.999751  0.499892  0.250000  1
  Er  Er4  1  0.499872  0.999778  0.750000  1
  Er  Er5  1  0.500098  0.000223  0.250000  1
  Er  Er6  1  0.000014  0.999970  0.750000  1
  U  U7  1  0.000006  0.000006  0.250000  1
  Si  Si8  1  0.829650  0.170538  0.001667  1
  Si  Si9  1  0.170318  0.829498  0.001944  1
  Si  Si10  1  0.340707  0.170355  0.001685  1
  Si  Si11  1  0.170318  0.829498  0.498056  1
  Si  Si12  1  0.659331  0.829692  0.001989  1
  Si  Si13  1  0.829650  0.170538  0.498333  1
  Si  Si14  1  0.829680  0.659178  0.001659  1
  Si  Si15  1  0.659331  0.829692  0.498011  1
  Si  Si16  1  0.170272  0.340789  0.001955  1
  Si  Si17  1  0.340707  0.170355  0.498315  1
  Si  Si18  1  0.170272  0.340789  0.498045  1
  Si  Si19  1  0.829680  0.659178  0.498341  1
  Ni  Ni20  1  0.666617  0.333275  0.998681  1
  Ni  Ni21  1  0.333419  0.666629  0.999541  1
  Ni  Ni22  1  0.333419  0.666629  0.500459  1
  Ni  Ni23  1  0.666617  0.333275  0.501319  1
