# generated using pymatgen
data_Cs6NdTmBr12
_symmetry_space_group_name_H-M   'P 1'
_cell_length_a   10.03304527
_cell_length_b   10.02309324
_cell_length_c   8.31288700
_cell_angle_alpha   90.00000000
_cell_angle_beta   90.00000000
_cell_angle_gamma   90.13786201
_symmetry_Int_Tables_number   1
_chemical_formula_structural   Cs6NdTmBr12
_chemical_formula_sum   'Cs6 Nd1 Tm1 Br12'
_cell_volume   835.95935511
_cell_formula_units_Z   1
loop_
 _symmetry_equiv_pos_site_id
 _symmetry_equiv_pos_as_xyz
  1  'x, y, z'
loop_
 _atom_site_type_symbol
 _atom_site_label
 _atom_site_symmetry_multiplicity
 _atom_site_fract_x
 _atom_site_fract_y
 _atom_site_fract_z
 _atom_site_occupancy
  Cs  Cs0  1  0.000000  0.000000  0.500000  1
  Cs  Cs1  1  0.000000  0.000000  0.000000  1
  Cs  Cs2  1  0.235757  0.585018  0.500000  1
  Cs  Cs3  1  0.764243  0.414982  0.500000  1
  Cs  Cs4  1  0.415310  0.233883  0.000000  1
  Cs  Cs5  1  0.584690  0.766117  0.000000  1
  Nd  Nd6  1  0.000000  0.500000  0.000000  1
  Tm  Tm7  1  0.500000  0.000000  0.500000  1
  Br  Br8  1  0.689687  0.057435  0.737609  1
  Br  Br9  1  0.310313  0.942565  0.737609  1
  Br  Br10  1  0.940135  0.697770  0.247310  1
  Br  Br11  1  0.059865  0.302230  0.247310  1
  Br  Br12  1  0.310313  0.942565  0.262391  1
  Br  Br13  1  0.689687  0.057435  0.262391  1
  Br  Br14  1  0.059865  0.302230  0.752690  1
  Br  Br15  1  0.940135  0.697770  0.752690  1
  Br  Br16  1  0.568356  0.731733  0.500000  1
  Br  Br17  1  0.431644  0.268267  0.500000  1
  Br  Br18  1  0.279713  0.571063  0.000000  1
  Br  Br19  1  0.720287  0.428937  0.000000  1
