# generated using pymatgen
data_PrThHgAu2
_symmetry_space_group_name_H-M   'P 1'
_cell_length_a   8.19365709
_cell_length_b   8.19365763
_cell_length_c   3.87826100
_cell_angle_alpha   90.00000000
_cell_angle_beta   90.00000000
_cell_angle_gamma   91.30377927
_symmetry_Int_Tables_number   1
_chemical_formula_structural   PrThHgAu2
_chemical_formula_sum   'Pr2 Th2 Hg2 Au4'
_cell_volume   260.30360462
_cell_formula_units_Z   2
loop_
 _symmetry_equiv_pos_site_id
 _symmetry_equiv_pos_as_xyz
  1  'x, y, z'
loop_
 _atom_site_type_symbol
 _atom_site_label
 _atom_site_symmetry_multiplicity
 _atom_site_fract_x
 _atom_site_fract_y
 _atom_site_fract_z
 _atom_site_occupancy
  Pr  Pr0  1  0.174818  0.325182  0.500000  1
  Pr  Pr1  1  0.825182  0.674818  0.500000  1
  Th  Th2  1  0.674578  0.174578  0.500000  1
  Th  Th3  1  0.325422  0.825422  0.500000  1
  Hg  Hg4  1  0.000000  0.000000  0.000000  1
  Hg  Hg5  1  0.500000  0.500000  0.000000  1
  Au  Au6  1  0.127592  0.627592  0.000000  1
  Au  Au7  1  0.872408  0.372408  0.000000  1
  Au  Au8  1  0.624043  0.875957  0.000000  1
  Au  Au9  1  0.375957  0.124043  0.000000  1
