# generated using pymatgen
data_Dy5(FeTe)2
_symmetry_space_group_name_H-M   'P 1'
_cell_length_a   7.83245633
_cell_length_b   7.83245633
_cell_length_c   15.21929400
_cell_angle_alpha   90.00000000
_cell_angle_beta   90.00000000
_cell_angle_gamma   150.71252491
_symmetry_Int_Tables_number   1
_chemical_formula_structural   Dy5(FeTe)2
_chemical_formula_sum   'Dy10 Fe4 Te4'
_cell_volume   456.74062712
_cell_formula_units_Z   2
loop_
 _symmetry_equiv_pos_site_id
 _symmetry_equiv_pos_as_xyz
  1  'x, y, z'
loop_
 _atom_site_type_symbol
 _atom_site_label
 _atom_site_symmetry_multiplicity
 _atom_site_fract_x
 _atom_site_fract_y
 _atom_site_fract_z
 _atom_site_occupancy
  Dy  Dy0  1  0.961050  0.038950  0.379947  1
  Dy  Dy1  1  0.038950  0.961050  0.620053  1
  Dy  Dy2  1  0.038950  0.961050  0.879947  1
  Dy  Dy3  1  0.961050  0.038950  0.120053  1
  Dy  Dy4  1  0.742345  0.257655  0.629577  1
  Dy  Dy5  1  0.257655  0.742345  0.370423  1
  Dy  Dy6  1  0.257655  0.742345  0.129577  1
  Dy  Dy7  1  0.742345  0.257655  0.870423  1
  Dy  Dy8  1  0.397094  0.602906  0.750000  1
  Dy  Dy9  1  0.602906  0.397094  0.250000  1
  Fe  Fe10  1  0.829697  0.170303  0.250000  1
  Fe  Fe11  1  0.170303  0.829697  0.750000  1
  Fe  Fe12  1  0.407152  0.592848  0.250000  1
  Fe  Fe13  1  0.592848  0.407152  0.750000  1
  Te  Te14  1  0.617998  0.382002  0.039471  1
  Te  Te15  1  0.382002  0.617998  0.960529  1
  Te  Te16  1  0.382002  0.617998  0.539471  1
  Te  Te17  1  0.617998  0.382002  0.460529  1
