# generated using pymatgen
data_Li4Pr2HoPb4
_symmetry_space_group_name_H-M   'P 1'
_cell_length_a   4.80300417
_cell_length_b   7.12505869
_cell_length_c   8.91171086
_cell_angle_alpha   113.56305986
_cell_angle_beta   105.63316188
_cell_angle_gamma   90.00000714
_symmetry_Int_Tables_number   1
_chemical_formula_structural   Li4Pr2HoPb4
_chemical_formula_sum   'Li4 Pr2 Ho1 Pb4'
_cell_volume   267.19173845
_cell_formula_units_Z   1
loop_
 _symmetry_equiv_pos_site_id
 _symmetry_equiv_pos_as_xyz
  1  'x, y, z'
loop_
 _atom_site_type_symbol
 _atom_site_label
 _atom_site_symmetry_multiplicity
 _atom_site_fract_x
 _atom_site_fract_y
 _atom_site_fract_z
 _atom_site_occupancy
  Li  Li0  1  0.672450  0.981916  0.344899  1
  Li  Li1  1  0.327550  0.018084  0.655101  1
  Li  Li2  1  0.327550  0.637016  0.655101  1
  Li  Li3  1  0.672450  0.362984  0.344899  1
  Pr  Pr4  1  0.129547  0.629547  0.259094  1
  Pr  Pr5  1  0.870453  0.370453  0.740906  1
  Ho  Ho6  1  0.000000  0.000000  0.000000  1
  Pb  Pb7  1  0.500000  0.712765  0.000000  1
  Pb  Pb8  1  0.500000  0.287235  0.000000  1
  Pb  Pb9  1  0.789938  0.789938  0.579876  1
  Pb  Pb10  1  0.210062  0.210062  0.420124  1
