# generated using pymatgen
data_Tm3Mn(Ni4P3)2
_symmetry_space_group_name_H-M   'P 1'
_cell_length_a   3.73792000
_cell_length_b   10.50750900
_cell_length_c   12.26438400
_cell_angle_alpha   90.00000000
_cell_angle_beta   90.00000000
_cell_angle_gamma   90.00000000
_symmetry_Int_Tables_number   1
_chemical_formula_structural   Tm3Mn(Ni4P3)2
_chemical_formula_sum   'Tm6 Mn2 Ni16 P12'
_cell_volume   481.69874277
_cell_formula_units_Z   2
loop_
 _symmetry_equiv_pos_site_id
 _symmetry_equiv_pos_as_xyz
  1  'x, y, z'
loop_
 _atom_site_type_symbol
 _atom_site_label
 _atom_site_symmetry_multiplicity
 _atom_site_fract_x
 _atom_site_fract_y
 _atom_site_fract_z
 _atom_site_occupancy
  Tm  Tm0  1  0.000000  0.500000  0.522517  1
  Tm  Tm1  1  0.500000  0.000000  0.477483  1
  Tm  Tm2  1  0.500000  0.817494  0.206007  1
  Tm  Tm3  1  0.500000  0.182506  0.206007  1
  Tm  Tm4  1  0.000000  0.682506  0.793993  1
  Tm  Tm5  1  0.000000  0.317494  0.793993  1
  Mn  Mn6  1  0.500000  0.500000  0.155495  1
  Mn  Mn7  1  0.000000  0.000000  0.844505  1
  Ni  Ni8  1  0.500000  0.500000  0.699694  1
  Ni  Ni9  1  0.000000  0.000000  0.300306  1
  Ni  Ni10  1  0.000000  0.500000  0.983827  1
  Ni  Ni11  1  0.500000  0.000000  0.016173  1
  Ni  Ni12  1  0.500000  0.332737  0.991359  1
  Ni  Ni13  1  0.500000  0.667263  0.991359  1
  Ni  Ni14  1  0.000000  0.167263  0.008641  1
  Ni  Ni15  1  0.000000  0.832737  0.008641  1
  Ni  Ni16  1  0.500000  0.301205  0.429302  1
  Ni  Ni17  1  0.500000  0.698795  0.429302  1
  Ni  Ni18  1  0.000000  0.198795  0.570698  1
  Ni  Ni19  1  0.000000  0.801205  0.570698  1
  Ni  Ni20  1  0.500000  0.878406  0.709794  1
  Ni  Ni21  1  0.500000  0.121594  0.709794  1
  Ni  Ni22  1  0.000000  0.621594  0.290206  1
  Ni  Ni23  1  0.000000  0.378406  0.290206  1
  P  P24  1  0.500000  0.500000  0.876256  1
  P  P25  1  0.000000  0.000000  0.123744  1
  P  P26  1  0.500000  0.500000  0.347443  1
  P  P27  1  0.000000  0.000000  0.652557  1
  P  P28  1  0.500000  0.314754  0.614748  1
  P  P29  1  0.500000  0.685246  0.614748  1
  P  P30  1  0.000000  0.185246  0.385252  1
  P  P31  1  0.000000  0.814754  0.385252  1
  P  P32  1  0.500000  0.846420  0.891786  1
  P  P33  1  0.500000  0.153580  0.891786  1
  P  P34  1  0.000000  0.653580  0.108214  1
  P  P35  1  0.000000  0.346420  0.108214  1
