# generated using pymatgen
data_Zr6Al16Cu3(OsRh)2
_symmetry_space_group_name_H-M   'P 1'
_cell_length_a   8.75272073
_cell_length_b   8.76435948
_cell_length_c   8.65024970
_cell_angle_alpha   59.72964056
_cell_angle_beta   60.47522017
_cell_angle_gamma   59.18364500
_symmetry_Int_Tables_number   1
_chemical_formula_structural   Zr6Al16Cu3(OsRh)2
_chemical_formula_sum   'Zr6 Al16 Cu3 Os2 Rh2'
_cell_volume   466.92861008
_cell_formula_units_Z   1
loop_
 _symmetry_equiv_pos_site_id
 _symmetry_equiv_pos_as_xyz
  1  'x, y, z'
loop_
 _atom_site_type_symbol
 _atom_site_label
 _atom_site_symmetry_multiplicity
 _atom_site_fract_x
 _atom_site_fract_y
 _atom_site_fract_z
 _atom_site_occupancy
  Zr  Zr0  1  0.700947  0.705057  0.294943  1
  Zr  Zr1  1  0.322486  0.678712  0.321288  1
  Zr  Zr2  1  0.697355  0.302645  0.302645  1
  Zr  Zr3  1  0.299053  0.294943  0.705057  1
  Zr  Zr4  1  0.677514  0.321288  0.678712  1
  Zr  Zr5  1  0.302645  0.697355  0.697355  1
  Al  Al6  1  0.889752  0.877149  0.359767  1
  Al  Al7  1  0.873331  0.359767  0.877149  1
  Al  Al8  1  0.357121  0.872520  0.886122  1
  Al  Al9  1  0.884235  0.886122  0.872520  1
  Al  Al10  1  0.110248  0.122851  0.640233  1
  Al  Al11  1  0.126669  0.640233  0.122851  1
  Al  Al12  1  0.642879  0.127480  0.113878  1
  Al  Al13  1  0.115765  0.113878  0.127480  1
  Al  Al14  1  0.668781  0.664932  0.002604  1
  Al  Al15  1  0.663682  0.002604  0.664932  1
  Al  Al16  1  0.006741  0.661623  0.667483  1
  Al  Al17  1  0.664152  0.667483  0.661623  1
  Al  Al18  1  0.331219  0.335068  0.997396  1
  Al  Al19  1  0.336318  0.997396  0.335068  1
  Al  Al20  1  0.993259  0.338377  0.332517  1
  Al  Al21  1  0.335848  0.332517  0.338377  1
  Cu  Cu22  1  0.500000  0.000000  0.500000  1
  Cu  Cu23  1  0.000000  0.500000  0.000000  1
  Cu  Cu24  1  0.500000  0.000000  0.000000  1
  Os  Os25  1  0.000000  0.000000  0.500000  1
  Os  Os26  1  0.500000  0.500000  0.000000  1
  Rh  Rh27  1  0.000000  0.000000  0.000000  1
  Rh  Rh28  1  0.000000  0.500000  0.500000  1
