# generated using pymatgen
data_Cs8MgHg3H16
_symmetry_space_group_name_H-M   'P 1'
_cell_length_a   6.59029800
_cell_length_b   8.76379670
_cell_length_c   11.66131001
_cell_angle_alpha   90.21107072
_cell_angle_beta   90.00000000
_cell_angle_gamma   90.00000000
_symmetry_Int_Tables_number   1
_chemical_formula_structural   Cs8MgHg3H16
_chemical_formula_sum   'Cs8 Mg1 Hg3 H16'
_cell_volume   673.50642213
_cell_formula_units_Z   1
loop_
 _symmetry_equiv_pos_site_id
 _symmetry_equiv_pos_as_xyz
  1  'x, y, z'
loop_
 _atom_site_type_symbol
 _atom_site_label
 _atom_site_symmetry_multiplicity
 _atom_site_fract_x
 _atom_site_fract_y
 _atom_site_fract_z
 _atom_site_occupancy
  Cs  Cs0  1  0.250000  0.162262  0.916002  1
  Cs  Cs1  1  0.250000  0.659360  0.583453  1
  Cs  Cs2  1  0.750000  0.837581  0.084710  1
  Cs  Cs3  1  0.750000  0.339383  0.415270  1
  Cs  Cs4  1  0.250000  0.491939  0.189949  1
  Cs  Cs5  1  0.250000  0.990164  0.310464  1
  Cs  Cs6  1  0.750000  0.510030  0.810432  1
  Cs  Cs7  1  0.750000  0.009473  0.688322  1
  Mg  Mg8  1  0.750000  0.764324  0.412678  1
  Hg  Hg9  1  0.250000  0.733978  0.912042  1
  Hg  Hg10  1  0.250000  0.233746  0.587742  1
  Hg  Hg11  1  0.750000  0.265854  0.087911  1
  H  H12  1  0.250000  0.528554  0.911892  1
  H  H13  1  0.250000  0.027595  0.587398  1
  H  H14  1  0.750000  0.471482  0.087996  1
  H  H15  1  0.750000  0.976169  0.412339  1
  H  H16  1  0.250000  0.816178  0.058523  1
  H  H17  1  0.250000  0.315113  0.441623  1
  H  H18  1  0.750000  0.184017  0.941240  1
  H  H19  1  0.750000  0.683667  0.561836  1
  H  H20  1  0.023326  0.810886  0.842045  1
  H  H21  1  0.476649  0.310151  0.658147  1
  H  H22  1  0.523429  0.188869  0.157986  1
  H  H23  1  0.981306  0.689659  0.340910  1
  H  H24  1  0.976571  0.188869  0.157986  1
  H  H25  1  0.518694  0.689659  0.340910  1
  H  H26  1  0.476674  0.810886  0.842045  1
  H  H27  1  0.023351  0.310151  0.658147  1
