# generated using pymatgen
data_Tb5DyAl24(RuRh3)2
_symmetry_space_group_name_H-M   'P 1'
_cell_length_a   8.85123715
_cell_length_b   8.84845404
_cell_length_c   9.51564400
_cell_angle_alpha   90.00000000
_cell_angle_beta   90.00000000
_cell_angle_gamma   119.98960388
_symmetry_Int_Tables_number   1
_chemical_formula_structural   Tb5DyAl24(RuRh3)2
_chemical_formula_sum   'Tb5 Dy1 Al24 Ru2 Rh6'
_cell_volume   645.48429522
_cell_formula_units_Z   1
loop_
 _symmetry_equiv_pos_site_id
 _symmetry_equiv_pos_as_xyz
  1  'x, y, z'
loop_
 _atom_site_type_symbol
 _atom_site_label
 _atom_site_symmetry_multiplicity
 _atom_site_fract_x
 _atom_site_fract_y
 _atom_site_fract_z
 _atom_site_occupancy
  Tb  Tb0  1  0.191754  0.808140  0.250000  1
  Tb  Tb1  1  0.191754  0.383613  0.250000  1
  Tb  Tb2  1  0.616485  0.808242  0.250000  1
  Tb  Tb3  1  0.808287  0.191707  0.750000  1
  Tb  Tb4  1  0.808287  0.616581  0.750000  1
  Dy  Dy5  1  0.383454  0.191727  0.750000  1
  Al  Al6  1  0.561937  0.438176  0.250000  1
  Al  Al7  1  0.561937  0.123760  0.250000  1
  Al  Al8  1  0.876211  0.438105  0.250000  1
  Al  Al9  1  0.438124  0.561689  0.750000  1
  Al  Al10  1  0.438124  0.876436  0.750000  1
  Al  Al11  1  0.123691  0.561846  0.750000  1
  Al  Al12  1  0.325828  0.162914  0.424122  1
  Al  Al13  1  0.837048  0.162917  0.424047  1
  Al  Al14  1  0.837048  0.674133  0.424047  1
  Al  Al15  1  0.674208  0.837104  0.576052  1
  Al  Al16  1  0.162969  0.837153  0.576115  1
  Al  Al17  1  0.162969  0.325815  0.576115  1
  Al  Al18  1  0.674208  0.837104  0.923948  1
  Al  Al19  1  0.162969  0.837153  0.923885  1
  Al  Al20  1  0.162969  0.325815  0.923885  1
  Al  Al21  1  0.325828  0.162914  0.075878  1
  Al  Al22  1  0.837048  0.162917  0.075953  1
  Al  Al23  1  0.837048  0.674133  0.075953  1
  Al  Al24  1  0.666644  0.333321  0.528550  1
  Al  Al25  1  0.333264  0.666633  0.471619  1
  Al  Al26  1  0.333264  0.666633  0.028381  1
  Al  Al27  1  0.666644  0.333321  0.971450  1
  Al  Al28  1  0.000017  0.000009  0.250000  1
  Al  Al29  1  0.000107  0.000053  0.750000  1
  Ru  Ru30  1  0.999988  0.999994  0.499966  1
  Ru  Ru31  1  0.999988  0.999994  0.000034  1
  Rh  Rh32  1  0.499994  0.499937  0.500068  1
  Rh  Rh33  1  0.499994  0.000058  0.500068  1
  Rh  Rh34  1  0.999959  0.499980  0.500050  1
  Rh  Rh35  1  0.499994  0.499937  0.999932  1
  Rh  Rh36  1  0.499994  0.000058  0.999932  1
  Rh  Rh37  1  0.999959  0.499980  0.999950  1
