# generated using pymatgen
data_Ce9Pr(Zn2Ru3)2
_symmetry_space_group_name_H-M   'P 1'
_cell_length_a   8.33682006
_cell_length_b   8.38666343
_cell_length_c   8.38668900
_cell_angle_alpha   109.84532313
_cell_angle_beta   109.33956694
_cell_angle_gamma   109.46993549
_symmetry_Int_Tables_number   1
_chemical_formula_structural   Ce9Pr(Zn2Ru3)2
_chemical_formula_sum   'Ce9 Pr1 Zn4 Ru6'
_cell_volume   450.04102116
_cell_formula_units_Z   1
loop_
 _symmetry_equiv_pos_site_id
 _symmetry_equiv_pos_as_xyz
  1  'x, y, z'
loop_
 _atom_site_type_symbol
 _atom_site_label
 _atom_site_symmetry_multiplicity
 _atom_site_fract_x
 _atom_site_fract_y
 _atom_site_fract_z
 _atom_site_occupancy
  Ce  Ce0  1  0.749601  0.805970  0.055921  1
  Ce  Ce1  1  0.444525  0.250498  0.694764  1
  Ce  Ce2  1  0.692880  0.442438  0.250097  1
  Ce  Ce3  1  0.055531  0.750693  0.806315  1
  Ce  Ce4  1  0.807981  0.058701  0.749292  1
  Ce  Ce5  1  0.215363  0.215539  0.213642  1
  Ce  Ce6  1  0.501719  0.000817  0.280686  1
  Ce  Ce7  1  0.284559  0.497655  0.999789  1
  Ce  Ce8  1  0.998284  0.279638  0.498452  1
  Pr  Pr9  1  0.250800  0.691147  0.440929  1
  Zn  Zn10  1  0.498801  0.997264  0.908367  1
  Zn  Zn11  1  0.588334  0.588062  0.590622  1
  Zn  Zn12  1  0.911917  0.502783  0.000380  1
  Zn  Zn13  1  0.001019  0.909948  0.498255  1
  Ru  Ru14  1  0.248948  0.133140  0.885066  1
  Ru  Ru15  1  0.750815  0.361962  0.611872  1
  Ru  Ru16  1  0.881662  0.252244  0.135810  1
  Ru  Ru17  1  0.125672  0.899746  0.239665  1
  Ru  Ru18  1  0.616678  0.748150  0.366085  1
  Ru  Ru19  1  0.374914  0.613605  0.773993  1
