# generated using pymatgen
data_EuNi9P5
_symmetry_space_group_name_H-M   'P 1'
_cell_length_a   6.49731900
_cell_length_b   6.49731848
_cell_length_c   10.73647000
_cell_angle_alpha   90.00000000
_cell_angle_beta   90.00000000
_cell_angle_gamma   119.99999755
_symmetry_Int_Tables_number   1
_chemical_formula_structural   EuNi9P5
_chemical_formula_sum   'Eu2 Ni18 P10'
_cell_volume   392.51883619
_cell_formula_units_Z   2
loop_
 _symmetry_equiv_pos_site_id
 _symmetry_equiv_pos_as_xyz
  1  'x, y, z'
loop_
 _atom_site_type_symbol
 _atom_site_label
 _atom_site_symmetry_multiplicity
 _atom_site_fract_x
 _atom_site_fract_y
 _atom_site_fract_z
 _atom_site_occupancy
  Eu  Eu0  1  0.000000  0.000000  0.000000  1
  Eu  Eu1  1  0.000000  0.000000  0.500000  1
  Ni  Ni2  1  0.535903  0.071808  0.107374  1
  Ni  Ni3  1  0.464097  0.535903  0.607374  1
  Ni  Ni4  1  0.071808  0.535903  0.607374  1
  Ni  Ni5  1  0.928192  0.464097  0.107374  1
  Ni  Ni6  1  0.535903  0.464097  0.107374  1
  Ni  Ni7  1  0.464097  0.928192  0.892626  1
  Ni  Ni8  1  0.464097  0.535903  0.892626  1
  Ni  Ni9  1  0.464097  0.928192  0.607374  1
  Ni  Ni10  1  0.071808  0.535903  0.892626  1
  Ni  Ni11  1  0.928192  0.464097  0.392626  1
  Ni  Ni12  1  0.535903  0.071808  0.392626  1
  Ni  Ni13  1  0.535903  0.464097  0.392626  1
  Ni  Ni14  1  0.202195  0.404389  0.250000  1
  Ni  Ni15  1  0.797805  0.202195  0.750000  1
  Ni  Ni16  1  0.404389  0.202195  0.750000  1
  Ni  Ni17  1  0.595611  0.797805  0.250000  1
  Ni  Ni18  1  0.202195  0.797805  0.250000  1
  Ni  Ni19  1  0.797805  0.595611  0.750000  1
  P  P20  1  0.826600  0.653199  0.250000  1
  P  P21  1  0.173400  0.826600  0.750000  1
  P  P22  1  0.653199  0.826600  0.750000  1
  P  P23  1  0.346801  0.173400  0.250000  1
  P  P24  1  0.826600  0.173400  0.250000  1
  P  P25  1  0.173400  0.346801  0.750000  1
  P  P26  1  0.333333  0.666667  0.061770  1
  P  P27  1  0.666667  0.333333  0.561770  1
  P  P28  1  0.666667  0.333333  0.938230  1
  P  P29  1  0.333333  0.666667  0.438230  1
