# generated using pymatgen
data_Lu3Al2Ga3Pt
_symmetry_space_group_name_H-M   'P 1'
_cell_length_a   6.84124803
_cell_length_b   6.84124854
_cell_length_c   4.24600000
_cell_angle_alpha   90.00000000
_cell_angle_beta   90.00000000
_cell_angle_gamma   119.74880713
_symmetry_Int_Tables_number   1
_chemical_formula_structural   Lu3Al2Ga3Pt
_chemical_formula_sum   'Lu3 Al2 Ga3 Pt1'
_cell_volume   172.53414278
_cell_formula_units_Z   1
loop_
 _symmetry_equiv_pos_site_id
 _symmetry_equiv_pos_as_xyz
  1  'x, y, z'
loop_
 _atom_site_type_symbol
 _atom_site_label
 _atom_site_symmetry_multiplicity
 _atom_site_fract_x
 _atom_site_fract_y
 _atom_site_fract_z
 _atom_site_occupancy
  Lu  Lu0  1  0.582993  0.999165  0.500000  1
  Lu  Lu1  1  0.419407  0.419407  0.500000  1
  Lu  Lu2  1  0.999165  0.582993  0.500000  1
  Al  Al3  1  0.237187  0.000817  0.000000  1
  Al  Al4  1  0.000817  0.237187  0.000000  1
  Ga  Ga5  1  0.666504  0.330856  0.000000  1
  Ga  Ga6  1  0.330856  0.666504  0.000000  1
  Ga  Ga7  1  0.755703  0.755703  0.000000  1
  Pt  Pt8  1  0.007366  0.007366  0.500000  1
