# generated using pymatgen
data_Hf2Zr(NbP)4
_symmetry_space_group_name_H-M   'P 1'
_cell_length_a   7.78364981
_cell_length_b   7.78364981
_cell_length_c   14.20597518
_cell_angle_alpha   76.46631828
_cell_angle_beta   76.46631783
_cell_angle_gamma   26.28738651
_symmetry_Int_Tables_number   1
_chemical_formula_structural   Hf2Zr(NbP)4
_chemical_formula_sum   'Hf4 Zr2 Nb8 P8'
_cell_volume   369.99912324
_cell_formula_units_Z   2
loop_
 _symmetry_equiv_pos_site_id
 _symmetry_equiv_pos_as_xyz
  1  'x, y, z'
loop_
 _atom_site_type_symbol
 _atom_site_label
 _atom_site_symmetry_multiplicity
 _atom_site_fract_x
 _atom_site_fract_y
 _atom_site_fract_z
 _atom_site_occupancy
  Hf  Hf0  1  0.998188  0.998188  0.665000  1
  Hf  Hf1  1  0.001812  0.001812  0.335000  1
  Hf  Hf2  1  0.822617  0.822617  0.543471  1
  Hf  Hf3  1  0.177383  0.177383  0.456529  1
  Zr  Zr4  1  0.659058  0.659058  0.031515  1
  Zr  Zr5  1  0.340942  0.340942  0.968485  1
  Nb  Nb6  1  0.209499  0.209499  0.203073  1
  Nb  Nb7  1  0.790501  0.790501  0.796927  1
  Nb  Nb8  1  0.195463  0.195463  0.692314  1
  Nb  Nb9  1  0.804537  0.804537  0.307686  1
  Nb  Nb10  1  0.429253  0.429253  0.169628  1
  Nb  Nb11  1  0.570747  0.570747  0.830372  1
  Nb  Nb12  1  0.500000  0.500000  0.500000  1
  Nb  Nb13  1  0.000000  0.000000  0.000000  1
  P  P14  1  0.059637  0.059637  0.152722  1
  P  P15  1  0.940363  0.940363  0.847278  1
  P  P16  1  0.369661  0.369661  0.663883  1
  P  P17  1  0.630339  0.630339  0.336117  1
  P  P18  1  0.371191  0.371191  0.399938  1
  P  P19  1  0.628809  0.628809  0.600062  1
  P  P20  1  0.176327  0.176327  0.887395  1
  P  P21  1  0.823673  0.823673  0.112605  1
