# generated using pymatgen
data_Nd17Er3(BiPb3)4
_symmetry_space_group_name_H-M   'P 1'
_cell_length_a   8.45632411
_cell_length_b   8.49566774
_cell_length_c   16.20035811
_cell_angle_alpha   89.90885887
_cell_angle_beta   90.07990408
_cell_angle_gamma   89.98548508
_symmetry_Int_Tables_number   1
_chemical_formula_structural   Nd17Er3(BiPb3)4
_chemical_formula_sum   'Nd17 Er3 Bi4 Pb12'
_cell_volume   1163.86542894
_cell_formula_units_Z   1
loop_
 _symmetry_equiv_pos_site_id
 _symmetry_equiv_pos_as_xyz
  1  'x, y, z'
loop_
 _atom_site_type_symbol
 _atom_site_label
 _atom_site_symmetry_multiplicity
 _atom_site_fract_x
 _atom_site_fract_y
 _atom_site_fract_z
 _atom_site_occupancy
  Nd  Nd0  1  0.386449  0.843062  0.881532  1
  Nd  Nd1  1  0.885704  0.658341  0.618886  1
  Nd  Nd2  1  0.613921  0.157395  0.380596  1
  Nd  Nd3  1  0.113864  0.342649  0.120003  1
  Nd  Nd4  1  0.618167  0.158786  0.118983  1
  Nd  Nd5  1  0.118459  0.341036  0.380366  1
  Nd  Nd6  1  0.382353  0.841941  0.618317  1
  Nd  Nd7  1  0.881901  0.659906  0.881546  1
  Nd  Nd8  1  0.553594  0.328865  0.894237  1
  Nd  Nd9  1  0.052184  0.169861  0.605634  1
  Nd  Nd10  1  0.446940  0.670147  0.393273  1
  Nd  Nd11  1  0.946392  0.828678  0.105983  1
  Nd  Nd12  1  0.458038  0.672349  0.104744  1
  Nd  Nd13  1  0.957903  0.826864  0.395658  1
  Nd  Nd14  1  0.542485  0.326815  0.603614  1
  Nd  Nd15  1  0.041094  0.172659  0.896060  1
  Nd  Nd16  1  0.216518  0.498764  0.747819  1
  Er  Er17  1  0.717612  0.998863  0.752429  1
  Er  Er18  1  0.781752  0.499569  0.247395  1
  Er  Er19  1  0.281870  0.000679  0.252308  1
  Bi  Bi20  1  0.270929  0.021709  0.049412  1
  Bi  Bi21  1  0.771902  0.478611  0.450741  1
  Bi  Bi22  1  0.728849  0.978628  0.548609  1
  Bi  Bi23  1  0.229632  0.522446  0.953891  1
  Pb  Pb24  1  0.726146  0.975401  0.953650  1
  Pb  Pb25  1  0.226807  0.527011  0.544918  1
  Pb  Pb26  1  0.274213  0.025172  0.452829  1
  Pb  Pb27  1  0.774549  0.475032  0.046940  1
  Pb  Pb28  1  0.582058  0.631613  0.749297  1
  Pb  Pb29  1  0.077762  0.872795  0.750941  1
  Pb  Pb30  1  0.421184  0.369654  0.248855  1
  Pb  Pb31  1  0.921037  0.129140  0.250801  1
  Pb  Pb32  1  0.357300  0.145067  0.750974  1
  Pb  Pb33  1  0.851060  0.349659  0.748499  1
  Pb  Pb34  1  0.644801  0.850972  0.251316  1
  Pb  Pb35  1  0.144574  0.649859  0.248943  1
