# generated using pymatgen
data_Li6Y2TmIn3
_symmetry_space_group_name_H-M   'P 1'
_cell_length_a   4.84690609
_cell_length_b   6.83995500
_cell_length_c   14.55318900
_cell_angle_alpha   90.00000000
_cell_angle_beta   90.01092270
_cell_angle_gamma   90.00000000
_symmetry_Int_Tables_number   1
_chemical_formula_structural   Li6Y2TmIn3
_chemical_formula_sum   'Li12 Y4 Tm2 In6'
_cell_volume   482.47632912
_cell_formula_units_Z   2
loop_
 _symmetry_equiv_pos_site_id
 _symmetry_equiv_pos_as_xyz
  1  'x, y, z'
loop_
 _atom_site_type_symbol
 _atom_site_label
 _atom_site_symmetry_multiplicity
 _atom_site_fract_x
 _atom_site_fract_y
 _atom_site_fract_z
 _atom_site_occupancy
  Li  Li0  1  0.499970  0.250000  0.000229  1
  Li  Li1  1  0.499970  0.750000  0.000229  1
  Li  Li2  1  0.000629  0.249855  0.166466  1
  Li  Li3  1  0.000629  0.750144  0.166466  1
  Li  Li4  1  0.500585  0.250551  0.333093  1
  Li  Li5  1  0.500585  0.749448  0.333093  1
  Li  Li6  1  0.999993  0.249854  0.499940  1
  Li  Li7  1  0.999993  0.750145  0.499940  1
  Li  Li8  1  0.499410  0.250321  0.666711  1
  Li  Li9  1  0.499410  0.749678  0.666711  1
  Li  Li10  1  0.999406  0.249423  0.833588  1
  Li  Li11  1  0.999406  0.750576  0.833588  1
  Y  Y12  1  0.000668  0.000000  0.333655  1
  Y  Y13  1  0.500066  0.500000  0.500115  1
  Y  Y14  1  0.999417  0.000000  0.666437  1
  Y  Y15  1  0.499303  0.500000  0.833108  1
  Tm  Tm16  1  0.999828  0.000000  0.999812  1
  Tm  Tm17  1  0.500847  0.500000  0.166737  1
  In  In18  1  0.000081  0.500000  0.000338  1
  In  In19  1  0.500478  0.000000  0.166214  1
  In  In20  1  0.000311  0.500000  0.333075  1
  In  In21  1  0.500013  0.000000  0.499982  1
  In  In22  1  0.999494  0.500000  0.666616  1
  In  In23  1  0.499515  0.000000  0.833853  1
