# generated using pymatgen
data_La3Ce2Pb3I
_symmetry_space_group_name_H-M   'P 1'
_cell_length_a   9.83931300
_cell_length_b   9.83931324
_cell_length_c   6.93321300
_cell_angle_alpha   90.00000000
_cell_angle_beta   90.00000000
_cell_angle_gamma   120.00000256
_symmetry_Int_Tables_number   1
_chemical_formula_structural   La3Ce2Pb3I
_chemical_formula_sum   'La6 Ce4 Pb6 I2'
_cell_volume   581.29250865
_cell_formula_units_Z   2
loop_
 _symmetry_equiv_pos_site_id
 _symmetry_equiv_pos_as_xyz
  1  'x, y, z'
loop_
 _atom_site_type_symbol
 _atom_site_label
 _atom_site_symmetry_multiplicity
 _atom_site_fract_x
 _atom_site_fract_y
 _atom_site_fract_z
 _atom_site_occupancy
  La  La0  1  0.720552  0.000000  0.750000  1
  La  La1  1  0.000000  0.279448  0.250000  1
  La  La2  1  0.720552  0.720552  0.250000  1
  La  La3  1  0.279448  0.000000  0.250000  1
  La  La4  1  0.279448  0.279448  0.750000  1
  La  La5  1  0.000000  0.720552  0.750000  1
  Ce  Ce6  1  0.333333  0.666667  0.500000  1
  Ce  Ce7  1  0.333333  0.666667  0.000000  1
  Ce  Ce8  1  0.666667  0.333333  0.500000  1
  Ce  Ce9  1  0.666667  0.333333  0.000000  1
  Pb  Pb10  1  0.383469  0.000000  0.750000  1
  Pb  Pb11  1  0.616531  0.000000  0.250000  1
  Pb  Pb12  1  0.000000  0.616531  0.250000  1
  Pb  Pb13  1  0.616531  0.616531  0.750000  1
  Pb  Pb14  1  0.000000  0.383469  0.750000  1
  Pb  Pb15  1  0.383469  0.383469  0.250000  1
  I  I16  1  0.000000  0.000000  0.500000  1
  I  I17  1  0.000000  0.000000  0.000000  1
