# generated using pymatgen
data_Li16Zn3Si6Pd
_symmetry_space_group_name_H-M   'P 1'
_cell_length_a   9.16069711
_cell_length_b   9.16069726
_cell_length_c   9.16069710
_cell_angle_alpha   47.55353898
_cell_angle_beta   47.55354023
_cell_angle_gamma   47.55353082
_symmetry_Int_Tables_number   1
_chemical_formula_structural   Li16Zn3Si6Pd
_chemical_formula_sum   'Li16 Zn3 Si6 Pd1'
_cell_volume   383.10413339
_cell_formula_units_Z   1
loop_
 _symmetry_equiv_pos_site_id
 _symmetry_equiv_pos_as_xyz
  1  'x, y, z'
loop_
 _atom_site_type_symbol
 _atom_site_label
 _atom_site_symmetry_multiplicity
 _atom_site_fract_x
 _atom_site_fract_y
 _atom_site_fract_z
 _atom_site_occupancy
  Li  Li0  1  0.058209  0.058209  0.058209  1
  Li  Li1  1  0.300362  0.595152  0.953185  1
  Li  Li2  1  0.559858  0.559858  0.559858  1
  Li  Li3  1  0.207765  0.908642  0.558498  1
  Li  Li4  1  0.595152  0.953185  0.300362  1
  Li  Li5  1  0.057346  0.409981  0.706944  1
  Li  Li6  1  0.908642  0.558498  0.207765  1
  Li  Li7  1  0.798108  0.455863  0.093623  1
  Li  Li8  1  0.953185  0.300362  0.595152  1
  Li  Li9  1  0.558498  0.207765  0.908642  1
  Li  Li10  1  0.455863  0.093623  0.798108  1
  Li  Li11  1  0.706944  0.057346  0.409981  1
  Li  Li12  1  0.093623  0.798108  0.455863  1
  Li  Li13  1  0.455799  0.455799  0.455799  1
  Li  Li14  1  0.954980  0.954980  0.954980  1
  Li  Li15  1  0.409981  0.706944  0.057346  1
  Zn  Zn16  1  0.335993  0.335993  0.335993  1
  Zn  Zn17  1  0.836073  0.836073  0.836073  1
  Zn  Zn18  1  0.174348  0.174348  0.174348  1
  Si  Si19  1  0.179298  0.503169  0.829742  1
  Si  Si20  1  0.680252  0.332594  0.999690  1
  Si  Si21  1  0.829742  0.179298  0.503169  1
  Si  Si22  1  0.332594  0.999690  0.680252  1
  Si  Si23  1  0.999690  0.680252  0.332594  1
  Si  Si24  1  0.503169  0.829742  0.179298  1
  Pd  Pd25  1  0.671269  0.671269  0.671269  1
