# generated using pymatgen
data_YbCe3Pa2(TiSb5)2
_symmetry_space_group_name_H-M   'P 1'
_cell_length_a   9.19221745
_cell_length_b   9.26347747
_cell_length_c   6.21350000
_cell_angle_alpha   90.00000000
_cell_angle_beta   90.00000000
_cell_angle_gamma   119.72547501
_symmetry_Int_Tables_number   1
_chemical_formula_structural   YbCe3Pa2(TiSb5)2
_chemical_formula_sum   'Yb1 Ce3 Pa2 Ti2 Sb10'
_cell_volume   459.46879987
_cell_formula_units_Z   1
loop_
 _symmetry_equiv_pos_site_id
 _symmetry_equiv_pos_as_xyz
  1  'x, y, z'
loop_
 _atom_site_type_symbol
 _atom_site_label
 _atom_site_symmetry_multiplicity
 _atom_site_fract_x
 _atom_site_fract_y
 _atom_site_fract_z
 _atom_site_occupancy
  Yb  Yb0  1  0.995151  0.616124  0.250000  1
  Ce  Ce1  1  0.004833  0.389237  0.750000  1
  Ce  Ce2  1  0.383329  0.387138  0.250000  1
  Ce  Ce3  1  0.619111  0.613417  0.750000  1
  Pa  Pa4  1  0.609759  0.999891  0.250000  1
  Pa  Pa5  1  0.387920  0.998238  0.750000  1
  Ti  Ti6  1  0.000050  0.998669  0.003007  1
  Ti  Ti7  1  0.000050  0.998669  0.496993  1
  Sb  Sb8  1  0.262164  0.000635  0.250000  1
  Sb  Sb9  1  0.739993  0.000448  0.750000  1
  Sb  Sb10  1  0.995083  0.256422  0.250000  1
  Sb  Sb11  1  0.005297  0.746247  0.750000  1
  Sb  Sb12  1  0.738943  0.745230  0.250000  1
  Sb  Sb13  1  0.258540  0.253483  0.750000  1
  Sb  Sb14  1  0.335641  0.672404  0.000508  1
  Sb  Sb15  1  0.664247  0.325672  0.000093  1
  Sb  Sb16  1  0.664247  0.325672  0.499907  1
  Sb  Sb17  1  0.335641  0.672404  0.499492  1
