# generated using pymatgen
data_Dy8Ho4Co6Hg
_symmetry_space_group_name_H-M   'P 1'
_cell_length_a   8.35198321
_cell_length_b   8.35198323
_cell_length_c   8.35198300
_cell_angle_alpha   109.43221422
_cell_angle_beta   109.41566555
_cell_angle_gamma   109.56582295
_symmetry_Int_Tables_number   1
_chemical_formula_structural   Dy8Ho4Co6Hg
_chemical_formula_sum   'Dy8 Ho4 Co6 Hg1'
_cell_volume   448.48306215
_cell_formula_units_Z   1
loop_
 _symmetry_equiv_pos_site_id
 _symmetry_equiv_pos_as_xyz
  1  'x, y, z'
loop_
 _atom_site_type_symbol
 _atom_site_label
 _atom_site_symmetry_multiplicity
 _atom_site_fract_x
 _atom_site_fract_y
 _atom_site_fract_z
 _atom_site_occupancy
  Dy  Dy0  1  0.806283  0.697527  0.503810  1
  Dy  Dy1  1  0.193717  0.302473  0.496190  1
  Dy  Dy2  1  0.193717  0.697527  0.891244  1
  Dy  Dy3  1  0.806283  0.302473  0.108756  1
  Dy  Dy4  1  0.697842  0.504199  0.806358  1
  Dy  Dy5  1  0.302158  0.495801  0.193642  1
  Dy  Dy6  1  0.697842  0.891484  0.193642  1
  Dy  Dy7  1  0.302158  0.108516  0.806358  1
  Ho  Ho8  1  0.503229  0.806437  0.696792  1
  Ho  Ho9  1  0.496771  0.193563  0.303208  1
  Ho  Ho10  1  0.109646  0.806437  0.303208  1
  Ho  Ho11  1  0.890354  0.193563  0.696792  1
  Co  Co12  1  0.886236  0.386236  0.500000  1
  Co  Co13  1  0.113764  0.613764  0.500000  1
  Co  Co14  1  0.386368  0.500000  0.886368  1
  Co  Co15  1  0.613632  0.500000  0.113632  1
  Co  Co16  1  0.500000  0.886457  0.386457  1
  Co  Co17  1  0.500000  0.113543  0.613543  1
  Hg  Hg18  1  0.000000  0.000000  0.000000  1
