# generated using pymatgen
data_YbDy2Y(B6Ru)2
_symmetry_space_group_name_H-M   'P 1'
_cell_length_a   3.66011200
_cell_length_b   9.14725965
_cell_length_c   11.53751203
_cell_angle_alpha   89.80263141
_cell_angle_beta   90.00000000
_cell_angle_gamma   90.00000000
_symmetry_Int_Tables_number   1
_chemical_formula_structural   YbDy2Y(B6Ru)2
_chemical_formula_sum   'Yb2 Dy4 Y2 B24 Ru4'
_cell_volume   386.27355135
_cell_formula_units_Z   2
loop_
 _symmetry_equiv_pos_site_id
 _symmetry_equiv_pos_as_xyz
  1  'x, y, z'
loop_
 _atom_site_type_symbol
 _atom_site_label
 _atom_site_symmetry_multiplicity
 _atom_site_fract_x
 _atom_site_fract_y
 _atom_site_fract_z
 _atom_site_occupancy
  Yb  Yb0  1  0.000000  0.325640  0.414927  1
  Yb  Yb1  1  0.000000  0.674360  0.585073  1
  Dy  Dy2  1  0.000000  0.941762  0.369738  1
  Dy  Dy3  1  0.000000  0.058238  0.630262  1
  Dy  Dy4  1  0.000000  0.442603  0.131272  1
  Dy  Dy5  1  0.000000  0.557397  0.868728  1
  Y  Y6  1  0.000000  0.822825  0.086202  1
  Y  Y7  1  0.000000  0.177175  0.913798  1
  B  B8  1  0.500000  0.554261  0.432545  1
  B  B9  1  0.500000  0.445739  0.567455  1
  B  B10  1  0.500000  0.053866  0.067021  1
  B  B11  1  0.500000  0.946134  0.932979  1
  B  B12  1  0.500000  0.747452  0.418156  1
  B  B13  1  0.500000  0.252548  0.581844  1
  B  B14  1  0.500000  0.247977  0.081413  1
  B  B15  1  0.500000  0.752023  0.918587  1
  B  B16  1  0.500000  0.790731  0.265287  1
  B  B17  1  0.500000  0.209269  0.734713  1
  B  B18  1  0.500000  0.289699  0.234434  1
  B  B19  1  0.500000  0.710301  0.765566  1
  B  B20  1  0.500000  0.631676  0.185765  1
  B  B21  1  0.500000  0.368324  0.814235  1
  B  B22  1  0.500000  0.131246  0.313832  1
  B  B23  1  0.500000  0.868754  0.686168  1
  B  B24  1  0.500000  0.983929  0.211679  1
  B  B25  1  0.500000  0.016071  0.788321  1
  B  B26  1  0.500000  0.484501  0.288634  1
  B  B27  1  0.500000  0.515499  0.711366  1
  B  B28  1  0.500000  0.604375  0.028760  1
  B  B29  1  0.500000  0.395625  0.971240  1
  B  B30  1  0.500000  0.100411  0.472146  1
  B  B31  1  0.500000  0.899589  0.527854  1
  Ru  Ru32  1  0.000000  0.639763  0.319451  1
  Ru  Ru33  1  0.000000  0.360237  0.680549  1
  Ru  Ru34  1  0.000000  0.137069  0.178120  1
  Ru  Ru35  1  0.000000  0.862931  0.821880  1
