# generated using pymatgen
data_Er8ReB24Mo2Ir
_symmetry_space_group_name_H-M   'P 1'
_cell_length_a   3.64418000
_cell_length_b   9.17058241
_cell_length_c   11.55048005
_cell_angle_alpha   90.14279905
_cell_angle_beta   90.00000000
_cell_angle_gamma   90.00000000
_symmetry_Int_Tables_number   1
_chemical_formula_structural   Er8ReB24Mo2Ir
_chemical_formula_sum   'Er8 Re1 B24 Mo2 Ir1'
_cell_volume   386.00721617
_cell_formula_units_Z   1
loop_
 _symmetry_equiv_pos_site_id
 _symmetry_equiv_pos_as_xyz
  1  'x, y, z'
loop_
 _atom_site_type_symbol
 _atom_site_label
 _atom_site_symmetry_multiplicity
 _atom_site_fract_x
 _atom_site_fract_y
 _atom_site_fract_z
 _atom_site_occupancy
  Er  Er0  1  0.000000  0.318042  0.414844  1
  Er  Er1  1  0.000000  0.680457  0.590444  1
  Er  Er2  1  0.000000  0.824583  0.080850  1
  Er  Er3  1  0.000000  0.176651  0.912885  1
  Er  Er4  1  0.000000  0.942746  0.371192  1
  Er  Er5  1  0.000000  0.054698  0.628909  1
  Er  Er6  1  0.000000  0.442923  0.128414  1
  Er  Er7  1  0.000000  0.558237  0.872307  1
  Re  Re8  1  0.000000  0.861257  0.820296  1
  B  B9  1  0.500000  0.554000  0.433428  1
  B  B10  1  0.500000  0.448984  0.564542  1
  B  B11  1  0.500000  0.051487  0.064755  1
  B  B12  1  0.500000  0.947193  0.932210  1
  B  B13  1  0.500000  0.748935  0.420068  1
  B  B14  1  0.500000  0.248142  0.578900  1
  B  B15  1  0.500000  0.251036  0.079107  1
  B  B16  1  0.500000  0.752215  0.918895  1
  B  B17  1  0.500000  0.791092  0.264962  1
  B  B18  1  0.500000  0.205909  0.735382  1
  B  B19  1  0.500000  0.294316  0.236746  1
  B  B20  1  0.500000  0.708368  0.766347  1
  B  B21  1  0.500000  0.631702  0.184364  1
  B  B22  1  0.500000  0.369787  0.815915  1
  B  B23  1  0.500000  0.130668  0.317303  1
  B  B24  1  0.500000  0.868655  0.685885  1
  B  B25  1  0.500000  0.978252  0.212049  1
  B  B26  1  0.500000  0.017640  0.787424  1
  B  B27  1  0.500000  0.482833  0.287976  1
  B  B28  1  0.500000  0.522113  0.712508  1
  B  B29  1  0.500000  0.603954  0.029662  1
  B  B30  1  0.500000  0.398241  0.972002  1
  B  B31  1  0.500000  0.099964  0.471667  1
  B  B32  1  0.500000  0.895651  0.528302  1
  Mo  Mo33  1  0.000000  0.362580  0.677824  1
  Mo  Mo34  1  0.000000  0.138431  0.180307  1
  Ir  Ir35  1  0.000000  0.638260  0.321328  1
