# generated using pymatgen
data_Er5Ga2P10Ir8Rh11
_symmetry_space_group_name_H-M   'P 1'
_cell_length_a   12.76526323
_cell_length_b   12.74411316
_cell_length_c   3.95710400
_cell_angle_alpha   90.00000000
_cell_angle_beta   90.00000000
_cell_angle_gamma   119.94520714
_symmetry_Int_Tables_number   1
_chemical_formula_structural   Er5Ga2P10Ir8Rh11
_chemical_formula_sum   'Er5 Ga2 P10 Ir8 Rh11'
_cell_volume   557.81091993
_cell_formula_units_Z   1
loop_
 _symmetry_equiv_pos_site_id
 _symmetry_equiv_pos_as_xyz
  1  'x, y, z'
loop_
 _atom_site_type_symbol
 _atom_site_label
 _atom_site_symmetry_multiplicity
 _atom_site_fract_x
 _atom_site_fract_y
 _atom_site_fract_z
 _atom_site_occupancy
  Er  Er0  1  0.662121  0.328898  0.000000  1
  Er  Er1  1  0.337879  0.666778  0.000000  1
  Er  Er2  1  0.823646  0.820502  0.500000  1
  Er  Er3  1  0.176354  0.996856  0.500000  1
  Er  Er4  1  0.000000  0.184419  0.500000  1
  Ga  Ga5  1  0.640514  0.640748  0.000000  1
  Ga  Ga6  1  0.359486  0.000233  0.000000  1
  P  P7  1  0.682117  0.165086  0.500000  1
  P  P8  1  0.822878  0.512190  0.500000  1
  P  P9  1  0.478090  0.312567  0.500000  1
  P  P10  1  0.177122  0.689312  0.500000  1
  P  P11  1  0.521910  0.834477  0.500000  1
  P  P12  1  0.317883  0.482969  0.500000  1
  P  P13  1  0.000000  0.360428  0.000000  1
  P  P14  1  0.176474  0.178057  0.000000  1
  P  P15  1  0.823526  0.001582  0.000000  1
  P  P16  1  0.000000  0.813773  0.000000  1
  Ir  Ir17  1  0.000000  0.712838  0.500000  1
  Ir  Ir18  1  0.862286  0.355737  0.500000  1
  Ir  Ir19  1  0.635067  0.504863  0.500000  1
  Ir  Ir20  1  0.489848  0.136366  0.500000  1
  Ir  Ir21  1  0.364933  0.869795  0.500000  1
  Ir  Ir22  1  0.510152  0.646516  0.500000  1
  Ir  Ir23  1  0.137714  0.493449  0.500000  1
  Ir  Ir24  1  0.000000  0.994630  0.000000  1
  Rh  Rh25  1  0.813706  0.182864  0.000000  1
  Rh  Rh26  1  0.824958  0.615403  0.000000  1
  Rh  Rh27  1  0.375066  0.206414  0.000000  1
  Rh  Rh28  1  0.175042  0.790444  0.000000  1
  Rh  Rh29  1  0.624934  0.831347  0.000000  1
  Rh  Rh30  1  0.186294  0.369159  0.000000  1
  Rh  Rh31  1  0.437210  0.456883  0.000000  1
  Rh  Rh32  1  0.562790  0.019674  0.000000  1
  Rh  Rh33  1  0.000000  0.537700  0.000000  1
  Rh  Rh34  1  0.277051  0.282048  0.500000  1
  Rh  Rh35  1  0.722949  0.004998  0.500000  1
