# generated using pymatgen
data_SrTb2Dy(Mo2O7)2
_symmetry_space_group_name_H-M   'P 1'
_cell_length_a   7.37144786
_cell_length_b   7.47722354
_cell_length_c   7.37527700
_cell_angle_alpha   60.44999823
_cell_angle_beta   59.98281059
_cell_angle_gamma   60.44220016
_symmetry_Int_Tables_number   1
_chemical_formula_structural   SrTb2Dy(Mo2O7)2
_chemical_formula_sum   'Sr1 Tb2 Dy1 Mo4 O14'
_cell_volume   289.33100801
_cell_formula_units_Z   1
loop_
 _symmetry_equiv_pos_site_id
 _symmetry_equiv_pos_as_xyz
  1  'x, y, z'
loop_
 _atom_site_type_symbol
 _atom_site_label
 _atom_site_symmetry_multiplicity
 _atom_site_fract_x
 _atom_site_fract_y
 _atom_site_fract_z
 _atom_site_occupancy
  Sr  Sr0  1  0.125000  0.625000  0.125000  1
  Tb  Tb1  1  0.125000  0.125000  0.625000  1
  Tb  Tb2  1  0.125000  0.125000  0.125000  1
  Dy  Dy3  1  0.625000  0.125000  0.125000  1
  Mo  Mo4  1  0.125000  0.625000  0.625000  1
  Mo  Mo5  1  0.625000  0.125000  0.625000  1
  Mo  Mo6  1  0.625000  0.625000  0.125000  1
  Mo  Mo7  1  0.625000  0.625000  0.625000  1
  O  O8  1  0.692012  0.726111  0.290939  1
  O  O9  1  0.299266  0.286854  0.706940  1
  O  O10  1  0.706826  0.286777  0.707208  1
  O  O11  1  0.291043  0.725660  0.291140  1
  O  O12  1  0.291043  0.725660  0.692158  1
  O  O13  1  0.706826  0.286777  0.299189  1
  O  O14  1  0.557988  0.523889  0.959061  1
  O  O15  1  0.950734  0.963146  0.543060  1
  O  O16  1  0.543174  0.963223  0.542792  1
  O  O17  1  0.958957  0.524340  0.958860  1
  O  O18  1  0.958957  0.524340  0.557842  1
  O  O19  1  0.543174  0.963223  0.950811  1
  O  O20  1  0.258473  0.227820  0.256854  1
  O  O21  1  0.991527  0.022180  0.993146  1
