# generated using pymatgen
data_Tb3Eu2DyTa2O14
_symmetry_space_group_name_H-M   'P 1'
_cell_length_a   6.51289095
_cell_length_b   6.51190986
_cell_length_c   7.56997688
_cell_angle_alpha   90.04456153
_cell_angle_beta   89.95446800
_cell_angle_gamma   108.79492188
_symmetry_Int_Tables_number   1
_chemical_formula_structural   Tb3Eu2DyTa2O14
_chemical_formula_sum   'Tb3 Eu2 Dy1 Ta2 O14'
_cell_volume   303.93361622
_cell_formula_units_Z   1
loop_
 _symmetry_equiv_pos_site_id
 _symmetry_equiv_pos_as_xyz
  1  'x, y, z'
loop_
 _atom_site_type_symbol
 _atom_site_label
 _atom_site_symmetry_multiplicity
 _atom_site_fract_x
 _atom_site_fract_y
 _atom_site_fract_z
 _atom_site_occupancy
  Tb  Tb0  1  0.000060  0.465056  0.748858  1
  Tb  Tb1  1  0.999724  0.534916  0.248974  1
  Tb  Tb2  1  0.534695  0.999885  0.751022  1
  Eu  Eu3  1  0.502819  0.502753  0.499799  1
  Eu  Eu4  1  0.496463  0.496330  0.000190  1
  Dy  Dy5  1  0.465573  0.999857  0.251141  1
  Ta  Ta6  1  0.000023  0.000077  0.499721  1
  Ta  Ta7  1  0.999869  0.999906  0.000213  1
  O  O8  1  0.638694  0.360904  0.750175  1
  O  O9  1  0.361099  0.640282  0.249805  1
  O  O10  1  0.934421  0.064890  0.750070  1
  O  O11  1  0.065969  0.934482  0.249886  1
  O  O12  1  0.931323  0.680561  0.531901  1
  O  O13  1  0.068605  0.319713  0.031744  1
  O  O14  1  0.319746  0.067727  0.968770  1
  O  O15  1  0.680969  0.933119  0.466925  1
  O  O16  1  0.367479  0.632664  0.749954  1
  O  O17  1  0.631789  0.365717  0.250083  1
  O  O18  1  0.934701  0.682903  0.965646  1
  O  O19  1  0.065302  0.317318  0.465918  1
  O  O20  1  0.317335  0.064374  0.533608  1
  O  O21  1  0.683342  0.936568  0.035596  1
