# generated using pymatgen
data_GdLu7(AlPt)2
_symmetry_space_group_name_H-M   'P 1'
_cell_length_a   9.43022352
_cell_length_b   9.43022430
_cell_length_c   9.41880400
_cell_angle_alpha   60.04005254
_cell_angle_beta   60.04004978
_cell_angle_gamma   59.91989571
_symmetry_Int_Tables_number   1
_chemical_formula_structural   GdLu7(AlPt)2
_chemical_formula_sum   'Gd2 Lu14 Al4 Pt4'
_cell_volume   592.27512412
_cell_formula_units_Z   2
loop_
 _symmetry_equiv_pos_site_id
 _symmetry_equiv_pos_as_xyz
  1  'x, y, z'
loop_
 _atom_site_type_symbol
 _atom_site_label
 _atom_site_symmetry_multiplicity
 _atom_site_fract_x
 _atom_site_fract_y
 _atom_site_fract_z
 _atom_site_occupancy
  Gd  Gd0  1  0.569310  0.569310  0.930690  1
  Gd  Gd1  1  0.930690  0.930690  0.569310  1
  Lu  Lu2  1  0.355517  0.355517  0.352000  1
  Lu  Lu3  1  0.355517  0.355517  0.936967  1
  Lu  Lu4  1  0.352000  0.936967  0.355517  1
  Lu  Lu5  1  0.936967  0.352000  0.355517  1
  Lu  Lu6  1  0.807566  0.192434  0.192434  1
  Lu  Lu7  1  0.192434  0.807566  0.807566  1
  Lu  Lu8  1  0.192434  0.807566  0.192434  1
  Lu  Lu9  1  0.807566  0.192434  0.807566  1
  Lu  Lu10  1  0.193095  0.193095  0.806905  1
  Lu  Lu11  1  0.806905  0.806905  0.193095  1
  Lu  Lu12  1  0.938614  0.561386  0.561386  1
  Lu  Lu13  1  0.561386  0.938614  0.938614  1
  Lu  Lu14  1  0.561386  0.938614  0.561386  1
  Lu  Lu15  1  0.938614  0.561386  0.938614  1
  Al  Al16  1  0.578295  0.578295  0.577744  1
  Al  Al17  1  0.578295  0.578295  0.265665  1
  Al  Al18  1  0.577744  0.265665  0.578295  1
  Al  Al19  1  0.265665  0.577744  0.578295  1
  Pt  Pt20  1  0.145070  0.145070  0.139692  1
  Pt  Pt21  1  0.145070  0.145070  0.570169  1
  Pt  Pt22  1  0.139692  0.570169  0.145070  1
  Pt  Pt23  1  0.570169  0.139692  0.145070  1
