# generated using pymatgen
data_MgInCu3Ir
_symmetry_space_group_name_H-M   'P 1'
_cell_length_a   5.24242961
_cell_length_b   5.24242909
_cell_length_c   5.24242953
_cell_angle_alpha   55.79618202
_cell_angle_beta   55.79618826
_cell_angle_gamma   55.79617779
_symmetry_Int_Tables_number   1
_chemical_formula_structural   MgInCu3Ir
_chemical_formula_sum   'Mg1 In1 Cu3 Ir1'
_cell_volume   91.94754174
_cell_formula_units_Z   1
loop_
 _symmetry_equiv_pos_site_id
 _symmetry_equiv_pos_as_xyz
  1  'x, y, z'
loop_
 _atom_site_type_symbol
 _atom_site_label
 _atom_site_symmetry_multiplicity
 _atom_site_fract_x
 _atom_site_fract_y
 _atom_site_fract_z
 _atom_site_occupancy
  Mg  Mg0  1  0.001989  0.001989  0.001989  1
  In  In1  1  0.745284  0.745284  0.745284  1
  Cu  Cu2  1  0.876468  0.375301  0.375301  1
  Cu  Cu3  1  0.375301  0.876468  0.375301  1
  Cu  Cu4  1  0.375301  0.375301  0.876468  1
  Ir  Ir5  1  0.375657  0.375657  0.375657  1
