# generated using pymatgen
data_Nd5Co16(TcP4)3
_symmetry_space_group_name_H-M   'P 1'
_cell_length_a   12.17335200
_cell_length_b   12.17335143
_cell_length_c   3.76321000
_cell_angle_alpha   90.00000000
_cell_angle_beta   90.00000000
_cell_angle_gamma   119.99999612
_symmetry_Int_Tables_number   1
_chemical_formula_structural   Nd5Co16(TcP4)3
_chemical_formula_sum   'Nd5 Co16 Tc3 P12'
_cell_volume   482.95808705
_cell_formula_units_Z   1
loop_
 _symmetry_equiv_pos_site_id
 _symmetry_equiv_pos_as_xyz
  1  'x, y, z'
loop_
 _atom_site_type_symbol
 _atom_site_label
 _atom_site_symmetry_multiplicity
 _atom_site_fract_x
 _atom_site_fract_y
 _atom_site_fract_z
 _atom_site_occupancy
  Nd  Nd0  1  0.666667  0.333333  0.000000  1
  Nd  Nd1  1  0.333333  0.666667  0.000000  1
  Nd  Nd2  1  0.186235  0.186235  0.500000  1
  Nd  Nd3  1  0.813765  0.000000  0.500000  1
  Nd  Nd4  1  0.000000  0.813765  0.500000  1
  Co  Co5  1  0.821046  0.198760  0.000000  1
  Co  Co6  1  0.801240  0.622286  0.000000  1
  Co  Co7  1  0.377714  0.178954  0.000000  1
  Co  Co8  1  0.198760  0.821046  0.000000  1
  Co  Co9  1  0.622286  0.801240  0.000000  1
  Co  Co10  1  0.178954  0.377714  0.000000  1
  Co  Co11  1  0.641350  0.123944  0.500000  1
  Co  Co12  1  0.876056  0.517405  0.500000  1
  Co  Co13  1  0.482595  0.358650  0.500000  1
  Co  Co14  1  0.123944  0.641350  0.500000  1
  Co  Co15  1  0.517405  0.876056  0.500000  1
  Co  Co16  1  0.358650  0.482595  0.500000  1
  Co  Co17  1  0.716823  0.716823  0.500000  1
  Co  Co18  1  0.283177  0.000000  0.500000  1
  Co  Co19  1  0.000000  0.283177  0.500000  1
  Co  Co20  1  0.000000  0.000000  0.000000  1
  Tc  Tc21  1  0.555807  0.555807  0.000000  1
  Tc  Tc22  1  0.444193  0.000000  0.000000  1
  Tc  Tc23  1  0.000000  0.444193  0.000000  1
  P  P24  1  0.367202  0.367202  0.000000  1
  P  P25  1  0.632798  0.000000  0.000000  1
  P  P26  1  0.000000  0.632798  0.000000  1
  P  P27  1  0.836661  0.312946  0.500000  1
  P  P28  1  0.687054  0.523715  0.500000  1
  P  P29  1  0.476285  0.163339  0.500000  1
  P  P30  1  0.312946  0.836661  0.500000  1
  P  P31  1  0.523715  0.687054  0.500000  1
  P  P32  1  0.163339  0.476285  0.500000  1
  P  P33  1  0.817882  0.817882  0.000000  1
  P  P34  1  0.182118  0.000000  0.000000  1
  P  P35  1  0.000000  0.182118  0.000000  1
