# generated using pymatgen
data_Dy2Ti(Ge2Mo)2
_symmetry_space_group_name_H-M   'P 1'
_cell_length_a   7.05009000
_cell_length_b   6.95757935
_cell_length_c   7.04381922
_cell_angle_alpha   70.61756134
_cell_angle_beta   90.00000000
_cell_angle_gamma   90.00000000
_symmetry_Int_Tables_number   1
_chemical_formula_structural   Dy2Ti(Ge2Mo)2
_chemical_formula_sum   'Dy4 Ti2 Ge8 Mo4'
_cell_volume   325.92832783
_cell_formula_units_Z   2
loop_
 _symmetry_equiv_pos_site_id
 _symmetry_equiv_pos_as_xyz
  1  'x, y, z'
loop_
 _atom_site_type_symbol
 _atom_site_label
 _atom_site_symmetry_multiplicity
 _atom_site_fract_x
 _atom_site_fract_y
 _atom_site_fract_z
 _atom_site_occupancy
  Dy  Dy0  1  0.829595  0.055347  0.812693  1
  Dy  Dy1  1  0.329595  0.444653  0.187307  1
  Dy  Dy2  1  0.173770  0.940436  0.191294  1
  Dy  Dy3  1  0.673770  0.559564  0.808706  1
  Ti  Ti4  1  0.332056  0.245975  0.745702  1
  Ti  Ti5  1  0.832056  0.254025  0.254298  1
  Ge  Ge6  1  0.042697  0.358968  0.910278  1
  Ge  Ge7  1  0.542697  0.141032  0.089722  1
  Ge  Ge8  1  0.956349  0.641237  0.088913  1
  Ge  Ge9  1  0.456349  0.858763  0.911087  1
  Ge  Ge10  1  0.633338  0.364603  0.504011  1
  Ge  Ge11  1  0.133338  0.135397  0.495989  1
  Ge  Ge12  1  0.366391  0.634617  0.501086  1
  Ge  Ge13  1  0.866391  0.865383  0.498914  1
  Mo  Mo14  1  0.999325  0.498518  0.499494  1
  Mo  Mo15  1  0.499325  0.001482  0.500506  1
  Mo  Mo16  1  0.666480  0.751315  0.250343  1
  Mo  Mo17  1  0.166480  0.748685  0.749657  1
