# generated using pymatgen
data_LaNd7(HoIr2)2
_symmetry_space_group_name_H-M   'P 1'
_cell_length_a   6.67679445
_cell_length_b   7.27289517
_cell_length_c   8.93877561
_cell_angle_alpha   96.06453754
_cell_angle_beta   112.16365315
_cell_angle_gamma   90.34486477
_symmetry_Int_Tables_number   1
_chemical_formula_structural   LaNd7(HoIr2)2
_chemical_formula_sum   'La1 Nd7 Ho2 Ir4'
_cell_volume   399.24467209
_cell_formula_units_Z   1
loop_
 _symmetry_equiv_pos_site_id
 _symmetry_equiv_pos_as_xyz
  1  'x, y, z'
loop_
 _atom_site_type_symbol
 _atom_site_label
 _atom_site_symmetry_multiplicity
 _atom_site_fract_x
 _atom_site_fract_y
 _atom_site_fract_z
 _atom_site_occupancy
  La  La0  1  0.979013  0.917769  0.180597  1
  Nd  Nd1  1  0.790083  0.574370  0.814715  1
  Nd  Nd2  1  0.024316  0.077890  0.818585  1
  Nd  Nd3  1  0.208575  0.423997  0.181926  1
  Nd  Nd4  1  0.645142  0.812015  0.432343  1
  Nd  Nd5  1  0.214846  0.686216  0.568828  1
  Nd  Nd6  1  0.353227  0.188297  0.570752  1
  Nd  Nd7  1  0.783615  0.313607  0.432118  1
  Ho  Ho8  1  0.436948  0.750008  0.999465  1
  Ho  Ho9  1  0.562470  0.251247  0.000109  1
  Ir  Ir10  1  0.814722  0.574318  0.213776  1
  Ir  Ir11  1  0.600353  0.930159  0.789292  1
  Ir  Ir12  1  0.188554  0.429509  0.787572  1
  Ir  Ir13  1  0.398136  0.070598  0.209921  1
