# generated using pymatgen
data_LiY3In3Pd2
_symmetry_space_group_name_H-M   'P 1'
_cell_length_a   7.85353500
_cell_length_b   7.85353491
_cell_length_c   3.72648600
_cell_angle_alpha   90.00000000
_cell_angle_beta   90.00000000
_cell_angle_gamma   119.99999618
_symmetry_Int_Tables_number   1
_chemical_formula_structural   LiY3In3Pd2
_chemical_formula_sum   'Li1 Y3 In3 Pd2'
_cell_volume   199.04923110
_cell_formula_units_Z   1
loop_
 _symmetry_equiv_pos_site_id
 _symmetry_equiv_pos_as_xyz
  1  'x, y, z'
loop_
 _atom_site_type_symbol
 _atom_site_label
 _atom_site_symmetry_multiplicity
 _atom_site_fract_x
 _atom_site_fract_y
 _atom_site_fract_z
 _atom_site_occupancy
  Li  Li0  1  0.000000  0.000000  0.500000  1
  Y  Y1  1  0.411778  0.411778  0.500000  1
  Y  Y2  1  0.588222  0.000000  0.500000  1
  Y  Y3  1  0.000000  0.588222  0.500000  1
  In  In4  1  0.741046  0.741046  0.000000  1
  In  In5  1  0.258954  0.000000  0.000000  1
  In  In6  1  0.000000  0.258954  0.000000  1
  Pd  Pd7  1  0.666667  0.333333  0.000000  1
  Pd  Pd8  1  0.333333  0.666667  0.000000  1
