# generated using pymatgen
data_Hf18Ta5Re3GeP
_symmetry_space_group_name_H-M   'P 1'
_cell_length_a   8.66654700
_cell_length_b   8.72816181
_cell_length_c   8.79384700
_cell_angle_alpha   90.00000000
_cell_angle_beta   90.00000000
_cell_angle_gamma   120.23545444
_symmetry_Int_Tables_number   1
_chemical_formula_structural   Hf18Ta5Re3GeP
_chemical_formula_sum   'Hf18 Ta5 Re3 Ge1 P1'
_cell_volume   574.70254496
_cell_formula_units_Z   1
loop_
 _symmetry_equiv_pos_site_id
 _symmetry_equiv_pos_as_xyz
  1  'x, y, z'
loop_
 _atom_site_type_symbol
 _atom_site_label
 _atom_site_symmetry_multiplicity
 _atom_site_fract_x
 _atom_site_fract_y
 _atom_site_fract_z
 _atom_site_occupancy
  Hf  Hf0  1  0.196819  0.803904  0.454709  1
  Hf  Hf1  1  0.196819  0.392914  0.454709  1
  Hf  Hf2  1  0.610071  0.805035  0.457218  1
  Hf  Hf3  1  0.802096  0.197311  0.551272  1
  Hf  Hf4  1  0.802096  0.604786  0.551272  1
  Hf  Hf5  1  0.395595  0.197798  0.550275  1
  Hf  Hf6  1  0.802096  0.197311  0.948728  1
  Hf  Hf7  1  0.802096  0.604786  0.948728  1
  Hf  Hf8  1  0.395595  0.197798  0.949725  1
  Hf  Hf9  1  0.196819  0.803904  0.045291  1
  Hf  Hf10  1  0.196819  0.392914  0.045291  1
  Hf  Hf11  1  0.610071  0.805035  0.042782  1
  Hf  Hf12  1  0.539094  0.462242  0.250000  1
  Hf  Hf13  1  0.539094  0.076852  0.250000  1
  Hf  Hf14  1  0.922257  0.461129  0.250000  1
  Hf  Hf15  1  0.463160  0.541349  0.750000  1
  Hf  Hf16  1  0.463160  0.921810  0.750000  1
  Hf  Hf17  1  0.075642  0.537821  0.750000  1
  Ta  Ta18  1  0.889049  0.110843  0.250000  1
  Ta  Ta19  1  0.889049  0.778204  0.250000  1
  Ta  Ta20  1  0.222772  0.111385  0.250000  1
  Ta  Ta21  1  0.105174  0.887962  0.750000  1
  Ta  Ta22  1  0.105174  0.217212  0.750000  1
  Re  Re23  1  0.777534  0.888767  0.750000  1
  Re  Re24  1  0.999389  0.999694  0.498452  1
  Re  Re25  1  0.999389  0.999694  0.001548  1
  Ge  Ge26  1  0.334788  0.667395  0.250000  1
  P  P27  1  0.668284  0.334141  0.750000  1
