# generated using pymatgen
data_LiMgU(TaN2)3
_symmetry_space_group_name_H-M   'P 1'
_cell_length_a   5.31193100
_cell_length_b   5.31193059
_cell_length_c   10.74131100
_cell_angle_alpha   90.00000000
_cell_angle_beta   90.00000000
_cell_angle_gamma   119.99999635
_symmetry_Int_Tables_number   1
_chemical_formula_structural   LiMgU(TaN2)3
_chemical_formula_sum   'Li2 Mg2 U2 Ta6 N12'
_cell_volume   262.47790750
_cell_formula_units_Z   2
loop_
 _symmetry_equiv_pos_site_id
 _symmetry_equiv_pos_as_xyz
  1  'x, y, z'
loop_
 _atom_site_type_symbol
 _atom_site_label
 _atom_site_symmetry_multiplicity
 _atom_site_fract_x
 _atom_site_fract_y
 _atom_site_fract_z
 _atom_site_occupancy
  Li  Li0  1  0.333333  0.666667  0.000000  1
  Li  Li1  1  0.333333  0.666667  0.500000  1
  Mg  Mg2  1  0.666667  0.333333  0.500000  1
  Mg  Mg3  1  0.666667  0.333333  0.000000  1
  U  U4  1  0.000000  0.000000  0.500000  1
  U  U5  1  0.000000  0.000000  0.000000  1
  Ta  Ta6  1  0.003751  0.342033  0.250000  1
  Ta  Ta7  1  0.657967  0.996249  0.750000  1
  Ta  Ta8  1  0.338281  0.342033  0.750000  1
  Ta  Ta9  1  0.657967  0.661719  0.250000  1
  Ta  Ta10  1  0.338281  0.996249  0.250000  1
  Ta  Ta11  1  0.003751  0.661719  0.750000  1
  N  N12  1  0.671025  0.666398  0.626700  1
  N  N13  1  0.671025  0.666398  0.873300  1
  N  N14  1  0.333602  0.328975  0.126700  1
  N  N15  1  0.333602  0.328975  0.373300  1
  N  N16  1  0.333602  0.004627  0.873300  1
  N  N17  1  0.333602  0.004627  0.626700  1
  N  N18  1  0.995373  0.666398  0.373300  1
  N  N19  1  0.995373  0.666398  0.126700  1
  N  N20  1  0.671025  0.004627  0.126700  1
  N  N21  1  0.671025  0.004627  0.373300  1
  N  N22  1  0.995373  0.328975  0.873300  1
  N  N23  1  0.995373  0.328975  0.626700  1
