# generated using pymatgen
data_Th4Al24Pd5Rh4
_symmetry_space_group_name_H-M   'P 1'
_cell_length_a   7.57879421
_cell_length_b   7.60488168
_cell_length_c   13.29319249
_cell_angle_alpha   84.86121918
_cell_angle_beta   100.87424095
_cell_angle_gamma   119.80131554
_symmetry_Int_Tables_number   1
_chemical_formula_structural   Th4Al24Pd5Rh4
_chemical_formula_sum   'Th4 Al24 Pd5 Rh4'
_cell_volume   652.89605391
_cell_formula_units_Z   1
loop_
 _symmetry_equiv_pos_site_id
 _symmetry_equiv_pos_as_xyz
  1  'x, y, z'
loop_
 _atom_site_type_symbol
 _atom_site_label
 _atom_site_symmetry_multiplicity
 _atom_site_fract_x
 _atom_site_fract_y
 _atom_site_fract_z
 _atom_site_occupancy
  Th  Th0  1  0.436850  0.830130  0.806034  1
  Th  Th1  1  0.563150  0.169870  0.193966  1
  Th  Th2  1  0.767158  0.503120  0.806237  1
  Th  Th3  1  0.232842  0.496880  0.193763  1
  Al  Al4  1  0.480677  0.163608  0.947571  1
  Al  Al5  1  0.519323  0.836392  0.052429  1
  Al  Al6  1  0.025307  0.171537  0.558095  1
  Al  Al7  1  0.974693  0.828463  0.441905  1
  Al  Al8  1  0.353629  0.828447  0.556629  1
  Al  Al9  1  0.646371  0.171553  0.443371  1
  Al  Al10  1  0.624435  0.832830  0.335718  1
  Al  Al11  1  0.375565  0.167170  0.664282  1
  Al  Al12  1  0.056999  0.489264  0.663412  1
  Al  Al13  1  0.943001  0.510736  0.336588  1
  Al  Al14  1  0.731836  0.842322  0.661873  1
  Al  Al15  1  0.268164  0.157678  0.338127  1
  Al  Al16  1  0.145579  0.497607  0.948125  1
  Al  Al17  1  0.854421  0.502393  0.051875  1
  Al  Al18  1  0.823476  0.837145  0.960213  1
  Al  Al19  1  0.176524  0.162855  0.039787  1
  Al  Al20  1  0.318652  0.500424  0.445037  1
  Al  Al21  1  0.681348  0.499576  0.554963  1
  Al  Al22  1  0.099070  0.835660  0.180180  1
  Al  Al23  1  0.900930  0.164340  0.819820  1
  Al  Al24  1  0.302189  0.364837  0.813841  1
  Al  Al25  1  0.697811  0.635163  0.186159  1
  Al  Al26  1  0.103106  0.962407  0.819451  1
  Al  Al27  1  0.896894  0.037593  0.180549  1
  Pd  Pd28  1  0.294116  0.834019  0.361293  1
  Pd  Pd29  1  0.705884  0.165981  0.638707  1
  Pd  Pd30  1  0.048414  0.826362  0.638106  1
  Pd  Pd31  1  0.951586  0.173638  0.361894  1
  Pd  Pd32  1  0.500000  0.500000  0.000000  1
  Rh  Rh33  1  0.389309  0.507134  0.638864  1
  Rh  Rh34  1  0.610691  0.492866  0.361136  1
  Rh  Rh35  1  0.171982  0.828678  0.999381  1
  Rh  Rh36  1  0.828018  0.171322  0.000619  1
