# generated using pymatgen
data_Zr11Ti2Al9(CoIr3)2
_symmetry_space_group_name_H-M   'P 1'
_cell_length_a   9.08530378
_cell_length_b   9.01249104
_cell_length_c   9.08530260
_cell_angle_alpha   59.88505194
_cell_angle_beta   60.08772182
_cell_angle_gamma   59.88505718
_symmetry_Int_Tables_number   1
_chemical_formula_structural   Zr11Ti2Al9(CoIr3)2
_chemical_formula_sum   'Zr11 Ti2 Al9 Co2 Ir6'
_cell_volume   525.45805128
_cell_formula_units_Z   1
loop_
 _symmetry_equiv_pos_site_id
 _symmetry_equiv_pos_as_xyz
  1  'x, y, z'
loop_
 _atom_site_type_symbol
 _atom_site_label
 _atom_site_symmetry_multiplicity
 _atom_site_fract_x
 _atom_site_fract_y
 _atom_site_fract_z
 _atom_site_occupancy
  Zr  Zr0  1  0.214347  0.184509  0.798108  1
  Zr  Zr1  1  0.798108  0.184509  0.214347  1
  Zr  Zr2  1  0.188382  0.811198  0.188382  1
  Zr  Zr3  1  0.807956  0.810015  0.185320  1
  Zr  Zr4  1  0.185320  0.810015  0.807956  1
  Zr  Zr5  1  0.797055  0.183508  0.797055  1
  Zr  Zr6  1  0.381248  0.384989  0.381248  1
  Zr  Zr7  1  0.381968  0.854815  0.381968  1
  Zr  Zr8  1  0.853045  0.384950  0.381420  1
  Zr  Zr9  1  0.381420  0.384950  0.853045  1
  Zr  Zr10  1  0.844787  0.474136  0.844787  1
  Ti  Ti11  1  0.510684  0.827623  0.834172  1
  Ti  Ti12  1  0.834172  0.827623  0.510684  1
  Al  Al13  1  0.161636  0.163117  0.161636  1
  Al  Al14  1  0.165759  0.504985  0.165759  1
  Al  Al15  1  0.510072  0.164793  0.163619  1
  Al  Al16  1  0.163619  0.164793  0.510072  1
  Al  Al17  1  0.617308  0.622750  0.617308  1
  Al  Al18  1  0.619120  0.141741  0.619120  1
  Al  Al19  1  0.147819  0.621854  0.615257  1
  Al  Al20  1  0.615257  0.621854  0.147819  1
  Al  Al21  1  0.830571  0.826494  0.830571  1
  Co  Co22  1  0.501205  0.500630  0.501205  1
  Co  Co23  1  0.987039  0.028625  0.987039  1
  Ir  Ir24  1  0.000756  0.000537  0.499465  1
  Ir  Ir25  1  0.499465  0.000537  0.000756  1
  Ir  Ir26  1  0.005028  0.502765  0.005028  1
  Ir  Ir27  1  0.490931  0.506748  0.003189  1
  Ir  Ir28  1  0.003189  0.506748  0.490931  1
  Ir  Ir29  1  0.502734  0.998190  0.502734  1
