# generated using pymatgen
data_BaSrTa2(NO2)2
_symmetry_space_group_name_H-M   'P 1'
_cell_length_a   4.03795700
_cell_length_b   5.90573137
_cell_length_c   5.88768731
_cell_angle_alpha   90.32049041
_cell_angle_beta   90.00000000
_cell_angle_gamma   90.00000000
_symmetry_Int_Tables_number   1
_chemical_formula_structural   BaSrTa2(NO2)2
_chemical_formula_sum   'Ba1 Sr1 Ta2 N2 O4'
_cell_volume   140.40200863
_cell_formula_units_Z   1
loop_
 _symmetry_equiv_pos_site_id
 _symmetry_equiv_pos_as_xyz
  1  'x, y, z'
loop_
 _atom_site_type_symbol
 _atom_site_label
 _atom_site_symmetry_multiplicity
 _atom_site_fract_x
 _atom_site_fract_y
 _atom_site_fract_z
 _atom_site_occupancy
  Ba  Ba0  1  0.500000  0.762734  0.508850  1
  Sr  Sr1  1  0.500000  0.225408  0.021025  1
  Ta  Ta2  1  0.000000  0.725491  0.017682  1
  Ta  Ta3  1  0.000000  0.267994  0.519128  1
  N  N4  1  0.000000  0.498463  0.748776  1
  N  N5  1  0.000000  0.497824  0.243871  1
  O  O6  1  0.500000  0.768446  0.992349  1
  O  O7  1  0.000000  0.008489  0.735453  1
  O  O8  1  0.000000  0.002791  0.229042  1
  O  O9  1  0.500000  0.242359  0.483905  1
