# generated using pymatgen
data_Lu2TaNbN4
_symmetry_space_group_name_H-M   'P 1'
_cell_length_a   3.15805800
_cell_length_b   3.15805847
_cell_length_c   10.89222500
_cell_angle_alpha   90.00000000
_cell_angle_beta   90.00000000
_cell_angle_gamma   119.99999505
_symmetry_Int_Tables_number   1
_chemical_formula_structural   Lu2TaNbN4
_chemical_formula_sum   'Lu2 Ta1 Nb1 N4'
_cell_volume   94.07788082
_cell_formula_units_Z   1
loop_
 _symmetry_equiv_pos_site_id
 _symmetry_equiv_pos_as_xyz
  1  'x, y, z'
loop_
 _atom_site_type_symbol
 _atom_site_label
 _atom_site_symmetry_multiplicity
 _atom_site_fract_x
 _atom_site_fract_y
 _atom_site_fract_z
 _atom_site_occupancy
  Lu  Lu0  1  0.000000  0.000000  0.499731  1
  Lu  Lu1  1  0.000000  0.000000  0.000269  1
  Ta  Ta2  1  0.666667  0.333333  0.250000  1
  Nb  Nb3  1  0.333333  0.666667  0.750000  1
  N  N4  1  0.666667  0.333333  0.627529  1
  N  N5  1  0.333333  0.666667  0.371102  1
  N  N6  1  0.333333  0.666667  0.128898  1
  N  N7  1  0.666667  0.333333  0.872471  1
