# generated using pymatgen
data_Li3Tb2Tm2AlPt4
_symmetry_space_group_name_H-M   'P 1'
_cell_length_a   4.01156100
_cell_length_b   6.96496470
_cell_length_c   8.45879321
_cell_angle_alpha   91.06211918
_cell_angle_beta   90.00000000
_cell_angle_gamma   90.00000000
_symmetry_Int_Tables_number   1
_chemical_formula_structural   Li3Tb2Tm2AlPt4
_chemical_formula_sum   'Li3 Tb2 Tm2 Al1 Pt4'
_cell_volume   236.30129626
_cell_formula_units_Z   1
loop_
 _symmetry_equiv_pos_site_id
 _symmetry_equiv_pos_as_xyz
  1  'x, y, z'
loop_
 _atom_site_type_symbol
 _atom_site_label
 _atom_site_symmetry_multiplicity
 _atom_site_fract_x
 _atom_site_fract_y
 _atom_site_fract_z
 _atom_site_occupancy
  Li  Li0  1  0.250000  0.127953  0.058235  1
  Li  Li1  1  0.250000  0.628266  0.441667  1
  Li  Li2  1  0.750000  0.875949  0.940471  1
  Tb  Tb3  1  0.750000  0.952833  0.322974  1
  Tb  Tb4  1  0.750000  0.452700  0.177152  1
  Tm  Tm5  1  0.250000  0.045462  0.683666  1
  Tm  Tm6  1  0.250000  0.546351  0.817711  1
  Al  Al7  1  0.750000  0.374107  0.558632  1
  Pt  Pt8  1  0.250000  0.252827  0.393743  1
  Pt  Pt9  1  0.250000  0.742525  0.121537  1
  Pt  Pt10  1  0.750000  0.744115  0.623489  1
  Pt  Pt11  1  0.750000  0.256913  0.860722  1
