# generated using pymatgen
data_NdThTlPt2
_symmetry_space_group_name_H-M   'P 1'
_cell_length_a   7.97498900
_cell_length_b   7.98908200
_cell_length_c   3.80460000
_cell_angle_alpha   90.00000000
_cell_angle_beta   90.00000000
_cell_angle_gamma   90.00000000
_symmetry_Int_Tables_number   1
_chemical_formula_structural   NdThTlPt2
_chemical_formula_sum   'Nd2 Th2 Tl2 Pt4'
_cell_volume   242.40187514
_cell_formula_units_Z   2
loop_
 _symmetry_equiv_pos_site_id
 _symmetry_equiv_pos_as_xyz
  1  'x, y, z'
loop_
 _atom_site_type_symbol
 _atom_site_label
 _atom_site_symmetry_multiplicity
 _atom_site_fract_x
 _atom_site_fract_y
 _atom_site_fract_z
 _atom_site_occupancy
  Nd  Nd0  1  0.826320  0.673850  0.500000  1
  Nd  Nd1  1  0.673680  0.173850  0.500000  1
  Th  Th2  1  0.169545  0.327811  0.500000  1
  Th  Th3  1  0.330455  0.827811  0.500000  1
  Tl  Tl4  1  0.506195  0.496349  0.000000  1
  Tl  Tl5  1  0.993805  0.996349  0.000000  1
  Pt  Pt6  1  0.614711  0.873083  0.000000  1
  Pt  Pt7  1  0.139043  0.628909  0.000000  1
  Pt  Pt8  1  0.885289  0.373083  0.000000  1
  Pt  Pt9  1  0.360957  0.128909  0.000000  1
