# generated using pymatgen
data_Pr10AgPb6Br
_symmetry_space_group_name_H-M   'P 1'
_cell_length_a   9.69789200
_cell_length_b   9.69788996
_cell_length_c   6.87503300
_cell_angle_alpha   90.00033676
_cell_angle_beta   90.00034267
_cell_angle_gamma   119.99907915
_symmetry_Int_Tables_number   1
_chemical_formula_structural   Pr10AgPb6Br
_chemical_formula_sum   'Pr10 Ag1 Pb6 Br1'
_cell_volume   559.96907591
_cell_formula_units_Z   1
loop_
 _symmetry_equiv_pos_site_id
 _symmetry_equiv_pos_as_xyz
  1  'x, y, z'
loop_
 _atom_site_type_symbol
 _atom_site_label
 _atom_site_symmetry_multiplicity
 _atom_site_fract_x
 _atom_site_fract_y
 _atom_site_fract_z
 _atom_site_occupancy
  Pr  Pr0  1  0.666624  0.333375  0.000000  1
  Pr  Pr1  1  0.333375  0.666625  0.000000  1
  Pr  Pr2  1  0.735087  0.735087  0.250198  1
  Pr  Pr3  1  0.264784  0.999959  0.250223  1
  Pr  Pr4  1  0.999960  0.264785  0.250223  1
  Pr  Pr5  1  0.666711  0.333290  0.500000  1
  Pr  Pr6  1  0.333290  0.666711  0.500000  1
  Pr  Pr7  1  0.264913  0.264914  0.749798  1
  Pr  Pr8  1  0.735215  0.000040  0.749781  1
  Pr  Pr9  1  0.000041  0.735216  0.749781  1
  Ag  Ag10  1  0.000000  0.000000  0.000000  1
  Pb  Pb11  1  0.614679  0.000023  0.249295  1
  Pb  Pb12  1  0.000023  0.614679  0.249295  1
  Pb  Pb13  1  0.385173  0.385173  0.249313  1
  Pb  Pb14  1  0.385321  0.999977  0.750705  1
  Pb  Pb15  1  0.999977  0.385322  0.750705  1
  Pb  Pb16  1  0.614826  0.614827  0.750689  1
  Br  Br17  1  0.999999  0.999999  0.500000  1
