# generated using pymatgen
data_AcZn3P6N13
_symmetry_space_group_name_H-M   'P 1'
_cell_length_a   7.14612703
_cell_length_b   7.38852699
_cell_length_c   7.14612711
_cell_angle_alpha   110.15982366
_cell_angle_beta   108.77390692
_cell_angle_gamma   110.15985091
_symmetry_Int_Tables_number   1
_chemical_formula_structural   AcZn3P6N13
_chemical_formula_sum   'Ac1 Zn3 P6 N13'
_cell_volume   287.94919191
_cell_formula_units_Z   1
loop_
 _symmetry_equiv_pos_site_id
 _symmetry_equiv_pos_as_xyz
  1  'x, y, z'
loop_
 _atom_site_type_symbol
 _atom_site_label
 _atom_site_symmetry_multiplicity
 _atom_site_fract_x
 _atom_site_fract_y
 _atom_site_fract_z
 _atom_site_occupancy
  Ac  Ac0  1  0.000000  0.737247  0.000000  1
  Zn  Zn1  1  0.717344  0.042379  0.000000  1
  Zn  Zn2  1  0.000000  0.042379  0.717344  1
  Zn  Zn3  1  0.282656  0.325035  0.282656  1
  P  P4  1  0.491121  0.231755  0.745224  1
  P  P5  1  0.508879  0.740634  0.254103  1
  P  P6  1  0.745897  0.486531  0.254776  1
  P  P7  1  0.254103  0.740634  0.508879  1
  P  P8  1  0.745224  0.231755  0.491121  1
  P  P9  1  0.254776  0.486531  0.745897  1
  N  N10  1  0.000000  0.715581  0.446763  1
  N  N11  1  0.293184  0.551187  0.558114  1
  N  N12  1  0.712967  0.426384  0.000000  1
  N  N13  1  0.287033  0.713418  0.287033  1
  N  N14  1  0.441886  0.993073  0.735070  1
  N  N15  1  0.706816  0.258002  0.264930  1
  N  N16  1  0.553237  0.268817  0.553237  1
  N  N17  1  0.735070  0.993073  0.441886  1
  N  N18  1  0.264930  0.258002  0.706816  1
  N  N19  1  0.446763  0.715581  0.000000  1
  N  N20  1  0.558114  0.551187  0.293184  1
  N  N21  1  0.000000  0.426384  0.712967  1
  N  N22  1  0.000000  0.064429  0.000000  1
