# generated using pymatgen
data_AcPr9(Si5I3)2
_symmetry_space_group_name_H-M   'P 1'
_cell_length_a   12.21748983
_cell_length_b   12.21748907
_cell_length_c   15.75333900
_cell_angle_alpha   69.70994277
_cell_angle_beta   69.70994409
_cell_angle_gamma   19.73984148
_symmetry_Int_Tables_number   1
_chemical_formula_structural   AcPr9(Si5I3)2
_chemical_formula_sum   'Ac1 Pr9 Si10 I6'
_cell_volume   743.37959607
_cell_formula_units_Z   1
loop_
 _symmetry_equiv_pos_site_id
 _symmetry_equiv_pos_as_xyz
  1  'x, y, z'
loop_
 _atom_site_type_symbol
 _atom_site_label
 _atom_site_symmetry_multiplicity
 _atom_site_fract_x
 _atom_site_fract_y
 _atom_site_fract_z
 _atom_site_occupancy
  Ac  Ac0  1  0.263479  0.263479  0.334582  1
  Pr  Pr1  1  0.337157  0.337157  0.056979  1
  Pr  Pr2  1  0.915202  0.915202  0.564917  1
  Pr  Pr3  1  0.084466  0.084466  0.435921  1
  Pr  Pr4  1  0.017115  0.017115  0.710109  1
  Pr  Pr5  1  0.982768  0.982768  0.290452  1
  Pr  Pr6  1  0.835067  0.835067  0.832463  1
  Pr  Pr7  1  0.738053  0.738053  0.670362  1
  Pr  Pr8  1  0.662489  0.662489  0.941045  1
  Pr  Pr9  1  0.164332  0.164332  0.166151  1
  Si  Si10  1  0.508300  0.508300  0.573325  1
  Si  Si11  1  0.423596  0.423596  0.707882  1
  Si  Si12  1  0.491254  0.491254  0.427376  1
  Si  Si13  1  0.749099  0.749099  0.038754  1
  Si  Si14  1  0.669399  0.669399  0.317824  1
  Si  Si15  1  0.240852  0.240852  0.808409  1
  Si  Si16  1  0.757965  0.757965  0.188789  1
  Si  Si17  1  0.328903  0.328903  0.680188  1
  Si  Si18  1  0.575485  0.575485  0.291908  1
  Si  Si19  1  0.250402  0.250402  0.959355  1
  I  I20  1  0.590805  0.590805  0.795107  1
  I  I21  1  0.062079  0.062079  0.066864  1
  I  I22  1  0.937991  0.937991  0.932477  1
  I  I23  1  0.830315  0.830315  0.441680  1
  I  I24  1  0.411493  0.411493  0.202045  1
  I  I25  1  0.171936  0.171936  0.565035  1
