# generated using pymatgen
data_TaZn3SbO8
_symmetry_space_group_name_H-M   'P 1'
_cell_length_a   6.17965287
_cell_length_b   6.17965338
_cell_length_c   9.68371462
_cell_angle_alpha   71.53050580
_cell_angle_beta   71.53050422
_cell_angle_gamma   87.06736014
_symmetry_Int_Tables_number   1
_chemical_formula_structural   TaZn3SbO8
_chemical_formula_sum   'Ta2 Zn6 Sb2 O16'
_cell_volume   332.19073023
_cell_formula_units_Z   2
loop_
 _symmetry_equiv_pos_site_id
 _symmetry_equiv_pos_as_xyz
  1  'x, y, z'
loop_
 _atom_site_type_symbol
 _atom_site_label
 _atom_site_symmetry_multiplicity
 _atom_site_fract_x
 _atom_site_fract_y
 _atom_site_fract_z
 _atom_site_occupancy
  Ta  Ta0  1  0.938055  0.226089  0.370531  1
  Ta  Ta1  1  0.773911  0.061945  0.129469  1
  Zn  Zn2  1  0.762307  0.237693  0.750000  1
  Zn  Zn3  1  0.238810  0.761190  0.250000  1
  Zn  Zn4  1  0.674671  0.644782  0.998782  1
  Zn  Zn5  1  0.355218  0.325329  0.501218  1
  Zn  Zn6  1  0.315540  0.364990  0.989641  1
  Zn  Zn7  1  0.635010  0.684460  0.510359  1
  Sb  Sb8  1  0.065793  0.787221  0.624052  1
  Sb  Sb9  1  0.212779  0.934207  0.875948  1
  O  O10  1  0.178857  0.425249  0.354678  1
  O  O11  1  0.574751  0.821143  0.145322  1
  O  O12  1  0.822403  0.572833  0.645182  1
  O  O13  1  0.427167  0.177597  0.854818  1
  O  O14  1  0.311846  0.578316  0.594534  1
  O  O15  1  0.421684  0.688154  0.905466  1
  O  O16  1  0.688094  0.411048  0.416247  1
  O  O17  1  0.588952  0.311906  0.083753  1
  O  O18  1  0.989418  0.710396  0.856356  1
  O  O19  1  0.289604  0.010582  0.643644  1
  O  O20  1  0.061133  0.859097  0.105042  1
  O  O21  1  0.140903  0.938867  0.394958  1
  O  O22  1  0.943032  0.141235  0.895716  1
  O  O23  1  0.858765  0.056968  0.604284  1
  O  O24  1  0.715666  0.984369  0.352190  1
  O  O25  1  0.015631  0.284334  0.147810  1
