# generated using pymatgen
data_Ba14Ga8Si3
_symmetry_space_group_name_H-M   'P 1'
_cell_length_a   15.45135359
_cell_length_b   15.45135398
_cell_length_c   15.45135400
_cell_angle_alpha   46.93146826
_cell_angle_beta   46.93146689
_cell_angle_gamma   46.93146974
_symmetry_Int_Tables_number   1
_chemical_formula_structural   Ba14Ga8Si3
_chemical_formula_sum   'Ba28 Ga16 Si6'
_cell_volume   1799.35688808
_cell_formula_units_Z   2
loop_
 _symmetry_equiv_pos_site_id
 _symmetry_equiv_pos_as_xyz
  1  'x, y, z'
loop_
 _atom_site_type_symbol
 _atom_site_label
 _atom_site_symmetry_multiplicity
 _atom_site_fract_x
 _atom_site_fract_y
 _atom_site_fract_z
 _atom_site_occupancy
  Ba  Ba0  1  0.688144  0.195884  0.209081  1
  Ba  Ba1  1  0.927101  0.614405  0.590396  1
  Ba  Ba2  1  0.795729  0.418207  0.145034  1
  Ba  Ba3  1  0.195884  0.209081  0.688144  1
  Ba  Ba4  1  0.409604  0.072899  0.385595  1
  Ba  Ba5  1  0.145034  0.795729  0.418207  1
  Ba  Ba6  1  0.385595  0.409604  0.072899  1
  Ba  Ba7  1  0.790919  0.311856  0.804116  1
  Ba  Ba8  1  0.418207  0.145034  0.795729  1
  Ba  Ba9  1  0.504528  0.194652  0.943446  1
  Ba  Ba10  1  0.805348  0.056554  0.495472  1
  Ba  Ba11  1  0.908229  0.908229  0.908229  1
  Ba  Ba12  1  0.091771  0.091771  0.091771  1
  Ba  Ba13  1  0.854966  0.204271  0.581793  1
  Ba  Ba14  1  0.804116  0.790919  0.311856  1
  Ba  Ba15  1  0.204271  0.581793  0.854966  1
  Ba  Ba16  1  0.581793  0.854966  0.204271  1
  Ba  Ba17  1  0.056554  0.495472  0.805348  1
  Ba  Ba18  1  0.495472  0.805348  0.056554  1
  Ba  Ba19  1  0.194652  0.943446  0.504528  1
  Ba  Ba20  1  0.072899  0.385595  0.409604  1
  Ba  Ba21  1  0.500000  0.500000  0.500000  1
  Ba  Ba22  1  0.614405  0.590396  0.927101  1
  Ba  Ba23  1  0.590396  0.927101  0.614405  1
  Ba  Ba24  1  0.000000  0.000000  0.000000  1
  Ba  Ba25  1  0.943446  0.504528  0.194652  1
  Ba  Ba26  1  0.311856  0.804116  0.790919  1
  Ba  Ba27  1  0.209081  0.688144  0.195884  1
  Ga  Ga28  1  0.524581  0.497201  0.729714  1
  Ga  Ga29  1  0.036838  0.180641  0.289038  1
  Ga  Ga30  1  0.502799  0.270286  0.475419  1
  Ga  Ga31  1  0.289038  0.036838  0.180641  1
  Ga  Ga32  1  0.270286  0.475419  0.502799  1
  Ga  Ga33  1  0.639552  0.639552  0.639552  1
  Ga  Ga34  1  0.729714  0.524581  0.497201  1
  Ga  Ga35  1  0.180641  0.289038  0.036838  1
  Ga  Ga36  1  0.360448  0.360448  0.360448  1
  Ga  Ga37  1  0.775747  0.775747  0.775747  1
  Ga  Ga38  1  0.475419  0.502799  0.270286  1
  Ga  Ga39  1  0.819359  0.710962  0.963162  1
  Ga  Ga40  1  0.963162  0.819359  0.710962  1
  Ga  Ga41  1  0.497201  0.729714  0.524581  1
  Ga  Ga42  1  0.710962  0.963162  0.819359  1
  Ga  Ga43  1  0.224253  0.224253  0.224253  1
  Si  Si44  1  0.666545  0.082366  0.097159  1
  Si  Si45  1  0.082366  0.097159  0.666545  1
  Si  Si46  1  0.333455  0.917634  0.902841  1
  Si  Si47  1  0.902841  0.333455  0.917634  1
  Si  Si48  1  0.917634  0.902841  0.333455  1
  Si  Si49  1  0.097159  0.666545  0.082366  1
