# generated using pymatgen
data_Sc2TaNb(CoSb)4
_symmetry_space_group_name_H-M   'P 1'
_cell_length_a   6.01478306
_cell_length_b   4.25072000
_cell_length_c   8.50898250
_cell_angle_alpha   90.00000000
_cell_angle_beta   90.06802123
_cell_angle_gamma   90.00000000
_symmetry_Int_Tables_number   1
_chemical_formula_structural   Sc2TaNb(CoSb)4
_chemical_formula_sum   'Sc2 Ta1 Nb1 Co4 Sb4'
_cell_volume   217.55035217
_cell_formula_units_Z   1
loop_
 _symmetry_equiv_pos_site_id
 _symmetry_equiv_pos_as_xyz
  1  'x, y, z'
loop_
 _atom_site_type_symbol
 _atom_site_label
 _atom_site_symmetry_multiplicity
 _atom_site_fract_x
 _atom_site_fract_y
 _atom_site_fract_z
 _atom_site_occupancy
  Sc  Sc0  1  0.008000  0.500000  0.375974  1
  Sc  Sc1  1  0.507825  0.000000  0.623965  1
  Ta  Ta2  1  0.492997  0.000000  0.125051  1
  Nb  Nb3  1  0.992671  0.500000  0.874401  1
  Co  Co4  1  0.734745  0.500000  0.115337  1
  Co  Co5  1  0.264300  0.000000  0.360976  1
  Co  Co6  1  0.763987  0.500000  0.638764  1
  Co  Co7  1  0.237508  0.000000  0.885691  1
  Sb  Sb8  1  0.991085  0.000000  0.127510  1
  Sb  Sb9  1  0.508007  0.500000  0.376765  1
  Sb  Sb10  1  0.008363  0.000000  0.622735  1
  Sb  Sb11  1  0.490506  0.500000  0.872835  1
