# generated using pymatgen
data_Er20Bi7Ir4Pb
_symmetry_space_group_name_H-M   'P 1'
_cell_length_a   7.91714408
_cell_length_b   8.97016471
_cell_length_c   12.44664508
_cell_angle_alpha   90.04521625
_cell_angle_beta   90.01475227
_cell_angle_gamma   90.00638311
_symmetry_Int_Tables_number   1
_chemical_formula_structural   Er20Bi7Ir4Pb
_chemical_formula_sum   'Er20 Bi7 Ir4 Pb1'
_cell_volume   883.93660543
_cell_formula_units_Z   1
loop_
 _symmetry_equiv_pos_site_id
 _symmetry_equiv_pos_as_xyz
  1  'x, y, z'
loop_
 _atom_site_type_symbol
 _atom_site_label
 _atom_site_symmetry_multiplicity
 _atom_site_fract_x
 _atom_site_fract_y
 _atom_site_fract_z
 _atom_site_occupancy
  Er  Er0  1  0.663381  0.751166  0.707289  1
  Er  Er1  1  0.338343  0.249930  0.293113  1
  Er  Er2  1  0.160186  0.248625  0.792433  1
  Er  Er3  1  0.838806  0.749914  0.206809  1
  Er  Er4  1  0.126234  0.751236  0.810106  1
  Er  Er5  1  0.872179  0.249949  0.189328  1
  Er  Er6  1  0.629754  0.249000  0.689304  1
  Er  Er7  1  0.371980  0.750118  0.310473  1
  Er  Er8  1  0.555221  0.749768  0.997965  1
  Er  Er9  1  0.444348  0.250135  0.002076  1
  Er  Er10  1  0.054523  0.248477  0.503215  1
  Er  Er11  1  0.944523  0.751445  0.498813  1
  Er  Er12  1  0.825968  0.458281  0.931884  1
  Er  Er13  1  0.173692  0.541306  0.067973  1
  Er  Er14  1  0.326527  0.541440  0.568184  1
  Er  Er15  1  0.173607  0.958932  0.068056  1
  Er  Er16  1  0.673676  0.458728  0.431913  1
  Er  Er17  1  0.827179  0.041263  0.930332  1
  Er  Er18  1  0.674390  0.041260  0.432832  1
  Er  Er19  1  0.324387  0.959489  0.568369  1
  Bi  Bi20  1  0.063666  0.992669  0.326688  1
  Bi  Bi21  1  0.436265  0.992630  0.827515  1
  Bi  Bi22  1  0.063697  0.507239  0.327235  1
  Bi  Bi23  1  0.563261  0.007120  0.172655  1
  Bi  Bi24  1  0.936708  0.492985  0.672756  1
  Bi  Bi25  1  0.563353  0.492845  0.172894  1
  Bi  Bi26  1  0.436978  0.507207  0.827092  1
  Ir  Ir27  1  0.929627  0.749907  0.992499  1
  Ir  Ir28  1  0.070475  0.250283  0.008027  1
  Ir  Ir29  1  0.430186  0.250431  0.507594  1
  Ir  Ir30  1  0.570064  0.749796  0.492147  1
  Pb  Pb31  1  0.936818  0.006427  0.672431  1
