# generated using pymatgen
data_LaTm9(Si3Pt)2
_symmetry_space_group_name_H-M   'P 1'
_cell_length_a   7.24859300
_cell_length_b   7.85746598
_cell_length_c   14.46342239
_cell_angle_alpha   89.83480789
_cell_angle_beta   90.00000000
_cell_angle_gamma   90.00000000
_symmetry_Int_Tables_number   1
_chemical_formula_structural   LaTm9(Si3Pt)2
_chemical_formula_sum   'La2 Tm18 Si12 Pt4'
_cell_volume   823.76908488
_cell_formula_units_Z   2
loop_
 _symmetry_equiv_pos_site_id
 _symmetry_equiv_pos_as_xyz
  1  'x, y, z'
loop_
 _atom_site_type_symbol
 _atom_site_label
 _atom_site_symmetry_multiplicity
 _atom_site_fract_x
 _atom_site_fract_y
 _atom_site_fract_z
 _atom_site_occupancy
  La  La0  1  0.512601  0.574037  0.336919  1
  La  La1  1  0.012601  0.425963  0.663081  1
  Tm  Tm2  1  0.811276  0.578338  0.878101  1
  Tm  Tm3  1  0.311276  0.421662  0.121899  1
  Tm  Tm4  1  0.185384  0.926129  0.376407  1
  Tm  Tm5  1  0.685384  0.073871  0.623593  1
  Tm  Tm6  1  0.187029  0.923891  0.624984  1
  Tm  Tm7  1  0.687029  0.076109  0.375016  1
  Tm  Tm8  1  0.815313  0.575359  0.122717  1
  Tm  Tm9  1  0.315313  0.424641  0.877283  1
  Tm  Tm10  1  0.661458  0.234107  0.999554  1
  Tm  Tm11  1  0.161458  0.765893  0.000446  1
  Tm  Tm12  1  0.340524  0.265514  0.499358  1
  Tm  Tm13  1  0.840524  0.734486  0.500642  1
  Tm  Tm14  1  0.483583  0.933549  0.843501  1
  Tm  Tm15  1  0.983583  0.066451  0.156499  1
  Tm  Tm16  1  0.480008  0.937090  0.153971  1
  Tm  Tm17  1  0.980008  0.062910  0.846029  1
  Tm  Tm18  1  0.517483  0.567487  0.657682  1
  Tm  Tm19  1  0.017483  0.432513  0.342318  1
  Si  Si20  1  0.651979  0.275163  0.791349  1
  Si  Si21  1  0.151979  0.724837  0.208651  1
  Si  Si22  1  0.345967  0.216413  0.286647  1
  Si  Si23  1  0.845967  0.783587  0.713353  1
  Si  Si24  1  0.357264  0.219551  0.711742  1
  Si  Si25  1  0.857264  0.780449  0.288258  1
  Si  Si26  1  0.651423  0.272123  0.207529  1
  Si  Si27  1  0.151423  0.727877  0.792471  1
  Si  Si28  1  0.768157  0.882930  0.000374  1
  Si  Si29  1  0.268157  0.117070  0.999626  1
  Si  Si30  1  0.230390  0.619829  0.502512  1
  Si  Si31  1  0.730390  0.380171  0.497488  1
  Pt  Pt32  1  0.517218  0.653365  0.001267  1
  Pt  Pt33  1  0.017218  0.346635  0.998733  1
  Pt  Pt34  1  0.482945  0.849603  0.502399  1
  Pt  Pt35  1  0.982945  0.150397  0.497601  1
