# generated using pymatgen
data_TbDy3Tm4(ReB6)4
_symmetry_space_group_name_H-M   'P 1'
_cell_length_a   3.66226400
_cell_length_b   9.13908600
_cell_length_c   11.53137500
_cell_angle_alpha   89.99903530
_cell_angle_beta   90.00000000
_cell_angle_gamma   90.00000000
_symmetry_Int_Tables_number   1
_chemical_formula_structural   TbDy3Tm4(ReB6)4
_chemical_formula_sum   'Tb1 Dy3 Tm4 Re4 B24'
_cell_volume   385.95218823
_cell_formula_units_Z   1
loop_
 _symmetry_equiv_pos_site_id
 _symmetry_equiv_pos_as_xyz
  1  'x, y, z'
loop_
 _atom_site_type_symbol
 _atom_site_label
 _atom_site_symmetry_multiplicity
 _atom_site_fract_x
 _atom_site_fract_y
 _atom_site_fract_z
 _atom_site_occupancy
  Tb  Tb0  1  0.000000  0.323290  0.413912  1
  Dy  Dy1  1  0.000000  0.676649  0.586057  1
  Dy  Dy2  1  0.000000  0.823338  0.086067  1
  Dy  Dy3  1  0.000000  0.176642  0.913949  1
  Tm  Tm4  1  0.000000  0.943297  0.370129  1
  Tm  Tm5  1  0.000000  0.056617  0.629874  1
  Tm  Tm6  1  0.000000  0.443389  0.129794  1
  Tm  Tm7  1  0.000000  0.556637  0.870204  1
  Re  Re8  1  0.000000  0.639285  0.320203  1
  Re  Re9  1  0.000000  0.360881  0.679879  1
  Re  Re10  1  0.000000  0.139045  0.179649  1
  Re  Re11  1  0.000000  0.860892  0.820257  1
  B  B12  1  0.500000  0.553776  0.432623  1
  B  B13  1  0.500000  0.446444  0.567493  1
  B  B14  1  0.500000  0.053578  0.067342  1
  B  B15  1  0.500000  0.946408  0.932658  1
  B  B16  1  0.500000  0.750277  0.418464  1
  B  B17  1  0.500000  0.249722  0.581732  1
  B  B18  1  0.500000  0.250236  0.081536  1
  B  B19  1  0.500000  0.749758  0.918449  1
  B  B20  1  0.500000  0.792771  0.265538  1
  B  B21  1  0.500000  0.207208  0.734467  1
  B  B22  1  0.500000  0.292701  0.234315  1
  B  B23  1  0.500000  0.707202  0.765559  1
  B  B24  1  0.500000  0.630544  0.185245  1
  B  B25  1  0.500000  0.369482  0.814735  1
  B  B26  1  0.500000  0.130392  0.314628  1
  B  B27  1  0.500000  0.869465  0.685279  1
  B  B28  1  0.500000  0.982104  0.212456  1
  B  B29  1  0.500000  0.017898  0.787539  1
  B  B30  1  0.500000  0.482307  0.287424  1
  B  B31  1  0.500000  0.517934  0.712495  1
  B  B32  1  0.500000  0.598803  0.027516  1
  B  B33  1  0.500000  0.401215  0.972484  1
  B  B34  1  0.500000  0.098599  0.472541  1
  B  B35  1  0.500000  0.901215  0.527507  1
