# generated using pymatgen
data_Tb5Cu3(Ni4P3)4
_symmetry_space_group_name_H-M   'P 1'
_cell_length_a   12.11097000
_cell_length_b   12.11097077
_cell_length_c   3.79379600
_cell_angle_alpha   90.00000000
_cell_angle_beta   90.00000000
_cell_angle_gamma   120.00000335
_symmetry_Int_Tables_number   1
_chemical_formula_structural   Tb5Cu3(Ni4P3)4
_chemical_formula_sum   'Tb5 Cu3 Ni16 P12'
_cell_volume   481.90615779
_cell_formula_units_Z   1
loop_
 _symmetry_equiv_pos_site_id
 _symmetry_equiv_pos_as_xyz
  1  'x, y, z'
loop_
 _atom_site_type_symbol
 _atom_site_label
 _atom_site_symmetry_multiplicity
 _atom_site_fract_x
 _atom_site_fract_y
 _atom_site_fract_z
 _atom_site_occupancy
  Tb  Tb0  1  0.189469  0.189469  0.500000  1
  Tb  Tb1  1  0.810531  0.000000  0.500000  1
  Tb  Tb2  1  0.000000  0.810531  0.500000  1
  Tb  Tb3  1  0.333333  0.666667  0.000000  1
  Tb  Tb4  1  0.666667  0.333333  0.000000  1
  Cu  Cu5  1  0.557138  0.557138  0.000000  1
  Cu  Cu6  1  0.442862  0.000000  0.000000  1
  Cu  Cu7  1  0.000000  0.442862  0.000000  1
  Ni  Ni8  1  0.717330  0.717330  0.500000  1
  Ni  Ni9  1  0.282670  0.000000  0.500000  1
  Ni  Ni10  1  0.000000  0.282670  0.500000  1
  Ni  Ni11  1  0.181478  0.380126  0.000000  1
  Ni  Ni12  1  0.619874  0.801353  0.000000  1
  Ni  Ni13  1  0.198647  0.818522  0.000000  1
  Ni  Ni14  1  0.801353  0.619874  0.000000  1
  Ni  Ni15  1  0.818522  0.198647  0.000000  1
  Ni  Ni16  1  0.380126  0.181478  0.000000  1
  Ni  Ni17  1  0.363763  0.486585  0.500000  1
  Ni  Ni18  1  0.513415  0.877179  0.500000  1
  Ni  Ni19  1  0.122821  0.636237  0.500000  1
  Ni  Ni20  1  0.877179  0.513415  0.500000  1
  Ni  Ni21  1  0.636237  0.122821  0.500000  1
  Ni  Ni22  1  0.486585  0.363763  0.500000  1
  Ni  Ni23  1  0.000000  0.000000  0.000000  1
  P  P24  1  0.822082  0.822082  0.000000  1
  P  P25  1  0.177918  0.000000  0.000000  1
  P  P26  1  0.000000  0.177918  0.000000  1
  P  P27  1  0.170932  0.477296  0.500000  1
  P  P28  1  0.522704  0.693635  0.500000  1
  P  P29  1  0.306365  0.829068  0.500000  1
  P  P30  1  0.693635  0.522704  0.500000  1
  P  P31  1  0.829068  0.306365  0.500000  1
  P  P32  1  0.477296  0.170932  0.500000  1
  P  P33  1  0.366202  0.366202  0.000000  1
  P  P34  1  0.633798  0.000000  0.000000  1
  P  P35  1  0.000000  0.633798  0.000000  1
