# generated using pymatgen
data_YHo9(Hg2Pt)4
_symmetry_space_group_name_H-M   'P 1'
_cell_length_a   3.63575100
_cell_length_b   7.93415264
_cell_length_c   18.20900100
_cell_angle_alpha   89.94512449
_cell_angle_beta   90.00000000
_cell_angle_gamma   90.00000000
_symmetry_Int_Tables_number   1
_chemical_formula_structural   YHo9(Hg2Pt)4
_chemical_formula_sum   'Y1 Ho9 Hg8 Pt4'
_cell_volume   525.26758909
_cell_formula_units_Z   1
loop_
 _symmetry_equiv_pos_site_id
 _symmetry_equiv_pos_as_xyz
  1  'x, y, z'
loop_
 _atom_site_type_symbol
 _atom_site_label
 _atom_site_symmetry_multiplicity
 _atom_site_fract_x
 _atom_site_fract_y
 _atom_site_fract_z
 _atom_site_occupancy
  Y  Y0  1  0.000000  0.000000  0.000000  1
  Ho  Ho1  1  0.000000  0.113453  0.414100  1
  Ho  Ho2  1  0.000000  0.886547  0.585900  1
  Ho  Ho3  1  0.000000  0.386381  0.914092  1
  Ho  Ho4  1  0.000000  0.613619  0.085908  1
  Ho  Ho5  1  0.000000  0.239566  0.217494  1
  Ho  Ho6  1  0.000000  0.760434  0.782506  1
  Ho  Ho7  1  0.000000  0.260369  0.717614  1
  Ho  Ho8  1  0.000000  0.739631  0.282386  1
  Ho  Ho9  1  0.000000  0.500000  0.500000  1
  Hg  Hg10  1  0.500000  0.424571  0.354790  1
  Hg  Hg11  1  0.500000  0.575429  0.645210  1
  Hg  Hg12  1  0.500000  0.075627  0.854318  1
  Hg  Hg13  1  0.500000  0.924373  0.145682  1
  Hg  Hg14  1  0.500000  0.289367  0.063589  1
  Hg  Hg15  1  0.500000  0.710633  0.936411  1
  Hg  Hg16  1  0.500000  0.211826  0.563303  1
  Hg  Hg17  1  0.500000  0.788174  0.436697  1
  Pt  Pt18  1  0.500000  0.026609  0.303547  1
  Pt  Pt19  1  0.500000  0.973391  0.696453  1
  Pt  Pt20  1  0.500000  0.473380  0.803451  1
  Pt  Pt21  1  0.500000  0.526620  0.196549  1
