# generated using pymatgen
data_Sr2TlCd(InPd)2
_symmetry_space_group_name_H-M   'P 1'
_cell_length_a   5.94463451
_cell_length_b   5.94463548
_cell_length_c   8.40982338
_cell_angle_alpha   89.53665747
_cell_angle_beta   90.46334367
_cell_angle_gamma   136.36013986
_symmetry_Int_Tables_number   1
_chemical_formula_structural   Sr2TlCd(InPd)2
_chemical_formula_sum   'Sr2 Tl1 Cd1 In2 Pd2'
_cell_volume   205.09137518
_cell_formula_units_Z   1
loop_
 _symmetry_equiv_pos_site_id
 _symmetry_equiv_pos_as_xyz
  1  'x, y, z'
loop_
 _atom_site_type_symbol
 _atom_site_label
 _atom_site_symmetry_multiplicity
 _atom_site_fract_x
 _atom_site_fract_y
 _atom_site_fract_z
 _atom_site_occupancy
  Sr  Sr0  1  0.938402  0.061598  0.753084  1
  Sr  Sr1  1  0.061776  0.938224  0.247396  1
  Tl  Tl2  1  0.352346  0.647654  0.050314  1
  Cd  Cd3  1  0.650498  0.349502  0.945046  1
  In  In4  1  0.351128  0.648872  0.446899  1
  In  In5  1  0.647940  0.352060  0.556959  1
  Pd  Pd6  1  0.221229  0.778771  0.740257  1
  Pd  Pd7  1  0.776682  0.223318  0.260046  1
