# generated using pymatgen
data_YHo19Sn16
_symmetry_space_group_name_H-M   'P 1'
_cell_length_a   8.01143619
_cell_length_b   8.14609124
_cell_length_c   15.40556646
_cell_angle_alpha   90.02167104
_cell_angle_beta   90.01782586
_cell_angle_gamma   89.98233178
_symmetry_Int_Tables_number   1
_chemical_formula_structural   YHo19Sn16
_chemical_formula_sum   'Y1 Ho19 Sn16'
_cell_volume   1005.39621863
_cell_formula_units_Z   1
loop_
 _symmetry_equiv_pos_site_id
 _symmetry_equiv_pos_as_xyz
  1  'x, y, z'
loop_
 _atom_site_type_symbol
 _atom_site_label
 _atom_site_symmetry_multiplicity
 _atom_site_fract_x
 _atom_site_fract_y
 _atom_site_fract_z
 _atom_site_occupancy
  Y  Y0  1  0.022164  0.179076  0.902390  1
  Ho  Ho1  1  0.367794  0.836648  0.877792  1
  Ho  Ho2  1  0.867766  0.663316  0.622107  1
  Ho  Ho3  1  0.632194  0.163341  0.377932  1
  Ho  Ho4  1  0.132421  0.336833  0.122247  1
  Ho  Ho5  1  0.632345  0.163349  0.122130  1
  Ho  Ho6  1  0.132216  0.336705  0.377919  1
  Ho  Ho7  1  0.367904  0.836663  0.622131  1
  Ho  Ho8  1  0.867758  0.663349  0.877838  1
  Ho  Ho9  1  0.522310  0.320944  0.902158  1
  Ho  Ho10  1  0.022392  0.179167  0.597865  1
  Ho  Ho11  1  0.477629  0.679145  0.402184  1
  Ho  Ho12  1  0.977742  0.820753  0.097827  1
  Ho  Ho13  1  0.477665  0.679178  0.097826  1
  Ho  Ho14  1  0.977663  0.820866  0.402209  1
  Ho  Ho15  1  0.522402  0.320952  0.597774  1
  Ho  Ho16  1  0.198860  0.503089  0.749906  1
  Ho  Ho17  1  0.698692  0.996957  0.749919  1
  Ho  Ho18  1  0.801196  0.497003  0.250023  1
  Ho  Ho19  1  0.301181  0.002985  0.250038  1
  Sn  Sn20  1  0.292442  0.034983  0.042073  1
  Sn  Sn21  1  0.792071  0.464740  0.458132  1
  Sn  Sn22  1  0.707928  0.964703  0.541771  1
  Sn  Sn23  1  0.208138  0.535623  0.958314  1
  Sn  Sn24  1  0.707169  0.964276  0.958363  1
  Sn  Sn25  1  0.207938  0.535358  0.541775  1
  Sn  Sn26  1  0.292072  0.035229  0.458135  1
  Sn  Sn27  1  0.792096  0.464827  0.041891  1
  Sn  Sn28  1  0.565289  0.619426  0.749985  1
  Sn  Sn29  1  0.065267  0.880197  0.749892  1
  Sn  Sn30  1  0.434880  0.380619  0.250030  1
  Sn  Sn31  1  0.934883  0.119396  0.250013  1
  Sn  Sn32  1  0.331120  0.147826  0.749853  1
  Sn  Sn33  1  0.830544  0.352416  0.749703  1
  Sn  Sn34  1  0.668954  0.852187  0.249921  1
  Sn  Sn35  1  0.168915  0.647874  0.249933  1
