# generated using pymatgen
data_EuAlGaPt
_symmetry_space_group_name_H-M   'P 1'
_cell_length_a   9.55675896
_cell_length_b   9.55675930
_cell_length_c   4.35646400
_cell_angle_alpha   90.00000000
_cell_angle_beta   90.00000000
_cell_angle_gamma   155.03820322
_symmetry_Int_Tables_number   1
_chemical_formula_structural   EuAlGaPt
_chemical_formula_sum   'Eu2 Al2 Ga2 Pt2'
_cell_volume   167.91215351
_cell_formula_units_Z   2
loop_
 _symmetry_equiv_pos_site_id
 _symmetry_equiv_pos_as_xyz
  1  'x, y, z'
loop_
 _atom_site_type_symbol
 _atom_site_label
 _atom_site_symmetry_multiplicity
 _atom_site_fract_x
 _atom_site_fract_y
 _atom_site_fract_z
 _atom_site_occupancy
  Eu  Eu0  1  0.605994  0.394006  0.250000  1
  Eu  Eu1  1  0.394006  0.605994  0.750000  1
  Al  Al2  1  0.247843  0.752157  0.250000  1
  Al  Al3  1  0.752157  0.247843  0.750000  1
  Ga  Ga4  1  0.962623  0.037377  0.250000  1
  Ga  Ga5  1  0.037377  0.962623  0.750000  1
  Pt  Pt6  1  0.825831  0.174169  0.250000  1
  Pt  Pt7  1  0.174169  0.825831  0.750000  1
