# generated using pymatgen
data_Ba(Bi3Rh)4
_symmetry_space_group_name_H-M   'P 1'
_cell_length_a   8.56847772
_cell_length_b   8.56847858
_cell_length_c   8.56847900
_cell_angle_alpha   109.47122400
_cell_angle_beta   109.47122602
_cell_angle_gamma   109.47121991
_symmetry_Int_Tables_number   1
_chemical_formula_structural   Ba(Bi3Rh)4
_chemical_formula_sum   'Ba1 Bi12 Rh4'
_cell_volume   484.27181104
_cell_formula_units_Z   1
loop_
 _symmetry_equiv_pos_site_id
 _symmetry_equiv_pos_as_xyz
  1  'x, y, z'
loop_
 _atom_site_type_symbol
 _atom_site_label
 _atom_site_symmetry_multiplicity
 _atom_site_fract_x
 _atom_site_fract_y
 _atom_site_fract_z
 _atom_site_occupancy
  Ba  Ba0  1  0.000000  0.000000  0.000000  1
  Bi  Bi1  1  0.838704  0.661615  0.500319  1
  Bi  Bi2  1  0.161296  0.338385  0.499681  1
  Bi  Bi3  1  0.161296  0.661615  0.822911  1
  Bi  Bi4  1  0.838704  0.338385  0.177089  1
  Bi  Bi5  1  0.661615  0.500319  0.838704  1
  Bi  Bi6  1  0.338385  0.499681  0.161296  1
  Bi  Bi7  1  0.661615  0.822911  0.161296  1
  Bi  Bi8  1  0.338385  0.177089  0.838704  1
  Bi  Bi9  1  0.500319  0.838704  0.661615  1
  Bi  Bi10  1  0.499681  0.161296  0.338385  1
  Bi  Bi11  1  0.177089  0.838704  0.338385  1
  Bi  Bi12  1  0.822911  0.161296  0.661615  1
  Rh  Rh13  1  0.500000  0.500000  0.500000  1
  Rh  Rh14  1  0.500000  0.000000  0.000000  1
  Rh  Rh15  1  0.000000  0.500000  0.000000  1
  Rh  Rh16  1  0.000000  0.000000  0.500000  1
