# generated using pymatgen
data_Lu5P12Ru10Rh9
_symmetry_space_group_name_H-M   'P 1'
_cell_length_a   12.56566900
_cell_length_b   12.53084793
_cell_length_c   3.90956500
_cell_angle_alpha   90.00000000
_cell_angle_beta   90.00000000
_cell_angle_gamma   119.81460257
_symmetry_Int_Tables_number   1
_chemical_formula_structural   Lu5P12Ru10Rh9
_chemical_formula_sum   'Lu5 P12 Ru10 Rh9'
_cell_volume   534.11338360
_cell_formula_units_Z   1
loop_
 _symmetry_equiv_pos_site_id
 _symmetry_equiv_pos_as_xyz
  1  'x, y, z'
loop_
 _atom_site_type_symbol
 _atom_site_label
 _atom_site_symmetry_multiplicity
 _atom_site_fract_x
 _atom_site_fract_y
 _atom_site_fract_z
 _atom_site_occupancy
  Lu  Lu0  1  0.666720  0.332517  0.000000  1
  Lu  Lu1  1  0.333437  0.666908  0.000000  1
  Lu  Lu2  1  0.812265  0.000950  0.500000  1
  Lu  Lu3  1  0.185418  0.187201  0.500000  1
  Lu  Lu4  1  0.999976  0.813274  0.500000  1
  P  P5  1  0.632019  0.997786  0.000000  1
  P  P6  1  0.365538  0.370932  0.000000  1
  P  P7  1  0.005826  0.634391  0.000000  1
  P  P8  1  0.686727  0.519029  0.500000  1
  P  P9  1  0.830918  0.308760  0.500000  1
  P  P10  1  0.315183  0.831935  0.500000  1
  P  P11  1  0.517051  0.685262  0.500000  1
  P  P12  1  0.179421  0.001417  0.000000  1
  P  P13  1  0.820699  0.820444  0.000000  1
  P  P14  1  0.995903  0.179183  0.000000  1
  P  P15  1  0.479669  0.165659  0.500000  1
  P  P16  1  0.168507  0.483599  0.500000  1
  Ru  Ru17  1  0.128121  0.641896  0.500000  1
  Ru  Ru18  1  0.359762  0.487561  0.500000  1
  Ru  Ru19  1  0.511929  0.870512  0.500000  1
  Ru  Ru20  1  0.718072  0.716675  0.500000  1
  Ru  Ru21  1  0.001251  0.283992  0.500000  1
  Ru  Ru22  1  0.450660  0.002782  0.000000  1
  Ru  Ru23  1  0.553145  0.547851  0.000000  1
  Ru  Ru24  1  0.000165  0.449208  0.000000  1
  Ru  Ru25  1  0.816652  0.194110  0.000000  1
  Ru  Ru26  1  0.282765  0.001320  0.500000  1
  Rh  Rh27  1  0.625074  0.804848  0.000000  1
  Rh  Rh28  1  0.181136  0.374755  0.000000  1
  Rh  Rh29  1  0.374343  0.184337  0.000000  1
  Rh  Rh30  1  0.194848  0.820960  0.000000  1
  Rh  Rh31  1  0.809876  0.624895  0.000000  1
  Rh  Rh32  1  0.868722  0.506719  0.500000  1
  Rh  Rh33  1  0.491127  0.359299  0.500000  1
  Rh  Rh34  1  0.637549  0.128799  0.500000  1
  Rh  Rh35  1  0.999527  0.000231  0.000000  1
