# generated using pymatgen
data_Li3Tb3InGe2
_symmetry_space_group_name_H-M   'P 1'
_cell_length_a   7.27252800
_cell_length_b   7.27252850
_cell_length_c   4.28035600
_cell_angle_alpha   90.00000000
_cell_angle_beta   90.00000000
_cell_angle_gamma   120.00000681
_symmetry_Int_Tables_number   1
_chemical_formula_structural   Li3Tb3InGe2
_chemical_formula_sum   'Li3 Tb3 In1 Ge2'
_cell_volume   196.05653683
_cell_formula_units_Z   1
loop_
 _symmetry_equiv_pos_site_id
 _symmetry_equiv_pos_as_xyz
  1  'x, y, z'
loop_
 _atom_site_type_symbol
 _atom_site_label
 _atom_site_symmetry_multiplicity
 _atom_site_fract_x
 _atom_site_fract_y
 _atom_site_fract_z
 _atom_site_occupancy
  Li  Li0  1  0.749382  0.749382  0.500000  1
  Li  Li1  1  0.250618  0.000000  0.500000  1
  Li  Li2  1  0.000000  0.250618  0.500000  1
  Tb  Tb3  1  0.440770  0.440770  0.000000  1
  Tb  Tb4  1  0.559230  0.000000  0.000000  1
  Tb  Tb5  1  0.000000  0.559230  0.000000  1
  In  In6  1  0.000000  0.000000  0.000000  1
  Ge  Ge7  1  0.666667  0.333333  0.500000  1
  Ge  Ge8  1  0.333333  0.666667  0.500000  1
