# generated using pymatgen
data_LaPmCu4
_symmetry_space_group_name_H-M   'P 1'
_cell_length_a   5.71049610
_cell_length_b   5.71049738
_cell_length_c   5.71049635
_cell_angle_alpha   135.54794767
_cell_angle_beta   98.87905243
_cell_angle_gamma   97.57442534
_symmetry_Int_Tables_number   1
_chemical_formula_structural   LaPmCu4
_chemical_formula_sum   'La1 Pm1 Cu4'
_cell_volume   120.71062668
_cell_formula_units_Z   1
loop_
 _symmetry_equiv_pos_site_id
 _symmetry_equiv_pos_as_xyz
  1  'x, y, z'
loop_
 _atom_site_type_symbol
 _atom_site_label
 _atom_site_symmetry_multiplicity
 _atom_site_fract_x
 _atom_site_fract_y
 _atom_site_fract_z
 _atom_site_occupancy
  La  La0  1  0.000000  0.000000  0.000000  1
  Pm  Pm1  1  0.500000  0.500000  0.000000  1
  Cu  Cu2  1  0.580335  0.246968  0.333367  1
  Cu  Cu3  1  0.086400  0.753033  0.333368  1
  Cu  Cu4  1  0.913601  0.246968  0.666634  1
  Cu  Cu5  1  0.419665  0.753033  0.666633  1
