# generated using pymatgen
data_La4MgInSi3Ge
_symmetry_space_group_name_H-M   'P 1'
_cell_length_a   7.53263718
_cell_length_b   7.53861747
_cell_length_c   4.48260800
_cell_angle_alpha   90.00000000
_cell_angle_beta   90.00000000
_cell_angle_gamma   89.82484546
_symmetry_Int_Tables_number   1
_chemical_formula_structural   La4MgInSi3Ge
_chemical_formula_sum   'La4 Mg1 In1 Si3 Ge1'
_cell_volume   254.54671037
_cell_formula_units_Z   1
loop_
 _symmetry_equiv_pos_site_id
 _symmetry_equiv_pos_as_xyz
  1  'x, y, z'
loop_
 _atom_site_type_symbol
 _atom_site_label
 _atom_site_symmetry_multiplicity
 _atom_site_fract_x
 _atom_site_fract_y
 _atom_site_fract_z
 _atom_site_occupancy
  La  La0  1  0.680985  0.176756  0.500000  1
  La  La1  1  0.319587  0.824769  0.500000  1
  La  La2  1  0.176712  0.316090  0.500000  1
  La  La3  1  0.821162  0.681771  0.500000  1
  Mg  Mg4  1  0.502811  0.498353  0.000000  1
  In  In5  1  0.998233  0.003165  0.000000  1
  Si  Si6  1  0.879646  0.388071  0.000000  1
  Si  Si7  1  0.608897  0.883676  0.000000  1
  Si  Si8  1  0.391357  0.116949  0.000000  1
  Ge  Ge9  1  0.120611  0.610399  0.000000  1
