# generated using pymatgen
data_NdTh7(Si3Os)4
_symmetry_space_group_name_H-M   'P 1'
_cell_length_a   8.29220400
_cell_length_b   8.29220459
_cell_length_c   8.33843500
_cell_angle_alpha   90.00000000
_cell_angle_beta   90.00000000
_cell_angle_gamma   119.99999764
_symmetry_Int_Tables_number   1
_chemical_formula_structural   NdTh7(Si3Os)4
_chemical_formula_sum   'Nd1 Th7 Si12 Os4'
_cell_volume   496.54107060
_cell_formula_units_Z   1
loop_
 _symmetry_equiv_pos_site_id
 _symmetry_equiv_pos_as_xyz
  1  'x, y, z'
loop_
 _atom_site_type_symbol
 _atom_site_label
 _atom_site_symmetry_multiplicity
 _atom_site_fract_x
 _atom_site_fract_y
 _atom_site_fract_z
 _atom_site_occupancy
  Nd  Nd0  1  0.000000  0.000000  0.250000  1
  Th  Th1  1  0.499670  0.500330  0.750000  1
  Th  Th2  1  0.500361  0.499639  0.250000  1
  Th  Th3  1  0.000659  0.500330  0.750000  1
  Th  Th4  1  0.999277  0.499639  0.250000  1
  Th  Th5  1  0.499670  0.999341  0.750000  1
  Th  Th6  1  0.500361  0.000723  0.250000  1
  Th  Th7  1  0.000000  0.000000  0.750000  1
  Si  Si8  1  0.834044  0.165956  0.998269  1
  Si  Si9  1  0.165957  0.834043  0.998687  1
  Si  Si10  1  0.331912  0.165956  0.998269  1
  Si  Si11  1  0.165957  0.834043  0.501313  1
  Si  Si12  1  0.668085  0.834043  0.998687  1
  Si  Si13  1  0.834044  0.165956  0.501731  1
  Si  Si14  1  0.834044  0.668088  0.998269  1
  Si  Si15  1  0.668085  0.834043  0.501313  1
  Si  Si16  1  0.165957  0.331915  0.998687  1
  Si  Si17  1  0.331912  0.165956  0.501731  1
  Si  Si18  1  0.165957  0.331915  0.501313  1
  Si  Si19  1  0.834044  0.668088  0.501731  1
  Os  Os20  1  0.666667  0.333333  0.003079  1
  Os  Os21  1  0.333333  0.666667  0.004965  1
  Os  Os22  1  0.333333  0.666667  0.495035  1
  Os  Os23  1  0.666667  0.333333  0.496921  1
