# generated using pymatgen
data_Tb20Cd3Ru2Au3
_symmetry_space_group_name_H-M   'P 1'
_cell_length_a   9.64576700
_cell_length_b   9.64576702
_cell_length_c   9.66274700
_cell_angle_alpha   90.00000000
_cell_angle_beta   90.00000000
_cell_angle_gamma   120.00000335
_symmetry_Int_Tables_number   1
_chemical_formula_structural   Tb20Cd3Ru2Au3
_chemical_formula_sum   'Tb20 Cd3 Ru2 Au3'
_cell_volume   778.58272011
_cell_formula_units_Z   1
loop_
 _symmetry_equiv_pos_site_id
 _symmetry_equiv_pos_as_xyz
  1  'x, y, z'
loop_
 _atom_site_type_symbol
 _atom_site_label
 _atom_site_symmetry_multiplicity
 _atom_site_fract_x
 _atom_site_fract_y
 _atom_site_fract_z
 _atom_site_occupancy
  Tb  Tb0  1  0.000000  0.000000  0.459293  1
  Tb  Tb1  1  0.000000  0.000000  0.040707  1
  Tb  Tb2  1  0.209560  0.790440  0.440304  1
  Tb  Tb3  1  0.209560  0.419122  0.440304  1
  Tb  Tb4  1  0.580878  0.790440  0.440304  1
  Tb  Tb5  1  0.791567  0.208433  0.559190  1
  Tb  Tb6  1  0.791567  0.583132  0.559190  1
  Tb  Tb7  1  0.416868  0.208433  0.559190  1
  Tb  Tb8  1  0.791567  0.208433  0.940810  1
  Tb  Tb9  1  0.791567  0.583132  0.940810  1
  Tb  Tb10  1  0.416868  0.208433  0.940810  1
  Tb  Tb11  1  0.209560  0.790440  0.059696  1
  Tb  Tb12  1  0.209560  0.419122  0.059696  1
  Tb  Tb13  1  0.580878  0.790440  0.059696  1
  Tb  Tb14  1  0.540368  0.459632  0.250000  1
  Tb  Tb15  1  0.540368  0.080737  0.250000  1
  Tb  Tb16  1  0.919263  0.459632  0.250000  1
  Tb  Tb17  1  0.458374  0.541626  0.750000  1
  Tb  Tb18  1  0.458374  0.916748  0.750000  1
  Tb  Tb19  1  0.083252  0.541626  0.750000  1
  Cd  Cd20  1  0.109629  0.890371  0.750000  1
  Cd  Cd21  1  0.109629  0.219257  0.750000  1
  Cd  Cd22  1  0.780743  0.890371  0.750000  1
  Ru  Ru23  1  0.333333  0.666667  0.250000  1
  Ru  Ru24  1  0.666667  0.333333  0.750000  1
  Au  Au25  1  0.869229  0.130771  0.250000  1
  Au  Au26  1  0.869229  0.738461  0.250000  1
  Au  Au27  1  0.261539  0.130771  0.250000  1
