# generated using pymatgen
data_Ba4Fe3Ni(RhN3)2
_symmetry_space_group_name_H-M   'P 1'
_cell_length_a   6.82632581
_cell_length_b   6.77510101
_cell_length_c   6.73942638
_cell_angle_alpha   88.94968124
_cell_angle_beta   89.69000967
_cell_angle_gamma   117.63018758
_symmetry_Int_Tables_number   1
_chemical_formula_structural   Ba4Fe3Ni(RhN3)2
_chemical_formula_sum   'Ba4 Fe3 Ni1 Rh2 N6'
_cell_volume   276.06603820
_cell_formula_units_Z   1
loop_
 _symmetry_equiv_pos_site_id
 _symmetry_equiv_pos_as_xyz
  1  'x, y, z'
loop_
 _atom_site_type_symbol
 _atom_site_label
 _atom_site_symmetry_multiplicity
 _atom_site_fract_x
 _atom_site_fract_y
 _atom_site_fract_z
 _atom_site_occupancy
  Ba  Ba0  1  0.833055  0.666553  0.900343  1
  Ba  Ba1  1  0.321252  0.158939  0.598539  1
  Ba  Ba2  1  0.166241  0.321597  0.100018  1
  Ba  Ba3  1  0.670175  0.832842  0.398959  1
  Fe  Fe4  1  0.448791  0.853120  0.903844  1
  Fe  Fe5  1  0.843885  0.444949  0.388212  1
  Fe  Fe6  1  0.152627  0.555766  0.604507  1
  Ni  Ni7  1  0.569458  0.162474  0.113641  1
  Rh  Rh8  1  0.806551  0.194351  0.743156  1
  Rh  Rh9  1  0.188516  0.798667  0.247661  1
  N  N10  1  0.385766  0.617975  0.754878  1
  N  N11  1  0.607132  0.403046  0.262088  1
  N  N12  1  0.013932  0.714412  0.506191  1
  N  N13  1  0.723297  0.012538  0.994614  1
  N  N14  1  0.988317  0.287159  0.489516  1
  N  N15  1  0.281006  0.975610  0.993833  1
