# generated using pymatgen
data_Tb11Ho5Mg2(Co2Hg)2
_symmetry_space_group_name_H-M   'P 1'
_cell_length_a   9.53777927
_cell_length_b   9.53777849
_cell_length_c   9.52988300
_cell_angle_alpha   60.02737658
_cell_angle_beta   60.02737926
_cell_angle_gamma   60.34294488
_symmetry_Int_Tables_number   1
_chemical_formula_structural   Tb11Ho5Mg2(Co2Hg)2
_chemical_formula_sum   'Tb11 Ho5 Mg2 Co4 Hg2'
_cell_volume   614.83782862
_cell_formula_units_Z   1
loop_
 _symmetry_equiv_pos_site_id
 _symmetry_equiv_pos_as_xyz
  1  'x, y, z'
loop_
 _atom_site_type_symbol
 _atom_site_label
 _atom_site_symmetry_multiplicity
 _atom_site_fract_x
 _atom_site_fract_y
 _atom_site_fract_z
 _atom_site_occupancy
  Tb  Tb0  1  0.808297  0.808297  0.191703  1
  Tb  Tb1  1  0.937386  0.560415  0.563399  1
  Tb  Tb2  1  0.560415  0.937386  0.938801  1
  Tb  Tb3  1  0.560416  0.937386  0.563399  1
  Tb  Tb4  1  0.937386  0.560415  0.938801  1
  Tb  Tb5  1  0.562072  0.562071  0.937929  1
  Tb  Tb6  1  0.937957  0.937957  0.562043  1
  Tb  Tb7  1  0.345787  0.345787  0.343179  1
  Tb  Tb8  1  0.345787  0.345787  0.965246  1
  Tb  Tb9  1  0.348570  0.959560  0.345934  1
  Tb  Tb10  1  0.959560  0.348570  0.345934  1
  Ho  Ho11  1  0.812340  0.184864  0.188359  1
  Ho  Ho12  1  0.184864  0.812340  0.814437  1
  Ho  Ho13  1  0.184864  0.812340  0.188359  1
  Ho  Ho14  1  0.812340  0.184864  0.814437  1
  Ho  Ho15  1  0.185726  0.185726  0.814274  1
  Mg  Mg16  1  0.581040  0.273219  0.572870  1
  Mg  Mg17  1  0.273219  0.581040  0.572870  1
  Co  Co18  1  0.140878  0.140878  0.140548  1
  Co  Co19  1  0.140878  0.140878  0.577699  1
  Co  Co20  1  0.139780  0.578193  0.141014  1
  Co  Co21  1  0.578193  0.139780  0.141014  1
  Hg  Hg22  1  0.581122  0.581122  0.588097  1
  Hg  Hg23  1  0.581122  0.581122  0.249658  1
