# generated using pymatgen
data_La2Ga3GeRh6
_symmetry_space_group_name_H-M   'P 1'
_cell_length_a   5.73686578
_cell_length_b   6.87205476
_cell_length_c   6.87205676
_cell_angle_alpha   67.06914326
_cell_angle_beta   65.22458312
_cell_angle_gamma   65.22458505
_symmetry_Int_Tables_number   1
_chemical_formula_structural   La2Ga3GeRh6
_chemical_formula_sum   'La2 Ga3 Ge1 Rh6'
_cell_volume   215.68954710
_cell_formula_units_Z   1
loop_
 _symmetry_equiv_pos_site_id
 _symmetry_equiv_pos_as_xyz
  1  'x, y, z'
loop_
 _atom_site_type_symbol
 _atom_site_label
 _atom_site_symmetry_multiplicity
 _atom_site_fract_x
 _atom_site_fract_y
 _atom_site_fract_z
 _atom_site_occupancy
  La  La0  1  0.539249  0.749978  0.749978  1
  La  La1  1  0.454511  0.249845  0.249845  1
  Ga  Ga2  1  0.216884  0.573072  0.573072  1
  Ga  Ga3  1  0.797874  0.414168  0.414168  1
  Ga  Ga4  1  0.119425  0.092893  0.092893  1
  Ge  Ge5  1  0.866996  0.920964  0.920964  1
  Rh  Rh6  1  0.500457  0.222966  0.775945  1
  Rh  Rh7  1  0.999666  0.733306  0.266842  1
  Rh  Rh8  1  0.500457  0.775945  0.222966  1
  Rh  Rh9  1  0.999666  0.266842  0.733306  1
  Rh  Rh10  1  0.002407  0.511534  0.988488  1
  Rh  Rh11  1  0.002407  0.988488  0.511534  1
