# generated using pymatgen
data_Ce6Sc2InAu9
_symmetry_space_group_name_H-M   'P 1'
_cell_length_a   8.15481556
_cell_length_b   8.15481487
_cell_length_c   8.15481300
_cell_angle_alpha   65.72340553
_cell_angle_beta   65.72340773
_cell_angle_gamma   65.72339630
_symmetry_Int_Tables_number   1
_chemical_formula_structural   Ce6Sc2InAu9
_chemical_formula_sum   'Ce6 Sc2 In1 Au9'
_cell_volume   431.08294533
_cell_formula_units_Z   1
loop_
 _symmetry_equiv_pos_site_id
 _symmetry_equiv_pos_as_xyz
  1  'x, y, z'
loop_
 _atom_site_type_symbol
 _atom_site_label
 _atom_site_symmetry_multiplicity
 _atom_site_fract_x
 _atom_site_fract_y
 _atom_site_fract_z
 _atom_site_occupancy
  Ce  Ce0  1  0.898320  0.183100  0.624900  1
  Ce  Ce1  1  0.624900  0.898320  0.183100  1
  Ce  Ce2  1  0.183100  0.624900  0.898320  1
  Ce  Ce3  1  0.101680  0.816900  0.375100  1
  Ce  Ce4  1  0.375100  0.101680  0.816900  1
  Ce  Ce5  1  0.816900  0.375100  0.101680  1
  Sc  Sc6  1  0.661979  0.661979  0.661979  1
  Sc  Sc7  1  0.338021  0.338021  0.338021  1
  In  In8  1  0.500000  0.500000  0.500000  1
  Au  Au9  1  0.000000  0.000000  0.000000  1
  Au  Au10  1  0.804482  0.804482  0.804482  1
  Au  Au11  1  0.195518  0.195518  0.195518  1
  Au  Au12  1  0.932641  0.546313  0.327921  1
  Au  Au13  1  0.327921  0.932641  0.546313  1
  Au  Au14  1  0.546313  0.327921  0.932641  1
  Au  Au15  1  0.067359  0.453687  0.672079  1
  Au  Au16  1  0.672079  0.067359  0.453687  1
  Au  Au17  1  0.453687  0.672079  0.067359  1
