# generated using pymatgen
data_Tb8CeEr7(CdCo)4
_symmetry_space_group_name_H-M   'P 1'
_cell_length_a   9.50982583
_cell_length_b   9.50725440
_cell_length_c   9.37165487
_cell_angle_alpha   60.43134020
_cell_angle_beta   60.43760376
_cell_angle_gamma   59.66904771
_symmetry_Int_Tables_number   1
_chemical_formula_structural   Tb8CeEr7(CdCo)4
_chemical_formula_sum   'Tb8 Ce1 Er7 Cd4 Co4'
_cell_volume   601.50333107
_cell_formula_units_Z   1
loop_
 _symmetry_equiv_pos_site_id
 _symmetry_equiv_pos_as_xyz
  1  'x, y, z'
loop_
 _atom_site_type_symbol
 _atom_site_label
 _atom_site_symmetry_multiplicity
 _atom_site_fract_x
 _atom_site_fract_y
 _atom_site_fract_z
 _atom_site_occupancy
  Tb  Tb0  1  0.815043  0.816553  0.183518  1
  Tb  Tb1  1  0.216181  0.594997  0.595264  1
  Tb  Tb2  1  0.807573  0.189721  0.190044  1
  Tb  Tb3  1  0.055449  0.435349  0.444211  1
  Tb  Tb4  1  0.190012  0.808667  0.189147  1
  Tb  Tb5  1  0.600219  0.601577  0.208363  1
  Tb  Tb6  1  0.181672  0.180534  0.818388  1
  Tb  Tb7  1  0.056788  0.435829  0.064348  1
  Ce  Ce8  1  0.433027  0.430911  0.067446  1
  Er  Er9  1  0.599099  0.600229  0.591744  1
  Er  Er10  1  0.190115  0.808844  0.810622  1
  Er  Er11  1  0.061428  0.060233  0.440150  1
  Er  Er12  1  0.437153  0.055838  0.064474  1
  Er  Er13  1  0.807660  0.189802  0.811216  1
  Er  Er14  1  0.436628  0.054515  0.443692  1
  Er  Er15  1  0.594720  0.215980  0.595524  1
  Cd  Cd16  1  0.829443  0.830925  0.509465  1
  Cd  Cd17  1  0.830690  0.832241  0.829318  1
  Cd  Cd18  1  0.507200  0.834781  0.828113  1
  Cd  Cd19  1  0.833500  0.507290  0.828697  1
  Co  Co20  1  0.401666  0.400124  0.350657  1
  Co  Co21  1  0.824960  0.386610  0.395347  1
  Co  Co22  1  0.386976  0.827014  0.394134  1
  Co  Co23  1  0.402799  0.401434  0.846119  1
