# generated using pymatgen
data_Pr9NdB2Cl15
_symmetry_space_group_name_H-M   'P 1'
_cell_length_a   9.11736177
_cell_length_b   9.96960081
_cell_length_c   10.74231259
_cell_angle_alpha   90.44172871
_cell_angle_beta   114.71818855
_cell_angle_gamma   111.31755631
_symmetry_Int_Tables_number   1
_chemical_formula_structural   Pr9NdB2Cl15
_chemical_formula_sum   'Pr9 Nd1 B2 Cl15'
_cell_volume   811.43345384
_cell_formula_units_Z   1
loop_
 _symmetry_equiv_pos_site_id
 _symmetry_equiv_pos_as_xyz
  1  'x, y, z'
loop_
 _atom_site_type_symbol
 _atom_site_label
 _atom_site_symmetry_multiplicity
 _atom_site_fract_x
 _atom_site_fract_y
 _atom_site_fract_z
 _atom_site_occupancy
  Pr  Pr0  1  0.811981  0.419830  0.280285  1
  Pr  Pr1  1  0.187760  0.580084  0.719656  1
  Pr  Pr2  1  0.682364  0.743265  0.817968  1
  Pr  Pr3  1  0.317369  0.256663  0.182001  1
  Pr  Pr4  1  0.527030  0.699480  0.102431  1
  Pr  Pr5  1  0.472609  0.300391  0.897505  1
  Pr  Pr6  1  0.591603  0.037481  0.334870  1
  Pr  Pr7  1  0.408034  0.962398  0.665046  1
  Pr  Pr8  1  0.735648  0.078812  0.050073  1
  Nd  Nd9  1  0.265758  0.921516  0.950117  1
  B  B10  1  0.465132  0.816553  0.874098  1
  B  B11  1  0.533441  0.182947  0.125569  1
  Cl  Cl12  1  0.000786  0.999642  0.999771  1
  Cl  Cl13  1  0.635350  0.883695  0.586963  1
  Cl  Cl14  1  0.364591  0.116285  0.413038  1
  Cl  Cl15  1  0.881676  0.299090  0.523247  1
  Cl  Cl16  1  0.118242  0.700854  0.476708  1
  Cl  Cl17  1  0.295785  0.766352  0.180370  1
  Cl  Cl18  1  0.703700  0.234181  0.818569  1
  Cl  Cl19  1  0.055362  0.344988  0.227738  1
  Cl  Cl20  1  0.168870  0.057722  0.706572  1
  Cl  Cl21  1  0.831148  0.941599  0.294350  1
  Cl  Cl22  1  0.236535  0.411065  0.945797  1
  Cl  Cl23  1  0.763378  0.588899  0.054185  1
  Cl  Cl24  1  0.407353  0.468436  0.661168  1
  Cl  Cl25  1  0.592624  0.531561  0.338831  1
  Cl  Cl26  1  0.945871  0.656209  0.773073  1
