# generated using pymatgen
data_Mn3Sn2Sb
_symmetry_space_group_name_H-M   'P 1'
_cell_length_a   5.35566000
_cell_length_b   5.35566033
_cell_length_c   4.51803800
_cell_angle_alpha   90.00000000
_cell_angle_beta   90.00000000
_cell_angle_gamma   119.99999794
_symmetry_Int_Tables_number   1
_chemical_formula_structural   Mn3Sn2Sb
_chemical_formula_sum   'Mn3 Sn2 Sb1'
_cell_volume   112.22937488
_cell_formula_units_Z   1
loop_
 _symmetry_equiv_pos_site_id
 _symmetry_equiv_pos_as_xyz
  1  'x, y, z'
loop_
 _atom_site_type_symbol
 _atom_site_label
 _atom_site_symmetry_multiplicity
 _atom_site_fract_x
 _atom_site_fract_y
 _atom_site_fract_z
 _atom_site_occupancy
  Mn  Mn0  1  0.499999  0.000000  0.000000  1
  Mn  Mn1  1  0.000000  0.500000  0.000000  1
  Mn  Mn2  1  0.500000  0.500000  0.000000  1
  Sn  Sn3  1  0.666666  0.333333  0.499999  1
  Sn  Sn4  1  0.333333  0.666667  0.499999  1
  Sb  Sb5  1  0.000000  0.000000  0.000000  1
