# generated using pymatgen
data_Ca3Pr17(InGa3)3
_symmetry_space_group_name_H-M   'P 1'
_cell_length_a   7.92159700
_cell_length_b   7.92159700
_cell_length_c   15.16053300
_cell_angle_alpha   90.00000000
_cell_angle_beta   90.00000000
_cell_angle_gamma   90.00000000
_symmetry_Int_Tables_number   1
_chemical_formula_structural   Ca3Pr17(InGa3)3
_chemical_formula_sum   'Ca3 Pr17 In3 Ga9'
_cell_volume   951.34920396
_cell_formula_units_Z   1
loop_
 _symmetry_equiv_pos_site_id
 _symmetry_equiv_pos_as_xyz
  1  'x, y, z'
loop_
 _atom_site_type_symbol
 _atom_site_label
 _atom_site_symmetry_multiplicity
 _atom_site_fract_x
 _atom_site_fract_y
 _atom_site_fract_z
 _atom_site_occupancy
  Ca  Ca0  1  0.000000  0.000000  0.248480  1
  Ca  Ca1  1  0.000000  0.000000  0.740081  1
  Ca  Ca2  1  0.500000  0.500000  0.243906  1
  Pr  Pr3  1  0.674873  0.167814  0.102776  1
  Pr  Pr4  1  0.177787  0.665372  0.608033  1
  Pr  Pr5  1  0.325127  0.832186  0.102776  1
  Pr  Pr6  1  0.822213  0.334628  0.608033  1
  Pr  Pr7  1  0.832186  0.674873  0.102776  1
  Pr  Pr8  1  0.334628  0.177787  0.608033  1
  Pr  Pr9  1  0.167814  0.325127  0.102776  1
  Pr  Pr10  1  0.665372  0.822213  0.608033  1
  Pr  Pr11  1  0.840694  0.319140  0.897173  1
  Pr  Pr12  1  0.328420  0.829904  0.391204  1
  Pr  Pr13  1  0.159306  0.680860  0.897173  1
  Pr  Pr14  1  0.671580  0.170096  0.391204  1
  Pr  Pr15  1  0.680860  0.840694  0.897173  1
  Pr  Pr16  1  0.170096  0.328420  0.391204  1
  Pr  Pr17  1  0.319140  0.159306  0.897173  1
  Pr  Pr18  1  0.829904  0.671580  0.391204  1
  Pr  Pr19  1  0.500000  0.500000  0.781657  1
  In  In20  1  0.500000  0.500000  0.493311  1
  In  In21  1  0.500000  0.500000  0.000752  1
  In  In22  1  0.000000  0.000000  0.500724  1
  Ga  Ga23  1  0.617474  0.120007  0.750406  1
  Ga  Ga24  1  0.117969  0.617681  0.247062  1
  Ga  Ga25  1  0.882031  0.382319  0.247062  1
  Ga  Ga26  1  0.382526  0.879993  0.750406  1
  Ga  Ga27  1  0.879993  0.617474  0.750406  1
  Ga  Ga28  1  0.382319  0.117969  0.247062  1
  Ga  Ga29  1  0.120007  0.382526  0.750406  1
  Ga  Ga30  1  0.617681  0.882031  0.247062  1
  Ga  Ga31  1  0.000000  0.000000  0.004474  1
