# generated using pymatgen
data_Th2VN3
_symmetry_space_group_name_H-M   'P 1'
_cell_length_a   3.52586674
_cell_length_b   3.84292381
_cell_length_c   7.02850478
_cell_angle_alpha   105.86556893
_cell_angle_beta   104.52642164
_cell_angle_gamma   90.00000151
_symmetry_Int_Tables_number   1
_chemical_formula_structural   Th2VN3
_chemical_formula_sum   'Th2 V1 N3'
_cell_volume   88.43661153
_cell_formula_units_Z   1
loop_
 _symmetry_equiv_pos_site_id
 _symmetry_equiv_pos_as_xyz
  1  'x, y, z'
loop_
 _atom_site_type_symbol
 _atom_site_label
 _atom_site_symmetry_multiplicity
 _atom_site_fract_x
 _atom_site_fract_y
 _atom_site_fract_z
 _atom_site_occupancy
  Th  Th0  1  0.647239  0.647236  0.294477  1
  Th  Th1  1  0.352763  0.352762  0.705524  1
  V  V2  1  0.000000  0.000000  0.000000  1
  N  N3  1  0.000000  0.499998  0.000000  1
  N  N4  1  0.162832  0.162832  0.325664  1
  N  N5  1  0.837168  0.837166  0.674336  1
