# generated using pymatgen
data_Sm8SnPI12
_symmetry_space_group_name_H-M   'P 1'
_cell_length_a   4.27712200
_cell_length_b   14.21067189
_cell_length_c   14.99672500
_cell_angle_alpha   90.12139205
_cell_angle_beta   90.00000000
_cell_angle_gamma   90.00000000
_symmetry_Int_Tables_number   1
_chemical_formula_structural   Sm8SnPI12
_chemical_formula_sum   'Sm8 Sn1 P1 I12'
_cell_volume   911.51055807
_cell_formula_units_Z   1
loop_
 _symmetry_equiv_pos_site_id
 _symmetry_equiv_pos_as_xyz
  1  'x, y, z'
loop_
 _atom_site_type_symbol
 _atom_site_label
 _atom_site_symmetry_multiplicity
 _atom_site_fract_x
 _atom_site_fract_y
 _atom_site_fract_z
 _atom_site_occupancy
  Sm  Sm0  1  0.500000  0.111871  0.351372  1
  Sm  Sm1  1  0.500000  0.888129  0.648628  1
  Sm  Sm2  1  0.500000  0.622301  0.161816  1
  Sm  Sm3  1  0.500000  0.377699  0.838184  1
  Sm  Sm4  1  0.000000  0.105762  0.571160  1
  Sm  Sm5  1  0.000000  0.894238  0.428840  1
  Sm  Sm6  1  0.000000  0.621809  0.917501  1
  Sm  Sm7  1  0.000000  0.378191  0.082499  1
  Sn  Sn8  1  0.500000  0.500000  0.000000  1
  P  P9  1  0.500000  0.000000  0.500000  1
  I  I10  1  0.500000  0.238932  0.167095  1
  I  I11  1  0.500000  0.761068  0.832905  1
  I  I12  1  0.500000  0.748846  0.340832  1
  I  I13  1  0.500000  0.251154  0.659168  1
  I  I14  1  0.000000  0.258057  0.416451  1
  I  I15  1  0.000000  0.741943  0.583549  1
  I  I16  1  0.000000  0.763421  0.084888  1
  I  I17  1  0.000000  0.236579  0.915112  1
  I  I18  1  0.000000  0.998563  0.241842  1
  I  I19  1  0.000000  0.001437  0.758158  1
  I  I20  1  0.000000  0.499409  0.263903  1
  I  I21  1  0.000000  0.500591  0.736097  1
