# generated using pymatgen
data_SrTb6PtI12
_symmetry_space_group_name_H-M   'P 1'
_cell_length_a   9.85189928
_cell_length_b   9.85189866
_cell_length_c   9.85190026
_cell_angle_alpha   106.52096179
_cell_angle_beta   106.52096325
_cell_angle_gamma   106.52096002
_symmetry_Int_Tables_number   1
_chemical_formula_structural   SrTb6PtI12
_chemical_formula_sum   'Sr1 Tb6 Pt1 I12'
_cell_volume   806.53320090
_cell_formula_units_Z   1
loop_
 _symmetry_equiv_pos_site_id
 _symmetry_equiv_pos_as_xyz
  1  'x, y, z'
loop_
 _atom_site_type_symbol
 _atom_site_label
 _atom_site_symmetry_multiplicity
 _atom_site_fract_x
 _atom_site_fract_y
 _atom_site_fract_z
 _atom_site_occupancy
  Sr  Sr0  1  0.500000  0.500000  0.500000  1
  Tb  Tb1  1  0.096553  0.024055  0.300398  1
  Tb  Tb2  1  0.300398  0.096553  0.024055  1
  Tb  Tb3  1  0.024055  0.300398  0.096553  1
  Tb  Tb4  1  0.903447  0.975945  0.699602  1
  Tb  Tb5  1  0.699602  0.903447  0.975945  1
  Tb  Tb6  1  0.975945  0.699602  0.903447  1
  Pt  Pt7  1  0.000000  0.000000  0.000000  1
  I  I8  1  0.073860  0.677916  0.223058  1
  I  I9  1  0.223058  0.073860  0.677916  1
  I  I10  1  0.677916  0.223058  0.073860  1
  I  I11  1  0.926140  0.322084  0.776942  1
  I  I12  1  0.776942  0.926140  0.322084  1
  I  I13  1  0.322084  0.776942  0.926140  1
  I  I14  1  0.452711  0.137700  0.373109  1
  I  I15  1  0.373109  0.452711  0.137700  1
  I  I16  1  0.137700  0.373109  0.452711  1
  I  I17  1  0.547289  0.862300  0.626891  1
  I  I18  1  0.626891  0.547289  0.862300  1
  I  I19  1  0.862300  0.626891  0.547289  1
