# generated using pymatgen
data_K4GdAuO5
_symmetry_space_group_name_H-M   'P 1'
_cell_length_a   6.47424400
_cell_length_b   6.47424367
_cell_length_c   11.18421800
_cell_angle_alpha   90.00000000
_cell_angle_beta   90.00000000
_cell_angle_gamma   114.73029577
_symmetry_Int_Tables_number   1
_chemical_formula_structural   K4GdAuO5
_chemical_formula_sum   'K8 Gd2 Au2 O10'
_cell_volume   425.80119215
_cell_formula_units_Z   2
loop_
 _symmetry_equiv_pos_site_id
 _symmetry_equiv_pos_as_xyz
  1  'x, y, z'
loop_
 _atom_site_type_symbol
 _atom_site_label
 _atom_site_symmetry_multiplicity
 _atom_site_fract_x
 _atom_site_fract_y
 _atom_site_fract_z
 _atom_site_occupancy
  K  K0  1  0.380891  0.029203  0.250000  1
  K  K1  1  0.029203  0.380891  0.250000  1
  K  K2  1  0.661957  0.338043  0.000000  1
  K  K3  1  0.661957  0.338043  0.500000  1
  K  K4  1  0.338043  0.661957  0.000000  1
  K  K5  1  0.619109  0.970797  0.750000  1
  K  K6  1  0.338043  0.661957  0.500000  1
  K  K7  1  0.970797  0.619109  0.750000  1
  Gd  Gd8  1  0.765708  0.765708  0.250000  1
  Gd  Gd9  1  0.234292  0.234292  0.750000  1
  Au  Au10  1  0.000000  0.000000  0.000000  1
  Au  Au11  1  0.000000  0.000000  0.500000  1
  O  O12  1  0.993193  0.259319  0.605784  1
  O  O13  1  0.259319  0.993193  0.894216  1
  O  O14  1  0.740681  0.006807  0.394216  1
  O  O15  1  0.740681  0.006807  0.105784  1
  O  O16  1  0.463439  0.463439  0.250000  1
  O  O17  1  0.536561  0.536561  0.750000  1
  O  O18  1  0.006807  0.740681  0.394216  1
  O  O19  1  0.259319  0.993193  0.605784  1
  O  O20  1  0.006807  0.740681  0.105784  1
  O  O21  1  0.993193  0.259319  0.894216  1
