# generated using pymatgen
data_NdZnSiIrRh
_symmetry_space_group_name_H-M   'P 1'
_cell_length_a   4.11198500
_cell_length_b   4.11199000
_cell_length_c   10.60140100
_cell_angle_alpha   90.00000000
_cell_angle_beta   90.00000000
_cell_angle_gamma   90.00000000
_symmetry_Int_Tables_number   1
_chemical_formula_structural   NdZnSiIrRh
_chemical_formula_sum   'Nd2 Zn2 Si2 Ir2 Rh2'
_cell_volume   179.25316545
_cell_formula_units_Z   2
loop_
 _symmetry_equiv_pos_site_id
 _symmetry_equiv_pos_as_xyz
  1  'x, y, z'
loop_
 _atom_site_type_symbol
 _atom_site_label
 _atom_site_symmetry_multiplicity
 _atom_site_fract_x
 _atom_site_fract_y
 _atom_site_fract_z
 _atom_site_occupancy
  Nd  Nd0  1  0.000000  0.500000  0.247434  1
  Nd  Nd1  1  0.500000  0.000000  0.752566  1
  Zn  Zn2  1  0.000000  0.000000  0.499999  1
  Zn  Zn3  1  0.500000  0.500000  0.500001  1
  Si  Si4  1  0.000000  0.500000  0.878387  1
  Si  Si5  1  0.500000  0.000000  0.121613  1
  Ir  Ir6  1  0.000000  0.000000  0.000000  1
  Ir  Ir7  1  0.500000  0.500000  0.000000  1
  Rh  Rh8  1  0.000000  0.500000  0.651500  1
  Rh  Rh9  1  0.500000  0.000000  0.348500  1
