# generated using pymatgen
data_Tb2Lu2ReOsC4
_symmetry_space_group_name_H-M   'P 1'
_cell_length_a   5.06847200
_cell_length_b   6.53160000
_cell_length_c   9.70859700
_cell_angle_alpha   90.00000000
_cell_angle_beta   90.00000000
_cell_angle_gamma   90.00000000
_symmetry_Int_Tables_number   1
_chemical_formula_structural   Tb2Lu2ReOsC4
_chemical_formula_sum   'Tb4 Lu4 Re2 Os2 C8'
_cell_volume   321.40535331
_cell_formula_units_Z   2
loop_
 _symmetry_equiv_pos_site_id
 _symmetry_equiv_pos_as_xyz
  1  'x, y, z'
loop_
 _atom_site_type_symbol
 _atom_site_label
 _atom_site_symmetry_multiplicity
 _atom_site_fract_x
 _atom_site_fract_y
 _atom_site_fract_z
 _atom_site_occupancy
  Tb  Tb0  1  0.750000  0.466511  0.787709  1
  Tb  Tb1  1  0.250000  0.033489  0.287709  1
  Tb  Tb2  1  0.750000  0.968644  0.711298  1
  Tb  Tb3  1  0.250000  0.531356  0.211298  1
  Lu  Lu4  1  0.750000  0.828163  0.056452  1
  Lu  Lu5  1  0.250000  0.671837  0.556452  1
  Lu  Lu6  1  0.750000  0.325774  0.442514  1
  Lu  Lu7  1  0.250000  0.174226  0.942514  1
  Re  Re8  1  0.750000  0.777007  0.366104  1
  Re  Re9  1  0.250000  0.722993  0.866104  1
  Os  Os10  1  0.750000  0.276801  0.133425  1
  Os  Os11  1  0.250000  0.223199  0.633425  1
  C  C12  1  0.750000  0.168439  0.948671  1
  C  C13  1  0.250000  0.830934  0.052425  1
  C  C14  1  0.750000  0.669066  0.552425  1
  C  C15  1  0.250000  0.331561  0.448671  1
  C  C16  1  0.750000  0.045641  0.261428  1
  C  C17  1  0.250000  0.454359  0.761428  1
  C  C18  1  0.750000  0.545249  0.239973  1
  C  C19  1  0.250000  0.954751  0.739973  1
