# generated using pymatgen
data_Tb3YLu4(B6Ru)4
_symmetry_space_group_name_H-M   'P 1'
_cell_length_a   3.62834900
_cell_length_b   9.08041300
_cell_length_c   11.46945200
_cell_angle_alpha   89.99878480
_cell_angle_beta   90.00000000
_cell_angle_gamma   90.00000000
_symmetry_Int_Tables_number   1
_chemical_formula_structural   Tb3YLu4(B6Ru)4
_chemical_formula_sum   'Tb3 Y1 Lu4 B24 Ru4'
_cell_volume   377.88297325
_cell_formula_units_Z   1
loop_
 _symmetry_equiv_pos_site_id
 _symmetry_equiv_pos_as_xyz
  1  'x, y, z'
loop_
 _atom_site_type_symbol
 _atom_site_label
 _atom_site_symmetry_multiplicity
 _atom_site_fract_x
 _atom_site_fract_y
 _atom_site_fract_z
 _atom_site_occupancy
  Tb  Tb0  1  0.000000  0.678219  0.585742  1
  Tb  Tb1  1  0.000000  0.821778  0.085769  1
  Tb  Tb2  1  0.000000  0.178241  0.914237  1
  Y  Y3  1  0.000000  0.321447  0.414310  1
  Lu  Lu4  1  0.000000  0.943989  0.372425  1
  Lu  Lu5  1  0.000000  0.056043  0.627577  1
  Lu  Lu6  1  0.000000  0.443972  0.127597  1
  Lu  Lu7  1  0.000000  0.556012  0.872411  1
  B  B8  1  0.500000  0.554805  0.432570  1
  B  B9  1  0.500000  0.445172  0.567405  1
  B  B10  1  0.500000  0.054889  0.067498  1
  B  B11  1  0.500000  0.945133  0.932497  1
  B  B12  1  0.500000  0.749963  0.418983  1
  B  B13  1  0.500000  0.250048  0.580932  1
  B  B14  1  0.500000  0.249986  0.081010  1
  B  B15  1  0.500000  0.750036  0.918981  1
  B  B16  1  0.500000  0.791822  0.265852  1
  B  B17  1  0.500000  0.208162  0.734123  1
  B  B18  1  0.500000  0.291944  0.234197  1
  B  B19  1  0.500000  0.708171  0.765867  1
  B  B20  1  0.500000  0.630594  0.184209  1
  B  B21  1  0.500000  0.369405  0.815786  1
  B  B22  1  0.500000  0.130639  0.315835  1
  B  B23  1  0.500000  0.869423  0.684198  1
  B  B24  1  0.500000  0.983180  0.213684  1
  B  B25  1  0.500000  0.016837  0.786338  1
  B  B26  1  0.500000  0.483038  0.286343  1
  B  B27  1  0.500000  0.516837  0.713658  1
  B  B28  1  0.500000  0.603643  0.028354  1
  B  B29  1  0.500000  0.396363  0.971642  1
  B  B30  1  0.500000  0.103886  0.471578  1
  B  B31  1  0.500000  0.896356  0.528367  1
  Ru  Ru32  1  0.000000  0.638708  0.319944  1
  Ru  Ru33  1  0.000000  0.361200  0.680052  1
  Ru  Ru34  1  0.000000  0.138867  0.180120  1
  Ru  Ru35  1  0.000000  0.861192  0.819912  1
