# generated using pymatgen
data_SmYCo3Si4Rh3
_symmetry_space_group_name_H-M   'P 1'
_cell_length_a   6.47991251
_cell_length_b   6.53677342
_cell_length_c   6.47842600
_cell_angle_alpha   131.31272720
_cell_angle_beta   114.39270044
_cell_angle_gamma   85.49759629
_symmetry_Int_Tables_number   1
_chemical_formula_structural   SmYCo3Si4Rh3
_chemical_formula_sum   'Sm1 Y1 Co3 Si4 Rh3'
_cell_volume   179.99815653
_cell_formula_units_Z   1
loop_
 _symmetry_equiv_pos_site_id
 _symmetry_equiv_pos_as_xyz
  1  'x, y, z'
loop_
 _atom_site_type_symbol
 _atom_site_label
 _atom_site_symmetry_multiplicity
 _atom_site_fract_x
 _atom_site_fract_y
 _atom_site_fract_z
 _atom_site_occupancy
  Sm  Sm0  1  0.253909  0.533524  0.283531  1
  Y  Y1  1  0.749925  0.465499  0.719515  1
  Co  Co2  1  0.719106  0.000806  0.719049  1
  Co  Co3  1  0.218921  0.499948  0.719652  1
  Co  Co4  1  0.279754  0.000683  0.279698  1
  Si  Si5  1  0.076399  0.876211  0.808749  1
  Si  Si6  1  0.931486  0.122230  0.199676  1
  Si  Si7  1  0.565764  0.778248  0.200258  1
  Si  Si8  1  0.423133  0.222434  0.786946  1
  Rh  Rh9  1  0.781513  0.499982  0.282477  1
  Rh  Rh10  1  0.000205  0.009754  0.507573  1
  Rh  Rh11  1  0.499883  0.990682  0.992875  1
