# generated using pymatgen
data_Li8Pr7SmBi8
_symmetry_space_group_name_H-M   'P 1'
_cell_length_a   9.89123800
_cell_length_b   9.89123717
_cell_length_c   7.45927100
_cell_angle_alpha   90.00000000
_cell_angle_beta   90.00000000
_cell_angle_gamma   119.99999609
_symmetry_Int_Tables_number   1
_chemical_formula_structural   Li8Pr7SmBi8
_chemical_formula_sum   'Li8 Pr7 Sm1 Bi8'
_cell_volume   632.01633279
_cell_formula_units_Z   1
loop_
 _symmetry_equiv_pos_site_id
 _symmetry_equiv_pos_as_xyz
  1  'x, y, z'
loop_
 _atom_site_type_symbol
 _atom_site_label
 _atom_site_symmetry_multiplicity
 _atom_site_fract_x
 _atom_site_fract_y
 _atom_site_fract_z
 _atom_site_occupancy
  Li  Li0  1  0.166826  0.833174  0.287067  1
  Li  Li1  1  0.666347  0.833174  0.287067  1
  Li  Li2  1  0.166826  0.333653  0.287067  1
  Li  Li3  1  0.832794  0.167206  0.793619  1
  Li  Li4  1  0.334413  0.167206  0.793619  1
  Li  Li5  1  0.832794  0.665587  0.793619  1
  Li  Li6  1  0.333333  0.666667  0.700670  1
  Li  Li7  1  0.666667  0.333333  0.204147  1
  Pr  Pr8  1  0.509292  0.490708  0.509507  1
  Pr  Pr9  1  0.981417  0.490708  0.509507  1
  Pr  Pr10  1  0.509292  0.018583  0.509507  1
  Pr  Pr11  1  0.490606  0.509394  0.009380  1
  Pr  Pr12  1  0.018788  0.509394  0.009380  1
  Pr  Pr13  1  0.490606  0.981212  0.009380  1
  Pr  Pr14  1  0.000000  0.000000  0.516533  1
  Sm  Sm15  1  0.000000  0.000000  0.016748  1
  Bi  Bi16  1  0.165957  0.834043  0.754996  1
  Bi  Bi17  1  0.668088  0.834043  0.754996  1
  Bi  Bi18  1  0.165957  0.331912  0.754996  1
  Bi  Bi19  1  0.834125  0.165875  0.250651  1
  Bi  Bi20  1  0.331750  0.165875  0.250651  1
  Bi  Bi21  1  0.834125  0.668250  0.250651  1
  Bi  Bi22  1  0.333333  0.666667  0.278745  1
  Bi  Bi23  1  0.666667  0.333333  0.777486  1
