# generated using pymatgen
data_Lu2MnFeSi2C
_symmetry_space_group_name_H-M   'P 1'
_cell_length_a   3.89121304
_cell_length_b   5.55531785
_cell_length_c   5.60520298
_cell_angle_alpha   73.04107670
_cell_angle_beta   69.68952517
_cell_angle_gamma   69.49897497
_symmetry_Int_Tables_number   1
_chemical_formula_structural   Lu2MnFeSi2C
_chemical_formula_sum   'Lu2 Mn1 Fe1 Si2 C1'
_cell_volume   104.42176509
_cell_formula_units_Z   1
loop_
 _symmetry_equiv_pos_site_id
 _symmetry_equiv_pos_as_xyz
  1  'x, y, z'
loop_
 _atom_site_type_symbol
 _atom_site_label
 _atom_site_symmetry_multiplicity
 _atom_site_fract_x
 _atom_site_fract_y
 _atom_site_fract_z
 _atom_site_occupancy
  Lu  Lu0  1  0.560017  0.708303  0.171663  1
  Lu  Lu1  1  0.439880  0.291197  0.829044  1
  Mn  Mn2  1  0.202322  0.900699  0.694657  1
  Fe  Fe3  1  0.795704  0.099496  0.309095  1
  Si  Si4  1  0.158501  0.290885  0.392112  1
  Si  Si5  1  0.843897  0.709196  0.603011  1
  C  C6  1  0.999678  0.000225  0.000419  1
