# generated using pymatgen
data_La5(IrPb2)2
_symmetry_space_group_name_H-M   'P 1'
_cell_length_a   3.90188800
_cell_length_b   8.51257100
_cell_length_c   19.14201100
_cell_angle_alpha   90.00000000
_cell_angle_beta   90.00000000
_cell_angle_gamma   90.00000000
_symmetry_Int_Tables_number   1
_chemical_formula_structural   La5(IrPb2)2
_chemical_formula_sum   'La10 Ir4 Pb8'
_cell_volume   635.80378342
_cell_formula_units_Z   2
loop_
 _symmetry_equiv_pos_site_id
 _symmetry_equiv_pos_as_xyz
  1  'x, y, z'
loop_
 _atom_site_type_symbol
 _atom_site_label
 _atom_site_symmetry_multiplicity
 _atom_site_fract_x
 _atom_site_fract_y
 _atom_site_fract_z
 _atom_site_occupancy
  La  La0  1  0.000000  0.115009  0.408614  1
  La  La1  1  0.000000  0.884991  0.591386  1
  La  La2  1  0.000000  0.384991  0.908614  1
  La  La3  1  0.000000  0.615009  0.091386  1
  La  La4  1  0.000000  0.247827  0.221282  1
  La  La5  1  0.000000  0.752173  0.778718  1
  La  La6  1  0.000000  0.252173  0.721282  1
  La  La7  1  0.000000  0.747827  0.278718  1
  La  La8  1  0.000000  0.000000  0.000000  1
  La  La9  1  0.000000  0.500000  0.500000  1
  Ir  Ir10  1  0.500000  0.006152  0.308152  1
  Ir  Ir11  1  0.500000  0.993848  0.691848  1
  Ir  Ir12  1  0.500000  0.493848  0.808152  1
  Ir  Ir13  1  0.500000  0.506152  0.191848  1
  Pb  Pb14  1  0.500000  0.431134  0.348638  1
  Pb  Pb15  1  0.500000  0.568866  0.651362  1
  Pb  Pb16  1  0.500000  0.068866  0.848638  1
  Pb  Pb17  1  0.500000  0.931134  0.151362  1
  Pb  Pb18  1  0.500000  0.290284  0.068240  1
  Pb  Pb19  1  0.500000  0.709716  0.931760  1
  Pb  Pb20  1  0.500000  0.209716  0.568240  1
  Pb  Pb21  1  0.500000  0.790284  0.431760  1
