# generated using pymatgen
data_TaBe4InRu4
_symmetry_space_group_name_H-M   'P 1'
_cell_length_a   6.42327800
_cell_length_b   6.42327800
_cell_length_c   3.01520700
_cell_angle_alpha   90.00000000
_cell_angle_beta   90.00000000
_cell_angle_gamma   90.00000000
_symmetry_Int_Tables_number   1
_chemical_formula_structural   TaBe4InRu4
_chemical_formula_sum   'Ta1 Be4 In1 Ru4'
_cell_volume   124.40291881
_cell_formula_units_Z   1
loop_
 _symmetry_equiv_pos_site_id
 _symmetry_equiv_pos_as_xyz
  1  'x, y, z'
loop_
 _atom_site_type_symbol
 _atom_site_label
 _atom_site_symmetry_multiplicity
 _atom_site_fract_x
 _atom_site_fract_y
 _atom_site_fract_z
 _atom_site_occupancy
  Ta  Ta0  1  0.000000  0.000000  0.000000  1
  Be  Be1  1  0.124316  0.614295  0.000000  1
  Be  Be2  1  0.875684  0.385705  0.000000  1
  Be  Be3  1  0.614295  0.875684  0.000000  1
  Be  Be4  1  0.385705  0.124316  0.000000  1
  In  In5  1  0.500000  0.500000  0.000000  1
  Ru  Ru6  1  0.682969  0.149088  0.500000  1
  Ru  Ru7  1  0.317031  0.850912  0.500000  1
  Ru  Ru8  1  0.149088  0.317031  0.500000  1
  Ru  Ru9  1  0.850912  0.682969  0.500000  1
