# generated using pymatgen
data_Rb14Fe3Co5Se16
_symmetry_space_group_name_H-M   'P 1'
_cell_length_a   10.45900106
_cell_length_b   10.43862974
_cell_length_c   16.90312770
_cell_angle_alpha   64.95703485
_cell_angle_beta   65.05889970
_cell_angle_gamma   48.47866152
_symmetry_Int_Tables_number   1
_chemical_formula_structural   Rb14Fe3Co5Se16
_chemical_formula_sum   'Rb14 Fe3 Co5 Se16'
_cell_volume   1224.43210025
_cell_formula_units_Z   1
loop_
 _symmetry_equiv_pos_site_id
 _symmetry_equiv_pos_as_xyz
  1  'x, y, z'
loop_
 _atom_site_type_symbol
 _atom_site_label
 _atom_site_symmetry_multiplicity
 _atom_site_fract_x
 _atom_site_fract_y
 _atom_site_fract_z
 _atom_site_occupancy
  Rb  Rb0  1  0.231033  0.769209  0.751154  1
  Rb  Rb1  1  0.771540  0.228667  0.249626  1
  Rb  Rb2  1  0.242278  0.747726  0.989711  1
  Rb  Rb3  1  0.250224  0.756692  0.510217  1
  Rb  Rb4  1  0.756514  0.252608  0.007996  1
  Rb  Rb5  1  0.746963  0.242332  0.491370  1
  Rb  Rb6  1  0.998336  0.521298  0.611291  1
  Rb  Rb7  1  0.476446  0.003539  0.889006  1
  Rb  Rb8  1  0.996694  0.482680  0.390416  1
  Rb  Rb9  1  0.521980  0.001969  0.109190  1
  Rb  Rb10  1  0.008804  0.507991  0.862490  1
  Rb  Rb11  1  0.491491  0.989470  0.638626  1
  Rb  Rb12  1  0.992402  0.492945  0.136528  1
  Rb  Rb13  1  0.510432  0.005765  0.363852  1
  Fe  Fe14  1  0.786435  0.101514  0.723188  1
  Fe  Fe15  1  0.099224  0.787109  0.224654  1
  Fe  Fe16  1  0.210021  0.899517  0.279462  1
  Co  Co17  1  0.679384  0.431837  0.667104  1
  Co  Co18  1  0.567842  0.320905  0.833371  1
  Co  Co19  1  0.322487  0.563599  0.334881  1
  Co  Co20  1  0.441197  0.676775  0.162059  1
  Co  Co21  1  0.894986  0.214406  0.777461  1
  Se  Se22  1  0.653862  0.507175  0.789501  1
  Se  Se23  1  0.487925  0.352473  0.708017  1
  Se  Se24  1  0.357552  0.491041  0.204445  1
  Se  Se25  1  0.514500  0.649895  0.285617  1
  Se  Se26  1  0.974553  0.193092  0.625839  1
  Se  Se27  1  0.810834  0.023642  0.876835  1
  Se  Se28  1  0.014729  0.811970  0.381287  1
  Se  Se29  1  0.199928  0.968981  0.122935  1
  Se  Se30  1  0.678207  0.605079  0.043664  1
  Se  Se31  1  0.390751  0.326205  0.455991  1
  Se  Se32  1  0.326074  0.394179  0.953423  1
  Se  Se33  1  0.604094  0.671821  0.547183  1
  Se  Se34  1  0.868961  0.860204  0.682734  1
  Se  Se35  1  0.135053  0.130640  0.817547  1
  Se  Se36  1  0.128348  0.143082  0.318813  1
  Se  Se37  1  0.857917  0.871967  0.182513  1
