# generated using pymatgen
data_Er20Tl7Ir4Pb
_symmetry_space_group_name_H-M   'P 1'
_cell_length_a   7.91714426
_cell_length_b   8.97016485
_cell_length_c   12.44664500
_cell_angle_alpha   90.04521621
_cell_angle_beta   90.01474885
_cell_angle_gamma   90.00638212
_symmetry_Int_Tables_number   1
_chemical_formula_structural   Er20Tl7Ir4Pb
_chemical_formula_sum   'Er20 Tl7 Ir4 Pb1'
_cell_volume   883.93663440
_cell_formula_units_Z   1
loop_
 _symmetry_equiv_pos_site_id
 _symmetry_equiv_pos_as_xyz
  1  'x, y, z'
loop_
 _atom_site_type_symbol
 _atom_site_label
 _atom_site_symmetry_multiplicity
 _atom_site_fract_x
 _atom_site_fract_y
 _atom_site_fract_z
 _atom_site_occupancy
  Er  Er0  1  0.655544  0.749505  0.716911  1
  Er  Er1  1  0.344402  0.249295  0.281487  1
  Er  Er2  1  0.157489  0.252144  0.782573  1
  Er  Er3  1  0.842309  0.750073  0.218138  1
  Er  Er4  1  0.116924  0.749861  0.808907  1
  Er  Er5  1  0.884301  0.249977  0.191007  1
  Er  Er6  1  0.614793  0.250905  0.689798  1
  Er  Er7  1  0.383449  0.751272  0.308627  1
  Er  Er8  1  0.549067  0.749698  0.998385  1
  Er  Er9  1  0.452383  0.249787  0.001822  1
  Er  Er10  1  0.046737  0.249525  0.501200  1
  Er  Er11  1  0.952382  0.749272  0.498387  1
  Er  Er12  1  0.827645  0.462758  0.924889  1
  Er  Er13  1  0.173240  0.538046  0.074224  1
  Er  Er14  1  0.324997  0.538135  0.575125  1
  Er  Er15  1  0.173191  0.961639  0.074159  1
  Er  Er16  1  0.671926  0.461892  0.426298  1
  Er  Er17  1  0.826865  0.038377  0.927302  1
  Er  Er18  1  0.673035  0.037560  0.426724  1
  Er  Er19  1  0.326202  0.961086  0.573678  1
  Tl  Tl20  1  0.076783  0.992554  0.332369  1
  Tl  Tl21  1  0.424881  0.993305  0.831720  1
  Tl  Tl22  1  0.077219  0.506342  0.332265  1
  Tl  Tl23  1  0.577404  0.006934  0.167405  1
  Tl  Tl24  1  0.923100  0.493266  0.667720  1
  Tl  Tl25  1  0.576724  0.493011  0.168385  1
  Tl  Tl26  1  0.424655  0.507269  0.832448  1
  Ir  Ir27  1  0.924551  0.750011  0.997449  1
  Ir  Ir28  1  0.076250  0.249942  0.002881  1
  Ir  Ir29  1  0.422985  0.249785  0.502215  1
  Ir  Ir30  1  0.574203  0.749678  0.496616  1
  Pb  Pb31  1  0.924366  0.007095  0.668885  1
