# generated using pymatgen
data_Hf2TiTcGe2
_symmetry_space_group_name_H-M   'P 1'
_cell_length_a   3.56619100
_cell_length_b   6.94649500
_cell_length_c   8.31399900
_cell_angle_alpha   90.00000000
_cell_angle_beta   90.00000000
_cell_angle_gamma   90.00000000
_symmetry_Int_Tables_number   1
_chemical_formula_structural   Hf2TiTcGe2
_chemical_formula_sum   'Hf4 Ti2 Tc2 Ge4'
_cell_volume   205.95877261
_cell_formula_units_Z   2
loop_
 _symmetry_equiv_pos_site_id
 _symmetry_equiv_pos_as_xyz
  1  'x, y, z'
loop_
 _atom_site_type_symbol
 _atom_site_label
 _atom_site_symmetry_multiplicity
 _atom_site_fract_x
 _atom_site_fract_y
 _atom_site_fract_z
 _atom_site_occupancy
  Hf  Hf0  1  0.250000  0.552935  0.163109  1
  Hf  Hf1  1  0.250000  0.052935  0.336891  1
  Hf  Hf2  1  0.750000  0.456611  0.834571  1
  Hf  Hf3  1  0.750000  0.956611  0.665429  1
  Ti  Ti4  1  0.250000  0.620522  0.556729  1
  Ti  Ti5  1  0.250000  0.120522  0.943271  1
  Tc  Tc6  1  0.750000  0.368325  0.439963  1
  Tc  Tc7  1  0.750000  0.868325  0.060037  1
  Ge  Ge8  1  0.250000  0.751966  0.855669  1
  Ge  Ge9  1  0.250000  0.251966  0.644331  1
  Ge  Ge10  1  0.750000  0.249641  0.140056  1
  Ge  Ge11  1  0.750000  0.749641  0.359944  1
