# generated using pymatgen
data_DyHf3(NiP2)2
_symmetry_space_group_name_H-M   'P 1'
_cell_length_a   3.80219400
_cell_length_b   3.80219485
_cell_length_c   13.16119400
_cell_angle_alpha   90.00000000
_cell_angle_beta   90.00000000
_cell_angle_gamma   120.00000999
_symmetry_Int_Tables_number   1
_chemical_formula_structural   DyHf3(NiP2)2
_chemical_formula_sum   'Dy1 Hf3 Ni2 P4'
_cell_volume   164.77621414
_cell_formula_units_Z   1
loop_
 _symmetry_equiv_pos_site_id
 _symmetry_equiv_pos_as_xyz
  1  'x, y, z'
loop_
 _atom_site_type_symbol
 _atom_site_label
 _atom_site_symmetry_multiplicity
 _atom_site_fract_x
 _atom_site_fract_y
 _atom_site_fract_z
 _atom_site_occupancy
  Dy  Dy0  1  0.333333  0.666667  0.388237  1
  Hf  Hf1  1  0.666667  0.333333  0.621602  1
  Hf  Hf2  1  0.666667  0.333333  0.892801  1
  Hf  Hf3  1  0.333333  0.666667  0.102468  1
  Ni  Ni4  1  0.000000  0.000000  0.229229  1
  Ni  Ni5  1  0.000000  0.000000  0.759896  1
  P  P6  1  0.000000  0.000000  0.514102  1
  P  P7  1  0.000000  0.000000  0.997488  1
  P  P8  1  0.333333  0.666667  0.755297  1
  P  P9  1  0.666667  0.333333  0.238880  1
