# generated using pymatgen
data_DyHo6Sn23Os6
_symmetry_space_group_name_H-M   'P 1'
_cell_length_a   9.84398800
_cell_length_b   9.84398641
_cell_length_c   10.11803400
_cell_angle_alpha   90.00000000
_cell_angle_beta   90.00000000
_cell_angle_gamma   119.99999191
_symmetry_Int_Tables_number   1
_chemical_formula_structural   DyHo6Sn23Os6
_chemical_formula_sum   'Dy1 Ho6 Sn23 Os6'
_cell_volume   849.11963307
_cell_formula_units_Z   1
loop_
 _symmetry_equiv_pos_site_id
 _symmetry_equiv_pos_as_xyz
  1  'x, y, z'
loop_
 _atom_site_type_symbol
 _atom_site_label
 _atom_site_symmetry_multiplicity
 _atom_site_fract_x
 _atom_site_fract_y
 _atom_site_fract_z
 _atom_site_occupancy
  Dy  Dy0  1  0.000000  0.000000  0.000000  1
  Ho  Ho1  1  0.514670  0.485330  0.698029  1
  Ho  Ho2  1  0.514670  0.029338  0.698029  1
  Ho  Ho3  1  0.970662  0.485330  0.698029  1
  Ho  Ho4  1  0.029338  0.514670  0.301971  1
  Ho  Ho5  1  0.485330  0.970662  0.301971  1
  Ho  Ho6  1  0.485330  0.514670  0.301971  1
  Sn  Sn7  1  0.666667  0.333333  0.175247  1
  Sn  Sn8  1  0.666667  0.333333  0.869873  1
  Sn  Sn9  1  0.333333  0.666667  0.130127  1
  Sn  Sn10  1  0.349914  0.349914  0.000000  1
  Sn  Sn11  1  0.000000  0.650086  0.000000  1
  Sn  Sn12  1  0.650086  0.000000  0.000000  1
  Sn  Sn13  1  0.650086  0.650086  0.000000  1
  Sn  Sn14  1  0.333333  0.666667  0.824753  1
  Sn  Sn15  1  0.439812  0.219906  0.463166  1
  Sn  Sn16  1  0.219906  0.780094  0.536834  1
  Sn  Sn17  1  0.219906  0.439812  0.536834  1
  Sn  Sn18  1  0.560188  0.780094  0.536834  1
  Sn  Sn19  1  0.117837  0.882163  0.275870  1
  Sn  Sn20  1  0.780094  0.560188  0.463166  1
  Sn  Sn21  1  0.780094  0.219906  0.463166  1
  Sn  Sn22  1  0.349914  0.000000  0.000000  1
  Sn  Sn23  1  0.117837  0.235675  0.275870  1
  Sn  Sn24  1  0.764325  0.882163  0.275870  1
  Sn  Sn25  1  0.235675  0.117837  0.724130  1
  Sn  Sn26  1  0.882163  0.764325  0.724130  1
  Sn  Sn27  1  0.882163  0.117837  0.724130  1
  Sn  Sn28  1  0.000000  0.000000  0.500000  1
  Sn  Sn29  1  0.000000  0.349914  0.000000  1
  Os  Os30  1  0.170406  0.829594  0.797663  1
  Os  Os31  1  0.170406  0.340810  0.797663  1
  Os  Os32  1  0.659190  0.829594  0.797663  1
  Os  Os33  1  0.340810  0.170406  0.202337  1
  Os  Os34  1  0.829594  0.659190  0.202337  1
  Os  Os35  1  0.829594  0.170406  0.202337  1
