# generated using pymatgen
data_Ca31Pb20
_symmetry_space_group_name_H-M   'P 1'
_cell_length_a   21.98826858
_cell_length_b   21.98826887
_cell_length_c   21.98826800
_cell_angle_alpha   146.77776538
_cell_angle_beta   146.77776652
_cell_angle_gamma   47.69294804
_symmetry_Int_Tables_number   1
_chemical_formula_structural   Ca31Pb20
_chemical_formula_sum   'Ca62 Pb40'
_cell_volume   3178.55504752
_cell_formula_units_Z   2
loop_
 _symmetry_equiv_pos_site_id
 _symmetry_equiv_pos_as_xyz
  1  'x, y, z'
loop_
 _atom_site_type_symbol
 _atom_site_label
 _atom_site_symmetry_multiplicity
 _atom_site_fract_x
 _atom_site_fract_y
 _atom_site_fract_z
 _atom_site_occupancy
  Ca  Ca0  1  0.558635  0.850599  0.135010  1
  Ca  Ca1  1  0.202027  0.072623  0.698905  1
  Ca  Ca2  1  0.163387  0.663387  0.500000  1
  Ca  Ca3  1  0.573860  0.073860  0.500000  1
  Ca  Ca4  1  0.663387  0.163387  0.500000  1
  Ca  Ca5  1  0.926140  0.426140  0.500000  1
  Ca  Ca6  1  0.496879  0.797973  0.870596  1
  Ca  Ca7  1  0.159198  0.002789  0.267280  1
  Ca  Ca8  1  0.735509  0.891918  0.732720  1
  Ca  Ca9  1  0.797973  0.927377  0.301095  1
  Ca  Ca10  1  0.997211  0.264491  0.156409  1
  Ca  Ca11  1  0.340802  0.608082  0.843591  1
  Ca  Ca12  1  0.840802  0.997211  0.732720  1
  Ca  Ca13  1  0.572623  0.702027  0.698905  1
  Ca  Ca14  1  0.941365  0.076375  0.291964  1
  Ca  Ca15  1  0.665606  0.165606  0.831213  1
  Ca  Ca16  1  0.427377  0.297973  0.301095  1
  Ca  Ca17  1  0.373718  0.503122  0.301095  1
  Ca  Ca18  1  0.423625  0.558635  0.708036  1
  Ca  Ca19  1  0.076375  0.784412  0.135010  1
  Ca  Ca20  1  0.003122  0.873718  0.301095  1
  Ca  Ca21  1  0.503122  0.202027  0.129404  1
  Ca  Ca22  1  0.336613  0.836613  0.500000  1
  Ca  Ca23  1  0.334394  0.834394  0.168787  1
  Ca  Ca24  1  0.996878  0.126282  0.698905  1
  Ca  Ca25  1  0.235509  0.502789  0.843591  1
  Ca  Ca26  1  0.215588  0.350599  0.291964  1
  Ca  Ca27  1  0.891918  0.159198  0.156409  1
  Ca  Ca28  1  0.927377  0.626282  0.129404  1
  Ca  Ca29  1  0.126282  0.427377  0.129404  1
  Ca  Ca30  1  0.250000  0.750000  0.500000  1
  Ca  Ca31  1  0.715588  0.423625  0.864990  1
  Ca  Ca32  1  0.391918  0.235509  0.732720  1
  Ca  Ca33  1  0.764491  0.497211  0.156409  1
  Ca  Ca34  1  0.073860  0.573860  0.500000  1
  Ca  Ca35  1  0.502789  0.659198  0.267280  1
  Ca  Ca36  1  0.702027  0.003122  0.129404  1
  Ca  Ca37  1  0.784412  0.649401  0.708036  1
  Ca  Ca38  1  0.284412  0.576375  0.135010  1
  Ca  Ca39  1  0.072623  0.373718  0.870596  1
  Ca  Ca40  1  0.836613  0.336613  0.500000  1
  Ca  Ca41  1  0.873718  0.572623  0.870596  1
  Ca  Ca42  1  0.108082  0.840802  0.843591  1
  Ca  Ca43  1  0.850599  0.715588  0.291964  1
  Ca  Ca44  1  0.659198  0.391918  0.156409  1
  Ca  Ca45  1  0.002789  0.735509  0.843591  1
  Ca  Ca46  1  0.750000  0.250000  0.500000  1
  Ca  Ca47  1  0.149401  0.284412  0.708036  1
  Ca  Ca48  1  0.834394  0.665606  0.500000  1
  Ca  Ca49  1  0.350599  0.058635  0.135010  1
  Ca  Ca50  1  0.497211  0.340802  0.732720  1
  Ca  Ca51  1  0.058635  0.923625  0.708036  1
  Ca  Ca52  1  0.649401  0.941365  0.864990  1
  Ca  Ca53  1  0.426140  0.926140  0.500000  1
  Ca  Ca54  1  0.608082  0.764491  0.267280  1
  Ca  Ca55  1  0.576375  0.441365  0.291964  1
  Ca  Ca56  1  0.264491  0.108082  0.267280  1
  Ca  Ca57  1  0.923625  0.215588  0.864990  1
  Ca  Ca58  1  0.441365  0.149401  0.864990  1
  Ca  Ca59  1  0.626282  0.496879  0.698905  1
  Ca  Ca60  1  0.297973  0.996878  0.870596  1
  Ca  Ca61  1  0.165606  0.334394  0.500000  1
  Pb  Pb62  1  0.730098  0.620967  0.500000  1
  Pb  Pb63  1  0.362625  0.554914  0.500000  1
  Pb  Pb64  1  0.327135  0.327135  0.000000  1
  Pb  Pb65  1  0.827135  0.827135  0.000000  1
  Pb  Pb66  1  0.379033  0.879033  0.109131  1
  Pb  Pb67  1  0.466559  0.283111  0.500000  1
  Pb  Pb68  1  0.966559  0.466559  0.183447  1
  Pb  Pb69  1  0.054914  0.862625  0.500000  1
  Pb  Pb70  1  0.909690  0.409690  0.319380  1
  Pb  Pb71  1  0.445086  0.945086  0.807712  1
  Pb  Pb72  1  0.906664  0.906664  0.000000  1
  Pb  Pb73  1  0.590310  0.909690  0.500000  1
  Pb  Pb74  1  0.230098  0.730098  0.109131  1
  Pb  Pb75  1  0.716889  0.216889  0.183447  1
  Pb  Pb76  1  0.137375  0.637375  0.192288  1
  Pb  Pb77  1  0.593336  0.593336  0.000000  1
  Pb  Pb78  1  0.769902  0.269902  0.890869  1
  Pb  Pb79  1  0.862625  0.362625  0.807712  1
  Pb  Pb80  1  0.120967  0.230098  0.500000  1
  Pb  Pb81  1  0.500000  0.500000  0.000000  1
  Pb  Pb82  1  0.945086  0.137375  0.500000  1
  Pb  Pb83  1  0.269902  0.379033  0.500000  1
  Pb  Pb84  1  0.406664  0.406664  0.000000  1
  Pb  Pb85  1  0.093336  0.093336  0.000000  1
  Pb  Pb86  1  0.620967  0.120967  0.890869  1
  Pb  Pb87  1  0.250000  0.250000  0.000000  1
  Pb  Pb88  1  0.033441  0.533441  0.816553  1
  Pb  Pb89  1  0.783111  0.966559  0.500000  1
  Pb  Pb90  1  0.216889  0.033441  0.500000  1
  Pb  Pb91  1  0.879033  0.769902  0.500000  1
  Pb  Pb92  1  0.672865  0.672865  0.000000  1
  Pb  Pb93  1  0.409690  0.090310  0.500000  1
  Pb  Pb94  1  0.554914  0.054914  0.192288  1
  Pb  Pb95  1  0.000000  0.000000  0.000000  1
  Pb  Pb96  1  0.090310  0.590310  0.680620  1
  Pb  Pb97  1  0.283111  0.783111  0.816553  1
  Pb  Pb98  1  0.637375  0.445086  0.500000  1
  Pb  Pb99  1  0.172865  0.172865  0.000000  1
  Pb  Pb100  1  0.750000  0.750000  0.000000  1
  Pb  Pb101  1  0.533441  0.716889  0.500000  1
