# generated using pymatgen
data_Ho4Al4RuPt3
_symmetry_space_group_name_H-M   'P 1'
_cell_length_a   4.34636400
_cell_length_b   6.83336990
_cell_length_c   7.85991856
_cell_angle_alpha   89.79065067
_cell_angle_beta   90.00000000
_cell_angle_gamma   90.00000000
_symmetry_Int_Tables_number   1
_chemical_formula_structural   Ho4Al4RuPt3
_chemical_formula_sum   'Ho4 Al4 Ru1 Pt3'
_cell_volume   233.44048251
_cell_formula_units_Z   1
loop_
 _symmetry_equiv_pos_site_id
 _symmetry_equiv_pos_as_xyz
  1  'x, y, z'
loop_
 _atom_site_type_symbol
 _atom_site_label
 _atom_site_symmetry_multiplicity
 _atom_site_fract_x
 _atom_site_fract_y
 _atom_site_fract_z
 _atom_site_occupancy
  Ho  Ho0  1  0.250000  0.033538  0.677606  1
  Ho  Ho1  1  0.250000  0.530266  0.819280  1
  Ho  Ho2  1  0.750000  0.976801  0.320978  1
  Ho  Ho3  1  0.750000  0.467416  0.184468  1
  Al  Al4  1  0.250000  0.144200  0.062416  1
  Al  Al5  1  0.250000  0.638180  0.436677  1
  Al  Al6  1  0.750000  0.858030  0.937906  1
  Al  Al7  1  0.750000  0.355660  0.560148  1
  Ru  Ru8  1  0.250000  0.264284  0.381221  1
  Pt  Pt9  1  0.250000  0.771083  0.118324  1
  Pt  Pt10  1  0.750000  0.729892  0.620486  1
  Pt  Pt11  1  0.750000  0.230651  0.880488  1
