# generated using pymatgen
data_NdAl8(CuPd)2
_symmetry_space_group_name_H-M   'P 1'
_cell_length_a   6.83544755
_cell_length_b   6.82807036
_cell_length_c   6.83544695
_cell_angle_alpha   98.79803591
_cell_angle_beta   98.69913901
_cell_angle_gamma   134.16437306
_symmetry_Int_Tables_number   1
_chemical_formula_structural   NdAl8(CuPd)2
_chemical_formula_sum   'Nd1 Al8 Cu2 Pd2'
_cell_volume   210.67541221
_cell_formula_units_Z   1
loop_
 _symmetry_equiv_pos_site_id
 _symmetry_equiv_pos_as_xyz
  1  'x, y, z'
loop_
 _atom_site_type_symbol
 _atom_site_label
 _atom_site_symmetry_multiplicity
 _atom_site_fract_x
 _atom_site_fract_y
 _atom_site_fract_z
 _atom_site_occupancy
  Nd  Nd0  1  0.000000  0.000000  0.000000  1
  Al  Al1  1  0.278059  0.500000  0.778059  1
  Al  Al2  1  0.505784  0.727881  0.222097  1
  Al  Al3  1  0.650947  0.000000  0.650947  1
  Al  Al4  1  0.997637  0.346396  0.348759  1
  Al  Al5  1  0.002363  0.653604  0.651241  1
  Al  Al6  1  0.349053  0.000000  0.349053  1
  Al  Al7  1  0.721941  0.500000  0.221941  1
  Al  Al8  1  0.494216  0.272119  0.777903  1
  Cu  Cu9  1  0.000000  0.000000  0.500000  1
  Cu  Cu10  1  0.500000  0.000000  0.000000  1
  Pd  Pd11  1  0.500000  0.500000  0.500000  1
  Pd  Pd12  1  0.000000  0.500000  0.000000  1
