# generated using pymatgen
data_Re2Te4Mo
_symmetry_space_group_name_H-M   'P 1'
_cell_length_a   7.14290632
_cell_length_b   7.14534884
_cell_length_c   7.15632344
_cell_angle_alpha   93.73038870
_cell_angle_beta   93.82555578
_cell_angle_gamma   93.83491368
_symmetry_Int_Tables_number   1
_chemical_formula_structural   Re2Te4Mo
_chemical_formula_sum   'Re4 Te8 Mo2'
_cell_volume   362.73080826
_cell_formula_units_Z   2
loop_
 _symmetry_equiv_pos_site_id
 _symmetry_equiv_pos_as_xyz
  1  'x, y, z'
loop_
 _atom_site_type_symbol
 _atom_site_label
 _atom_site_symmetry_multiplicity
 _atom_site_fract_x
 _atom_site_fract_y
 _atom_site_fract_z
 _atom_site_occupancy
  Re  Re0  1  0.545271  0.414709  0.249963  1
  Re  Re1  1  0.751820  0.456369  0.585123  1
  Re  Re2  1  0.583402  0.752442  0.454359  1
  Re  Re3  1  0.454122  0.585631  0.751656  1
  Te  Te4  1  0.375924  0.728647  0.117148  1
  Te  Te5  1  0.117061  0.374964  0.735807  1
  Te  Te6  1  0.737028  0.120245  0.373779  1
  Te  Te7  1  0.624970  0.273595  0.883881  1
  Te  Te8  1  0.877427  0.625577  0.270615  1
  Te  Te9  1  0.270973  0.879469  0.623323  1
  Te  Te10  1  0.211829  0.205859  0.205267  1
  Te  Te11  1  0.789462  0.791918  0.788722  1
  Mo  Mo12  1  0.246617  0.542512  0.414122  1
  Mo  Mo13  1  0.414094  0.248063  0.546237  1
