# generated using pymatgen
data_Nd16Cd3HgIrPt3
_symmetry_space_group_name_H-M   'P 1'
_cell_length_a   10.01779793
_cell_length_b   9.99499808
_cell_length_c   9.99499767
_cell_angle_alpha   59.95627757
_cell_angle_beta   60.01368437
_cell_angle_gamma   60.01369339
_symmetry_Int_Tables_number   1
_chemical_formula_structural   Nd16Cd3HgIrPt3
_chemical_formula_sum   'Nd16 Cd3 Hg1 Ir1 Pt3'
_cell_volume   707.56890624
_cell_formula_units_Z   1
loop_
 _symmetry_equiv_pos_site_id
 _symmetry_equiv_pos_as_xyz
  1  'x, y, z'
loop_
 _atom_site_type_symbol
 _atom_site_label
 _atom_site_symmetry_multiplicity
 _atom_site_fract_x
 _atom_site_fract_y
 _atom_site_fract_z
 _atom_site_occupancy
  Nd  Nd0  1  0.352862  0.348806  0.348806  1
  Nd  Nd1  1  0.353457  0.349403  0.948160  1
  Nd  Nd2  1  0.353457  0.948160  0.349403  1
  Nd  Nd3  1  0.942580  0.352690  0.352690  1
  Nd  Nd4  1  0.806474  0.189915  0.189915  1
  Nd  Nd5  1  0.191975  0.808410  0.808410  1
  Nd  Nd6  1  0.191533  0.809106  0.190236  1
  Nd  Nd7  1  0.805827  0.190236  0.813045  1
  Nd  Nd8  1  0.191533  0.190236  0.809106  1
  Nd  Nd9  1  0.805827  0.813045  0.190236  1
  Nd  Nd10  1  0.937305  0.562392  0.562392  1
  Nd  Nd11  1  0.564714  0.936872  0.936872  1
  Nd  Nd12  1  0.564567  0.936205  0.560832  1
  Nd  Nd13  1  0.937899  0.562661  0.936413  1
  Nd  Nd14  1  0.564567  0.560832  0.936205  1
  Nd  Nd15  1  0.937899  0.936413  0.562661  1
  Cd  Cd16  1  0.580453  0.580672  0.257169  1
  Cd  Cd17  1  0.580453  0.257169  0.580672  1
  Cd  Cd18  1  0.258267  0.580234  0.580234  1
  Hg  Hg19  1  0.584262  0.584558  0.584558  1
  Ir  Ir20  1  0.570844  0.142982  0.142982  1
  Pt  Pt21  1  0.141212  0.144581  0.144581  1
  Pt  Pt22  1  0.141018  0.144389  0.570031  1
  Pt  Pt23  1  0.141018  0.570031  0.144389  1
