# generated using pymatgen
data_Gd2FeCo(BN)2
_symmetry_space_group_name_H-M   'P 1'
_cell_length_a   3.50268100
_cell_length_b   3.50268100
_cell_length_c   7.68413800
_cell_angle_alpha   90.00000000
_cell_angle_beta   90.00000000
_cell_angle_gamma   90.00000000
_symmetry_Int_Tables_number   1
_chemical_formula_structural   Gd2FeCo(BN)2
_chemical_formula_sum   'Gd2 Fe1 Co1 B2 N2'
_cell_volume   94.27495395
_cell_formula_units_Z   1
loop_
 _symmetry_equiv_pos_site_id
 _symmetry_equiv_pos_as_xyz
  1  'x, y, z'
loop_
 _atom_site_type_symbol
 _atom_site_label
 _atom_site_symmetry_multiplicity
 _atom_site_fract_x
 _atom_site_fract_y
 _atom_site_fract_z
 _atom_site_occupancy
  Gd  Gd0  1  0.500001  0.000000  0.167504  1
  Gd  Gd1  1  0.000000  0.500001  0.832496  1
  Fe  Fe2  1  0.000000  0.000000  0.500000  1
  Co  Co3  1  0.500001  0.500001  0.500000  1
  B  B4  1  0.000000  0.500001  0.341110  1
  B  B5  1  0.500001  0.000000  0.658891  1
  N  N6  1  0.000000  0.500001  0.146848  1
  N  N7  1  0.500001  0.000000  0.853152  1
