# generated using pymatgen
data_Pr6Al24Ir5Os3
_symmetry_space_group_name_H-M   'P 1'
_cell_length_a   8.92985300
_cell_length_b   8.94094315
_cell_length_c   9.67096072
_cell_angle_alpha   90.26213660
_cell_angle_beta   90.00000000
_cell_angle_gamma   119.95897341
_symmetry_Int_Tables_number   1
_chemical_formula_structural   Pr6Al24Ir5Os3
_chemical_formula_sum   'Pr6 Al24 Ir5 Os3'
_cell_volume   668.96166730
_cell_formula_units_Z   1
loop_
 _symmetry_equiv_pos_site_id
 _symmetry_equiv_pos_as_xyz
  1  'x, y, z'
loop_
 _atom_site_type_symbol
 _atom_site_label
 _atom_site_symmetry_multiplicity
 _atom_site_fract_x
 _atom_site_fract_y
 _atom_site_fract_z
 _atom_site_occupancy
  Pr  Pr0  1  0.191425  0.382851  0.250313  1
  Pr  Pr1  1  0.808575  0.617149  0.749687  1
  Pr  Pr2  1  0.616709  0.809336  0.250589  1
  Pr  Pr3  1  0.383291  0.190664  0.749411  1
  Pr  Pr4  1  0.192626  0.809336  0.250589  1
  Pr  Pr5  1  0.807374  0.190664  0.749411  1
  Al  Al6  1  0.333335  0.666670  0.010833  1
  Al  Al7  1  0.666665  0.333330  0.989167  1
  Al  Al8  1  0.665843  0.331685  0.510481  1
  Al  Al9  1  0.334157  0.668315  0.489519  1
  Al  Al10  1  0.162952  0.325903  0.574999  1
  Al  Al11  1  0.837048  0.674097  0.425001  1
  Al  Al12  1  0.673690  0.838042  0.574607  1
  Al  Al13  1  0.837147  0.674295  0.075104  1
  Al  Al14  1  0.326310  0.161958  0.425393  1
  Al  Al15  1  0.162853  0.325705  0.924896  1
  Al  Al16  1  0.164353  0.838042  0.574607  1
  Al  Al17  1  0.325832  0.162913  0.074781  1
  Al  Al18  1  0.835647  0.161958  0.425393  1
  Al  Al19  1  0.674168  0.837087  0.925219  1
  Al  Al20  1  0.837080  0.162913  0.074781  1
  Al  Al21  1  0.162920  0.837087  0.925219  1
  Al  Al22  1  0.563033  0.126067  0.251030  1
  Al  Al23  1  0.436967  0.873933  0.748970  1
  Al  Al24  1  0.873913  0.437069  0.249544  1
  Al  Al25  1  0.126087  0.562931  0.750456  1
  Al  Al26  1  0.563155  0.437069  0.249544  1
  Al  Al27  1  0.436845  0.562931  0.750456  1
  Al  Al28  1  0.000060  0.000119  0.250153  1
  Al  Al29  1  0.999940  0.999881  0.749847  1
  Ir  Ir30  1  0.500000  0.000000  0.000000  1
  Ir  Ir31  1  0.000000  0.500000  0.000000  1
  Ir  Ir32  1  0.500000  0.500000  0.000000  1
  Ir  Ir33  1  0.000000  0.500000  0.500000  1
  Ir  Ir34  1  0.500000  0.500000  0.500000  1
  Os  Os35  1  0.500000  0.000000  0.500000  1
  Os  Os36  1  0.000000  0.000000  0.000000  1
  Os  Os37  1  0.000000  0.000000  0.500000  1
