# generated using pymatgen
data_Sc5Bi2Se
_symmetry_space_group_name_H-M   'P 1'
_cell_length_a   7.54493200
_cell_length_b   8.66484300
_cell_length_c   11.29011800
_cell_angle_alpha   90.00000000
_cell_angle_beta   90.00000000
_cell_angle_gamma   90.00000000
_symmetry_Int_Tables_number   1
_chemical_formula_structural   Sc5Bi2Se
_chemical_formula_sum   'Sc20 Bi8 Se4'
_cell_volume   738.09881666
_cell_formula_units_Z   4
loop_
 _symmetry_equiv_pos_site_id
 _symmetry_equiv_pos_as_xyz
  1  'x, y, z'
loop_
 _atom_site_type_symbol
 _atom_site_label
 _atom_site_symmetry_multiplicity
 _atom_site_fract_x
 _atom_site_fract_y
 _atom_site_fract_z
 _atom_site_occupancy
  Sc  Sc0  1  0.182079  0.060348  0.939564  1
  Sc  Sc1  1  0.317921  0.060348  0.439564  1
  Sc  Sc2  1  0.317921  0.439652  0.439564  1
  Sc  Sc3  1  0.345844  0.750000  0.708719  1
  Sc  Sc4  1  0.472659  0.750000  0.001622  1
  Sc  Sc5  1  0.142338  0.250000  0.206205  1
  Sc  Sc6  1  0.817921  0.939652  0.060436  1
  Sc  Sc7  1  0.642338  0.750000  0.293795  1
  Sc  Sc8  1  0.027341  0.750000  0.501622  1
  Sc  Sc9  1  0.682079  0.939652  0.560436  1
  Sc  Sc10  1  0.182079  0.439652  0.939564  1
  Sc  Sc11  1  0.357662  0.250000  0.706205  1
  Sc  Sc12  1  0.154156  0.750000  0.208719  1
  Sc  Sc13  1  0.972659  0.250000  0.498378  1
  Sc  Sc14  1  0.682079  0.560348  0.560436  1
  Sc  Sc15  1  0.654156  0.250000  0.291281  1
  Sc  Sc16  1  0.817921  0.560348  0.060436  1
  Sc  Sc17  1  0.527341  0.250000  0.998378  1
  Sc  Sc18  1  0.845844  0.250000  0.791281  1
  Sc  Sc19  1  0.857662  0.750000  0.793795  1
  Bi  Bi20  1  0.071174  0.491538  0.674587  1
  Bi  Bi21  1  0.571174  0.508462  0.825413  1
  Bi  Bi22  1  0.928826  0.991538  0.325413  1
  Bi  Bi23  1  0.428826  0.008462  0.174587  1
  Bi  Bi24  1  0.571174  0.991538  0.825413  1
  Bi  Bi25  1  0.428826  0.491538  0.174587  1
  Bi  Bi26  1  0.071174  0.008462  0.674587  1
  Bi  Bi27  1  0.928826  0.508462  0.325413  1
  Se  Se28  1  0.407400  0.750000  0.475929  1
  Se  Se29  1  0.092600  0.750000  0.975929  1
  Se  Se30  1  0.592600  0.250000  0.524071  1
  Se  Se31  1  0.907400  0.250000  0.024071  1
