# generated using pymatgen
data_Hf12ReOs6Ru5
_symmetry_space_group_name_H-M   'P 1'
_cell_length_a   4.59745600
_cell_length_b   6.49125100
_cell_length_c   13.84958100
_cell_angle_alpha   90.00000000
_cell_angle_beta   90.00019899
_cell_angle_gamma   90.00000000
_symmetry_Int_Tables_number   1
_chemical_formula_structural   Hf12ReOs6Ru5
_chemical_formula_sum   'Hf12 Re1 Os6 Ru5'
_cell_volume   413.31638156
_cell_formula_units_Z   1
loop_
 _symmetry_equiv_pos_site_id
 _symmetry_equiv_pos_as_xyz
  1  'x, y, z'
loop_
 _atom_site_type_symbol
 _atom_site_label
 _atom_site_symmetry_multiplicity
 _atom_site_fract_x
 _atom_site_fract_y
 _atom_site_fract_z
 _atom_site_occupancy
  Hf  Hf0  1  0.500000  0.248997  0.000000  1
  Hf  Hf1  1  0.500000  0.751002  0.000000  1
  Hf  Hf2  1  0.999967  0.249372  0.165587  1
  Hf  Hf3  1  0.999967  0.750629  0.165587  1
  Hf  Hf4  1  0.499970  0.250079  0.332956  1
  Hf  Hf5  1  0.499970  0.749922  0.332956  1
  Hf  Hf6  1  0.000000  0.249884  0.500000  1
  Hf  Hf7  1  0.000000  0.750116  0.500000  1
  Hf  Hf8  1  0.500030  0.250079  0.667044  1
  Hf  Hf9  1  0.500030  0.749922  0.667044  1
  Hf  Hf10  1  0.000033  0.249372  0.834413  1
  Hf  Hf11  1  0.000033  0.750629  0.834413  1
  Re  Re12  1  0.000000  0.000000  0.000000  1
  Os  Os13  1  0.000000  0.500000  0.000000  1
  Os  Os14  1  0.499975  0.000000  0.167928  1
  Os  Os15  1  0.999952  0.500000  0.334128  1
  Os  Os16  1  0.500000  0.000000  0.500000  1
  Os  Os17  1  0.000048  0.500000  0.665872  1
  Os  Os18  1  0.500026  0.000000  0.832071  1
  Ru  Ru19  1  0.499992  0.500000  0.167640  1
  Ru  Ru20  1  0.999996  0.000000  0.334038  1
  Ru  Ru21  1  0.500000  0.500000  0.500000  1
  Ru  Ru22  1  0.000004  0.000000  0.665962  1
  Ru  Ru23  1  0.500006  0.500000  0.832360  1
