# generated using pymatgen
data_Yb7LuSi16Mo5W7
_symmetry_space_group_name_H-M   'P 1'
_cell_length_a   6.71621769
_cell_length_b   6.90826687
_cell_length_c   13.02856368
_cell_angle_alpha   89.87496733
_cell_angle_beta   90.03989225
_cell_angle_gamma   89.95299107
_symmetry_Int_Tables_number   1
_chemical_formula_structural   Yb7LuSi16Mo5W7
_chemical_formula_sum   'Yb7 Lu1 Si16 Mo5 W7'
_cell_volume   604.49000506
_cell_formula_units_Z   1
loop_
 _symmetry_equiv_pos_site_id
 _symmetry_equiv_pos_as_xyz
  1  'x, y, z'
loop_
 _atom_site_type_symbol
 _atom_site_label
 _atom_site_symmetry_multiplicity
 _atom_site_fract_x
 _atom_site_fract_y
 _atom_site_fract_z
 _atom_site_occupancy
  Yb  Yb0  1  0.498270  0.332829  0.090087  1
  Yb  Yb1  1  0.998140  0.166963  0.409700  1
  Yb  Yb2  1  0.501748  0.667580  0.590360  1
  Yb  Yb3  1  0.001336  0.830452  0.908439  1
  Yb  Yb4  1  0.501086  0.667671  0.909525  1
  Yb  Yb5  1  0.001836  0.832702  0.590464  1
  Yb  Yb6  1  0.498650  0.332841  0.409667  1
  Lu  Lu7  1  0.998349  0.170724  0.093479  1
  Si  Si8  1  0.659520  0.042758  0.545515  1
  Si  Si9  1  0.160255  0.457413  0.955538  1
  Si  Si10  1  0.337923  0.958549  0.044887  1
  Si  Si11  1  0.840898  0.542758  0.454566  1
  Si  Si12  1  0.340979  0.957117  0.454012  1
  Si  Si13  1  0.839540  0.542261  0.044995  1
  Si  Si14  1  0.661923  0.041790  0.955161  1
  Si  Si15  1  0.159866  0.457555  0.545402  1
  Si  Si16  1  0.534963  0.377241  0.749674  1
  Si  Si17  1  0.035124  0.122266  0.750345  1
  Si  Si18  1  0.465651  0.625295  0.249230  1
  Si  Si19  1  0.964213  0.875601  0.250567  1
  Si  Si20  1  0.799894  0.635110  0.750105  1
  Si  Si21  1  0.300484  0.864300  0.749858  1
  Si  Si22  1  0.200540  0.364444  0.250551  1
  Si  Si23  1  0.697528  0.135719  0.250207  1
  Mo  Mo24  1  0.665727  0.832305  0.371500  1
  Mo  Mo25  1  0.165552  0.667103  0.371752  1
  Mo  Mo26  1  0.667618  0.834919  0.126683  1
  Mo  Mo27  1  0.835798  0.331204  0.874006  1
  Mo  Mo28  1  0.334610  0.166842  0.627410  1
  W  W29  1  0.835597  0.331924  0.628538  1
  W  W30  1  0.334776  0.167495  0.872411  1
  W  W31  1  0.164290  0.667406  0.127183  1
  W  W32  1  0.659975  0.010895  0.750601  1
  W  W33  1  0.160115  0.488917  0.750418  1
  W  W34  1  0.337206  0.991165  0.248598  1
  W  W35  1  0.840019  0.507882  0.248565  1
