# generated using pymatgen
data_Er9Cd5Pd4
_symmetry_space_group_name_H-M   'P 1'
_cell_length_a   10.86165600
_cell_length_b   10.86165600
_cell_length_c   3.68951200
_cell_angle_alpha   90.00000000
_cell_angle_beta   90.00000000
_cell_angle_gamma   90.00000000
_symmetry_Int_Tables_number   1
_chemical_formula_structural   Er9Cd5Pd4
_chemical_formula_sum   'Er9 Cd5 Pd4'
_cell_volume   435.27228514
_cell_formula_units_Z   1
loop_
 _symmetry_equiv_pos_site_id
 _symmetry_equiv_pos_as_xyz
  1  'x, y, z'
loop_
 _atom_site_type_symbol
 _atom_site_label
 _atom_site_symmetry_multiplicity
 _atom_site_fract_x
 _atom_site_fract_y
 _atom_site_fract_z
 _atom_site_occupancy
  Er  Er0  1  0.331537  0.331537  0.500000  1
  Er  Er1  1  0.668463  0.668463  0.500000  1
  Er  Er2  1  0.331537  0.668463  0.500000  1
  Er  Er3  1  0.668463  0.331537  0.500000  1
  Er  Er4  1  0.000000  0.288756  0.500000  1
  Er  Er5  1  0.000000  0.711244  0.500000  1
  Er  Er6  1  0.288756  0.000000  0.500000  1
  Er  Er7  1  0.711244  0.000000  0.500000  1
  Er  Er8  1  0.000000  0.000000  0.000000  1
  Cd  Cd9  1  0.500000  0.146903  0.000000  1
  Cd  Cd10  1  0.500000  0.853097  0.000000  1
  Cd  Cd11  1  0.146903  0.500000  0.000000  1
  Cd  Cd12  1  0.853097  0.500000  0.000000  1
  Cd  Cd13  1  0.500000  0.500000  0.000000  1
  Pd  Pd14  1  0.192023  0.192023  0.000000  1
  Pd  Pd15  1  0.807977  0.807977  0.000000  1
  Pd  Pd16  1  0.192023  0.807977  0.000000  1
  Pd  Pd17  1  0.807977  0.192023  0.000000  1
