# generated using pymatgen
data_K2Mn(CuSe2)2
_symmetry_space_group_name_H-M   'P 1'
_cell_length_a   5.75462600
_cell_length_b   5.75462600
_cell_length_c   13.28819000
_cell_angle_alpha   90.00000000
_cell_angle_beta   90.00000000
_cell_angle_gamma   90.00000000
_symmetry_Int_Tables_number   1
_chemical_formula_structural   K2Mn(CuSe2)2
_chemical_formula_sum   'K4 Mn2 Cu4 Se8'
_cell_volume   440.04798466
_cell_formula_units_Z   2
loop_
 _symmetry_equiv_pos_site_id
 _symmetry_equiv_pos_as_xyz
  1  'x, y, z'
loop_
 _atom_site_type_symbol
 _atom_site_label
 _atom_site_symmetry_multiplicity
 _atom_site_fract_x
 _atom_site_fract_y
 _atom_site_fract_z
 _atom_site_occupancy
  K  K0  1  0.749999  0.749999  0.000000  1
  K  K1  1  0.250001  0.749999  0.500000  1
  K  K2  1  0.749999  0.250001  0.500000  1
  K  K3  1  0.250001  0.250001  0.000000  1
  Mn  Mn4  1  0.500000  0.500000  0.250000  1
  Mn  Mn5  1  0.500000  0.500000  0.750000  1
  Cu  Cu6  1  0.000000  0.500000  0.750000  1
  Cu  Cu7  1  0.500000  0.000000  0.750000  1
  Cu  Cu8  1  0.500000  0.000000  0.250000  1
  Cu  Cu9  1  0.000000  0.500000  0.250000  1
  Se  Se10  1  0.739793  0.260207  0.147004  1
  Se  Se11  1  0.739793  0.739793  0.352996  1
  Se  Se12  1  0.260207  0.260207  0.647004  1
  Se  Se13  1  0.739793  0.739793  0.647004  1
  Se  Se14  1  0.260207  0.260207  0.352996  1
  Se  Se15  1  0.739793  0.260207  0.852996  1
  Se  Se16  1  0.260207  0.739793  0.852996  1
  Se  Se17  1  0.260207  0.739793  0.147004  1
