# generated using pymatgen
data_YbPa5(Ni3Sb4)2
_symmetry_space_group_name_H-M   'P 1'
_cell_length_a   8.17534529
_cell_length_b   8.17534463
_cell_length_c   8.17534600
_cell_angle_alpha   109.54809303
_cell_angle_beta   109.31760102
_cell_angle_gamma   109.54808103
_symmetry_Int_Tables_number   1
_chemical_formula_structural   YbPa5(Ni3Sb4)2
_chemical_formula_sum   'Yb1 Pa5 Ni6 Sb8'
_cell_volume   420.62401297
_cell_formula_units_Z   1
loop_
 _symmetry_equiv_pos_site_id
 _symmetry_equiv_pos_as_xyz
  1  'x, y, z'
loop_
 _atom_site_type_symbol
 _atom_site_label
 _atom_site_symmetry_multiplicity
 _atom_site_fract_x
 _atom_site_fract_y
 _atom_site_fract_z
 _atom_site_occupancy
  Yb  Yb0  1  0.875000  0.250000  0.125000  1
  Pa  Pa1  1  0.625000  0.750000  0.375000  1
  Pa  Pa2  1  0.249279  0.124085  0.877132  1
  Pa  Pa3  1  0.753047  0.375915  0.625194  1
  Pa  Pa4  1  0.122868  0.872147  0.246953  1
  Pa  Pa5  1  0.374806  0.627853  0.750721  1
  Ni  Ni6  1  0.375000  0.250000  0.625000  1
  Ni  Ni7  1  0.125000  0.750000  0.875000  1
  Ni  Ni8  1  0.262803  0.632986  0.380305  1
  Ni  Ni9  1  0.747318  0.867014  0.129817  1
  Ni  Ni10  1  0.619695  0.382499  0.252682  1
  Ni  Ni11  1  0.870183  0.117501  0.737197  1
  Sb  Sb12  1  0.664474  0.498501  0.998101  1
  Sb  Sb13  1  0.499599  0.001499  0.665972  1
  Sb  Sb14  1  0.999052  0.662425  0.495783  1
  Sb  Sb15  1  0.833358  0.837575  0.836628  1
  Sb  Sb16  1  0.504217  0.003270  0.166642  1
  Sb  Sb17  1  0.163372  0.496730  0.000948  1
  Sb  Sb18  1  0.001899  0.166373  0.500401  1
  Sb  Sb19  1  0.334028  0.333627  0.335526  1
