# generated using pymatgen
data_Tb4Y6Si5Sb
_symmetry_space_group_name_H-M   'P 1'
_cell_length_a   8.55056400
_cell_length_b   8.57986562
_cell_length_c   6.44181400
_cell_angle_alpha   90.00000000
_cell_angle_beta   90.00000000
_cell_angle_gamma   119.88709155
_symmetry_Int_Tables_number   1
_chemical_formula_structural   Tb4Y6Si5Sb
_chemical_formula_sum   'Tb4 Y6 Si5 Sb1'
_cell_volume   409.73876238
_cell_formula_units_Z   1
loop_
 _symmetry_equiv_pos_site_id
 _symmetry_equiv_pos_as_xyz
  1  'x, y, z'
loop_
 _atom_site_type_symbol
 _atom_site_label
 _atom_site_symmetry_multiplicity
 _atom_site_fract_x
 _atom_site_fract_y
 _atom_site_fract_z
 _atom_site_occupancy
  Tb  Tb0  1  0.331261  0.656914  0.496078  1
  Tb  Tb1  1  0.674347  0.343086  0.003922  1
  Tb  Tb2  1  0.674347  0.343086  0.496078  1
  Tb  Tb3  1  0.331261  0.656914  0.003922  1
  Y  Y4  1  0.988380  0.747417  0.750000  1
  Y  Y5  1  0.998723  0.243581  0.250000  1
  Y  Y6  1  0.755141  0.756419  0.250000  1
  Y  Y7  1  0.764552  0.000000  0.750000  1
  Y  Y8  1  0.240964  0.252583  0.750000  1
  Y  Y9  1  0.242219  0.000000  0.250000  1
  Si  Si10  1  0.392853  0.391235  0.250000  1
  Si  Si11  1  0.001618  0.608765  0.250000  1
  Si  Si12  1  0.999117  0.393808  0.750000  1
  Si  Si13  1  0.605308  0.606192  0.750000  1
  Si  Si14  1  0.606766  0.000000  0.250000  1
  Sb  Sb15  1  0.393141  0.000000  0.750000  1
