# generated using pymatgen
data_Nd3Si2GePd3
_symmetry_space_group_name_H-M   'P 1'
_cell_length_a   4.46256400
_cell_length_b   7.59269500
_cell_length_c   21.91094900
_cell_angle_alpha   90.00000000
_cell_angle_beta   90.00000000
_cell_angle_gamma   90.00000000
_symmetry_Int_Tables_number   1
_chemical_formula_structural   Nd3Si2GePd3
_chemical_formula_sum   'Nd12 Si8 Ge4 Pd12'
_cell_volume   742.40621714
_cell_formula_units_Z   4
loop_
 _symmetry_equiv_pos_site_id
 _symmetry_equiv_pos_as_xyz
  1  'x, y, z'
loop_
 _atom_site_type_symbol
 _atom_site_label
 _atom_site_symmetry_multiplicity
 _atom_site_fract_x
 _atom_site_fract_y
 _atom_site_fract_z
 _atom_site_occupancy
  Nd  Nd0  1  0.250000  0.705781  0.332488  1
  Nd  Nd1  1  0.750000  0.294219  0.667512  1
  Nd  Nd2  1  0.750000  0.205781  0.167512  1
  Nd  Nd3  1  0.250000  0.794219  0.832488  1
  Nd  Nd4  1  0.250000  0.795105  0.166889  1
  Nd  Nd5  1  0.750000  0.204895  0.833111  1
  Nd  Nd6  1  0.750000  0.295105  0.333111  1
  Nd  Nd7  1  0.250000  0.704895  0.666889  1
  Nd  Nd8  1  0.250000  0.710184  0.001557  1
  Nd  Nd9  1  0.750000  0.289816  0.998443  1
  Nd  Nd10  1  0.750000  0.210184  0.498443  1
  Nd  Nd11  1  0.250000  0.789816  0.501557  1
  Si  Si12  1  0.250000  0.083992  0.272296  1
  Si  Si13  1  0.750000  0.916008  0.727704  1
  Si  Si14  1  0.750000  0.583992  0.227704  1
  Si  Si15  1  0.250000  0.416008  0.772296  1
  Si  Si16  1  0.250000  0.085513  0.393262  1
  Si  Si17  1  0.750000  0.914487  0.606738  1
  Si  Si18  1  0.750000  0.585513  0.106738  1
  Si  Si19  1  0.250000  0.414487  0.893262  1
  Ge  Ge20  1  0.250000  0.091172  0.070671  1
  Ge  Ge21  1  0.750000  0.908828  0.929329  1
  Ge  Ge22  1  0.750000  0.591172  0.429329  1
  Ge  Ge23  1  0.250000  0.408828  0.570671  1
  Pd  Pd24  1  0.250000  0.417702  0.236810  1
  Pd  Pd25  1  0.750000  0.582298  0.763190  1
  Pd  Pd26  1  0.750000  0.917702  0.263190  1
  Pd  Pd27  1  0.250000  0.082298  0.736810  1
  Pd  Pd28  1  0.250000  0.407790  0.435441  1
  Pd  Pd29  1  0.750000  0.592210  0.564559  1
  Pd  Pd30  1  0.750000  0.907790  0.064559  1
  Pd  Pd31  1  0.250000  0.092210  0.935441  1
  Pd  Pd32  1  0.250000  0.427340  0.095576  1
  Pd  Pd33  1  0.750000  0.572660  0.904424  1
  Pd  Pd34  1  0.750000  0.927340  0.404424  1
  Pd  Pd35  1  0.250000  0.072660  0.595576  1
