# generated using pymatgen
data_Li3La4ScAu4
_symmetry_space_group_name_H-M   'P 1'
_cell_length_a   4.69612600
_cell_length_b   7.35054934
_cell_length_c   8.42744000
_cell_angle_alpha   89.79875443
_cell_angle_beta   90.00000000
_cell_angle_gamma   90.00000000
_symmetry_Int_Tables_number   1
_chemical_formula_structural   Li3La4ScAu4
_chemical_formula_sum   'Li3 La4 Sc1 Au4'
_cell_volume   290.90589918
_cell_formula_units_Z   1
loop_
 _symmetry_equiv_pos_site_id
 _symmetry_equiv_pos_as_xyz
  1  'x, y, z'
loop_
 _atom_site_type_symbol
 _atom_site_label
 _atom_site_symmetry_multiplicity
 _atom_site_fract_x
 _atom_site_fract_y
 _atom_site_fract_z
 _atom_site_occupancy
  Li  Li0  1  0.250000  0.147161  0.929837  1
  Li  Li1  1  0.250000  0.643850  0.569044  1
  Li  Li2  1  0.750000  0.858017  0.068528  1
  La  La3  1  0.250000  0.018272  0.302605  1
  La  La4  1  0.250000  0.533679  0.185350  1
  La  La5  1  0.750000  0.972644  0.698236  1
  La  La6  1  0.750000  0.470350  0.817019  1
  Sc  Sc7  1  0.750000  0.358819  0.432859  1
  Au  Au8  1  0.250000  0.262921  0.602648  1
  Au  Au9  1  0.250000  0.768739  0.891761  1
  Au  Au10  1  0.750000  0.735406  0.392826  1
  Au  Au11  1  0.750000  0.230145  0.109288  1
