# generated using pymatgen
data_Zr2TaSbPb4O13
_symmetry_space_group_name_H-M   'P 1'
_cell_length_a   7.64841052
_cell_length_b   7.65576667
_cell_length_c   7.64841022
_cell_angle_alpha   120.12320082
_cell_angle_beta   119.82744874
_cell_angle_gamma   90.01526709
_symmetry_Int_Tables_number   1
_chemical_formula_structural   Zr2TaSbPb4O13
_chemical_formula_sum   'Zr2 Ta1 Sb1 Pb4 O13'
_cell_volume   316.86849945
_cell_formula_units_Z   1
loop_
 _symmetry_equiv_pos_site_id
 _symmetry_equiv_pos_as_xyz
  1  'x, y, z'
loop_
 _atom_site_type_symbol
 _atom_site_label
 _atom_site_symmetry_multiplicity
 _atom_site_fract_x
 _atom_site_fract_y
 _atom_site_fract_z
 _atom_site_occupancy
  Zr  Zr0  1  0.250555  0.499200  0.750339  1
  Zr  Zr1  1  0.748861  0.499200  0.248644  1
  Ta  Ta2  1  0.748996  0.998115  0.249119  1
  Sb  Sb3  1  0.749511  0.499797  0.750285  1
  Pb  Pb4  1  0.749824  0.999421  0.750793  1
  Pb  Pb5  1  0.248628  0.999421  0.249597  1
  Pb  Pb6  1  0.249244  0.501706  0.252461  1
  Pb  Pb7  1  0.249367  0.995241  0.745875  1
  O  O8  1  0.084562  0.583832  0.499269  1
  O  O9  1  0.688634  0.188307  0.499673  1
  O  O10  1  0.063116  0.168180  0.483020  1
  O  O11  1  0.683410  0.580121  0.516888  1
  O  O12  1  0.685159  0.168180  0.105064  1
  O  O13  1  0.063233  0.580121  0.896710  1
  O  O14  1  0.421389  0.423860  0.002471  1
  O  O15  1  0.809764  0.810545  0.000781  1
  O  O16  1  0.438928  0.828198  0.017218  1
  O  O17  1  0.813327  0.421916  0.983844  1
  O  O18  1  0.810980  0.828198  0.389269  1
  O  O19  1  0.438071  0.421916  0.608589  1
  O  O20  1  0.379436  0.879528  0.500092  1
