# generated using pymatgen
data_Al20FeCo2Ir5
_symmetry_space_group_name_H-M   'P 1'
_cell_length_a   7.89698100
_cell_length_b   7.90186340
_cell_length_c   7.83405600
_cell_angle_alpha   90.00000000
_cell_angle_beta   90.00000000
_cell_angle_gamma   119.97956700
_symmetry_Int_Tables_number   1
_chemical_formula_structural   Al20FeCo2Ir5
_chemical_formula_sum   'Al20 Fe1 Co2 Ir5'
_cell_volume   423.44528078
_cell_formula_units_Z   1
loop_
 _symmetry_equiv_pos_site_id
 _symmetry_equiv_pos_as_xyz
  1  'x, y, z'
loop_
 _atom_site_type_symbol
 _atom_site_label
 _atom_site_symmetry_multiplicity
 _atom_site_fract_x
 _atom_site_fract_y
 _atom_site_fract_z
 _atom_site_occupancy
  Al  Al0  1  0.998120  0.996239  0.996472  1
  Al  Al1  1  0.998120  0.996239  0.503528  1
  Al  Al2  1  0.475689  0.951380  0.250000  1
  Al  Al3  1  0.536803  0.479593  0.750000  1
  Al  Al4  1  0.942790  0.479593  0.750000  1
  Al  Al5  1  0.046596  0.524389  0.250000  1
  Al  Al6  1  0.477792  0.524389  0.250000  1
  Al  Al7  1  0.523169  0.046339  0.750000  1
  Al  Al8  1  0.196017  0.392034  0.934968  1
  Al  Al9  1  0.803959  0.195736  0.436412  1
  Al  Al10  1  0.391777  0.195736  0.436412  1
  Al  Al11  1  0.611737  0.802611  0.933511  1
  Al  Al12  1  0.190874  0.802611  0.933511  1
  Al  Al13  1  0.803208  0.606415  0.051984  1
  Al  Al14  1  0.803959  0.195736  0.063588  1
  Al  Al15  1  0.803208  0.606415  0.448016  1
  Al  Al16  1  0.391777  0.195736  0.063588  1
  Al  Al17  1  0.611737  0.802611  0.566489  1
  Al  Al18  1  0.196017  0.392034  0.565032  1
  Al  Al19  1  0.190874  0.802611  0.566489  1
  Fe  Fe20  1  0.871969  0.743937  0.750000  1
  Co  Co21  1  0.333788  0.667575  0.750000  1
  Co  Co22  1  0.668546  0.337091  0.250000  1
  Ir  Ir23  1  0.130053  0.260108  0.250000  1
  Ir  Ir24  1  0.869478  0.131325  0.750000  1
  Ir  Ir25  1  0.261848  0.131325  0.750000  1
  Ir  Ir26  1  0.738681  0.870096  0.250000  1
  Ir  Ir27  1  0.131415  0.870096  0.250000  1
