# generated using pymatgen
data_Hf3CoRe2Ge3
_symmetry_space_group_name_H-M   'P 1'
_cell_length_a   6.92221225
_cell_length_b   6.78105239
_cell_length_c   3.56056700
_cell_angle_alpha   90.00000000
_cell_angle_beta   90.00000000
_cell_angle_gamma   119.32769735
_symmetry_Int_Tables_number   1
_chemical_formula_structural   Hf3CoRe2Ge3
_chemical_formula_sum   'Hf3 Co1 Re2 Ge3'
_cell_volume   145.71165031
_cell_formula_units_Z   1
loop_
 _symmetry_equiv_pos_site_id
 _symmetry_equiv_pos_as_xyz
  1  'x, y, z'
loop_
 _atom_site_type_symbol
 _atom_site_label
 _atom_site_symmetry_multiplicity
 _atom_site_fract_x
 _atom_site_fract_y
 _atom_site_fract_z
 _atom_site_occupancy
  Hf  Hf0  1  0.579518  0.982854  0.500000  1
  Hf  Hf1  1  0.420482  0.403338  0.500000  1
  Hf  Hf2  1  0.000000  0.602461  0.500000  1
  Co  Co3  1  0.000000  0.254481  0.000000  1
  Re  Re4  1  0.248625  0.998520  0.000000  1
  Re  Re5  1  0.751375  0.749895  0.000000  1
  Ge  Ge6  1  0.000000  0.034623  0.500000  1
  Ge  Ge7  1  0.321118  0.647474  0.000000  1
  Ge  Ge8  1  0.678882  0.326354  0.000000  1
