# generated using pymatgen
data_Sm5DySc2(Co4P3)4
_symmetry_space_group_name_H-M   'P 1'
_cell_length_a   3.75361600
_cell_length_b   10.73720911
_cell_length_c   12.47774313
_cell_angle_alpha   90.01669984
_cell_angle_beta   90.00000000
_cell_angle_gamma   90.00000000
_symmetry_Int_Tables_number   1
_chemical_formula_structural   Sm5DySc2(Co4P3)4
_chemical_formula_sum   'Sm5 Dy1 Sc2 Co16 P12'
_cell_volume   502.89495117
_cell_formula_units_Z   1
loop_
 _symmetry_equiv_pos_site_id
 _symmetry_equiv_pos_as_xyz
  1  'x, y, z'
loop_
 _atom_site_type_symbol
 _atom_site_label
 _atom_site_symmetry_multiplicity
 _atom_site_fract_x
 _atom_site_fract_y
 _atom_site_fract_z
 _atom_site_occupancy
  Sm  Sm0  1  0.000000  0.499781  0.527498  1
  Sm  Sm1  1  0.500000  0.999996  0.472872  1
  Sm  Sm2  1  0.500000  0.821776  0.205696  1
  Sm  Sm3  1  0.500000  0.178232  0.205898  1
  Sm  Sm4  1  0.000000  0.677730  0.794098  1
  Dy  Dy5  1  0.000000  0.321730  0.794630  1
  Sc  Sc6  1  0.500000  0.500007  0.156010  1
  Sc  Sc7  1  0.000000  0.000597  0.844009  1
  Co  Co8  1  0.500000  0.497833  0.706592  1
  Co  Co9  1  0.000000  0.000140  0.294157  1
  Co  Co10  1  0.000000  0.499303  0.987520  1
  Co  Co11  1  0.500000  0.000651  0.011242  1
  Co  Co12  1  0.500000  0.331233  0.994145  1
  Co  Co13  1  0.500000  0.668110  0.994681  1
  Co  Co14  1  0.000000  0.169351  0.004180  1
  Co  Co15  1  0.000000  0.831305  0.004748  1
  Co  Co16  1  0.500000  0.295630  0.433451  1
  Co  Co17  1  0.500000  0.704302  0.432810  1
  Co  Co18  1  0.000000  0.204897  0.568293  1
  Co  Co19  1  0.000000  0.795528  0.567357  1
  Co  Co20  1  0.500000  0.879490  0.702502  1
  Co  Co21  1  0.500000  0.121951  0.703625  1
  Co  Co22  1  0.000000  0.620653  0.297394  1
  Co  Co23  1  0.000000  0.379345  0.297600  1
  P  P24  1  0.500000  0.498411  0.886660  1
  P  P25  1  0.000000  0.000276  0.111893  1
  P  P26  1  0.500000  0.499946  0.357560  1
  P  P27  1  0.000000  0.999928  0.642600  1
  P  P28  1  0.500000  0.307227  0.616198  1
  P  P29  1  0.500000  0.693207  0.614302  1
  P  P30  1  0.000000  0.193686  0.386231  1
  P  P31  1  0.000000  0.806547  0.385778  1
  P  P32  1  0.500000  0.840683  0.894755  1
  P  P33  1  0.500000  0.160701  0.893108  1
  P  P34  1  0.000000  0.659128  0.104784  1
  P  P35  1  0.000000  0.340690  0.105121  1
