# generated using pymatgen
data_Ho6Tm2ZnIn3
_symmetry_space_group_name_H-M   'P 1'
_cell_length_a   10.59527704
_cell_length_b   10.59642835
_cell_length_c   6.72193502
_cell_angle_alpha   89.99639404
_cell_angle_beta   90.00058672
_cell_angle_gamma   119.99033229
_symmetry_Int_Tables_number   1
_chemical_formula_structural   Ho6Tm2ZnIn3
_chemical_formula_sum   'Ho12 Tm4 Zn2 In6'
_cell_volume   653.64066557
_cell_formula_units_Z   2
loop_
 _symmetry_equiv_pos_site_id
 _symmetry_equiv_pos_as_xyz
  1  'x, y, z'
loop_
 _atom_site_type_symbol
 _atom_site_label
 _atom_site_symmetry_multiplicity
 _atom_site_fract_x
 _atom_site_fract_y
 _atom_site_fract_z
 _atom_site_occupancy
  Ho  Ho0  1  0.041715  0.520493  0.026613  1
  Ho  Ho1  1  0.478817  0.520528  0.026652  1
  Ho  Ho2  1  0.173071  0.346059  0.742091  1
  Ho  Ho3  1  0.654351  0.827455  0.742975  1
  Ho  Ho4  1  0.173043  0.827382  0.742892  1
  Ho  Ho5  1  0.826758  0.653540  0.243639  1
  Ho  Ho6  1  0.346816  0.172885  0.243522  1
  Ho  Ho7  1  0.826063  0.172931  0.243417  1
  Ho  Ho8  1  0.666228  0.332446  0.873873  1
  Ho  Ho9  1  0.333616  0.667195  0.376587  1
  Ho  Ho10  1  0.000073  0.000171  0.506497  1
  Ho  Ho11  1  0.999954  0.999908  0.007390  1
  Tm  Tm12  1  0.520577  0.041137  0.527156  1
  Tm  Tm13  1  0.958699  0.479381  0.526779  1
  Tm  Tm14  1  0.520704  0.479394  0.526826  1
  Tm  Tm15  1  0.478887  0.957834  0.027260  1
  Zn  Zn16  1  0.666837  0.333731  0.312756  1
  Zn  Zn17  1  0.333842  0.667674  0.812319  1
  In  In18  1  0.835074  0.670183  0.757604  1
  In  In19  1  0.329309  0.164753  0.757471  1
  In  In20  1  0.835551  0.164850  0.757337  1
  In  In21  1  0.164115  0.328262  0.258309  1
  In  In22  1  0.671375  0.835962  0.257916  1
  In  In23  1  0.164525  0.835846  0.257802  1
