# generated using pymatgen
data_Nd16CuAg4Ru3
_symmetry_space_group_name_H-M   'P 1'
_cell_length_a   9.76657790
_cell_length_b   9.94134351
_cell_length_c   9.93802007
_cell_angle_alpha   59.75323803
_cell_angle_beta   59.38908063
_cell_angle_gamma   59.39195631
_symmetry_Int_Tables_number   1
_chemical_formula_structural   Nd16CuAg4Ru3
_chemical_formula_sum   'Nd16 Cu1 Ag4 Ru3'
_cell_volume   674.69614017
_cell_formula_units_Z   1
loop_
 _symmetry_equiv_pos_site_id
 _symmetry_equiv_pos_as_xyz
  1  'x, y, z'
loop_
 _atom_site_type_symbol
 _atom_site_label
 _atom_site_symmetry_multiplicity
 _atom_site_fract_x
 _atom_site_fract_y
 _atom_site_fract_z
 _atom_site_occupancy
  Nd  Nd0  1  0.560065  0.560504  0.940439  1
  Nd  Nd1  1  0.192655  0.812419  0.183611  1
  Nd  Nd2  1  0.812669  0.810598  0.188481  1
  Nd  Nd3  1  0.192636  0.183592  0.812434  1
  Nd  Nd4  1  0.401356  0.802076  0.397868  1
  Nd  Nd5  1  0.812713  0.188485  0.810567  1
  Nd  Nd6  1  0.936126  0.946376  0.557886  1
  Nd  Nd7  1  0.815345  0.187143  0.187146  1
  Nd  Nd8  1  0.936120  0.557882  0.946378  1
  Nd  Nd9  1  0.795923  0.401887  0.401875  1
  Nd  Nd10  1  0.563967  0.938276  0.938273  1
  Nd  Nd11  1  0.189596  0.812683  0.812706  1
  Nd  Nd12  1  0.560060  0.940446  0.560500  1
  Nd  Nd13  1  0.399973  0.399299  0.399320  1
  Nd  Nd14  1  0.935755  0.559193  0.559162  1
  Nd  Nd15  1  0.401361  0.397841  0.802093  1
  Cu  Cu16  1  0.177201  0.607529  0.607518  1
  Ag  Ag17  1  0.171065  0.491215  0.168669  1
  Ag  Ag18  1  0.171070  0.168673  0.491198  1
  Ag  Ag19  1  0.491612  0.169242  0.169223  1
  Ag  Ag20  1  0.169057  0.168618  0.168626  1
  Ru  Ru21  1  0.603980  0.610361  0.173832  1
  Ru  Ru22  1  0.605717  0.611829  0.611840  1
  Ru  Ru23  1  0.603981  0.173832  0.610354  1
