# generated using pymatgen
data_NaHoPa2Ge6Ir7
_symmetry_space_group_name_H-M   'P 1'
_cell_length_a   7.23862040
_cell_length_b   7.28979575
_cell_length_c   7.26536558
_cell_angle_alpha   109.44712016
_cell_angle_beta   109.16088806
_cell_angle_gamma   109.79989608
_symmetry_Int_Tables_number   1
_chemical_formula_structural   NaHoPa2Ge6Ir7
_chemical_formula_sum   'Na1 Ho1 Pa2 Ge6 Ir7'
_cell_volume   295.13956385
_cell_formula_units_Z   1
loop_
 _symmetry_equiv_pos_site_id
 _symmetry_equiv_pos_as_xyz
  1  'x, y, z'
loop_
 _atom_site_type_symbol
 _atom_site_label
 _atom_site_symmetry_multiplicity
 _atom_site_fract_x
 _atom_site_fract_y
 _atom_site_fract_z
 _atom_site_occupancy
  Na  Na0  1  0.000000  0.500000  0.000000  1
  Ho  Ho1  1  0.500000  0.000000  0.000000  1
  Pa  Pa2  1  0.000000  0.000000  0.500000  1
  Pa  Pa3  1  0.500000  0.500000  0.500000  1
  Ge  Ge4  1  0.689811  0.680244  0.000000  1
  Ge  Ge5  1  0.310226  0.983929  0.304989  1
  Ge  Ge6  1  0.994762  0.321060  0.304989  1
  Ge  Ge7  1  0.310189  0.319756  0.000000  1
  Ge  Ge8  1  0.689774  0.016071  0.695011  1
  Ge  Ge9  1  0.005238  0.678940  0.695011  1
  Ir  Ir10  1  0.749093  0.249093  0.498186  1
  Ir  Ir11  1  0.748533  0.505380  0.256511  1
  Ir  Ir12  1  0.492022  0.248869  0.743489  1
  Ir  Ir13  1  0.251467  0.494620  0.743489  1
  Ir  Ir14  1  0.250907  0.750907  0.501814  1
  Ir  Ir15  1  0.507978  0.751131  0.256511  1
  Ir  Ir16  1  0.000000  0.000000  0.000000  1
