# generated using pymatgen
data_EuDyGe4N7
_symmetry_space_group_name_H-M   'P 1'
_cell_length_a   6.29266600
_cell_length_b   6.29266670
_cell_length_c   10.38447600
_cell_angle_alpha   90.00000000
_cell_angle_beta   90.00000000
_cell_angle_gamma   119.99998580
_symmetry_Int_Tables_number   1
_chemical_formula_structural   EuDyGe4N7
_chemical_formula_sum   'Eu2 Dy2 Ge8 N14'
_cell_volume   356.11042788
_cell_formula_units_Z   2
loop_
 _symmetry_equiv_pos_site_id
 _symmetry_equiv_pos_as_xyz
  1  'x, y, z'
loop_
 _atom_site_type_symbol
 _atom_site_label
 _atom_site_symmetry_multiplicity
 _atom_site_fract_x
 _atom_site_fract_y
 _atom_site_fract_z
 _atom_site_occupancy
  Eu  Eu0  1  0.666667  0.333333  0.600149  1
  Eu  Eu1  1  0.333333  0.666667  0.100149  1
  Dy  Dy2  1  0.666667  0.333333  0.952295  1
  Dy  Dy3  1  0.333333  0.666667  0.452295  1
  Ge  Ge4  1  0.173080  0.346161  0.759789  1
  Ge  Ge5  1  0.826920  0.173080  0.259789  1
  Ge  Ge6  1  0.346161  0.173080  0.259789  1
  Ge  Ge7  1  0.653839  0.826920  0.759789  1
  Ge  Ge8  1  0.173080  0.826920  0.759789  1
  Ge  Ge9  1  0.826920  0.653839  0.259789  1
  Ge  Ge10  1  0.000000  0.000000  0.024575  1
  Ge  Ge11  1  0.000000  0.000000  0.524575  1
  N  N12  1  0.000000  0.000000  0.833399  1
  N  N13  1  0.000000  0.000000  0.333399  1
  N  N14  1  0.841154  0.682308  0.082075  1
  N  N15  1  0.158846  0.841154  0.582075  1
  N  N16  1  0.682308  0.841154  0.582075  1
  N  N17  1  0.317692  0.158846  0.082075  1
  N  N18  1  0.841154  0.158846  0.082075  1
  N  N19  1  0.158846  0.317692  0.582075  1
  N  N20  1  0.497429  0.502571  0.812271  1
  N  N21  1  0.994858  0.497429  0.312271  1
  N  N22  1  0.502571  0.005142  0.312271  1
  N  N23  1  0.497429  0.994858  0.812271  1
  N  N24  1  0.502571  0.497429  0.312271  1
  N  N25  1  0.005142  0.502571  0.812271  1
