# generated using pymatgen
data_Pr2Ga9IrPdRu
_symmetry_space_group_name_H-M   'P 1'
_cell_length_a   7.68042221
_cell_length_b   7.68043000
_cell_length_c   9.73180602
_cell_angle_alpha   89.94166264
_cell_angle_beta   89.94166427
_cell_angle_gamma   119.28317249
_symmetry_Int_Tables_number   1
_chemical_formula_structural   Pr2Ga9IrPdRu
_chemical_formula_sum   'Pr4 Ga18 Ir2 Pd2 Ru2'
_cell_volume   500.70938335
_cell_formula_units_Z   2
loop_
 _symmetry_equiv_pos_site_id
 _symmetry_equiv_pos_as_xyz
  1  'x, y, z'
loop_
 _atom_site_type_symbol
 _atom_site_label
 _atom_site_symmetry_multiplicity
 _atom_site_fract_x
 _atom_site_fract_y
 _atom_site_fract_z
 _atom_site_occupancy
  Pr  Pr0  1  0.997258  0.672601  0.249359  1
  Pr  Pr1  1  0.002742  0.327399  0.750641  1
  Pr  Pr2  1  0.672605  0.997258  0.249359  1
  Pr  Pr3  1  0.327395  0.002742  0.750641  1
  Ga  Ga4  1  0.135931  0.135931  0.249334  1
  Ga  Ga5  1  0.864069  0.864069  0.750666  1
  Ga  Ga6  1  0.004193  0.338792  0.077765  1
  Ga  Ga7  1  0.995807  0.661208  0.922235  1
  Ga  Ga8  1  0.994699  0.658329  0.576244  1
  Ga  Ga9  1  0.341671  0.005301  0.423756  1
  Ga  Ga10  1  0.005301  0.341671  0.423756  1
  Ga  Ga11  1  0.658329  0.994699  0.576244  1
  Ga  Ga12  1  0.661208  0.995807  0.922235  1
  Ga  Ga13  1  0.338792  0.004193  0.077765  1
  Ga  Ga14  1  0.342286  0.342286  0.559396  1
  Ga  Ga15  1  0.657714  0.657714  0.440604  1
  Ga  Ga16  1  0.660352  0.660352  0.061690  1
  Ga  Ga17  1  0.339648  0.339648  0.938310  1
  Ga  Ga18  1  0.336371  0.547919  0.251523  1
  Ga  Ga19  1  0.663629  0.452081  0.748477  1
  Ga  Ga20  1  0.547920  0.336371  0.251523  1
  Ga  Ga21  1  0.452080  0.663629  0.748477  1
  Ir  Ir22  1  0.671781  0.328219  0.000000  1
  Ir  Ir23  1  0.328219  0.671781  0.000000  1
  Pd  Pd24  1  0.000000  0.000000  0.000000  1
  Pd  Pd25  1  0.000000  0.000000  0.500000  1
  Ru  Ru26  1  0.327217  0.672783  0.500000  1
  Ru  Ru27  1  0.672783  0.327217  0.500000  1
