# generated using pymatgen
data_Pr16Cd4Os3Pd
_symmetry_space_group_name_H-M   'P 1'
_cell_length_a   10.00314213
_cell_length_b   10.08196510
_cell_length_c   10.08196500
_cell_angle_alpha   59.99999704
_cell_angle_beta   59.73899050
_cell_angle_gamma   59.73899162
_symmetry_Int_Tables_number   1
_chemical_formula_structural   Pr16Cd4Os3Pd
_chemical_formula_sum   'Pr16 Cd4 Os3 Pd1'
_cell_volume   716.12220021
_cell_formula_units_Z   1
loop_
 _symmetry_equiv_pos_site_id
 _symmetry_equiv_pos_as_xyz
  1  'x, y, z'
loop_
 _atom_site_type_symbol
 _atom_site_label
 _atom_site_symmetry_multiplicity
 _atom_site_fract_x
 _atom_site_fract_y
 _atom_site_fract_z
 _atom_site_occupancy
  Pr  Pr0  1  0.343223  0.350496  0.350496  1
  Pr  Pr1  1  0.343223  0.350496  0.955786  1
  Pr  Pr2  1  0.343223  0.955786  0.350496  1
  Pr  Pr3  1  0.961612  0.346129  0.346129  1
  Pr  Pr4  1  0.815033  0.191044  0.191044  1
  Pr  Pr5  1  0.190217  0.810434  0.810434  1
  Pr  Pr6  1  0.190217  0.810434  0.188914  1
  Pr  Pr7  1  0.815033  0.191044  0.802878  1
  Pr  Pr8  1  0.190217  0.188914  0.810434  1
  Pr  Pr9  1  0.815033  0.802878  0.191044  1
  Pr  Pr10  1  0.938666  0.560744  0.560744  1
  Pr  Pr11  1  0.557471  0.938729  0.938729  1
  Pr  Pr12  1  0.557471  0.938729  0.565072  1
  Pr  Pr13  1  0.938666  0.560744  0.939845  1
  Pr  Pr14  1  0.557471  0.565072  0.938729  1
  Pr  Pr15  1  0.938666  0.939845  0.560744  1
  Cd  Cd16  1  0.579224  0.579940  0.579940  1
  Cd  Cd17  1  0.579224  0.579940  0.260895  1
  Cd  Cd18  1  0.579224  0.260895  0.579940  1
  Cd  Cd19  1  0.261267  0.579578  0.579578  1
  Os  Os20  1  0.142588  0.138430  0.138430  1
  Os  Os21  1  0.142588  0.138430  0.580551  1
  Os  Os22  1  0.142588  0.580551  0.138430  1
  Pd  Pd23  1  0.577854  0.140715  0.140715  1
