# generated using pymatgen
data_Ac2(SeO3)3
_symmetry_space_group_name_H-M   'P 1'
_cell_length_a   7.47862486
_cell_length_b   8.43486674
_cell_length_c   9.76558452
_cell_angle_alpha   69.58949386
_cell_angle_beta   76.29655199
_cell_angle_gamma   64.40750444
_symmetry_Int_Tables_number   1
_chemical_formula_structural   Ac2(SeO3)3
_chemical_formula_sum   'Ac4 Se6 O18'
_cell_volume   517.98741702
_cell_formula_units_Z   2
loop_
 _symmetry_equiv_pos_site_id
 _symmetry_equiv_pos_as_xyz
  1  'x, y, z'
loop_
 _atom_site_type_symbol
 _atom_site_label
 _atom_site_symmetry_multiplicity
 _atom_site_fract_x
 _atom_site_fract_y
 _atom_site_fract_z
 _atom_site_occupancy
  Ac  Ac0  1  0.630333  0.344107  0.327967  1
  Ac  Ac1  1  0.369667  0.655893  0.672033  1
  Ac  Ac2  1  0.232006  0.301101  0.126820  1
  Ac  Ac3  1  0.767994  0.698899  0.873180  1
  Se  Se4  1  0.445659  0.186883  0.744685  1
  Se  Se5  1  0.199834  0.757935  0.029396  1
  Se  Se6  1  0.865056  0.780077  0.495443  1
  Se  Se7  1  0.800166  0.242065  0.970604  1
  Se  Se8  1  0.554341  0.813117  0.255315  1
  Se  Se9  1  0.134944  0.219923  0.504557  1
  O  O10  1  0.654665  0.036602  0.831207  1
  O  O11  1  0.345335  0.963398  0.168793  1
  O  O12  1  0.649176  0.779372  0.614475  1
  O  O13  1  0.350824  0.220628  0.385525  1
  O  O14  1  0.390293  0.778635  0.894039  1
  O  O15  1  0.320058  0.337255  0.852232  1
  O  O16  1  0.898021  0.338676  0.055162  1
  O  O17  1  0.528358  0.336647  0.598310  1
  O  O18  1  0.694620  0.436225  0.834311  1
  O  O19  1  0.101979  0.661324  0.944838  1
  O  O20  1  0.178468  0.995305  0.576712  1
  O  O21  1  0.022057  0.697416  0.634621  1
  O  O22  1  0.609707  0.221365  0.105961  1
  O  O23  1  0.679942  0.662745  0.147768  1
  O  O24  1  0.471642  0.663353  0.401690  1
  O  O25  1  0.305380  0.563775  0.165689  1
  O  O26  1  0.821532  0.004695  0.423288  1
  O  O27  1  0.977943  0.302584  0.365379  1
