# generated using pymatgen
data_YbDy3Tc3B16W
_symmetry_space_group_name_H-M   'P 1'
_cell_length_a   5.99553100
_cell_length_b   11.60504173
_cell_length_c   3.58721700
_cell_angle_alpha   90.00000000
_cell_angle_beta   90.00000000
_cell_angle_gamma   89.93893057
_symmetry_Int_Tables_number   1
_chemical_formula_structural   YbDy3Tc3B16W
_chemical_formula_sum   'Yb1 Dy3 Tc3 B16 W1'
_cell_volume   249.59263259
_cell_formula_units_Z   1
loop_
 _symmetry_equiv_pos_site_id
 _symmetry_equiv_pos_as_xyz
  1  'x, y, z'
loop_
 _atom_site_type_symbol
 _atom_site_label
 _atom_site_symmetry_multiplicity
 _atom_site_fract_x
 _atom_site_fract_y
 _atom_site_fract_z
 _atom_site_occupancy
  Yb  Yb0  1  0.625965  0.348086  0.000000  1
  Dy  Dy1  1  0.372411  0.651134  0.000000  1
  Dy  Dy2  1  0.128102  0.149761  0.000000  1
  Dy  Dy3  1  0.872471  0.851701  0.000000  1
  Tc  Tc4  1  0.634470  0.086954  0.000000  1
  Tc  Tc5  1  0.366842  0.913550  0.000000  1
  Tc  Tc6  1  0.130177  0.415678  0.000000  1
  B  B7  1  0.784918  0.185427  0.500000  1
  B  B8  1  0.215051  0.815820  0.500000  1
  B  B9  1  0.286221  0.314651  0.500000  1
  B  B10  1  0.710096  0.687090  0.500000  1
  B  B11  1  0.863815  0.031654  0.500000  1
  B  B12  1  0.136381  0.969104  0.500000  1
  B  B13  1  0.365260  0.466189  0.500000  1
  B  B14  1  0.631554  0.530744  0.500000  1
  B  B15  1  0.886088  0.450239  0.500000  1
  B  B16  1  0.116866  0.545584  0.500000  1
  B  B17  1  0.387392  0.047555  0.500000  1
  B  B18  1  0.612762  0.953431  0.500000  1
  B  B19  1  0.977982  0.306521  0.500000  1
  B  B20  1  0.026111  0.694116  0.500000  1
  B  B21  1  0.475754  0.192291  0.500000  1
  B  B22  1  0.523030  0.808901  0.500000  1
  W  W23  1  0.870280  0.583817  0.000000  1
