# generated using pymatgen
data_Tb16Y4Sn11Bi5
_symmetry_space_group_name_H-M   'P 1'
_cell_length_a   8.21323036
_cell_length_b   8.21920775
_cell_length_c   15.60922228
_cell_angle_alpha   90.11019350
_cell_angle_beta   90.37190965
_cell_angle_gamma   89.89478195
_symmetry_Int_Tables_number   1
_chemical_formula_structural   Tb16Y4Sn11Bi5
_chemical_formula_sum   'Tb16 Y4 Sn11 Bi5'
_cell_volume   1053.69410885
_cell_formula_units_Z   1
loop_
 _symmetry_equiv_pos_site_id
 _symmetry_equiv_pos_as_xyz
  1  'x, y, z'
loop_
 _atom_site_type_symbol
 _atom_site_label
 _atom_site_symmetry_multiplicity
 _atom_site_fract_x
 _atom_site_fract_y
 _atom_site_fract_z
 _atom_site_occupancy
  Tb  Tb0  1  0.391467  0.838433  0.877595  1
  Tb  Tb1  1  0.891587  0.660966  0.621666  1
  Tb  Tb2  1  0.608503  0.159626  0.377651  1
  Tb  Tb3  1  0.105494  0.337964  0.121847  1
  Tb  Tb4  1  0.610825  0.164845  0.122396  1
  Tb  Tb5  1  0.114944  0.336225  0.380188  1
  Tb  Tb6  1  0.383484  0.837839  0.620615  1
  Tb  Tb7  1  0.888061  0.658345  0.878968  1
  Tb  Tb8  1  0.562483  0.335688  0.889468  1
  Tb  Tb9  1  0.060560  0.172561  0.608343  1
  Tb  Tb10  1  0.440291  0.672476  0.392134  1
  Tb  Tb11  1  0.940567  0.824569  0.111839  1
  Tb  Tb12  1  0.449363  0.664122  0.110687  1
  Tb  Tb13  1  0.958190  0.829224  0.393219  1
  Tb  Tb14  1  0.541102  0.330316  0.606081  1
  Tb  Tb15  1  0.053658  0.173559  0.889235  1
  Y  Y16  1  0.221483  0.501398  0.745964  1
  Y  Y17  1  0.721680  0.000954  0.748734  1
  Y  Y18  1  0.778430  0.498583  0.248191  1
  Y  Y19  1  0.278594  0.999169  0.253758  1
  Sn  Sn20  1  0.224755  0.526085  0.543840  1
  Sn  Sn21  1  0.275068  0.025070  0.456264  1
  Sn  Sn22  1  0.770550  0.478994  0.044846  1
  Sn  Sn23  1  0.586822  0.628585  0.748727  1
  Sn  Sn24  1  0.085502  0.873647  0.751781  1
  Sn  Sn25  1  0.411945  0.372328  0.249961  1
  Sn  Sn26  1  0.913537  0.125805  0.250969  1
  Sn  Sn27  1  0.359692  0.144258  0.751058  1
  Sn  Sn28  1  0.857658  0.356835  0.747958  1
  Sn  Sn29  1  0.642223  0.855674  0.251164  1
  Sn  Sn30  1  0.142139  0.641151  0.250313  1
  Bi  Bi31  1  0.266525  0.014980  0.045562  1
  Bi  Bi32  1  0.768938  0.479277  0.455159  1
  Bi  Bi33  1  0.730444  0.980185  0.544116  1
  Bi  Bi34  1  0.232078  0.518195  0.954706  1
  Bi  Bi35  1  0.731356  0.982070  0.954998  1
