# generated using pymatgen
data_ErTmMnCo2Si5
_symmetry_space_group_name_H-M   'P 1'
_cell_length_a   5.41885141
_cell_length_b   7.96385775
_cell_length_c   7.96226898
_cell_angle_alpha   72.91075598
_cell_angle_beta   70.10587048
_cell_angle_gamma   70.11001527
_symmetry_Int_Tables_number   1
_chemical_formula_structural   ErTmMnCo2Si5
_chemical_formula_sum   'Er2 Tm2 Mn2 Co4 Si10'
_cell_volume   297.60537625
_cell_formula_units_Z   2
loop_
 _symmetry_equiv_pos_site_id
 _symmetry_equiv_pos_as_xyz
  1  'x, y, z'
loop_
 _atom_site_type_symbol
 _atom_site_label
 _atom_site_symmetry_multiplicity
 _atom_site_fract_x
 _atom_site_fract_y
 _atom_site_fract_z
 _atom_site_occupancy
  Er  Er0  1  0.864253  0.403134  0.868360  1
  Er  Er1  1  0.135747  0.596866  0.131640  1
  Tm  Tm2  1  0.364243  0.868423  0.403092  1
  Tm  Tm3  1  0.635757  0.131577  0.596908  1
  Mn  Mn4  1  0.749867  0.000000  0.000000  1
  Mn  Mn5  1  0.250133  0.000000  0.000000  1
  Co  Co6  1  0.141349  0.260374  0.456927  1
  Co  Co7  1  0.858651  0.739626  0.543073  1
  Co  Co8  1  0.641203  0.456649  0.260944  1
  Co  Co9  1  0.358797  0.543351  0.739056  1
  Si  Si10  1  0.749811  0.500000  0.500000  1
  Si  Si11  1  0.250189  0.500000  0.500000  1
  Si  Si12  1  0.531922  0.217866  0.218114  1
  Si  Si13  1  0.967902  0.782134  0.781886  1
  Si  Si14  1  0.468078  0.782134  0.781886  1
  Si  Si15  1  0.032098  0.217866  0.218114  1
  Si  Si16  1  0.099003  0.069811  0.732184  1
  Si  Si17  1  0.900997  0.930189  0.267816  1
  Si  Si18  1  0.598785  0.732513  0.069916  1
  Si  Si19  1  0.401215  0.267487  0.930084  1
