# generated using pymatgen
data_Zr10BeSn5Sb2
_symmetry_space_group_name_H-M   'P 1'
_cell_length_a   8.74664700
_cell_length_b   8.73434905
_cell_length_c   5.91254400
_cell_angle_alpha   90.00025879
_cell_angle_beta   89.99948315
_cell_angle_gamma   120.04658338
_symmetry_Int_Tables_number   1
_chemical_formula_structural   Zr10BeSn5Sb2
_chemical_formula_sum   'Zr10 Be1 Sn5 Sb2'
_cell_volume   390.99671509
_cell_formula_units_Z   1
loop_
 _symmetry_equiv_pos_site_id
 _symmetry_equiv_pos_as_xyz
  1  'x, y, z'
loop_
 _atom_site_type_symbol
 _atom_site_label
 _atom_site_symmetry_multiplicity
 _atom_site_fract_x
 _atom_site_fract_y
 _atom_site_fract_z
 _atom_site_occupancy
  Zr  Zr0  1  0.333722  0.667168  0.999445  1
  Zr  Zr1  1  0.666429  0.332311  0.500155  1
  Zr  Zr2  1  0.666556  0.332832  0.999445  1
  Zr  Zr3  1  0.334118  0.667689  0.500155  1
  Zr  Zr4  1  0.266998  0.000000  0.226490  1
  Zr  Zr5  1  0.266977  0.266511  0.774116  1
  Zr  Zr6  1  0.000466  0.733489  0.774116  1
  Zr  Zr7  1  0.999401  0.265884  0.226694  1
  Zr  Zr8  1  0.733517  0.734116  0.226694  1
  Zr  Zr9  1  0.732634  0.000000  0.773281  1
  Be  Be10  1  0.000368  0.000000  0.999441  1
  Sn  Sn11  1  0.609905  0.609294  0.743779  1
  Sn  Sn12  1  0.000611  0.390706  0.743779  1
  Sn  Sn13  1  0.999985  0.609628  0.256321  1
  Sn  Sn14  1  0.390357  0.390372  0.256321  1
  Sn  Sn15  1  0.389232  0.000000  0.744161  1
  Sb  Sb16  1  0.000470  0.000000  0.500606  1
  Sb  Sb17  1  0.608255  0.000000  0.255004  1
