# generated using pymatgen
data_La13YPdRh5
_symmetry_space_group_name_H-M   'P 1'
_cell_length_a   10.23219400
_cell_length_b   10.24566790
_cell_length_c   6.55106400
_cell_angle_alpha   89.57140454
_cell_angle_beta   90.00000000
_cell_angle_gamma   119.95650693
_symmetry_Int_Tables_number   1
_chemical_formula_structural   La13YPdRh5
_chemical_formula_sum   'La13 Y1 Pd1 Rh5'
_cell_volume   595.01168774
_cell_formula_units_Z   1
loop_
 _symmetry_equiv_pos_site_id
 _symmetry_equiv_pos_as_xyz
  1  'x, y, z'
loop_
 _atom_site_type_symbol
 _atom_site_label
 _atom_site_symmetry_multiplicity
 _atom_site_fract_x
 _atom_site_fract_y
 _atom_site_fract_z
 _atom_site_occupancy
  La  La0  1  0.665984  0.331965  0.972324  1
  La  La1  1  0.125593  0.875715  0.241954  1
  La  La2  1  0.750122  0.875715  0.241954  1
  La  La3  1  0.124876  0.249751  0.233495  1
  La  La4  1  0.867028  0.119582  0.740338  1
  La  La5  1  0.252554  0.119582  0.740338  1
  La  La6  1  0.875917  0.751832  0.742786  1
  La  La7  1  0.540432  0.462831  0.439179  1
  La  La8  1  0.922400  0.462831  0.439179  1
  La  La9  1  0.538080  0.076158  0.432298  1
  La  La10  1  0.468007  0.544108  0.939256  1
  La  La11  1  0.076101  0.544108  0.939256  1
  La  La12  1  0.458254  0.916507  0.937710  1
  Y  Y13  1  0.335354  0.670709  0.463754  1
  Pd  Pd14  1  0.188434  0.376868  0.691568  1
  Rh  Rh15  1  0.814085  0.188714  0.197957  1
  Rh  Rh16  1  0.374630  0.188714  0.197957  1
  Rh  Rh17  1  0.811462  0.622924  0.195803  1
  Rh  Rh18  1  0.186727  0.810691  0.699341  1
  Rh  Rh19  1  0.623964  0.810691  0.699341  1
