# generated using pymatgen
data_Cs3Dy(IO3)6
_symmetry_space_group_name_H-M   'P 1'
_cell_length_a   7.43795303
_cell_length_b   7.42233774
_cell_length_c   11.26765824
_cell_angle_alpha   87.65728820
_cell_angle_beta   107.63549288
_cell_angle_gamma   107.53272785
_symmetry_Int_Tables_number   1
_chemical_formula_structural   Cs3Dy(IO3)6
_chemical_formula_sum   'Cs3 Dy1 I6 O18'
_cell_volume   564.40992538
_cell_formula_units_Z   1
loop_
 _symmetry_equiv_pos_site_id
 _symmetry_equiv_pos_as_xyz
  1  'x, y, z'
loop_
 _atom_site_type_symbol
 _atom_site_label
 _atom_site_symmetry_multiplicity
 _atom_site_fract_x
 _atom_site_fract_y
 _atom_site_fract_z
 _atom_site_occupancy
  Cs  Cs0  1  0.000000  0.000000  0.000000  1
  Cs  Cs1  1  0.835469  0.026273  0.600947  1
  Cs  Cs2  1  0.164531  0.973727  0.399053  1
  Dy  Dy3  1  0.500000  0.500000  0.000000  1
  I  I4  1  0.021961  0.472755  0.190547  1
  I  I5  1  0.978039  0.527245  0.809453  1
  I  I6  1  0.556871  0.952940  0.190369  1
  I  I7  1  0.443129  0.047060  0.809631  1
  I  I8  1  0.420847  0.555118  0.640642  1
  I  I9  1  0.579153  0.444882  0.359358  1
  O  O10  1  0.833454  0.536198  0.056729  1
  O  O11  1  0.166546  0.463802  0.943271  1
  O  O12  1  0.954414  0.547632  0.318131  1
  O  O13  1  0.045586  0.452368  0.681869  1
  O  O14  1  0.916788  0.215585  0.185062  1
  O  O15  1  0.083212  0.784415  0.814938  1
  O  O16  1  0.568932  0.813763  0.059885  1
  O  O17  1  0.431068  0.186237  0.940115  1
  O  O18  1  0.299896  0.844713  0.186745  1
  O  O19  1  0.700104  0.155287  0.813255  1
  O  O20  1  0.687438  0.842526  0.321888  1
  O  O21  1  0.312562  0.157474  0.678112  1
  O  O22  1  0.520115  0.595653  0.812960  1
  O  O23  1  0.479885  0.404347  0.187040  1
  O  O24  1  0.658657  0.569298  0.616873  1
  O  O25  1  0.341343  0.430702  0.383127  1
  O  O26  1  0.409565  0.793994  0.605795  1
  O  O27  1  0.590435  0.206006  0.394205  1
