# generated using pymatgen
data_LaPr3NdSn15Rh8
_symmetry_space_group_name_H-M   'P 1'
_cell_length_a   4.55633300
_cell_length_b   7.31177878
_cell_length_c   18.79569300
_cell_angle_alpha   89.88966759
_cell_angle_beta   90.00000000
_cell_angle_gamma   90.00000000
_symmetry_Int_Tables_number   1
_chemical_formula_structural   LaPr3NdSn15Rh8
_chemical_formula_sum   'La1 Pr3 Nd1 Sn15 Rh8'
_cell_volume   626.17545172
_cell_formula_units_Z   1
loop_
 _symmetry_equiv_pos_site_id
 _symmetry_equiv_pos_as_xyz
  1  'x, y, z'
loop_
 _atom_site_type_symbol
 _atom_site_label
 _atom_site_symmetry_multiplicity
 _atom_site_fract_x
 _atom_site_fract_y
 _atom_site_fract_z
 _atom_site_occupancy
  La  La0  1  0.000000  0.500424  0.641690  1
  Pr  Pr1  1  0.500000  0.001700  0.855818  1
  Pr  Pr2  1  0.500000  0.500415  0.357499  1
  Pr  Pr3  1  0.000000  0.001023  0.143605  1
  Nd  Nd4  1  0.500000  0.495460  0.930488  1
  Sn  Sn5  1  0.000000  0.717805  0.806500  1
  Sn  Sn6  1  0.000000  0.780168  0.305431  1
  Sn  Sn7  1  0.500000  0.278401  0.194338  1
  Sn  Sn8  1  0.500000  0.217305  0.693658  1
  Sn  Sn9  1  0.000000  0.853400  0.969732  1
  Sn  Sn10  1  0.000000  0.632666  0.468264  1
  Sn  Sn11  1  0.500000  0.133898  0.031766  1
  Sn  Sn12  1  0.500000  0.365721  0.530256  1
  Sn  Sn13  1  0.000000  0.304517  0.819320  1
  Sn  Sn14  1  0.000000  0.198873  0.317713  1
  Sn  Sn15  1  0.500000  0.697194  0.185240  1
  Sn  Sn16  1  0.500000  0.807662  0.679115  1
  Sn  Sn17  1  0.500000  0.019168  0.433044  1
  Sn  Sn18  1  0.000000  0.510794  0.067556  1
  Sn  Sn19  1  0.000000  0.981682  0.568283  1
  Rh  Rh20  1  0.000000  0.230324  0.965626  1
  Rh  Rh21  1  0.000000  0.247549  0.464531  1
  Rh  Rh22  1  0.500000  0.763797  0.044527  1
  Rh  Rh23  1  0.500000  0.750703  0.533052  1
  Rh  Rh24  1  0.000000  0.018326  0.715735  1
  Rh  Rh25  1  0.000000  0.483128  0.213311  1
  Rh  Rh26  1  0.500000  0.986820  0.289078  1
  Rh  Rh27  1  0.500000  0.521072  0.774825  1
