# generated using pymatgen
data_Nd16MgCd3(PdRu)2
_symmetry_space_group_name_H-M   'P 1'
_cell_length_a   9.99963411
_cell_length_b   9.99963426
_cell_length_c   10.06768435
_cell_angle_alpha   59.63400136
_cell_angle_beta   59.63400353
_cell_angle_gamma   59.55763330
_symmetry_Int_Tables_number   1
_chemical_formula_structural   Nd16MgCd3(PdRu)2
_chemical_formula_sum   'Nd16 Mg1 Cd3 Pd2 Ru2'
_cell_volume   705.50673464
_cell_formula_units_Z   1
loop_
 _symmetry_equiv_pos_site_id
 _symmetry_equiv_pos_as_xyz
  1  'x, y, z'
loop_
 _atom_site_type_symbol
 _atom_site_label
 _atom_site_symmetry_multiplicity
 _atom_site_fract_x
 _atom_site_fract_y
 _atom_site_fract_z
 _atom_site_occupancy
  Nd  Nd0  1  0.347915  0.347915  0.357327  1
  Nd  Nd1  1  0.348167  0.348167  0.947884  1
  Nd  Nd2  1  0.343477  0.957705  0.348922  1
  Nd  Nd3  1  0.957705  0.343477  0.348922  1
  Nd  Nd4  1  0.815918  0.190336  0.191314  1
  Nd  Nd5  1  0.187174  0.816931  0.804381  1
  Nd  Nd6  1  0.190336  0.815918  0.191314  1
  Nd  Nd7  1  0.816931  0.187174  0.804381  1
  Nd  Nd8  1  0.189555  0.189555  0.810460  1
  Nd  Nd9  1  0.807688  0.807688  0.192454  1
  Nd  Nd10  1  0.936428  0.559082  0.566837  1
  Nd  Nd11  1  0.558306  0.937549  0.939585  1
  Nd  Nd12  1  0.559082  0.936428  0.566837  1
  Nd  Nd13  1  0.937549  0.558306  0.939585  1
  Nd  Nd14  1  0.562903  0.562903  0.938133  1
  Nd  Nd15  1  0.938240  0.938240  0.561156  1
  Mg  Mg16  1  0.575235  0.575235  0.574506  1
  Cd  Cd17  1  0.580868  0.580868  0.257406  1
  Cd  Cd18  1  0.582562  0.255614  0.580529  1
  Cd  Cd19  1  0.255614  0.582562  0.580529  1
  Pd  Pd20  1  0.147631  0.572452  0.141364  1
  Pd  Pd21  1  0.572452  0.147631  0.141364  1
  Ru  Ru22  1  0.143926  0.143926  0.138493  1
  Ru  Ru23  1  0.144338  0.144338  0.576316  1
