# generated using pymatgen
data_HoTm11Mn2In2Ga
_symmetry_space_group_name_H-M   'P 1'
_cell_length_a   8.31048090
_cell_length_b   8.31048036
_cell_length_c   8.31118312
_cell_angle_alpha   109.56644660
_cell_angle_beta   109.56644113
_cell_angle_gamma   109.27750862
_symmetry_Int_Tables_number   1
_chemical_formula_structural   HoTm11Mn2In2Ga
_chemical_formula_sum   'Ho1 Tm11 Mn2 In2 Ga1'
_cell_volume   441.88370464
_cell_formula_units_Z   1
loop_
 _symmetry_equiv_pos_site_id
 _symmetry_equiv_pos_as_xyz
  1  'x, y, z'
loop_
 _atom_site_type_symbol
 _atom_site_label
 _atom_site_symmetry_multiplicity
 _atom_site_fract_x
 _atom_site_fract_y
 _atom_site_fract_z
 _atom_site_occupancy
  Ho  Ho0  1  0.694750  0.305250  0.000000  1
  Tm  Tm1  1  0.445718  0.202588  0.243842  1
  Tm  Tm2  1  0.553598  0.796582  0.756334  1
  Tm  Tm3  1  0.959751  0.202736  0.756334  1
  Tm  Tm4  1  0.201877  0.958745  0.756158  1
  Tm  Tm5  1  0.041255  0.798123  0.243842  1
  Tm  Tm6  1  0.797264  0.040249  0.243666  1
  Tm  Tm7  1  0.203418  0.446402  0.243666  1
  Tm  Tm8  1  0.797412  0.554282  0.756158  1
  Tm  Tm9  1  0.305643  0.306029  0.611673  1
  Tm  Tm10  1  0.693971  0.694357  0.388327  1
  Tm  Tm11  1  0.305832  0.694168  0.000000  1
  Mn  Mn12  1  0.390746  0.391157  0.000000  1
  Mn  Mn13  1  0.608843  0.609254  0.000000  1
  In  In14  1  0.500067  0.000010  0.500077  1
  In  In15  1  0.999990  0.499933  0.499923  1
  Ga  Ga16  1  0.999865  0.000135  0.000000  1
