# generated using pymatgen
data_MnVReBr13
_symmetry_space_group_name_H-M   'P 1'
_cell_length_a   11.57846100
_cell_length_b   9.96050733
_cell_length_c   10.71075080
_cell_angle_alpha   80.02514523
_cell_angle_beta   90.00000000
_cell_angle_gamma   90.00000000
_symmetry_Int_Tables_number   1
_chemical_formula_structural   MnVReBr13
_chemical_formula_sum   'Mn2 V2 Re2 Br26'
_cell_volume   1216.57036915
_cell_formula_units_Z   2
loop_
 _symmetry_equiv_pos_site_id
 _symmetry_equiv_pos_as_xyz
  1  'x, y, z'
loop_
 _atom_site_type_symbol
 _atom_site_label
 _atom_site_symmetry_multiplicity
 _atom_site_fract_x
 _atom_site_fract_y
 _atom_site_fract_z
 _atom_site_occupancy
  Mn  Mn0  1  0.250000  0.838150  0.109642  1
  Mn  Mn1  1  0.750000  0.161850  0.890358  1
  V  V2  1  0.250000  0.261622  0.504481  1
  V  V3  1  0.750000  0.738378  0.495519  1
  Re  Re4  1  0.250000  0.676720  0.854536  1
  Re  Re5  1  0.750000  0.323280  0.145464  1
  Br  Br6  1  0.589554  0.812489  0.583992  1
  Br  Br7  1  0.089554  0.187511  0.416008  1
  Br  Br8  1  0.750000  0.419532  0.906133  1
  Br  Br9  1  0.250000  0.580468  0.093867  1
  Br  Br10  1  0.895935  0.155125  0.075073  1
  Br  Br11  1  0.395935  0.844875  0.924927  1
  Br  Br12  1  0.104065  0.844875  0.924927  1
  Br  Br13  1  0.604065  0.155125  0.075073  1
  Br  Br14  1  0.750000  0.196523  0.363276  1
  Br  Br15  1  0.250000  0.803477  0.636724  1
  Br  Br16  1  0.905494  0.475964  0.182868  1
  Br  Br17  1  0.405494  0.524036  0.817132  1
  Br  Br18  1  0.094506  0.524036  0.817132  1
  Br  Br19  1  0.594506  0.475964  0.182868  1
  Br  Br20  1  0.750000  0.922588  0.916290  1
  Br  Br21  1  0.250000  0.077412  0.083710  1
  Br  Br22  1  0.900769  0.195857  0.740611  1
  Br  Br23  1  0.400769  0.804143  0.259389  1
  Br  Br24  1  0.099231  0.804143  0.259389  1
  Br  Br25  1  0.599231  0.195857  0.740611  1
  Br  Br26  1  0.750000  0.811562  0.283772  1
  Br  Br27  1  0.250000  0.188438  0.716228  1
  Br  Br28  1  0.750000  0.507759  0.528321  1
  Br  Br29  1  0.250000  0.492241  0.471679  1
  Br  Br30  1  0.910446  0.812489  0.583992  1
  Br  Br31  1  0.410446  0.187511  0.416008  1
