# generated using pymatgen
data_HfTa5(ReSi)6
_symmetry_space_group_name_H-M   'P 1'
_cell_length_a   7.60580053
_cell_length_b   7.57604770
_cell_length_c   7.60580052
_cell_angle_alpha   126.98502579
_cell_angle_beta   125.35367859
_cell_angle_gamma   79.71332769
_symmetry_Int_Tables_number   1
_chemical_formula_structural   HfTa5(ReSi)6
_chemical_formula_sum   'Hf1 Ta5 Re6 Si6'
_cell_volume   275.68716283
_cell_formula_units_Z   1
loop_
 _symmetry_equiv_pos_site_id
 _symmetry_equiv_pos_as_xyz
  1  'x, y, z'
loop_
 _atom_site_type_symbol
 _atom_site_label
 _atom_site_symmetry_multiplicity
 _atom_site_fract_x
 _atom_site_fract_y
 _atom_site_fract_z
 _atom_site_occupancy
  Hf  Hf0  1  0.537614  0.068625  0.031012  1
  Ta  Ta1  1  0.460186  0.498983  0.538797  1
  Ta  Ta2  1  0.944317  0.483811  0.039494  1
  Ta  Ta3  1  0.054379  0.100421  0.546042  1
  Ta  Ta4  1  0.745179  0.903161  0.657982  1
  Ta  Ta5  1  0.253945  0.909476  0.155531  1
  Re  Re6  1  0.490500  0.245298  0.735867  1
  Re  Re7  1  0.009430  0.245298  0.254798  1
  Re  Re8  1  0.091186  0.751089  0.588098  1
  Re  Re9  1  0.899327  0.496443  0.648838  1
  Re  Re10  1  0.662992  0.751089  0.159904  1
  Re  Re11  1  0.347605  0.496443  0.097115  1
  Si  Si12  1  0.731013  0.480629  0.249615  1
  Si  Si13  1  0.275748  0.541305  0.765558  1
  Si  Si14  1  0.323836  0.823956  0.483359  1
  Si  Si15  1  0.671367  0.161107  0.500327  1
  Si  Si16  1  0.840598  0.823956  0.000121  1
  Si  Si17  1  0.160780  0.161107  0.989740  1
