# generated using pymatgen
data_Hf6Zn22SiAg
_symmetry_space_group_name_H-M   'P 1'
_cell_length_a   8.76060383
_cell_length_b   8.76060346
_cell_length_c   8.76060300
_cell_angle_alpha   60.00000551
_cell_angle_beta   60.00000692
_cell_angle_gamma   60.00000102
_symmetry_Int_Tables_number   1
_chemical_formula_structural   Hf6Zn22SiAg
_chemical_formula_sum   'Hf6 Zn22 Si1 Ag1'
_cell_volume   475.43057798
_cell_formula_units_Z   1
loop_
 _symmetry_equiv_pos_site_id
 _symmetry_equiv_pos_as_xyz
  1  'x, y, z'
loop_
 _atom_site_type_symbol
 _atom_site_label
 _atom_site_symmetry_multiplicity
 _atom_site_fract_x
 _atom_site_fract_y
 _atom_site_fract_z
 _atom_site_occupancy
  Hf  Hf0  1  0.708744  0.291256  0.291256  1
  Hf  Hf1  1  0.291256  0.708744  0.708744  1
  Hf  Hf2  1  0.291256  0.708744  0.291256  1
  Hf  Hf3  1  0.708744  0.291256  0.708744  1
  Hf  Hf4  1  0.291256  0.291256  0.708744  1
  Hf  Hf5  1  0.708744  0.708744  0.291256  1
  Zn  Zn6  1  0.124521  0.124521  0.124521  1
  Zn  Zn7  1  0.875479  0.875479  0.875479  1
  Zn  Zn8  1  0.124521  0.124521  0.626437  1
  Zn  Zn9  1  0.124521  0.626437  0.124521  1
  Zn  Zn10  1  0.875479  0.875479  0.373563  1
  Zn  Zn11  1  0.875479  0.373563  0.875479  1
  Zn  Zn12  1  0.626437  0.124521  0.124521  1
  Zn  Zn13  1  0.373563  0.875479  0.875479  1
  Zn  Zn14  1  0.500000  0.000000  0.000000  1
  Zn  Zn15  1  0.000000  0.500000  0.500000  1
  Zn  Zn16  1  0.000000  0.500000  0.000000  1
  Zn  Zn17  1  0.500000  0.000000  0.500000  1
  Zn  Zn18  1  0.000000  0.000000  0.500000  1
  Zn  Zn19  1  0.500000  0.500000  0.000000  1
  Zn  Zn20  1  0.336418  0.336418  0.336418  1
  Zn  Zn21  1  0.663582  0.663582  0.663582  1
  Zn  Zn22  1  0.336418  0.336418  0.990746  1
  Zn  Zn23  1  0.336418  0.990746  0.336418  1
  Zn  Zn24  1  0.663582  0.663582  0.009254  1
  Zn  Zn25  1  0.663582  0.009254  0.663582  1
  Zn  Zn26  1  0.990746  0.336418  0.336418  1
  Zn  Zn27  1  0.009254  0.663582  0.663582  1
  Si  Si28  1  0.500000  0.500000  0.500000  1
  Ag  Ag29  1  0.000000  0.000000  0.000000  1
