# generated using pymatgen
data_Dy2Co10P7W2
_symmetry_space_group_name_H-M   'P 1'
_cell_length_a   9.04914000
_cell_length_b   9.06062208
_cell_length_c   3.69857300
_cell_angle_alpha   90.00000000
_cell_angle_beta   90.00000000
_cell_angle_gamma   119.83235517
_symmetry_Int_Tables_number   1
_chemical_formula_structural   Dy2Co10P7W2
_chemical_formula_sum   'Dy2 Co10 P7 W2'
_cell_volume   263.06394472
_cell_formula_units_Z   1
loop_
 _symmetry_equiv_pos_site_id
 _symmetry_equiv_pos_as_xyz
  1  'x, y, z'
loop_
 _atom_site_type_symbol
 _atom_site_label
 _atom_site_symmetry_multiplicity
 _atom_site_fract_x
 _atom_site_fract_y
 _atom_site_fract_z
 _atom_site_occupancy
  Dy  Dy0  1  0.667011  0.334544  0.500000  1
  Dy  Dy1  1  0.337100  0.666843  0.000000  1
  Co  Co2  1  0.722753  0.879189  0.000000  1
  Co  Co3  1  0.937355  0.369148  0.000000  1
  Co  Co4  1  0.159891  0.282259  0.000000  1
  Co  Co5  1  0.386686  0.438585  0.500000  1
  Co  Co6  1  0.118405  0.838398  0.000000  1
  Co  Co7  1  0.431578  0.061354  0.000000  1
  Co  Co8  1  0.046721  0.614314  0.500000  1
  Co  Co9  1  0.563840  0.947054  0.500000  1
  Co  Co10  1  0.630229  0.568604  0.000000  1
  Co  Co11  1  0.873354  0.779920  0.500000  1
  P  P12  1  0.413766  0.302281  0.000000  1
  P  P13  1  0.289208  0.879565  0.500000  1
  P  P14  1  0.696282  0.110707  0.000000  1
  P  P15  1  0.597481  0.709993  0.500000  1
  P  P16  1  0.887809  0.588651  0.000000  1
  P  P17  1  0.118814  0.412740  0.500000  1
  P  P18  1  0.999363  0.994901  0.000000  1
  W  W19  1  0.217940  0.098351  0.500000  1
  W  W20  1  0.904416  0.122596  0.500000  1
