# generated using pymatgen
data_Sc2Ni12AsP6
_symmetry_space_group_name_H-M   'P 1'
_cell_length_a   9.06504200
_cell_length_b   9.06504143
_cell_length_c   3.58455600
_cell_angle_alpha   90.00000000
_cell_angle_beta   90.00000000
_cell_angle_gamma   120.00000208
_symmetry_Int_Tables_number   1
_chemical_formula_structural   Sc2Ni12AsP6
_chemical_formula_sum   'Sc2 Ni12 As1 P6'
_cell_volume   255.09714967
_cell_formula_units_Z   1
loop_
 _symmetry_equiv_pos_site_id
 _symmetry_equiv_pos_as_xyz
  1  'x, y, z'
loop_
 _atom_site_type_symbol
 _atom_site_label
 _atom_site_symmetry_multiplicity
 _atom_site_fract_x
 _atom_site_fract_y
 _atom_site_fract_z
 _atom_site_occupancy
  Sc  Sc0  1  0.666667  0.333333  0.500000  1
  Sc  Sc1  1  0.333333  0.666667  0.000000  1
  Ni  Ni2  1  0.384915  0.436356  0.500000  1
  Ni  Ni3  1  0.051442  0.615085  0.500000  1
  Ni  Ni4  1  0.247629  0.106937  0.500000  1
  Ni  Ni5  1  0.859309  0.752371  0.500000  1
  Ni  Ni6  1  0.893063  0.140691  0.500000  1
  Ni  Ni7  1  0.712437  0.872555  0.000000  1
  Ni  Ni8  1  0.127445  0.839881  0.000000  1
  Ni  Ni9  1  0.160119  0.287563  0.000000  1
  Ni  Ni10  1  0.935062  0.374475  0.000000  1
  Ni  Ni11  1  0.625525  0.560588  0.000000  1
  Ni  Ni12  1  0.439412  0.064938  0.000000  1
  Ni  Ni13  1  0.563644  0.948558  0.500000  1
  As  As14  1  0.000000  0.000000  0.000000  1
  P  P15  1  0.412402  0.293650  0.000000  1
  P  P16  1  0.585378  0.705108  0.500000  1
  P  P17  1  0.294892  0.880270  0.500000  1
  P  P18  1  0.119730  0.414622  0.500000  1
  P  P19  1  0.706350  0.118752  0.000000  1
  P  P20  1  0.881248  0.587598  0.000000  1
