# generated using pymatgen
data_Dy5Er7Os3Rh
_symmetry_space_group_name_H-M   'P 1'
_cell_length_a   6.34526089
_cell_length_b   7.32579727
_cell_length_c   9.02627255
_cell_angle_alpha   89.99635026
_cell_angle_beta   89.91408408
_cell_angle_gamma   90.20168328
_symmetry_Int_Tables_number   1
_chemical_formula_structural   Dy5Er7Os3Rh
_chemical_formula_sum   'Dy5 Er7 Os3 Rh1'
_cell_volume   419.57503742
_cell_formula_units_Z   1
loop_
 _symmetry_equiv_pos_site_id
 _symmetry_equiv_pos_as_xyz
  1  'x, y, z'
loop_
 _atom_site_type_symbol
 _atom_site_label
 _atom_site_symmetry_multiplicity
 _atom_site_fract_x
 _atom_site_fract_y
 _atom_site_fract_z
 _atom_site_occupancy
  Dy  Dy0  1  0.170070  0.177412  0.061850  1
  Dy  Dy1  1  0.869080  0.538314  0.250084  1
  Dy  Dy2  1  0.630780  0.039638  0.250284  1
  Dy  Dy3  1  0.129913  0.462103  0.749802  1
  Dy  Dy4  1  0.368909  0.961790  0.749773  1
  Er  Er5  1  0.333603  0.672625  0.061871  1
  Er  Er6  1  0.170051  0.177030  0.438198  1
  Er  Er7  1  0.669886  0.324883  0.563931  1
  Er  Er8  1  0.826499  0.824169  0.933208  1
  Er  Er9  1  0.669964  0.324933  0.935933  1
  Er  Er10  1  0.826609  0.824501  0.566660  1
  Er  Er11  1  0.333615  0.672540  0.438170  1
  Os  Os12  1  0.459860  0.383665  0.250338  1
  Os  Os13  1  0.960624  0.115685  0.749511  1
  Os  Os14  1  0.539037  0.616824  0.750058  1
  Rh  Rh15  1  0.041500  0.883888  0.250330  1
