# generated using pymatgen
data_Er2Tm5Lu(Si3Rh)4
_symmetry_space_group_name_H-M   'P 1'
_cell_length_a   8.13988800
_cell_length_b   8.13703393
_cell_length_c   7.77019300
_cell_angle_alpha   90.00000000
_cell_angle_beta   90.00000000
_cell_angle_gamma   120.01160343
_symmetry_Int_Tables_number   1
_chemical_formula_structural   Er2Tm5Lu(Si3Rh)4
_chemical_formula_sum   'Er2 Tm5 Lu1 Si12 Rh4'
_cell_volume   445.65235176
_cell_formula_units_Z   1
loop_
 _symmetry_equiv_pos_site_id
 _symmetry_equiv_pos_as_xyz
  1  'x, y, z'
loop_
 _atom_site_type_symbol
 _atom_site_label
 _atom_site_symmetry_multiplicity
 _atom_site_fract_x
 _atom_site_fract_y
 _atom_site_fract_z
 _atom_site_occupancy
  Er  Er0  1  0.999959  0.999917  0.750000  1
  Er  Er1  1  0.000035  0.000069  0.250000  1
  Tm  Tm2  1  0.981357  0.490607  0.250000  1
  Tm  Tm3  1  0.509250  0.490607  0.250000  1
  Tm  Tm4  1  0.490729  0.981459  0.750000  1
  Tm  Tm5  1  0.018560  0.509302  0.750000  1
  Tm  Tm6  1  0.490742  0.509302  0.750000  1
  Lu  Lu7  1  0.509204  0.018408  0.250000  1
  Si  Si8  1  0.167034  0.833069  0.499775  1
  Si  Si9  1  0.166941  0.333881  0.499810  1
  Si  Si10  1  0.666035  0.833069  0.499775  1
  Si  Si11  1  0.333999  0.166894  0.000064  1
  Si  Si12  1  0.833073  0.666145  0.500137  1
  Si  Si13  1  0.832895  0.166894  0.000064  1
  Si  Si14  1  0.833073  0.666145  0.999863  1
  Si  Si15  1  0.166941  0.333881  0.000190  1
  Si  Si16  1  0.666035  0.833069  0.000225  1
  Si  Si17  1  0.333999  0.166894  0.499936  1
  Si  Si18  1  0.832895  0.166894  0.499936  1
  Si  Si19  1  0.167034  0.833069  0.000225  1
  Rh  Rh20  1  0.333551  0.667103  0.035198  1
  Rh  Rh21  1  0.666555  0.333109  0.965429  1
  Rh  Rh22  1  0.666555  0.333109  0.534571  1
  Rh  Rh23  1  0.333551  0.667103  0.464802  1
