# generated using pymatgen
data_DyTm5ReSb2
_symmetry_space_group_name_H-M   'P 1'
_cell_length_a   8.05782234
_cell_length_b   8.05375028
_cell_length_c   4.28078700
_cell_angle_alpha   90.00000000
_cell_angle_beta   90.00000000
_cell_angle_gamma   119.98326654
_symmetry_Int_Tables_number   1
_chemical_formula_structural   DyTm5ReSb2
_chemical_formula_sum   'Dy1 Tm5 Re1 Sb2'
_cell_volume   240.62641642
_cell_formula_units_Z   1
loop_
 _symmetry_equiv_pos_site_id
 _symmetry_equiv_pos_as_xyz
  1  'x, y, z'
loop_
 _atom_site_type_symbol
 _atom_site_label
 _atom_site_symmetry_multiplicity
 _atom_site_fract_x
 _atom_site_fract_y
 _atom_site_fract_z
 _atom_site_occupancy
  Dy  Dy0  1  0.000000  0.605764  0.500000  1
  Tm  Tm1  1  0.234630  0.000017  0.000000  1
  Tm  Tm2  1  0.765370  0.765387  0.000000  1
  Tm  Tm3  1  0.000000  0.236447  0.000000  1
  Tm  Tm4  1  0.390841  0.390459  0.500000  1
  Tm  Tm5  1  0.609159  0.999618  0.500000  1
  Re  Re6  1  0.000000  0.002972  0.500000  1
  Sb  Sb7  1  0.335700  0.667518  0.000000  1
  Sb  Sb8  1  0.664300  0.331817  0.000000  1
