# generated using pymatgen
data_Nd4Er12Cd4RuPt3
_symmetry_space_group_name_H-M   'P 1'
_cell_length_a   9.70198068
_cell_length_b   9.67392693
_cell_length_c   9.67392680
_cell_angle_alpha   59.92328979
_cell_angle_beta   59.66677194
_cell_angle_gamma   59.66677317
_symmetry_Int_Tables_number   1
_chemical_formula_structural   Nd4Er12Cd4RuPt3
_chemical_formula_sum   'Nd4 Er12 Cd4 Ru1 Pt3'
_cell_volume   638.40352783
_cell_formula_units_Z   1
loop_
 _symmetry_equiv_pos_site_id
 _symmetry_equiv_pos_as_xyz
  1  'x, y, z'
loop_
 _atom_site_type_symbol
 _atom_site_label
 _atom_site_symmetry_multiplicity
 _atom_site_fract_x
 _atom_site_fract_y
 _atom_site_fract_z
 _atom_site_occupancy
  Nd  Nd0  1  0.565779  0.935022  0.566299  1
  Nd  Nd1  1  0.937276  0.561290  0.934748  1
  Nd  Nd2  1  0.565779  0.566299  0.935022  1
  Nd  Nd3  1  0.937276  0.934748  0.561290  1
  Er  Er4  1  0.352274  0.350793  0.350793  1
  Er  Er5  1  0.347254  0.350121  0.953011  1
  Er  Er6  1  0.347254  0.953011  0.350121  1
  Er  Er7  1  0.950003  0.348403  0.348403  1
  Er  Er8  1  0.817560  0.185753  0.185753  1
  Er  Er9  1  0.188039  0.811512  0.811512  1
  Er  Er10  1  0.188135  0.815949  0.187641  1
  Er  Er11  1  0.811176  0.185586  0.810679  1
  Er  Er12  1  0.188135  0.187641  0.815949  1
  Er  Er13  1  0.811176  0.810679  0.185586  1
  Er  Er14  1  0.942338  0.556817  0.556817  1
  Er  Er15  1  0.553092  0.943882  0.943882  1
  Cd  Cd16  1  0.582220  0.578092  0.578092  1
  Cd  Cd17  1  0.578587  0.582583  0.258534  1
  Cd  Cd18  1  0.578587  0.258534  0.582583  1
  Cd  Cd19  1  0.257588  0.579292  0.579292  1
  Ru  Ru20  1  0.145062  0.141389  0.141389  1
  Pt  Pt21  1  0.141265  0.147156  0.573535  1
  Pt  Pt22  1  0.141265  0.573535  0.147156  1
  Pt  Pt23  1  0.572879  0.141913  0.141913  1
