# generated using pymatgen
data_Ac3La(Os2Br)2
_symmetry_space_group_name_H-M   'P 1'
_cell_length_a   4.37481800
_cell_length_b   4.37481755
_cell_length_c   17.94461800
_cell_angle_alpha   90.00000000
_cell_angle_beta   90.00000000
_cell_angle_gamma   120.00000344
_symmetry_Int_Tables_number   1
_chemical_formula_structural   Ac3La(Os2Br)2
_chemical_formula_sum   'Ac3 La1 Os4 Br2'
_cell_volume   297.42999912
_cell_formula_units_Z   1
loop_
 _symmetry_equiv_pos_site_id
 _symmetry_equiv_pos_as_xyz
  1  'x, y, z'
loop_
 _atom_site_type_symbol
 _atom_site_label
 _atom_site_symmetry_multiplicity
 _atom_site_fract_x
 _atom_site_fract_y
 _atom_site_fract_z
 _atom_site_occupancy
  Ac  Ac0  1  0.000000  0.000000  0.113940  1
  Ac  Ac1  1  0.000000  0.000000  0.888012  1
  Ac  Ac2  1  0.000000  0.000000  0.610179  1
  La  La3  1  0.000000  0.000000  0.390129  1
  Os  Os4  1  0.333333  0.666667  0.499263  1
  Os  Os5  1  0.666667  0.333333  0.494250  1
  Os  Os6  1  0.666667  0.333333  0.003797  1
  Os  Os7  1  0.333333  0.666667  0.997698  1
  Br  Br8  1  0.333333  0.666667  0.253743  1
  Br  Br9  1  0.666667  0.333333  0.748990  1
