# generated using pymatgen
data_Tb3Yb(ReB4)4
_symmetry_space_group_name_H-M   'P 1'
_cell_length_a   3.61522000
_cell_length_b   5.98438526
_cell_length_c   11.58738650
_cell_angle_alpha   89.96644872
_cell_angle_beta   90.00000000
_cell_angle_gamma   90.00000000
_symmetry_Int_Tables_number   1
_chemical_formula_structural   Tb3Yb(ReB4)4
_chemical_formula_sum   'Tb3 Yb1 Re4 B16'
_cell_volume   250.69154902
_cell_formula_units_Z   1
loop_
 _symmetry_equiv_pos_site_id
 _symmetry_equiv_pos_as_xyz
  1  'x, y, z'
loop_
 _atom_site_type_symbol
 _atom_site_label
 _atom_site_symmetry_multiplicity
 _atom_site_fract_x
 _atom_site_fract_y
 _atom_site_fract_z
 _atom_site_occupancy
  Tb  Tb0  1  0.500000  0.372805  0.150772  1
  Tb  Tb1  1  0.500000  0.626667  0.850137  1
  Tb  Tb2  1  0.500000  0.125482  0.649668  1
  Yb  Yb3  1  0.500000  0.873123  0.350124  1
  Re  Re4  1  0.500000  0.368645  0.414662  1
  Re  Re5  1  0.500000  0.630026  0.585808  1
  Re  Re6  1  0.500000  0.132332  0.912480  1
  Re  Re7  1  0.500000  0.866978  0.087228  1
  B  B8  1  0.000000  0.113437  0.047430  1
  B  B9  1  0.000000  0.886411  0.953077  1
  B  B10  1  0.000000  0.386598  0.546386  1
  B  B11  1  0.000000  0.615878  0.452157  1
  B  B12  1  0.000000  0.136192  0.467699  1
  B  B13  1  0.000000  0.863372  0.531366  1
  B  B14  1  0.000000  0.363012  0.968685  1
  B  B15  1  0.000000  0.637021  0.031519  1
  B  B16  1  0.000000  0.024749  0.192507  1
  B  B17  1  0.000000  0.975016  0.808051  1
  B  B18  1  0.000000  0.476350  0.691532  1
  B  B19  1  0.000000  0.524427  0.308551  1
  B  B20  1  0.000000  0.214628  0.315766  1
  B  B21  1  0.000000  0.785343  0.683890  1
  B  B22  1  0.000000  0.285333  0.814854  1
  B  B23  1  0.000000  0.716175  0.185653  1
