# generated using pymatgen
data_CeTm3(Hf3Ge4)2
_symmetry_space_group_name_H-M   'P 1'
_cell_length_a   7.37871017
_cell_length_b   7.38303007
_cell_length_c   13.53850800
_cell_angle_alpha   90.00000000
_cell_angle_beta   90.00000000
_cell_angle_gamma   89.98003294
_symmetry_Int_Tables_number   1
_chemical_formula_structural   CeTm3(Hf3Ge4)2
_chemical_formula_sum   'Ce2 Tm6 Hf12 Ge16'
_cell_volume   737.54049159
_cell_formula_units_Z   2
loop_
 _symmetry_equiv_pos_site_id
 _symmetry_equiv_pos_as_xyz
  1  'x, y, z'
loop_
 _atom_site_type_symbol
 _atom_site_label
 _atom_site_symmetry_multiplicity
 _atom_site_fract_x
 _atom_site_fract_y
 _atom_site_fract_z
 _atom_site_occupancy
  Ce  Ce0  1  0.994451  0.343342  0.216097  1
  Ce  Ce1  1  0.005549  0.656658  0.716097  1
  Tm  Tm2  1  0.157154  0.497799  0.469099  1
  Tm  Tm3  1  0.501486  0.843330  0.031627  1
  Tm  Tm4  1  0.842846  0.502201  0.969099  1
  Tm  Tm5  1  0.498514  0.156670  0.531627  1
  Tm  Tm6  1  0.343448  0.995722  0.782651  1
  Tm  Tm7  1  0.656552  0.004278  0.282651  1
  Hf  Hf8  1  0.173050  0.173134  0.001013  1
  Hf  Hf9  1  0.826950  0.826866  0.501013  1
  Hf  Hf10  1  0.325499  0.672950  0.250289  1
  Hf  Hf11  1  0.674501  0.327050  0.750289  1
  Hf  Hf12  1  0.155913  0.999774  0.375135  1
  Hf  Hf13  1  0.844087  0.000226  0.875135  1
  Hf  Hf14  1  0.502925  0.654387  0.625831  1
  Hf  Hf15  1  0.344497  0.496766  0.873116  1
  Hf  Hf16  1  0.497075  0.345613  0.125831  1
  Hf  Hf17  1  0.655503  0.503234  0.373116  1
  Hf  Hf18  1  0.997067  0.154837  0.625178  1
  Hf  Hf19  1  0.002933  0.845163  0.125178  1
  Ge  Ge20  1  0.364289  0.302246  0.324299  1
  Ge  Ge21  1  0.635711  0.697754  0.824299  1
  Ge  Ge22  1  0.202155  0.867072  0.570453  1
  Ge  Ge23  1  0.136605  0.801637  0.928521  1
  Ge  Ge24  1  0.797845  0.132928  0.070453  1
  Ge  Ge25  1  0.863395  0.198363  0.428521  1
  Ge  Ge26  1  0.303626  0.360475  0.676772  1
  Ge  Ge27  1  0.696374  0.639525  0.176772  1
  Ge  Ge28  1  0.299132  0.037516  0.181913  1
  Ge  Ge29  1  0.700868  0.962484  0.681913  1
  Ge  Ge30  1  0.462803  0.798444  0.431341  1
  Ge  Ge31  1  0.205377  0.541366  0.066250  1
  Ge  Ge32  1  0.537197  0.201556  0.931341  1
  Ge  Ge33  1  0.794623  0.458634  0.566250  1
  Ge  Ge34  1  0.038115  0.295184  0.820417  1
  Ge  Ge35  1  0.961885  0.704816  0.320417  1
