# generated using pymatgen
data_LaPr5OsI10
_symmetry_space_group_name_H-M   'P 1'
_cell_length_a   8.09391950
_cell_length_b   9.98856425
_cell_length_c   10.22483445
_cell_angle_alpha   107.79913339
_cell_angle_beta   97.32932910
_cell_angle_gamma   104.87472067
_symmetry_Int_Tables_number   1
_chemical_formula_structural   LaPr5OsI10
_chemical_formula_sum   'La1 Pr5 Os1 I10'
_cell_volume   741.38676443
_cell_formula_units_Z   1
loop_
 _symmetry_equiv_pos_site_id
 _symmetry_equiv_pos_as_xyz
  1  'x, y, z'
loop_
 _atom_site_type_symbol
 _atom_site_label
 _atom_site_symmetry_multiplicity
 _atom_site_fract_x
 _atom_site_fract_y
 _atom_site_fract_z
 _atom_site_occupancy
  La  La0  1  0.531034  0.229367  0.420567  1
  Pr  Pr1  1  0.468742  0.773782  0.580457  1
  Pr  Pr2  1  0.138583  0.367034  0.326011  1
  Pr  Pr3  1  0.861322  0.633356  0.673913  1
  Pr  Pr4  1  0.617987  0.543193  0.252193  1
  Pr  Pr5  1  0.382358  0.456973  0.748034  1
  Os  Os6  1  0.501221  0.493964  0.498332  1
  I  I7  1  0.144319  0.043181  0.224927  1
  I  I8  1  0.851146  0.956024  0.773356  1
  I  I9  1  0.237702  0.410854  0.040897  1
  I  I10  1  0.762613  0.589493  0.959271  1
  I  I11  1  0.708539  0.239100  0.149901  1
  I  I12  1  0.293210  0.762097  0.847825  1
  I  I13  1  0.048542  0.684045  0.412110  1
  I  I14  1  0.954305  0.317367  0.589259  1
  I  I15  1  0.412611  0.131021  0.679949  1
  I  I16  1  0.585768  0.869148  0.323001  1
