# generated using pymatgen
data_Y3Ho5(CdPd)2
_symmetry_space_group_name_H-M   'P 1'
_cell_length_a   9.67955120
_cell_length_b   9.67955191
_cell_length_c   9.67955200
_cell_angle_alpha   59.99999971
_cell_angle_beta   59.99999725
_cell_angle_gamma   59.99999865
_symmetry_Int_Tables_number   1
_chemical_formula_structural   Y3Ho5(CdPd)2
_chemical_formula_sum   'Y6 Ho10 Cd4 Pd4'
_cell_volume   641.28446540
_cell_formula_units_Z   2
loop_
 _symmetry_equiv_pos_site_id
 _symmetry_equiv_pos_as_xyz
  1  'x, y, z'
loop_
 _atom_site_type_symbol
 _atom_site_label
 _atom_site_symmetry_multiplicity
 _atom_site_fract_x
 _atom_site_fract_y
 _atom_site_fract_z
 _atom_site_occupancy
  Y  Y0  1  0.934780  0.565220  0.565220  1
  Y  Y1  1  0.565220  0.934780  0.934780  1
  Y  Y2  1  0.565220  0.934780  0.565220  1
  Y  Y3  1  0.934780  0.565220  0.934780  1
  Y  Y4  1  0.565220  0.565220  0.934780  1
  Y  Y5  1  0.934780  0.934780  0.565220  1
  Ho  Ho6  1  0.353747  0.353747  0.353747  1
  Ho  Ho7  1  0.353747  0.353747  0.938758  1
  Ho  Ho8  1  0.353747  0.938758  0.353747  1
  Ho  Ho9  1  0.938758  0.353747  0.353747  1
  Ho  Ho10  1  0.810638  0.189362  0.189362  1
  Ho  Ho11  1  0.189362  0.810638  0.810638  1
  Ho  Ho12  1  0.189362  0.810638  0.189362  1
  Ho  Ho13  1  0.810638  0.189362  0.810638  1
  Ho  Ho14  1  0.189362  0.189362  0.810638  1
  Ho  Ho15  1  0.810638  0.810638  0.189362  1
  Cd  Cd16  1  0.581948  0.581948  0.581948  1
  Cd  Cd17  1  0.581948  0.581948  0.254158  1
  Cd  Cd18  1  0.581948  0.254158  0.581948  1
  Cd  Cd19  1  0.254158  0.581948  0.581948  1
  Pd  Pd20  1  0.144659  0.144659  0.144659  1
  Pd  Pd21  1  0.144659  0.144659  0.566021  1
  Pd  Pd22  1  0.144659  0.566021  0.144659  1
  Pd  Pd23  1  0.566021  0.144659  0.144659  1
