# generated using pymatgen
data_Nd16Cd4Co2TcNi
_symmetry_space_group_name_H-M   'P 1'
_cell_length_a   9.89362398
_cell_length_b   9.91196921
_cell_length_c   9.91196889
_cell_angle_alpha   59.30594936
_cell_angle_beta   59.38012334
_cell_angle_gamma   59.38012501
_symmetry_Int_Tables_number   1
_chemical_formula_structural   Nd16Cd4Co2TcNi
_chemical_formula_sum   'Nd16 Cd4 Co2 Tc1 Ni1'
_cell_volume   677.23637746
_cell_formula_units_Z   1
loop_
 _symmetry_equiv_pos_site_id
 _symmetry_equiv_pos_as_xyz
  1  'x, y, z'
loop_
 _atom_site_type_symbol
 _atom_site_label
 _atom_site_symmetry_multiplicity
 _atom_site_fract_x
 _atom_site_fract_y
 _atom_site_fract_z
 _atom_site_occupancy
  Nd  Nd0  1  0.593649  0.598804  0.598804  1
  Nd  Nd1  1  0.597953  0.600944  0.208440  1
  Nd  Nd2  1  0.597953  0.208440  0.600944  1
  Nd  Nd3  1  0.210818  0.598857  0.598857  1
  Nd  Nd4  1  0.059602  0.439431  0.439431  1
  Nd  Nd5  1  0.437996  0.060394  0.060394  1
  Nd  Nd6  1  0.439567  0.056405  0.439366  1
  Nd  Nd7  1  0.063134  0.439230  0.055328  1
  Nd  Nd8  1  0.439567  0.439366  0.056405  1
  Nd  Nd9  1  0.063134  0.055328  0.439230  1
  Nd  Nd10  1  0.185855  0.813091  0.813091  1
  Nd  Nd11  1  0.803195  0.191356  0.191356  1
  Nd  Nd12  1  0.811670  0.187064  0.813755  1
  Nd  Nd13  1  0.190582  0.804558  0.191177  1
  Nd  Nd14  1  0.811670  0.813755  0.187064  1
  Nd  Nd15  1  0.190582  0.191177  0.804558  1
  Cd  Cd16  1  0.829679  0.829612  0.829612  1
  Cd  Cd17  1  0.829417  0.829051  0.510212  1
  Cd  Cd18  1  0.829417  0.510212  0.829051  1
  Cd  Cd19  1  0.509502  0.829540  0.829540  1
  Co  Co20  1  0.393371  0.392207  0.829561  1
  Co  Co21  1  0.393371  0.829561  0.392207  1
  Tc  Tc22  1  0.390609  0.388767  0.388767  1
  Ni  Ni23  1  0.827704  0.392848  0.392848  1
