# generated using pymatgen
data_Dy2U2Ga12Rh
_symmetry_space_group_name_H-M   'P 1'
_cell_length_a   7.41076809
_cell_length_b   7.41076750
_cell_length_c   7.46339662
_cell_angle_alpha   109.15529176
_cell_angle_beta   109.15529421
_cell_angle_gamma   109.82084616
_symmetry_Int_Tables_number   1
_chemical_formula_structural   Dy2U2Ga12Rh
_chemical_formula_sum   'Dy2 U2 Ga12 Rh1'
_cell_volume   316.61381927
_cell_formula_units_Z   1
loop_
 _symmetry_equiv_pos_site_id
 _symmetry_equiv_pos_as_xyz
  1  'x, y, z'
loop_
 _atom_site_type_symbol
 _atom_site_label
 _atom_site_symmetry_multiplicity
 _atom_site_fract_x
 _atom_site_fract_y
 _atom_site_fract_z
 _atom_site_occupancy
  Dy  Dy0  1  0.500000  0.500000  0.500000  1
  Dy  Dy1  1  0.000000  0.000000  0.500000  1
  U  U2  1  0.000000  0.500000  0.000000  1
  U  U3  1  0.500000  0.000000  0.000000  1
  Ga  Ga4  1  0.750000  0.250000  0.500000  1
  Ga  Ga5  1  0.002129  0.707551  0.709680  1
  Ga  Ga6  1  0.292449  0.997871  0.290320  1
  Ga  Ga7  1  0.501841  0.250979  0.752820  1
  Ga  Ga8  1  0.749021  0.498159  0.247180  1
  Ga  Ga9  1  0.250000  0.750000  0.500000  1
  Ga  Ga10  1  0.250979  0.501841  0.752820  1
  Ga  Ga11  1  0.707551  0.002129  0.709680  1
  Ga  Ga12  1  0.498159  0.749021  0.247180  1
  Ga  Ga13  1  0.706982  0.706982  0.000000  1
  Ga  Ga14  1  0.293018  0.293018  0.000000  1
  Ga  Ga15  1  0.997871  0.292449  0.290320  1
  Rh  Rh16  1  0.000000  0.000000  0.000000  1
