# generated using pymatgen
data_NdSm6Y(Si3Rh)4
_symmetry_space_group_name_H-M   'P 1'
_cell_length_a   8.23487702
_cell_length_b   8.23148949
_cell_length_c   8.15353300
_cell_angle_alpha   90.00000000
_cell_angle_beta   90.00000000
_cell_angle_gamma   119.98638561
_symmetry_Int_Tables_number   1
_chemical_formula_structural   NdSm6Y(Si3Rh)4
_chemical_formula_sum   'Nd1 Sm6 Y1 Si12 Rh4'
_cell_volume   478.70897982
_cell_formula_units_Z   1
loop_
 _symmetry_equiv_pos_site_id
 _symmetry_equiv_pos_as_xyz
  1  'x, y, z'
loop_
 _atom_site_type_symbol
 _atom_site_label
 _atom_site_symmetry_multiplicity
 _atom_site_fract_x
 _atom_site_fract_y
 _atom_site_fract_z
 _atom_site_occupancy
  Nd  Nd0  1  0.999895  0.999948  0.250000  1
  Sm  Sm1  1  0.000236  0.000118  0.750000  1
  Sm  Sm2  1  0.507251  0.492863  0.250000  1
  Sm  Sm3  1  0.507251  0.014388  0.250000  1
  Sm  Sm4  1  0.986046  0.493023  0.250000  1
  Sm  Sm5  1  0.492311  0.507420  0.750000  1
  Sm  Sm6  1  0.492311  0.984890  0.750000  1
  Y  Y7  1  0.013916  0.506959  0.750000  1
  Si  Si8  1  0.166710  0.832085  0.502829  1
  Si  Si9  1  0.166710  0.334626  0.502829  1
  Si  Si10  1  0.665976  0.832988  0.501388  1
  Si  Si11  1  0.833015  0.167736  0.500776  1
  Si  Si12  1  0.833015  0.665278  0.500776  1
  Si  Si13  1  0.334563  0.167281  0.500345  1
  Si  Si14  1  0.833015  0.167736  0.999224  1
  Si  Si15  1  0.833015  0.665278  0.999224  1
  Si  Si16  1  0.334563  0.167281  0.999655  1
  Si  Si17  1  0.166710  0.832085  0.997171  1
  Si  Si18  1  0.166710  0.334626  0.997171  1
  Si  Si19  1  0.665976  0.832988  0.998612  1
  Rh  Rh20  1  0.332826  0.666414  0.472338  1
  Rh  Rh21  1  0.667577  0.333788  0.532045  1
  Rh  Rh22  1  0.667577  0.333788  0.967955  1
  Rh  Rh23  1  0.332826  0.666414  0.027662  1
