# generated using pymatgen
data_Dy4Cu5Ni9
_symmetry_space_group_name_H-M   'P 1'
_cell_length_a   4.99173309
_cell_length_b   4.99173475
_cell_length_c   12.39076292
_cell_angle_alpha   78.75296865
_cell_angle_beta   78.75296339
_cell_angle_gamma   60.27148395
_symmetry_Int_Tables_number   1
_chemical_formula_structural   Dy4Cu5Ni9
_chemical_formula_sum   'Dy4 Cu5 Ni9'
_cell_volume   261.20307650
_cell_formula_units_Z   1
loop_
 _symmetry_equiv_pos_site_id
 _symmetry_equiv_pos_as_xyz
  1  'x, y, z'
loop_
 _atom_site_type_symbol
 _atom_site_label
 _atom_site_symmetry_multiplicity
 _atom_site_fract_x
 _atom_site_fract_y
 _atom_site_fract_z
 _atom_site_occupancy
  Dy  Dy0  1  0.950027  0.950027  0.152124  1
  Dy  Dy1  1  0.049973  0.049973  0.847876  1
  Dy  Dy2  1  0.851895  0.851895  0.441244  1
  Dy  Dy3  1  0.148105  0.148105  0.558756  1
  Cu  Cu4  1  0.723948  0.723948  0.832980  1
  Cu  Cu5  1  0.276052  0.276052  0.167020  1
  Cu  Cu6  1  0.613683  0.613683  0.167539  1
  Cu  Cu7  1  0.386317  0.386317  0.832461  1
  Cu  Cu8  1  0.500000  0.500000  0.000000  1
  Ni  Ni9  1  0.500000  0.500000  0.500000  1
  Ni  Ni10  1  0.000000  0.500000  0.000000  1
  Ni  Ni11  1  0.500000  0.000000  0.000000  1
  Ni  Ni12  1  0.387699  0.387699  0.332233  1
  Ni  Ni13  1  0.890273  0.385689  0.333067  1
  Ni  Ni14  1  0.385689  0.890273  0.333067  1
  Ni  Ni15  1  0.612301  0.612301  0.667767  1
  Ni  Ni16  1  0.109727  0.614311  0.666933  1
  Ni  Ni17  1  0.614311  0.109727  0.666933  1
