# generated using pymatgen
data_Er5Hf3Ir4
_symmetry_space_group_name_H-M   'P 1'
_cell_length_a   4.53596800
_cell_length_b   7.05440967
_cell_length_c   8.35204248
_cell_angle_alpha   90.68775910
_cell_angle_beta   90.00000000
_cell_angle_gamma   90.00000000
_symmetry_Int_Tables_number   1
_chemical_formula_structural   Er5Hf3Ir4
_chemical_formula_sum   'Er5 Hf3 Ir4'
_cell_volume   267.23421651
_cell_formula_units_Z   1
loop_
 _symmetry_equiv_pos_site_id
 _symmetry_equiv_pos_as_xyz
  1  'x, y, z'
loop_
 _atom_site_type_symbol
 _atom_site_label
 _atom_site_symmetry_multiplicity
 _atom_site_fract_x
 _atom_site_fract_y
 _atom_site_fract_z
 _atom_site_occupancy
  Er  Er0  1  0.250000  0.980622  0.331386  1
  Er  Er1  1  0.250000  0.489899  0.172422  1
  Er  Er2  1  0.750000  0.021684  0.677981  1
  Er  Er3  1  0.750000  0.515737  0.820487  1
  Er  Er4  1  0.750000  0.143715  0.076733  1
  Hf  Hf5  1  0.250000  0.363962  0.570461  1
  Hf  Hf6  1  0.250000  0.851413  0.928284  1
  Hf  Hf7  1  0.750000  0.646173  0.428633  1
  Ir  Ir8  1  0.250000  0.230714  0.886149  1
  Ir  Ir9  1  0.250000  0.736323  0.596550  1
  Ir  Ir10  1  0.750000  0.749110  0.094715  1
  Ir  Ir11  1  0.750000  0.270649  0.416200  1
