# generated using pymatgen
data_Dy9Ho(Pb3Cl)2
_symmetry_space_group_name_H-M   'P 1'
_cell_length_a   9.19734409
_cell_length_b   9.19734296
_cell_length_c   6.61170700
_cell_angle_alpha   90.00000000
_cell_angle_beta   90.00000000
_cell_angle_gamma   119.94338004
_symmetry_Int_Tables_number   1
_chemical_formula_structural   Dy9Ho(Pb3Cl)2
_chemical_formula_sum   'Dy9 Ho1 Pb6 Cl2'
_cell_volume   484.63697670
_cell_formula_units_Z   1
loop_
 _symmetry_equiv_pos_site_id
 _symmetry_equiv_pos_as_xyz
  1  'x, y, z'
loop_
 _atom_site_type_symbol
 _atom_site_label
 _atom_site_symmetry_multiplicity
 _atom_site_fract_x
 _atom_site_fract_y
 _atom_site_fract_z
 _atom_site_occupancy
  Dy  Dy0  1  0.261365  0.999689  0.250000  1
  Dy  Dy1  1  0.740047  0.001045  0.750000  1
  Dy  Dy2  1  0.999689  0.261365  0.250000  1
  Dy  Dy3  1  0.001045  0.740047  0.750000  1
  Dy  Dy4  1  0.738045  0.738045  0.250000  1
  Dy  Dy5  1  0.333488  0.666505  0.000004  1
  Dy  Dy6  1  0.666505  0.333488  0.000004  1
  Dy  Dy7  1  0.666505  0.333488  0.499996  1
  Dy  Dy8  1  0.333488  0.666505  0.499996  1
  Ho  Ho9  1  0.261814  0.261814  0.750000  1
  Pb  Pb10  1  0.611283  0.000077  0.250000  1
  Pb  Pb11  1  0.389229  0.999893  0.750000  1
  Pb  Pb12  1  0.000077  0.611283  0.250000  1
  Pb  Pb13  1  0.999893  0.389229  0.750000  1
  Pb  Pb14  1  0.388137  0.388137  0.250000  1
  Pb  Pb15  1  0.612043  0.612043  0.750000  1
  Cl  Cl16  1  0.998673  0.998673  0.001263  1
  Cl  Cl17  1  0.998673  0.998673  0.498737  1
