# generated using pymatgen
data_Y3Er5Os2(WC4)2
_symmetry_space_group_name_H-M   'P 1'
_cell_length_a   5.08826500
_cell_length_b   6.59008919
_cell_length_c   9.86767290
_cell_angle_alpha   89.20302778
_cell_angle_beta   90.00000000
_cell_angle_gamma   90.00000000
_symmetry_Int_Tables_number   1
_chemical_formula_structural   Y3Er5Os2(WC4)2
_chemical_formula_sum   'Y3 Er5 Os2 W2 C8'
_cell_volume   330.85198369
_cell_formula_units_Z   1
loop_
 _symmetry_equiv_pos_site_id
 _symmetry_equiv_pos_as_xyz
  1  'x, y, z'
loop_
 _atom_site_type_symbol
 _atom_site_label
 _atom_site_symmetry_multiplicity
 _atom_site_fract_x
 _atom_site_fract_y
 _atom_site_fract_z
 _atom_site_occupancy
  Y  Y0  1  0.750000  0.460831  0.781983  1
  Y  Y1  1  0.750000  0.968183  0.716314  1
  Y  Y2  1  0.250000  0.032049  0.283556  1
  Er  Er3  1  0.250000  0.676683  0.557772  1
  Er  Er4  1  0.750000  0.323710  0.441831  1
  Er  Er5  1  0.750000  0.824575  0.058542  1
  Er  Er6  1  0.250000  0.175168  0.941755  1
  Er  Er7  1  0.250000  0.539132  0.218053  1
  Os  Os8  1  0.750000  0.778634  0.366556  1
  Os  Os9  1  0.250000  0.221576  0.632989  1
  W  W10  1  0.250000  0.716800  0.868045  1
  W  W11  1  0.750000  0.283435  0.132321  1
  C  C12  1  0.250000  0.449966  0.758394  1
  C  C13  1  0.750000  0.550325  0.241286  1
  C  C14  1  0.750000  0.046794  0.260096  1
  C  C15  1  0.250000  0.953404  0.740043  1
  C  C16  1  0.250000  0.824625  0.053722  1
  C  C17  1  0.750000  0.173152  0.947366  1
  C  C18  1  0.750000  0.674458  0.548122  1
  C  C19  1  0.250000  0.326501  0.451255  1
