# generated using pymatgen
data_DyHo7(InAu2)4
_symmetry_space_group_name_H-M   'P 1'
_cell_length_a   8.01445810
_cell_length_b   8.01445885
_cell_length_c   7.30983700
_cell_angle_alpha   90.00000000
_cell_angle_beta   90.00000000
_cell_angle_gamma   90.05645611
_symmetry_Int_Tables_number   1
_chemical_formula_structural   DyHo7(InAu2)4
_chemical_formula_sum   'Dy1 Ho7 In4 Au8'
_cell_volume   469.52189345
_cell_formula_units_Z   1
loop_
 _symmetry_equiv_pos_site_id
 _symmetry_equiv_pos_as_xyz
  1  'x, y, z'
loop_
 _atom_site_type_symbol
 _atom_site_label
 _atom_site_symmetry_multiplicity
 _atom_site_fract_x
 _atom_site_fract_y
 _atom_site_fract_z
 _atom_site_occupancy
  Dy  Dy0  1  0.818837  0.181163  0.000000  1
  Ho  Ho1  1  0.841755  0.158245  0.500000  1
  Ho  Ho2  1  0.158065  0.841935  0.500000  1
  Ho  Ho3  1  0.341839  0.341764  0.000000  1
  Ho  Ho4  1  0.658236  0.658161  0.000000  1
  Ho  Ho5  1  0.681380  0.681115  0.500000  1
  Ho  Ho6  1  0.318885  0.318620  0.500000  1
  Ho  Ho7  1  0.181247  0.818753  0.000000  1
  In  In8  1  0.499848  0.999896  0.250029  1
  In  In9  1  0.000104  0.500152  0.749971  1
  In  In10  1  0.499848  0.999896  0.749971  1
  In  In11  1  0.000104  0.500152  0.250029  1
  Au  Au12  1  0.628779  0.371221  0.273105  1
  Au  Au13  1  0.371254  0.628746  0.273419  1
  Au  Au14  1  0.128896  0.129003  0.773356  1
  Au  Au15  1  0.870997  0.871104  0.773356  1
  Au  Au16  1  0.371254  0.628746  0.726581  1
  Au  Au17  1  0.628779  0.371221  0.726895  1
  Au  Au18  1  0.870997  0.871104  0.226644  1
  Au  Au19  1  0.128896  0.129003  0.226644  1
