# generated using pymatgen
data_V3Cr9Si4
_symmetry_space_group_name_H-M   'P 1'
_cell_length_a   4.56823900
_cell_length_b   4.55288100
_cell_length_c   9.12703818
_cell_angle_alpha   90.01280329
_cell_angle_beta   90.00025100
_cell_angle_gamma   89.99977386
_symmetry_Int_Tables_number   1
_chemical_formula_structural   V3Cr9Si4
_chemical_formula_sum   'V3 Cr9 Si4'
_cell_volume   189.83005470
_cell_formula_units_Z   1
loop_
 _symmetry_equiv_pos_site_id
 _symmetry_equiv_pos_as_xyz
  1  'x, y, z'
loop_
 _atom_site_type_symbol
 _atom_site_label
 _atom_site_symmetry_multiplicity
 _atom_site_fract_x
 _atom_site_fract_y
 _atom_site_fract_z
 _atom_site_occupancy
  V  V0  1  0.000018  0.499497  0.375600  1
  V  V1  1  0.000017  0.500270  0.873462  1
  V  V2  1  0.499987  0.249674  0.999809  1
  Cr  Cr3  1  0.499997  0.246471  0.499704  1
  Cr  Cr4  1  0.748270  0.000232  0.251347  1
  Cr  Cr5  1  0.749166  0.000350  0.749469  1
  Cr  Cr6  1  0.000012  0.499940  0.125804  1
  Cr  Cr7  1  0.000006  0.499828  0.624341  1
  Cr  Cr8  1  0.499993  0.750946  0.999654  1
  Cr  Cr9  1  0.499991  0.752079  0.499645  1
  Cr  Cr10  1  0.251714  0.000237  0.251349  1
  Cr  Cr11  1  0.250826  0.000346  0.749463  1
  Si  Si12  1  0.499975  0.501212  0.250686  1
  Si  Si13  1  0.499978  0.500721  0.747115  1
  Si  Si14  1  0.000022  0.998505  0.001356  1
  Si  Si15  1  0.000027  0.999692  0.501196  1
