# generated using pymatgen
data_YZr3(Co5As3)4
_symmetry_space_group_name_H-M   'P 1'
_cell_length_a   3.74057000
_cell_length_b   12.10378824
_cell_length_c   10.60550035
_cell_angle_alpha   89.93191661
_cell_angle_beta   90.00000000
_cell_angle_gamma   90.00000000
_symmetry_Int_Tables_number   1
_chemical_formula_structural   YZr3(Co5As3)4
_chemical_formula_sum   'Y1 Zr3 Co20 As12'
_cell_volume   480.16440201
_cell_formula_units_Z   1
loop_
 _symmetry_equiv_pos_site_id
 _symmetry_equiv_pos_as_xyz
  1  'x, y, z'
loop_
 _atom_site_type_symbol
 _atom_site_label
 _atom_site_symmetry_multiplicity
 _atom_site_fract_x
 _atom_site_fract_y
 _atom_site_fract_z
 _atom_site_occupancy
  Y  Y0  1  0.750000  0.203172  0.418017  1
  Zr  Zr1  1  0.750000  0.701476  0.078928  1
  Zr  Zr2  1  0.250000  0.298493  0.920902  1
  Zr  Zr3  1  0.250000  0.798852  0.579429  1
  Co  Co4  1  0.750000  0.698634  0.384993  1
  Co  Co5  1  0.250000  0.303784  0.617773  1
  Co  Co6  1  0.250000  0.801455  0.885770  1
  Co  Co7  1  0.750000  0.197696  0.112331  1
  Co  Co8  1  0.750000  0.991722  0.214703  1
  Co  Co9  1  0.250000  0.005590  0.784656  1
  Co  Co10  1  0.250000  0.507669  0.716409  1
  Co  Co11  1  0.750000  0.492583  0.284133  1
  Co  Co12  1  0.750000  0.679081  0.783691  1
  Co  Co13  1  0.250000  0.321685  0.215007  1
  Co  Co14  1  0.250000  0.819848  0.282248  1
  Co  Co15  1  0.750000  0.178828  0.717876  1
  Co  Co16  1  0.750000  0.929608  0.969442  1
  Co  Co17  1  0.250000  0.068771  0.028346  1
  Co  Co18  1  0.250000  0.572150  0.470090  1
  Co  Co19  1  0.750000  0.434060  0.533030  1
  Co  Co20  1  0.750000  0.984466  0.593238  1
  Co  Co21  1  0.250000  0.009250  0.409640  1
  Co  Co22  1  0.250000  0.513790  0.090486  1
  Co  Co23  1  0.750000  0.486748  0.909472  1
  As  As24  1  0.750000  0.617372  0.585556  1
  As  As25  1  0.250000  0.388522  0.415036  1
  As  As26  1  0.250000  0.884140  0.085053  1
  As  As27  1  0.750000  0.114925  0.914265  1
  As  As28  1  0.750000  0.888938  0.400650  1
  As  As29  1  0.250000  0.110022  0.601019  1
  As  As30  1  0.250000  0.610849  0.900838  1
  As  As31  1  0.750000  0.388924  0.099089  1
  As  As32  1  0.750000  0.869366  0.766931  1
  As  As33  1  0.250000  0.127806  0.230618  1
  As  As34  1  0.250000  0.629296  0.265657  1
  As  As35  1  0.750000  0.370428  0.734675  1
