# generated using pymatgen
data_Nd3Dy2Sn3Br
_symmetry_space_group_name_H-M   'P 1'
_cell_length_a   9.40694400
_cell_length_b   9.40694445
_cell_length_c   6.74143300
_cell_angle_alpha   90.00000000
_cell_angle_beta   90.00000000
_cell_angle_gamma   119.99999840
_symmetry_Int_Tables_number   1
_chemical_formula_structural   Nd3Dy2Sn3Br
_chemical_formula_sum   'Nd6 Dy4 Sn6 Br2'
_cell_volume   516.63044979
_cell_formula_units_Z   2
loop_
 _symmetry_equiv_pos_site_id
 _symmetry_equiv_pos_as_xyz
  1  'x, y, z'
loop_
 _atom_site_type_symbol
 _atom_site_label
 _atom_site_symmetry_multiplicity
 _atom_site_fract_x
 _atom_site_fract_y
 _atom_site_fract_z
 _atom_site_occupancy
  Nd  Nd0  1  0.267905  0.267905  0.750000  1
  Nd  Nd1  1  0.000000  0.732095  0.750000  1
  Nd  Nd2  1  0.732095  0.000000  0.750000  1
  Nd  Nd3  1  0.000000  0.267905  0.250000  1
  Nd  Nd4  1  0.732095  0.732095  0.250000  1
  Nd  Nd5  1  0.267905  0.000000  0.250000  1
  Dy  Dy6  1  0.333333  0.666667  0.500000  1
  Dy  Dy7  1  0.666667  0.333333  0.500000  1
  Dy  Dy8  1  0.333333  0.666667  0.000000  1
  Dy  Dy9  1  0.666667  0.333333  0.000000  1
  Sn  Sn10  1  0.609839  0.000000  0.250000  1
  Sn  Sn11  1  0.000000  0.390161  0.750000  1
  Sn  Sn12  1  0.390161  0.000000  0.750000  1
  Sn  Sn13  1  0.609839  0.609839  0.750000  1
  Sn  Sn14  1  0.000000  0.609839  0.250000  1
  Sn  Sn15  1  0.390161  0.390161  0.250000  1
  Br  Br16  1  0.000000  0.000000  0.000000  1
  Br  Br17  1  0.000000  0.000000  0.500000  1
