# generated using pymatgen
data_Dy3Sn2Pt2RhPb
_symmetry_space_group_name_H-M   'P 1'
_cell_length_a   7.69426568
_cell_length_b   7.69426567
_cell_length_c   3.83269800
_cell_angle_alpha   90.00000000
_cell_angle_beta   90.00000000
_cell_angle_gamma   119.50475005
_symmetry_Int_Tables_number   1
_chemical_formula_structural   Dy3Sn2Pt2RhPb
_chemical_formula_sum   'Dy3 Sn2 Pt2 Rh1 Pb1'
_cell_volume   197.47647172
_cell_formula_units_Z   1
loop_
 _symmetry_equiv_pos_site_id
 _symmetry_equiv_pos_as_xyz
  1  'x, y, z'
loop_
 _atom_site_type_symbol
 _atom_site_label
 _atom_site_symmetry_multiplicity
 _atom_site_fract_x
 _atom_site_fract_y
 _atom_site_fract_z
 _atom_site_occupancy
  Dy  Dy0  1  0.402302  0.402302  0.500000  1
  Dy  Dy1  1  0.596370  0.003169  0.500000  1
  Dy  Dy2  1  0.003169  0.596370  0.500000  1
  Sn  Sn3  1  0.259319  0.001322  0.000000  1
  Sn  Sn4  1  0.001322  0.259319  0.000000  1
  Pt  Pt5  1  0.663382  0.323157  0.000000  1
  Pt  Pt6  1  0.323157  0.663382  0.000000  1
  Rh  Rh7  1  0.010307  0.010307  0.500000  1
  Pb  Pb8  1  0.740673  0.740673  0.000000  1
