# generated using pymatgen
data_SmTm2(MgHg)3
_symmetry_space_group_name_H-M   'P 1'
_cell_length_a   7.66277900
_cell_length_b   7.74644200
_cell_length_c   4.29438600
_cell_angle_alpha   90.00000000
_cell_angle_beta   90.00000000
_cell_angle_gamma   119.64336703
_symmetry_Int_Tables_number   1
_chemical_formula_structural   SmTm2(MgHg)3
_chemical_formula_sum   'Sm1 Tm2 Mg3 Hg3'
_cell_volume   221.54900526
_cell_formula_units_Z   1
loop_
 _symmetry_equiv_pos_site_id
 _symmetry_equiv_pos_as_xyz
  1  'x, y, z'
loop_
 _atom_site_type_symbol
 _atom_site_label
 _atom_site_symmetry_multiplicity
 _atom_site_fract_x
 _atom_site_fract_y
 _atom_site_fract_z
 _atom_site_occupancy
  Sm  Sm0  1  0.415064  0.000000  0.000000  1
  Tm  Tm1  1  0.000422  0.412388  0.000000  1
  Tm  Tm2  1  0.588033  0.587612  0.000000  1
  Mg  Mg3  1  0.750965  0.000000  0.499999  1
  Mg  Mg4  1  0.248953  0.250798  0.499999  1
  Mg  Mg5  1  0.998155  0.749202  0.499999  1
  Hg  Hg6  1  0.996373  0.000000  0.000000  1
  Hg  Hg7  1  0.670391  0.338749  0.499999  1
  Hg  Hg8  1  0.331643  0.661251  0.499999  1
