# generated using pymatgen
data_Tb8Er8MgNi4Ag3
_symmetry_space_group_name_H-M   'P 1'
_cell_length_a   9.44789534
_cell_length_b   9.43469608
_cell_length_c   9.43459200
_cell_angle_alpha   60.00035791
_cell_angle_beta   60.04656081
_cell_angle_gamma   60.19091781
_symmetry_Int_Tables_number   1
_chemical_formula_structural   Tb8Er8MgNi4Ag3
_chemical_formula_sum   'Tb8 Er8 Mg1 Ni4 Ag3'
_cell_volume   595.72803060
_cell_formula_units_Z   1
loop_
 _symmetry_equiv_pos_site_id
 _symmetry_equiv_pos_as_xyz
  1  'x, y, z'
loop_
 _atom_site_type_symbol
 _atom_site_label
 _atom_site_symmetry_multiplicity
 _atom_site_fract_x
 _atom_site_fract_y
 _atom_site_fract_z
 _atom_site_occupancy
  Tb  Tb0  1  0.184075  0.815558  0.814090  1
  Tb  Tb1  1  0.813087  0.186620  0.186074  1
  Tb  Tb2  1  0.813087  0.186620  0.814218  1
  Tb  Tb3  1  0.184075  0.815558  0.186278  1
  Tb  Tb4  1  0.813221  0.814412  0.186183  1
  Tb  Tb5  1  0.186148  0.188668  0.812593  1
  Tb  Tb6  1  0.597457  0.597994  0.597270  1
  Tb  Tb7  1  0.597457  0.597994  0.207280  1
  Er  Er8  1  0.600777  0.204249  0.597488  1
  Er  Er9  1  0.193124  0.604054  0.601410  1
  Er  Er10  1  0.060884  0.437748  0.439741  1
  Er  Er11  1  0.435343  0.063837  0.063766  1
  Er  Er12  1  0.435343  0.063837  0.437052  1
  Er  Er13  1  0.060884  0.437748  0.061628  1
  Er  Er14  1  0.435160  0.436012  0.064413  1
  Er  Er15  1  0.059918  0.062061  0.439011  1
  Mg  Mg16  1  0.537840  0.819794  0.821183  1
  Ni  Ni17  1  0.389512  0.392411  0.397502  1
  Ni  Ni18  1  0.389512  0.392411  0.820576  1
  Ni  Ni19  1  0.386265  0.824489  0.394623  1
  Ni  Ni20  1  0.823522  0.390919  0.392779  1
  Ag  Ag21  1  0.834148  0.833667  0.831733  1
  Ag  Ag22  1  0.834148  0.833667  0.500451  1
  Ag  Ag23  1  0.835010  0.499671  0.832659  1
