# generated using pymatgen
data_Dy16Sc4(Ir3Ru)3
_symmetry_space_group_name_H-M   'P 1'
_cell_length_a   10.71811000
_cell_length_b   10.71811000
_cell_length_c   6.31991000
_cell_angle_alpha   90.00000000
_cell_angle_beta   90.00000000
_cell_angle_gamma   90.00000000
_symmetry_Int_Tables_number   1
_chemical_formula_structural   Dy16Sc4(Ir3Ru)3
_chemical_formula_sum   'Dy16 Sc4 Ir9 Ru3'
_cell_volume   726.01787505
_cell_formula_units_Z   1
loop_
 _symmetry_equiv_pos_site_id
 _symmetry_equiv_pos_as_xyz
  1  'x, y, z'
loop_
 _atom_site_type_symbol
 _atom_site_label
 _atom_site_symmetry_multiplicity
 _atom_site_fract_x
 _atom_site_fract_y
 _atom_site_fract_z
 _atom_site_occupancy
  Dy  Dy0  1  0.290127  0.085337  0.377637  1
  Dy  Dy1  1  0.290166  0.914859  0.877946  1
  Dy  Dy2  1  0.709834  0.085141  0.877946  1
  Dy  Dy3  1  0.709873  0.914663  0.377637  1
  Dy  Dy4  1  0.585141  0.790166  0.877946  1
  Dy  Dy5  1  0.585337  0.209873  0.377637  1
  Dy  Dy6  1  0.414663  0.790127  0.377637  1
  Dy  Dy7  1  0.414859  0.209834  0.877946  1
  Dy  Dy8  1  0.211320  0.414281  0.623608  1
  Dy  Dy9  1  0.211206  0.585743  0.120996  1
  Dy  Dy10  1  0.788794  0.414257  0.120996  1
  Dy  Dy11  1  0.788680  0.585719  0.623608  1
  Dy  Dy12  1  0.914257  0.711206  0.120996  1
  Dy  Dy13  1  0.914281  0.288680  0.623608  1
  Dy  Dy14  1  0.085719  0.711320  0.623608  1
  Dy  Dy15  1  0.085743  0.288794  0.120996  1
  Sc  Sc16  1  0.000000  0.000000  0.499785  1
  Sc  Sc17  1  0.000000  0.000000  0.999614  1
  Sc  Sc18  1  0.500000  0.500000  0.999614  1
  Sc  Sc19  1  0.500000  0.500000  0.499785  1
  Ir  Ir20  1  0.853605  0.146606  0.250054  1
  Ir  Ir21  1  0.853333  0.853412  0.749738  1
  Ir  Ir22  1  0.146667  0.146588  0.749738  1
  Ir  Ir23  1  0.146395  0.853394  0.250054  1
  Ir  Ir24  1  0.646588  0.353333  0.749738  1
  Ir  Ir25  1  0.646606  0.646395  0.250054  1
  Ir  Ir26  1  0.353394  0.353605  0.250054  1
  Ir  Ir27  1  0.353412  0.646667  0.749738  1
  Ir  Ir28  1  0.000000  0.500000  0.376825  1
  Ru  Ru29  1  0.500000  0.000000  0.124096  1
  Ru  Ru30  1  0.500000  0.000000  0.623761  1
  Ru  Ru31  1  0.000000  0.500000  0.876607  1
