# generated using pymatgen
data_VGaRh3Se8
_symmetry_space_group_name_H-M   'P 1'
_cell_length_a   7.50959471
_cell_length_b   7.15140872
_cell_length_c   7.50959500
_cell_angle_alpha   58.32886281
_cell_angle_beta   60.00000314
_cell_angle_gamma   58.32885625
_symmetry_Int_Tables_number   1
_chemical_formula_structural   VGaRh3Se8
_chemical_formula_sum   'V1 Ga1 Rh3 Se8'
_cell_volume   277.75688579
_cell_formula_units_Z   1
loop_
 _symmetry_equiv_pos_site_id
 _symmetry_equiv_pos_as_xyz
  1  'x, y, z'
loop_
 _atom_site_type_symbol
 _atom_site_label
 _atom_site_symmetry_multiplicity
 _atom_site_fract_x
 _atom_site_fract_y
 _atom_site_fract_z
 _atom_site_occupancy
  V  V0  1  0.590079  0.229764  0.590079  1
  Ga  Ga1  1  0.013915  0.958254  0.013915  1
  Rh  Rh2  1  0.625155  0.606572  0.143118  1
  Rh  Rh3  1  0.625155  0.606572  0.625155  1
  Rh  Rh4  1  0.143118  0.606572  0.625155  1
  Se  Se5  1  0.853493  0.869484  0.853493  1
  Se  Se6  1  0.423531  0.869484  0.853493  1
  Se  Se7  1  0.869526  0.391423  0.869526  1
  Se  Se8  1  0.853493  0.869484  0.423531  1
  Se  Se9  1  0.370775  0.383044  0.370775  1
  Se  Se10  1  0.875406  0.383044  0.370775  1
  Se  Se11  1  0.385580  0.843260  0.385580  1
  Se  Se12  1  0.370775  0.383044  0.875406  1
