# generated using pymatgen
data_Pr10OsRh5
_symmetry_space_group_name_H-M   'P 1'
_cell_length_a   11.35022200
_cell_length_b   11.35022200
_cell_length_c   6.64827800
_cell_angle_alpha   90.00000000
_cell_angle_beta   90.00000000
_cell_angle_gamma   90.00000000
_symmetry_Int_Tables_number   1
_chemical_formula_structural   Pr10OsRh5
_chemical_formula_sum   'Pr20 Os2 Rh10'
_cell_volume   856.48129631
_cell_formula_units_Z   2
loop_
 _symmetry_equiv_pos_site_id
 _symmetry_equiv_pos_as_xyz
  1  'x, y, z'
loop_
 _atom_site_type_symbol
 _atom_site_label
 _atom_site_symmetry_multiplicity
 _atom_site_fract_x
 _atom_site_fract_y
 _atom_site_fract_z
 _atom_site_occupancy
  Pr  Pr0  1  0.294599  0.087276  0.382308  1
  Pr  Pr1  1  0.294599  0.912724  0.882308  1
  Pr  Pr2  1  0.705401  0.087276  0.882308  1
  Pr  Pr3  1  0.705401  0.912724  0.382308  1
  Pr  Pr4  1  0.587276  0.794599  0.882308  1
  Pr  Pr5  1  0.587276  0.205401  0.382308  1
  Pr  Pr6  1  0.412724  0.794599  0.382308  1
  Pr  Pr7  1  0.412724  0.205401  0.882308  1
  Pr  Pr8  1  0.208808  0.409038  0.618020  1
  Pr  Pr9  1  0.208808  0.590962  0.118020  1
  Pr  Pr10  1  0.791192  0.409038  0.118020  1
  Pr  Pr11  1  0.791192  0.590962  0.618020  1
  Pr  Pr12  1  0.909038  0.708808  0.118020  1
  Pr  Pr13  1  0.909038  0.291192  0.618020  1
  Pr  Pr14  1  0.090962  0.708808  0.618020  1
  Pr  Pr15  1  0.090962  0.291192  0.118020  1
  Pr  Pr16  1  0.000000  0.000000  0.496150  1
  Pr  Pr17  1  0.000000  0.000000  0.996150  1
  Pr  Pr18  1  0.500000  0.500000  0.996150  1
  Pr  Pr19  1  0.500000  0.500000  0.496150  1
  Os  Os20  1  0.500000  0.000000  0.124471  1
  Os  Os21  1  0.500000  0.000000  0.624471  1
  Rh  Rh22  1  0.849515  0.156001  0.250691  1
  Rh  Rh23  1  0.849515  0.843999  0.750691  1
  Rh  Rh24  1  0.150485  0.156001  0.750691  1
  Rh  Rh25  1  0.150485  0.843999  0.250691  1
  Rh  Rh26  1  0.656001  0.349515  0.750691  1
  Rh  Rh27  1  0.656001  0.650485  0.250691  1
  Rh  Rh28  1  0.343999  0.349515  0.250691  1
  Rh  Rh29  1  0.343999  0.650485  0.750691  1
  Rh  Rh30  1  0.000000  0.500000  0.879154  1
  Rh  Rh31  1  0.000000  0.500000  0.379154  1
