# generated using pymatgen
data_Ta8AlCuTe8
_symmetry_space_group_name_H-M   'P 1'
_cell_length_a   4.83913500
_cell_length_b   11.07386700
_cell_length_c   19.25101300
_cell_angle_alpha   90.00000000
_cell_angle_beta   90.00000000
_cell_angle_gamma   90.00000000
_symmetry_Int_Tables_number   1
_chemical_formula_structural   Ta8AlCuTe8
_chemical_formula_sum   'Ta16 Al2 Cu2 Te16'
_cell_volume   1031.62207924
_cell_formula_units_Z   2
loop_
 _symmetry_equiv_pos_site_id
 _symmetry_equiv_pos_as_xyz
  1  'x, y, z'
loop_
 _atom_site_type_symbol
 _atom_site_label
 _atom_site_symmetry_multiplicity
 _atom_site_fract_x
 _atom_site_fract_y
 _atom_site_fract_z
 _atom_site_occupancy
  Ta  Ta0  1  0.499389  0.564352  0.382621  1
  Ta  Ta1  1  0.499389  0.435648  0.617379  1
  Ta  Ta2  1  0.500611  0.064352  0.117379  1
  Ta  Ta3  1  0.500611  0.935648  0.882621  1
  Ta  Ta4  1  0.495674  0.704928  0.536684  1
  Ta  Ta5  1  0.495674  0.295072  0.463316  1
  Ta  Ta6  1  0.504326  0.204928  0.963316  1
  Ta  Ta7  1  0.504326  0.795072  0.036684  1
  Ta  Ta8  1  0.003361  0.690271  0.442794  1
  Ta  Ta9  1  0.003361  0.309729  0.557206  1
  Ta  Ta10  1  0.996639  0.190271  0.057206  1
  Ta  Ta11  1  0.996639  0.809729  0.942794  1
  Ta  Ta12  1  0.001424  0.400789  0.391016  1
  Ta  Ta13  1  0.001424  0.599211  0.608984  1
  Ta  Ta14  1  0.998576  0.900789  0.108984  1
  Ta  Ta15  1  0.998576  0.099211  0.891016  1
  Al  Al16  1  0.249952  0.500000  0.500000  1
  Al  Al17  1  0.750048  0.000000  0.000000  1
  Cu  Cu18  1  0.749905  0.500000  0.500000  1
  Cu  Cu19  1  0.250095  0.000000  0.000000  1
  Te  Te20  1  0.992902  0.845020  0.562285  1
  Te  Te21  1  0.992902  0.154980  0.437715  1
  Te  Te22  1  0.007098  0.345020  0.937715  1
  Te  Te23  1  0.007098  0.654980  0.062285  1
  Te  Te24  1  0.504927  0.333641  0.316224  1
  Te  Te25  1  0.504927  0.666359  0.683776  1
  Te  Te26  1  0.495073  0.833641  0.183776  1
  Te  Te27  1  0.495073  0.166359  0.816224  1
  Te  Te28  1  0.507160  0.820577  0.403372  1
  Te  Te29  1  0.507160  0.179423  0.596628  1
  Te  Te30  1  0.492840  0.320577  0.096628  1
  Te  Te31  1  0.492840  0.679423  0.903372  1
  Te  Te32  1  0.995077  0.607388  0.301945  1
  Te  Te33  1  0.995077  0.392612  0.698055  1
  Te  Te34  1  0.004923  0.107388  0.198055  1
  Te  Te35  1  0.004923  0.892612  0.801945  1
