# generated using pymatgen
data_Hf5ZrAl6(IrPt2)2
_symmetry_space_group_name_H-M   'P 1'
_cell_length_a   7.10372408
_cell_length_b   7.11803362
_cell_length_c   7.22172500
_cell_angle_alpha   90.00000000
_cell_angle_beta   90.00000000
_cell_angle_gamma   119.91588413
_symmetry_Int_Tables_number   1
_chemical_formula_structural   Hf5ZrAl6(IrPt2)2
_chemical_formula_sum   'Hf5 Zr1 Al6 Ir2 Pt4'
_cell_volume   316.50835974
_cell_formula_units_Z   1
loop_
 _symmetry_equiv_pos_site_id
 _symmetry_equiv_pos_as_xyz
  1  'x, y, z'
loop_
 _atom_site_type_symbol
 _atom_site_label
 _atom_site_symmetry_multiplicity
 _atom_site_fract_x
 _atom_site_fract_y
 _atom_site_fract_z
 _atom_site_occupancy
  Hf  Hf0  1  0.009144  0.597650  0.750000  1
  Hf  Hf1  1  0.401459  0.411480  0.750000  1
  Hf  Hf2  1  0.977577  0.585265  0.250000  1
  Hf  Hf3  1  0.607773  0.022224  0.250000  1
  Hf  Hf4  1  0.414854  0.392676  0.250000  1
  Zr  Zr5  1  0.587266  0.989432  0.750000  1
  Al  Al6  1  0.740058  0.741126  0.999574  1
  Al  Al7  1  0.258629  0.998634  0.000310  1
  Al  Al8  1  0.001431  0.259954  0.999551  1
  Al  Al9  1  0.740058  0.741126  0.500426  1
  Al  Al10  1  0.258629  0.998634  0.499690  1
  Al  Al11  1  0.001431  0.259954  0.500449  1
  Ir  Ir12  1  0.667366  0.335947  0.983367  1
  Ir  Ir13  1  0.667366  0.335947  0.516633  1
  Pt  Pt14  1  0.002999  0.999968  0.750000  1
  Pt  Pt15  1  0.000174  0.000158  0.250000  1
  Pt  Pt16  1  0.331893  0.664913  0.469872  1
  Pt  Pt17  1  0.331893  0.664913  0.030129  1
