# generated using pymatgen
data_Ti8Al14GaRh7
_symmetry_space_group_name_H-M   'P 1'
_cell_length_a   8.63460160
_cell_length_b   8.63460269
_cell_length_c   8.63460200
_cell_angle_alpha   120.03656013
_cell_angle_beta   119.86874392
_cell_angle_gamma   90.08208797
_symmetry_Int_Tables_number   1
_chemical_formula_structural   Ti8Al14GaRh7
_chemical_formula_sum   'Ti8 Al14 Ga1 Rh7'
_cell_volume   455.53426507
_cell_formula_units_Z   1
loop_
 _symmetry_equiv_pos_site_id
 _symmetry_equiv_pos_as_xyz
  1  'x, y, z'
loop_
 _atom_site_type_symbol
 _atom_site_label
 _atom_site_symmetry_multiplicity
 _atom_site_fract_x
 _atom_site_fract_y
 _atom_site_fract_z
 _atom_site_occupancy
  Ti  Ti0  1  0.793014  0.292151  0.076667  1
  Ti  Ti1  1  0.215483  0.292151  0.499137  1
  Ti  Ti2  1  0.206315  0.706315  0.500000  1
  Ti  Ti3  1  0.215483  0.716346  0.923333  1
  Ti  Ti4  1  0.793014  0.716346  0.500863  1
  Ti  Ti5  1  0.783870  0.283870  0.500000  1
  Ti  Ti6  1  0.379224  0.122627  0.743404  1
  Ti  Ti7  1  0.379224  0.635820  0.256596  1
  Al  Al8  1  0.155009  0.342058  0.187049  1
  Al  Al9  1  0.155009  0.967960  0.812951  1
  Al  Al10  1  0.151351  0.345737  0.805614  1
  Al  Al11  1  0.540122  0.345737  0.194386  1
  Al  Al12  1  0.844654  0.653836  0.809182  1
  Al  Al13  1  0.844654  0.035471  0.190818  1
  Al  Al14  1  0.842526  0.655869  0.186657  1
  Al  Al15  1  0.469211  0.655869  0.813343  1
  Al  Al16  1  0.379371  0.121171  0.258200  1
  Al  Al17  1  0.862972  0.121171  0.741800  1
  Al  Al18  1  0.621072  0.877799  0.256727  1
  Al  Al19  1  0.621072  0.364345  0.743273  1
  Al  Al20  1  0.620732  0.878330  0.742403  1
  Al  Al21  1  0.135926  0.878330  0.257597  1
  Ga  Ga22  1  0.995300  0.495300  0.500000  1
  Rh  Rh23  1  0.001313  0.000284  0.501949  1
  Rh  Rh24  1  0.498335  0.000284  0.998971  1
  Rh  Rh25  1  0.497630  0.497630  0.000000  1
  Rh  Rh26  1  0.498335  0.499363  0.498051  1
  Rh  Rh27  1  0.001313  0.499363  0.001029  1
  Rh  Rh28  1  0.999119  0.999119  0.000000  1
  Rh  Rh29  1  0.499345  0.999345  0.500000  1
