# generated using pymatgen
data_Dy3AuO7
_symmetry_space_group_name_H-M   'P 1'
_cell_length_a   6.49009693
_cell_length_b   6.49009694
_cell_length_c   7.43841600
_cell_angle_alpha   90.00000000
_cell_angle_beta   90.00000000
_cell_angle_gamma   108.87968067
_symmetry_Int_Tables_number   1
_chemical_formula_structural   Dy3AuO7
_chemical_formula_sum   'Dy6 Au2 O14'
_cell_volume   296.45982839
_cell_formula_units_Z   2
loop_
 _symmetry_equiv_pos_site_id
 _symmetry_equiv_pos_as_xyz
  1  'x, y, z'
loop_
 _atom_site_type_symbol
 _atom_site_label
 _atom_site_symmetry_multiplicity
 _atom_site_fract_x
 _atom_site_fract_y
 _atom_site_fract_z
 _atom_site_occupancy
  Dy  Dy0  1  0.002402  0.471156  0.750000  1
  Dy  Dy1  1  0.500000  0.500000  0.000000  1
  Dy  Dy2  1  0.997598  0.528844  0.250000  1
  Dy  Dy3  1  0.471156  0.002402  0.250000  1
  Dy  Dy4  1  0.528844  0.997598  0.750000  1
  Dy  Dy5  1  0.500000  0.500000  0.500000  1
  Au  Au6  1  0.000000  0.000000  0.000000  1
  Au  Au7  1  0.000000  0.000000  0.500000  1
  O  O8  1  0.081585  0.329988  0.475375  1
  O  O9  1  0.920161  0.079839  0.750000  1
  O  O10  1  0.081585  0.329988  0.024625  1
  O  O11  1  0.918415  0.670012  0.524625  1
  O  O12  1  0.638714  0.361286  0.750000  1
  O  O13  1  0.670012  0.918415  0.475375  1
  O  O14  1  0.329988  0.081585  0.524625  1
  O  O15  1  0.329988  0.081585  0.975375  1
  O  O16  1  0.670012  0.918415  0.024625  1
  O  O17  1  0.918415  0.670012  0.975375  1
  O  O18  1  0.631535  0.368465  0.250000  1
  O  O19  1  0.361286  0.638714  0.250000  1
  O  O20  1  0.368465  0.631535  0.750000  1
  O  O21  1  0.079839  0.920161  0.250000  1
