# generated using pymatgen
data_Tb9HoIr5Au
_symmetry_space_group_name_H-M   'P 1'
_cell_length_a   11.10116472
_cell_length_b   11.03987900
_cell_length_c   6.34907714
_cell_angle_alpha   90.00000000
_cell_angle_beta   89.85986602
_cell_angle_gamma   90.00000000
_symmetry_Int_Tables_number   1
_chemical_formula_structural   Tb9HoIr5Au
_chemical_formula_sum   'Tb18 Ho2 Ir10 Au2'
_cell_volume   778.11209348
_cell_formula_units_Z   2
loop_
 _symmetry_equiv_pos_site_id
 _symmetry_equiv_pos_as_xyz
  1  'x, y, z'
loop_
 _atom_site_type_symbol
 _atom_site_label
 _atom_site_symmetry_multiplicity
 _atom_site_fract_x
 _atom_site_fract_y
 _atom_site_fract_z
 _atom_site_occupancy
  Tb  Tb0  1  0.291854  0.088796  0.372274  1
  Tb  Tb1  1  0.291854  0.911204  0.872274  1
  Tb  Tb2  1  0.697717  0.092314  0.865399  1
  Tb  Tb3  1  0.697717  0.907686  0.365399  1
  Tb  Tb4  1  0.577967  0.789308  0.877612  1
  Tb  Tb5  1  0.577967  0.210692  0.377612  1
  Tb  Tb6  1  0.408411  0.790450  0.376904  1
  Tb  Tb7  1  0.408411  0.209550  0.876904  1
  Tb  Tb8  1  0.210379  0.411464  0.620913  1
  Tb  Tb9  1  0.210379  0.588536  0.120913  1
  Tb  Tb10  1  0.789049  0.419722  0.122981  1
  Tb  Tb11  1  0.789049  0.580278  0.622981  1
  Tb  Tb12  1  0.917291  0.705244  0.139349  1
  Tb  Tb13  1  0.917291  0.294756  0.639349  1
  Tb  Tb14  1  0.096352  0.702423  0.623829  1
  Tb  Tb15  1  0.096352  0.297577  0.123829  1
  Tb  Tb16  1  0.009292  0.997072  0.499650  1
  Tb  Tb17  1  0.009292  0.002928  0.999650  1
  Ho  Ho18  1  0.499569  0.498869  0.000739  1
  Ho  Ho19  1  0.499569  0.501131  0.500739  1
  Ir  Ir20  1  0.154149  0.154016  0.750493  1
  Ir  Ir21  1  0.154149  0.845984  0.250493  1
  Ir  Ir22  1  0.654766  0.347618  0.748303  1
  Ir  Ir23  1  0.654766  0.652382  0.248303  1
  Ir  Ir24  1  0.348833  0.347327  0.251415  1
  Ir  Ir25  1  0.348833  0.652673  0.751415  1
  Ir  Ir26  1  0.499744  0.999490  0.119817  1
  Ir  Ir27  1  0.499744  0.000510  0.619817  1
  Ir  Ir28  1  0.999551  0.501098  0.880077  1
  Ir  Ir29  1  0.999551  0.498902  0.380077  1
  Au  Au30  1  0.845076  0.155277  0.250248  1
  Au  Au31  1  0.845076  0.844723  0.750248  1
