# generated using pymatgen
data_CrMo7(SO4)16
_symmetry_space_group_name_H-M   'P 1'
_cell_length_a   9.21340300
_cell_length_b   9.33816200
_cell_length_c   13.78773800
_cell_angle_alpha   90.00000000
_cell_angle_beta   90.00000000
_cell_angle_gamma   90.00000000
_symmetry_Int_Tables_number   1
_chemical_formula_structural   CrMo7(SO4)16
_chemical_formula_sum   'Cr1 Mo7 S16 O64'
_cell_volume   1186.24527054
_cell_formula_units_Z   1
loop_
 _symmetry_equiv_pos_site_id
 _symmetry_equiv_pos_as_xyz
  1  'x, y, z'
loop_
 _atom_site_type_symbol
 _atom_site_label
 _atom_site_symmetry_multiplicity
 _atom_site_fract_x
 _atom_site_fract_y
 _atom_site_fract_z
 _atom_site_occupancy
  Cr  Cr0  1  0.105887  0.138249  0.875720  1
  Mo  Mo1  1  0.893793  0.859159  0.124067  1
  Mo  Mo2  1  0.608675  0.861069  0.629212  1
  Mo  Mo3  1  0.391668  0.640773  0.124799  1
  Mo  Mo4  1  0.105064  0.641540  0.628984  1
  Mo  Mo5  1  0.893669  0.359385  0.373236  1
  Mo  Mo6  1  0.608330  0.354546  0.870910  1
  Mo  Mo7  1  0.393243  0.140567  0.373203  1
  S  S8  1  0.938097  0.929414  0.721710  1
  S  S9  1  0.564734  0.924649  0.219034  1
  S  S10  1  0.312981  0.843200  0.488289  1
  S  S11  1  0.188063  0.847566  0.985158  1
  S  S12  1  0.811962  0.656956  0.487653  1
  S  S13  1  0.687436  0.655041  0.984861  1
  S  S14  1  0.064268  0.575386  0.219547  1
  S  S15  1  0.436388  0.573070  0.719287  1
  S  S16  1  0.564934  0.425079  0.279468  1
  S  S17  1  0.940709  0.419411  0.782081  1
  S  S18  1  0.308739  0.340900  0.010806  1
  S  S19  1  0.187965  0.343634  0.513863  1
  S  S20  1  0.815535  0.159555  0.013336  1
  S  S21  1  0.687889  0.157286  0.513841  1
  S  S22  1  0.427719  0.073795  0.781653  1
  S  S23  1  0.064794  0.074869  0.279434  1
  O  O24  1  0.300533  0.004286  0.472038  1
  O  O25  1  0.197996  0.005959  0.971047  1
  O  O26  1  0.013639  0.986706  0.356646  1
  O  O27  1  0.483547  0.988403  0.859008  1
  O  O28  1  0.526904  0.971934  0.319601  1
  O  O29  1  0.977287  0.980195  0.820525  1
  O  O30  1  0.771697  0.914521  0.723266  1
  O  O31  1  0.729825  0.910272  0.219689  1
  O  O32  1  0.274717  0.818171  0.075952  1
  O  O33  1  0.224512  0.817003  0.578038  1
  O  O34  1  0.029936  0.813899  0.014697  1
  O  O35  1  0.469652  0.814756  0.518483  1
  O  O36  1  0.992983  0.773481  0.717840  1
  O  O37  1  0.508087  0.770165  0.213428  1
  O  O38  1  0.274848  0.760931  0.405238  1
  O  O39  1  0.226710  0.762779  0.903173  1
  O  O40  1  0.773444  0.738731  0.404495  1
  O  O41  1  0.727108  0.736616  0.901806  1
  O  O42  1  0.008164  0.729410  0.214476  1
  O  O43  1  0.493399  0.726031  0.717751  1
  O  O44  1  0.968890  0.686887  0.517403  1
  O  O45  1  0.530272  0.683526  0.013337  1
  O  O46  1  0.775089  0.680770  0.074735  1
  O  O47  1  0.723935  0.682951  0.577539  1
  O  O48  1  0.229972  0.588623  0.219952  1
  O  O49  1  0.272080  0.585283  0.723736  1
  O  O50  1  0.480356  0.520667  0.819903  1
  O  O51  1  0.027669  0.527528  0.320112  1
  O  O52  1  0.513901  0.513271  0.356720  1
  O  O53  1  0.983198  0.511915  0.859314  1
  O  O54  1  0.800479  0.495844  0.471941  1
  O  O55  1  0.698754  0.493385  0.968738  1
  O  O56  1  0.297266  0.501778  0.026219  1
  O  O57  1  0.198511  0.504942  0.530545  1
  O  O58  1  0.487167  0.485320  0.641872  1
  O  O59  1  0.013018  0.486177  0.142871  1
  O  O60  1  0.526639  0.472697  0.179270  1
  O  O61  1  0.965917  0.476079  0.681995  1
  O  O62  1  0.730562  0.411916  0.278593  1
  O  O63  1  0.768097  0.401452  0.783898  1
  O  O64  1  0.275802  0.318644  0.423678  1
  O  O65  1  0.219432  0.309297  0.923682  1
  O  O66  1  0.468094  0.318470  0.977382  1
  O  O67  1  0.031089  0.314063  0.484646  1
  O  O68  1  0.509735  0.270242  0.284766  1
  O  O69  1  0.996682  0.270871  0.783932  1
  O  O70  1  0.281165  0.258997  0.095751  1
  O  O71  1  0.227917  0.261583  0.596539  1
  O  O72  1  0.770408  0.241250  0.095117  1
  O  O73  1  0.727315  0.239281  0.596755  1
  O  O74  1  0.494107  0.229938  0.785553  1
  O  O75  1  0.009586  0.229708  0.284510  1
  O  O76  1  0.531086  0.185933  0.484804  1
  O  O77  1  0.966542  0.189547  0.981943  1
  O  O78  1  0.775745  0.182321  0.423844  1
  O  O79  1  0.722186  0.188284  0.921195  1
  O  O80  1  0.268219  0.096320  0.778876  1
  O  O81  1  0.230366  0.088052  0.278562  1
  O  O82  1  0.471126  0.026585  0.681724  1
  O  O83  1  0.026572  0.027506  0.179155  1
  O  O84  1  0.986585  0.013947  0.641936  1
  O  O85  1  0.513336  0.013839  0.142430  1
  O  O86  1  0.797371  0.999046  0.026982  1
  O  O87  1  0.700231  0.995915  0.530194  1
