# generated using pymatgen
data_Dy8Tm2Si5As
_symmetry_space_group_name_H-M   'P 1'
_cell_length_a   8.43702004
_cell_length_b   8.43701888
_cell_length_c   6.29234119
_cell_angle_alpha   90.01391189
_cell_angle_beta   90.01391358
_cell_angle_gamma   120.12444115
_symmetry_Int_Tables_number   1
_chemical_formula_structural   Dy8Tm2Si5As
_chemical_formula_sum   'Dy8 Tm2 Si5 As1'
_cell_volume   387.41371717
_cell_formula_units_Z   1
loop_
 _symmetry_equiv_pos_site_id
 _symmetry_equiv_pos_as_xyz
  1  'x, y, z'
loop_
 _atom_site_type_symbol
 _atom_site_label
 _atom_site_symmetry_multiplicity
 _atom_site_fract_x
 _atom_site_fract_y
 _atom_site_fract_z
 _atom_site_occupancy
  Dy  Dy0  1  0.669003  0.332959  0.501318  1
  Dy  Dy1  1  0.332959  0.669003  0.501318  1
  Dy  Dy2  1  0.757954  0.757954  0.248785  1
  Dy  Dy3  1  0.243108  0.996525  0.248705  1
  Dy  Dy4  1  0.996525  0.243108  0.248705  1
  Dy  Dy5  1  0.243336  0.243336  0.751227  1
  Dy  Dy6  1  0.755936  0.000323  0.751314  1
  Dy  Dy7  1  0.000323  0.755936  0.751314  1
  Tm  Tm8  1  0.333062  0.668827  0.998649  1
  Tm  Tm9  1  0.668827  0.333062  0.998649  1
  Si  Si10  1  0.605485  0.999857  0.245216  1
  Si  Si11  1  0.999857  0.605485  0.245216  1
  Si  Si12  1  0.606383  0.606383  0.754248  1
  Si  Si13  1  0.394573  0.000855  0.754941  1
  Si  Si14  1  0.000855  0.394573  0.754941  1
  As  As15  1  0.391813  0.391813  0.245455  1
