# generated using pymatgen
data_HoLu5Sc2(Co4P3)4
_symmetry_space_group_name_H-M   'P 1'
_cell_length_a   3.69295000
_cell_length_b   10.60054400
_cell_length_c   12.26060800
_cell_angle_alpha   90.00000000
_cell_angle_beta   90.00000000
_cell_angle_gamma   90.00000000
_symmetry_Int_Tables_number   1
_chemical_formula_structural   HoLu5Sc2(Co4P3)4
_chemical_formula_sum   'Ho1 Lu5 Sc2 Co16 P12'
_cell_volume   479.96944165
_cell_formula_units_Z   1
loop_
 _symmetry_equiv_pos_site_id
 _symmetry_equiv_pos_as_xyz
  1  'x, y, z'
loop_
 _atom_site_type_symbol
 _atom_site_label
 _atom_site_symmetry_multiplicity
 _atom_site_fract_x
 _atom_site_fract_y
 _atom_site_fract_z
 _atom_site_occupancy
  Ho  Ho0  1  0.500000  0.000000  0.471295  1
  Lu  Lu1  1  0.000000  0.500000  0.528613  1
  Lu  Lu2  1  0.500000  0.823213  0.205371  1
  Lu  Lu3  1  0.500000  0.176787  0.205371  1
  Lu  Lu4  1  0.000000  0.676558  0.794345  1
  Lu  Lu5  1  0.000000  0.323442  0.794345  1
  Sc  Sc6  1  0.500000  0.500000  0.158482  1
  Sc  Sc7  1  0.000000  0.000000  0.842241  1
  Co  Co8  1  0.000000  0.500000  0.987476  1
  Co  Co9  1  0.500000  0.000000  0.012280  1
  Co  Co10  1  0.500000  0.296431  0.433200  1
  Co  Co11  1  0.500000  0.703569  0.433200  1
  Co  Co12  1  0.000000  0.205372  0.567039  1
  Co  Co13  1  0.000000  0.794628  0.567039  1
  Co  Co14  1  0.500000  0.876467  0.703162  1
  Co  Co15  1  0.500000  0.123533  0.703162  1
  Co  Co16  1  0.000000  0.623010  0.297212  1
  Co  Co17  1  0.000000  0.376990  0.297212  1
  Co  Co18  1  0.500000  0.331270  0.994748  1
  Co  Co19  1  0.500000  0.668730  0.994748  1
  Co  Co20  1  0.000000  0.169067  0.005183  1
  Co  Co21  1  0.000000  0.830933  0.005183  1
  Co  Co22  1  0.500000  0.500000  0.705203  1
  Co  Co23  1  0.000000  0.000000  0.293472  1
  P  P24  1  0.500000  0.311858  0.616574  1
  P  P25  1  0.500000  0.688142  0.616574  1
  P  P26  1  0.000000  0.189408  0.383106  1
  P  P27  1  0.000000  0.810592  0.383106  1
  P  P28  1  0.500000  0.500000  0.884781  1
  P  P29  1  0.000000  0.000000  0.114740  1
  P  P30  1  0.500000  0.837986  0.890891  1
  P  P31  1  0.500000  0.162014  0.890891  1
  P  P32  1  0.000000  0.661679  0.109115  1
  P  P33  1  0.000000  0.338321  0.109115  1
  P  P34  1  0.500000  0.500000  0.362649  1
  P  P35  1  0.000000  0.000000  0.638875  1
