# generated using pymatgen
data_Ac2NdMg3Tl2Zn
_symmetry_space_group_name_H-M   'P 1'
_cell_length_a   7.86839978
_cell_length_b   7.86839795
_cell_length_c   4.88347300
_cell_angle_alpha   90.00000000
_cell_angle_beta   90.00000000
_cell_angle_gamma   119.63520948
_symmetry_Int_Tables_number   1
_chemical_formula_structural   Ac2NdMg3Tl2Zn
_chemical_formula_sum   'Ac2 Nd1 Mg3 Tl2 Zn1'
_cell_volume   262.79485603
_cell_formula_units_Z   1
loop_
 _symmetry_equiv_pos_site_id
 _symmetry_equiv_pos_as_xyz
  1  'x, y, z'
loop_
 _atom_site_type_symbol
 _atom_site_label
 _atom_site_symmetry_multiplicity
 _atom_site_fract_x
 _atom_site_fract_y
 _atom_site_fract_z
 _atom_site_occupancy
  Ac  Ac0  1  0.584579  0.998223  0.000000  1
  Ac  Ac1  1  0.998223  0.584579  0.000000  1
  Nd  Nd2  1  0.411627  0.411627  0.000000  1
  Mg  Mg3  1  0.230660  0.002736  0.500000  1
  Mg  Mg4  1  0.002736  0.230660  0.500000  1
  Mg  Mg5  1  0.768597  0.768597  0.500000  1
  Tl  Tl6  1  0.336306  0.656243  0.500000  1
  Tl  Tl7  1  0.656243  0.336306  0.500000  1
  Zn  Zn8  1  0.011030  0.011030  0.000000  1
