# generated using pymatgen
data_Cs6SmErBr12
_symmetry_space_group_name_H-M   'P 1'
_cell_length_a   10.01039703
_cell_length_b   10.02046604
_cell_length_c   8.33111500
_cell_angle_alpha   90.00000000
_cell_angle_beta   90.00000000
_cell_angle_gamma   89.99065824
_symmetry_Int_Tables_number   1
_chemical_formula_structural   Cs6SmErBr12
_chemical_formula_sum   'Cs6 Sm1 Er1 Br12'
_cell_volume   835.68449922
_cell_formula_units_Z   1
loop_
 _symmetry_equiv_pos_site_id
 _symmetry_equiv_pos_as_xyz
  1  'x, y, z'
loop_
 _atom_site_type_symbol
 _atom_site_label
 _atom_site_symmetry_multiplicity
 _atom_site_fract_x
 _atom_site_fract_y
 _atom_site_fract_z
 _atom_site_occupancy
  Cs  Cs0  1  0.000000  0.000000  0.500000  1
  Cs  Cs1  1  0.000000  0.000000  0.000000  1
  Cs  Cs2  1  0.234114  0.582622  0.500000  1
  Cs  Cs3  1  0.765886  0.417378  0.500000  1
  Cs  Cs4  1  0.416709  0.237343  0.000000  1
  Cs  Cs5  1  0.583291  0.762657  0.000000  1
  Sm  Sm6  1  0.500000  0.000000  0.500000  1
  Er  Er7  1  0.000000  0.500000  0.000000  1
  Br  Br8  1  0.695437  0.058012  0.743797  1
  Br  Br9  1  0.304563  0.941988  0.743797  1
  Br  Br10  1  0.943425  0.690442  0.238323  1
  Br  Br11  1  0.056575  0.309558  0.238323  1
  Br  Br12  1  0.304563  0.941988  0.256203  1
  Br  Br13  1  0.695437  0.058012  0.256203  1
  Br  Br14  1  0.056575  0.309558  0.761677  1
  Br  Br15  1  0.943425  0.690442  0.761677  1
  Br  Br16  1  0.572164  0.723621  0.500000  1
  Br  Br17  1  0.427836  0.276379  0.500000  1
  Br  Br18  1  0.269051  0.570344  0.000000  1
  Br  Br19  1  0.730949  0.429656  0.000000  1
