# generated using pymatgen
data_Tb3In3Pd2Au
_symmetry_space_group_name_H-M   'P 1'
_cell_length_a   7.87649400
_cell_length_b   7.87649546
_cell_length_c   3.78985500
_cell_angle_alpha   90.00000000
_cell_angle_beta   90.00000000
_cell_angle_gamma   120.00000229
_symmetry_Int_Tables_number   1
_chemical_formula_structural   Tb3In3Pd2Au
_chemical_formula_sum   'Tb3 In3 Pd2 Au1'
_cell_volume   203.61941676
_cell_formula_units_Z   1
loop_
 _symmetry_equiv_pos_site_id
 _symmetry_equiv_pos_as_xyz
  1  'x, y, z'
loop_
 _atom_site_type_symbol
 _atom_site_label
 _atom_site_symmetry_multiplicity
 _atom_site_fract_x
 _atom_site_fract_y
 _atom_site_fract_z
 _atom_site_occupancy
  Tb  Tb0  1  0.588941  0.990874  0.500000  1
  Tb  Tb1  1  0.401932  0.411059  0.500000  1
  Tb  Tb2  1  0.009126  0.598068  0.500000  1
  In  In3  1  0.737620  0.741104  0.000000  1
  In  In4  1  0.258896  0.996517  0.000000  1
  In  In5  1  0.003483  0.262380  0.000000  1
  Pd  Pd6  1  0.000000  0.000000  0.500000  1
  Pd  Pd7  1  0.333333  0.666667  0.000000  1
  Au  Au8  1  0.666667  0.333333  0.000000  1
