# generated using pymatgen
data_Tb9Dy3Th4(MgRu)4
_symmetry_space_group_name_H-M   'P 1'
_cell_length_a   9.77705952
_cell_length_b   9.77616282
_cell_length_c   9.77899312
_cell_angle_alpha   59.99648603
_cell_angle_beta   60.01133471
_cell_angle_gamma   60.01612018
_symmetry_Int_Tables_number   1
_chemical_formula_structural   Tb9Dy3Th4(MgRu)4
_chemical_formula_sum   'Tb9 Dy3 Th4 Mg4 Ru4'
_cell_volume   661.05008781
_cell_formula_units_Z   1
loop_
 _symmetry_equiv_pos_site_id
 _symmetry_equiv_pos_as_xyz
  1  'x, y, z'
loop_
 _atom_site_type_symbol
 _atom_site_label
 _atom_site_symmetry_multiplicity
 _atom_site_fract_x
 _atom_site_fract_y
 _atom_site_fract_z
 _atom_site_occupancy
  Tb  Tb0  1  0.063507  0.436493  0.063507  1
  Tb  Tb1  1  0.436607  0.436267  0.063568  1
  Tb  Tb2  1  0.063568  0.063558  0.436607  1
  Tb  Tb3  1  0.185934  0.814510  0.813899  1
  Tb  Tb4  1  0.813899  0.185658  0.185934  1
  Tb  Tb5  1  0.814348  0.185652  0.814348  1
  Tb  Tb6  1  0.185961  0.814039  0.185961  1
  Tb  Tb7  1  0.813873  0.814473  0.185964  1
  Tb  Tb8  1  0.185964  0.185690  0.813873  1
  Dy  Dy9  1  0.063373  0.436438  0.436782  1
  Dy  Dy10  1  0.436782  0.063407  0.063373  1
  Dy  Dy11  1  0.436566  0.063434  0.436566  1
  Th  Th12  1  0.596070  0.595902  0.595596  1
  Th  Th13  1  0.595911  0.596196  0.212169  1
  Th  Th14  1  0.595596  0.212434  0.596070  1
  Th  Th15  1  0.212169  0.595726  0.595911  1
  Mg  Mg16  1  0.829281  0.829836  0.829512  1
  Mg  Mg17  1  0.829254  0.829572  0.511369  1
  Mg  Mg18  1  0.829512  0.511371  0.829281  1
  Mg  Mg19  1  0.511369  0.829806  0.829254  1
  Ru  Ru20  1  0.393418  0.393033  0.393880  1
  Ru  Ru21  1  0.394082  0.393201  0.819078  1
  Ru  Ru22  1  0.393880  0.819669  0.393418  1
  Ru  Ru23  1  0.819078  0.393639  0.394082  1
