# generated using pymatgen
data_Y12Sc7V(GaO4)12
_symmetry_space_group_name_H-M   'P 1'
_cell_length_a   10.91444526
_cell_length_b   10.91263790
_cell_length_c   10.90405840
_cell_angle_alpha   109.51317534
_cell_angle_beta   109.42582121
_cell_angle_gamma   109.49266134
_symmetry_Int_Tables_number   1
_chemical_formula_structural   Y12Sc7V(GaO4)12
_chemical_formula_sum   'Y12 Sc7 V1 Ga12 O48'
_cell_volume   999.54186953
_cell_formula_units_Z   1
loop_
 _symmetry_equiv_pos_site_id
 _symmetry_equiv_pos_as_xyz
  1  'x, y, z'
loop_
 _atom_site_type_symbol
 _atom_site_label
 _atom_site_symmetry_multiplicity
 _atom_site_fract_x
 _atom_site_fract_y
 _atom_site_fract_z
 _atom_site_occupancy
  Y  Y0  1  0.249798  0.375103  0.124587  1
  Y  Y1  1  0.376131  0.750965  0.123779  1
  Y  Y2  1  0.875007  0.625135  0.250246  1
  Y  Y3  1  0.374589  0.124052  0.248454  1
  Y  Y4  1  0.125154  0.250144  0.374884  1
  Y  Y5  1  0.749316  0.124505  0.373295  1
  Y  Y6  1  0.874838  0.749834  0.625112  1
  Y  Y7  1  0.250682  0.875508  0.626692  1
  Y  Y8  1  0.124990  0.374853  0.749737  1
  Y  Y9  1  0.625424  0.875957  0.751548  1
  Y  Y10  1  0.623877  0.249055  0.876215  1
  Y  Y11  1  0.750207  0.624893  0.875429  1
  Sc  Sc12  1  0.999993  0.999994  0.999997  1
  Sc  Sc13  1  0.000027  0.499994  0.000007  1
  Sc  Sc14  1  0.499978  0.500000  0.000004  1
  Sc  Sc15  1  0.000000  0.000004  0.500008  1
  Sc  Sc16  1  0.499997  0.500000  0.499996  1
  Sc  Sc17  1  0.499997  0.999996  0.500005  1
  Sc  Sc18  1  0.000007  0.500014  0.500013  1
  V  V19  1  0.499984  0.999986  0.999972  1
  Ga  Ga20  1  0.748458  0.875443  0.123586  1
  Ga  Ga21  1  0.872949  0.248416  0.124841  1
  Ga  Ga22  1  0.624580  0.372734  0.247841  1
  Ga  Ga23  1  0.124941  0.875024  0.250102  1
  Ga  Ga24  1  0.624923  0.749857  0.374961  1
  Ga  Ga25  1  0.249769  0.624846  0.374827  1
  Ga  Ga26  1  0.750238  0.375159  0.625185  1
  Ga  Ga27  1  0.375077  0.250148  0.625046  1
  Ga  Ga28  1  0.875063  0.124978  0.749900  1
  Ga  Ga29  1  0.375425  0.627268  0.752168  1
  Ga  Ga30  1  0.127043  0.751587  0.875164  1
  Ga  Ga31  1  0.251536  0.124551  0.876412  1
  O  O32  1  0.321426  0.904925  0.029464  1
  O  O33  1  0.212963  0.126719  0.031303  1
  O  O34  1  0.712498  0.683160  0.086292  1
  O  O35  1  0.872809  0.402705  0.085814  1
  O  O36  1  0.969008  0.682067  0.096094  1
  O  O37  1  0.626821  0.413990  0.095633  1
  O  O38  1  0.594670  0.915131  0.124304  1
  O  O39  1  0.029154  0.212345  0.126087  1
  O  O40  1  0.212917  0.586234  0.182228  1
  O  O41  1  0.469278  0.595891  0.182239  1
  O  O42  1  0.583109  0.177453  0.205772  1
  O  O43  1  0.126901  0.030709  0.213002  1
  O  O44  1  0.317581  0.913707  0.286296  1
  O  O45  1  0.470425  0.372363  0.287147  1
  O  O46  1  0.902868  0.030042  0.317148  1
  O  O47  1  0.913677  0.287026  0.318233  1
  O  O48  1  0.586460  0.904068  0.372713  1
  O  O49  1  0.287027  0.469021  0.372909  1
  O  O50  1  0.816754  0.529054  0.403127  1
  O  O51  1  0.086334  0.873426  0.404122  1
  O  O52  1  0.096140  0.626883  0.413955  1
  O  O53  1  0.817812  0.786880  0.414012  1
  O  O54  1  0.595919  0.182361  0.468231  1
  O  O55  1  0.373371  0.286992  0.469301  1
  O  O56  1  0.626625  0.713018  0.530707  1
  O  O57  1  0.404081  0.817650  0.531767  1
  O  O58  1  0.182176  0.213107  0.585989  1
  O  O59  1  0.903861  0.373113  0.586045  1
  O  O60  1  0.913677  0.126576  0.595889  1
  O  O61  1  0.183262  0.470946  0.596886  1
  O  O62  1  0.413549  0.095933  0.627282  1
  O  O63  1  0.712975  0.530988  0.627101  1
  O  O64  1  0.086328  0.712977  0.681776  1
  O  O65  1  0.097127  0.969946  0.682867  1
  O  O66  1  0.682423  0.086292  0.713696  1
  O  O67  1  0.529577  0.627654  0.712864  1
  O  O68  1  0.416861  0.822515  0.794173  1
  O  O69  1  0.873103  0.969292  0.786994  1
  O  O70  1  0.530710  0.404107  0.817763  1
  O  O71  1  0.787097  0.413772  0.817783  1
  O  O72  1  0.970844  0.787665  0.873916  1
  O  O73  1  0.405311  0.084864  0.875663  1
  O  O74  1  0.031007  0.317931  0.903909  1
  O  O75  1  0.373178  0.586013  0.904377  1
  O  O76  1  0.287484  0.316830  0.913706  1
  O  O77  1  0.127204  0.597292  0.914180  1
  O  O78  1  0.678567  0.095061  0.970516  1
  O  O79  1  0.787049  0.873292  0.968700  1
