# generated using pymatgen
data_Dy4FeMoOs6
_symmetry_space_group_name_H-M   'P 1'
_cell_length_a   5.25193202
_cell_length_b   5.25193286
_cell_length_c   8.88904500
_cell_angle_alpha   90.00000000
_cell_angle_beta   90.00000000
_cell_angle_gamma   117.73087057
_symmetry_Int_Tables_number   1
_chemical_formula_structural   Dy4FeMoOs6
_chemical_formula_sum   'Dy4 Fe1 Mo1 Os6'
_cell_volume   217.02353150
_cell_formula_units_Z   1
loop_
 _symmetry_equiv_pos_site_id
 _symmetry_equiv_pos_as_xyz
  1  'x, y, z'
loop_
 _atom_site_type_symbol
 _atom_site_label
 _atom_site_symmetry_multiplicity
 _atom_site_fract_x
 _atom_site_fract_y
 _atom_site_fract_z
 _atom_site_occupancy
  Dy  Dy0  1  0.328425  0.671575  0.439610  1
  Dy  Dy1  1  0.667350  0.332650  0.566691  1
  Dy  Dy2  1  0.667350  0.332650  0.933309  1
  Dy  Dy3  1  0.328425  0.671575  0.060390  1
  Fe  Fe4  1  0.171341  0.828659  0.750000  1
  Mo  Mo5  1  0.836473  0.163527  0.250000  1
  Os  Os6  1  0.995990  0.004010  0.504496  1
  Os  Os7  1  0.995990  0.004010  0.995504  1
  Os  Os8  1  0.824841  0.652536  0.250000  1
  Os  Os9  1  0.347464  0.175159  0.250000  1
  Os  Os10  1  0.178166  0.341814  0.750000  1
  Os  Os11  1  0.658186  0.821834  0.750000  1
