# generated using pymatgen
data_Ho4In(FeB3)2
_symmetry_space_group_name_H-M   'P 1'
_cell_length_a   5.34015652
_cell_length_b   5.34015510
_cell_length_c   8.17574471
_cell_angle_alpha   70.93835344
_cell_angle_beta   70.93836068
_cell_angle_gamma   60.00000979
_symmetry_Int_Tables_number   1
_chemical_formula_structural   Ho4In(FeB3)2
_chemical_formula_sum   'Ho4 In1 Fe2 B6'
_cell_volume   187.00628484
_cell_formula_units_Z   1
loop_
 _symmetry_equiv_pos_site_id
 _symmetry_equiv_pos_as_xyz
  1  'x, y, z'
loop_
 _atom_site_type_symbol
 _atom_site_label
 _atom_site_symmetry_multiplicity
 _atom_site_fract_x
 _atom_site_fract_y
 _atom_site_fract_z
 _atom_site_occupancy
  Ho  Ho0  1  0.250791  0.250791  0.247628  1
  Ho  Ho1  1  0.749209  0.749209  0.752372  1
  Ho  Ho2  1  0.415870  0.415870  0.752390  1
  Ho  Ho3  1  0.584130  0.584130  0.247610  1
  In  In4  1  0.000000  0.000000  0.000000  1
  Fe  Fe5  1  0.116285  0.116285  0.651146  1
  Fe  Fe6  1  0.883715  0.883715  0.348854  1
  B  B7  1  0.168207  0.831793  0.500000  1
  B  B8  1  0.831793  0.500000  0.500000  1
  B  B9  1  0.500000  0.168207  0.500000  1
  B  B10  1  0.168207  0.500000  0.500000  1
  B  B11  1  0.500000  0.831793  0.500000  1
  B  B12  1  0.831793  0.168207  0.500000  1
