# generated using pymatgen
data_Ce2Dy11Y3(CdIr)4
_symmetry_space_group_name_H-M   'P 1'
_cell_length_a   9.64003439
_cell_length_b   9.63927297
_cell_length_c   9.68042612
_cell_angle_alpha   59.87599875
_cell_angle_beta   59.87060500
_cell_angle_gamma   59.76038870
_symmetry_Int_Tables_number   1
_chemical_formula_structural   Ce2Dy11Y3(CdIr)4
_chemical_formula_sum   'Ce2 Dy11 Y3 Cd4 Ir4'
_cell_volume   633.69222019
_cell_formula_units_Z   1
loop_
 _symmetry_equiv_pos_site_id
 _symmetry_equiv_pos_as_xyz
  1  'x, y, z'
loop_
 _atom_site_type_symbol
 _atom_site_label
 _atom_site_symmetry_multiplicity
 _atom_site_fract_x
 _atom_site_fract_y
 _atom_site_fract_z
 _atom_site_occupancy
  Ce  Ce0  1  0.345853  0.345867  0.348751  1
  Ce  Ce1  1  0.346118  0.345760  0.959382  1
  Dy  Dy2  1  0.351801  0.947690  0.350264  1
  Dy  Dy3  1  0.947669  0.351798  0.350342  1
  Dy  Dy4  1  0.811579  0.188825  0.190070  1
  Dy  Dy5  1  0.189051  0.811556  0.809503  1
  Dy  Dy6  1  0.188968  0.811591  0.189955  1
  Dy  Dy7  1  0.811511  0.189002  0.809553  1
  Dy  Dy8  1  0.188597  0.188462  0.811507  1
  Dy  Dy9  1  0.811565  0.811643  0.188519  1
  Dy  Dy10  1  0.939177  0.562156  0.562750  1
  Dy  Dy11  1  0.561895  0.939463  0.935880  1
  Dy  Dy12  1  0.562197  0.939098  0.562923  1
  Y  Y13  1  0.939159  0.562194  0.935832  1
  Y  Y14  1  0.562407  0.562577  0.937367  1
  Y  Y15  1  0.938455  0.938495  0.561486  1
  Cd  Cd16  1  0.580295  0.580319  0.581239  1
  Cd  Cd17  1  0.580310  0.580324  0.258261  1
  Cd  Cd18  1  0.579914  0.255642  0.582272  1
  Cd  Cd19  1  0.255755  0.579925  0.582182  1
  Ir  Ir20  1  0.144202  0.144106  0.139774  1
  Ir  Ir21  1  0.143978  0.143963  0.572105  1
  Ir  Ir22  1  0.147059  0.572506  0.140063  1
  Ir  Ir23  1  0.572488  0.147039  0.140020  1
