# generated using pymatgen
data_Tm3Ta3C5
_symmetry_space_group_name_H-M   'P 1'
_cell_length_a   5.70637923
_cell_length_b   5.70637964
_cell_length_c   5.84811305
_cell_angle_alpha   99.47228202
_cell_angle_beta   99.47228614
_cell_angle_gamma   119.95454954
_symmetry_Int_Tables_number   1
_chemical_formula_structural   Tm3Ta3C5
_chemical_formula_sum   'Tm3 Ta3 C5'
_cell_volume   155.81302673
_cell_formula_units_Z   1
loop_
 _symmetry_equiv_pos_site_id
 _symmetry_equiv_pos_as_xyz
  1  'x, y, z'
loop_
 _atom_site_type_symbol
 _atom_site_label
 _atom_site_symmetry_multiplicity
 _atom_site_fract_x
 _atom_site_fract_y
 _atom_site_fract_z
 _atom_site_occupancy
  Tm  Tm0  1  0.421020  0.082321  0.246943  1
  Tm  Tm1  1  0.082321  0.421020  0.246943  1
  Tm  Tm2  1  0.747633  0.747633  0.262343  1
  Ta  Ta3  1  0.274703  0.274703  0.736536  1
  Ta  Ta4  1  0.912965  0.550287  0.742020  1
  Ta  Ta5  1  0.550287  0.912965  0.742020  1
  C  C6  1  0.657330  0.324140  0.969864  1
  C  C7  1  0.324140  0.657330  0.969864  1
  C  C8  1  0.842218  0.176178  0.527206  1
  C  C9  1  0.511210  0.511210  0.529054  1
  C  C10  1  0.176178  0.842218  0.527206  1
