# generated using pymatgen
data_YbDy3(Al5Pt3)4
_symmetry_space_group_name_H-M   'P 1'
_cell_length_a   4.08018000
_cell_length_b   7.42705678
_cell_length_c   20.58640155
_cell_angle_alpha   90.11583760
_cell_angle_beta   90.00000000
_cell_angle_gamma   90.00000000
_symmetry_Int_Tables_number   1
_chemical_formula_structural   YbDy3(Al5Pt3)4
_chemical_formula_sum   'Yb1 Dy3 Al20 Pt12'
_cell_volume   623.84344934
_cell_formula_units_Z   1
loop_
 _symmetry_equiv_pos_site_id
 _symmetry_equiv_pos_as_xyz
  1  'x, y, z'
loop_
 _atom_site_type_symbol
 _atom_site_label
 _atom_site_symmetry_multiplicity
 _atom_site_fract_x
 _atom_site_fract_y
 _atom_site_fract_z
 _atom_site_occupancy
  Yb  Yb0  1  0.250000  0.116536  0.639654  1
  Dy  Dy1  1  0.750000  0.884425  0.360128  1
  Dy  Dy2  1  0.250000  0.384375  0.139838  1
  Dy  Dy3  1  0.750000  0.615105  0.860201  1
  Al  Al4  1  0.750000  0.353839  0.381718  1
  Al  Al5  1  0.750000  0.884100  0.984051  1
  Al  Al6  1  0.750000  0.685385  0.200422  1
  Al  Al7  1  0.250000  0.870456  0.491241  1
  Al  Al8  1  0.250000  0.630353  0.991352  1
  Al  Al9  1  0.250000  0.314906  0.799955  1
  Al  Al10  1  0.750000  0.074118  0.209024  1
  Al  Al11  1  0.250000  0.645490  0.618394  1
  Al  Al12  1  0.250000  0.573922  0.291032  1
  Al  Al13  1  0.250000  0.185665  0.299620  1
  Al  Al14  1  0.750000  0.145056  0.882026  1
  Al  Al15  1  0.250000  0.925953  0.791131  1
  Al  Al16  1  0.750000  0.369519  0.009013  1
  Al  Al17  1  0.750000  0.615769  0.484019  1
  Al  Al18  1  0.750000  0.130420  0.508247  1
  Al  Al19  1  0.250000  0.115765  0.016054  1
  Al  Al20  1  0.250000  0.854776  0.118008  1
  Al  Al21  1  0.250000  0.382979  0.516123  1
  Al  Al22  1  0.750000  0.427525  0.709064  1
  Al  Al23  1  0.750000  0.812739  0.700105  1
  Pt  Pt24  1  0.750000  0.382226  0.259059  1
  Pt  Pt25  1  0.250000  0.881710  0.240860  1
  Pt  Pt26  1  0.250000  0.617851  0.741365  1
  Pt  Pt27  1  0.750000  0.118594  0.759389  1
  Pt  Pt28  1  0.250000  0.160004  0.425991  1
  Pt  Pt29  1  0.750000  0.418326  0.585469  1
  Pt  Pt30  1  0.750000  0.081977  0.085653  1
  Pt  Pt31  1  0.250000  0.917782  0.913992  1
  Pt  Pt32  1  0.750000  0.839933  0.573203  1
  Pt  Pt33  1  0.250000  0.340093  0.925992  1
  Pt  Pt34  1  0.750000  0.659967  0.073909  1
  Pt  Pt35  1  0.250000  0.582359  0.414699  1
