# generated using pymatgen
data_BaSc2(SeO3)4
_symmetry_space_group_name_H-M   'P 1'
_cell_length_a   5.44112600
_cell_length_b   10.52458001
_cell_length_c   14.43029036
_cell_angle_alpha   49.62318909
_cell_angle_beta   90.00000000
_cell_angle_gamma   90.00000000
_symmetry_Int_Tables_number   1
_chemical_formula_structural   BaSc2(SeO3)4
_chemical_formula_sum   'Ba2 Sc4 Se8 O24'
_cell_volume   629.52055101
_cell_formula_units_Z   2
loop_
 _symmetry_equiv_pos_site_id
 _symmetry_equiv_pos_as_xyz
  1  'x, y, z'
loop_
 _atom_site_type_symbol
 _atom_site_label
 _atom_site_symmetry_multiplicity
 _atom_site_fract_x
 _atom_site_fract_y
 _atom_site_fract_z
 _atom_site_occupancy
  Ba  Ba0  1  0.056499  0.000000  0.750000  1
  Ba  Ba1  1  0.943501  0.000000  0.250000  1
  Sc  Sc2  1  0.000000  0.500000  0.500000  1
  Sc  Sc3  1  0.500000  0.000000  0.000000  1
  Sc  Sc4  1  0.500000  0.000000  0.500000  1
  Sc  Sc5  1  0.000000  0.500000  0.000000  1
  Se  Se6  1  0.496489  0.332580  0.184530  1
  Se  Se7  1  0.011647  0.745099  0.594935  1
  Se  Se8  1  0.011647  0.254901  0.905065  1
  Se  Se9  1  0.988353  0.254901  0.405065  1
  Se  Se10  1  0.503511  0.332580  0.684530  1
  Se  Se11  1  0.503511  0.667420  0.815470  1
  Se  Se12  1  0.496489  0.667420  0.315470  1
  Se  Se13  1  0.988353  0.745099  0.094935  1
  O  O14  1  0.216521  0.708281  0.348310  1
  O  O15  1  0.281500  0.808754  0.036374  1
  O  O16  1  0.783479  0.708281  0.848310  1
  O  O17  1  0.815970  0.905832  0.969594  1
  O  O18  1  0.718500  0.808754  0.536374  1
  O  O19  1  0.306792  0.343465  0.585723  1
  O  O20  1  0.184030  0.094168  0.030406  1
  O  O21  1  0.693208  0.343465  0.085723  1
  O  O22  1  0.783479  0.291719  0.651690  1
  O  O23  1  0.584465  0.134365  0.314202  1
  O  O24  1  0.693208  0.656535  0.414277  1
  O  O25  1  0.281500  0.191246  0.463626  1
  O  O26  1  0.584465  0.865635  0.185798  1
  O  O27  1  0.815970  0.094168  0.530406  1
  O  O28  1  0.415535  0.134365  0.814202  1
  O  O29  1  0.055294  0.416813  0.904479  1
  O  O30  1  0.718500  0.191246  0.963626  1
  O  O31  1  0.944706  0.416813  0.404479  1
  O  O32  1  0.055294  0.583187  0.595521  1
  O  O33  1  0.415535  0.865635  0.685798  1
  O  O34  1  0.306792  0.656535  0.914277  1
  O  O35  1  0.184030  0.905832  0.469594  1
  O  O36  1  0.944706  0.583187  0.095521  1
  O  O37  1  0.216521  0.291719  0.151690  1
