# generated using pymatgen
data_Cs3K(SiAs)12
_symmetry_space_group_name_H-M   'P 1'
_cell_length_a   3.73833500
_cell_length_b   10.18958327
_cell_length_c   20.74287531
_cell_angle_alpha   88.75027365
_cell_angle_beta   90.00000000
_cell_angle_gamma   90.00000000
_symmetry_Int_Tables_number   1
_chemical_formula_structural   Cs3K(SiAs)12
_chemical_formula_sum   'Cs3 K1 Si12 As12'
_cell_volume   789.95122857
_cell_formula_units_Z   1
loop_
 _symmetry_equiv_pos_site_id
 _symmetry_equiv_pos_as_xyz
  1  'x, y, z'
loop_
 _atom_site_type_symbol
 _atom_site_label
 _atom_site_symmetry_multiplicity
 _atom_site_fract_x
 _atom_site_fract_y
 _atom_site_fract_z
 _atom_site_occupancy
  Cs  Cs0  1  0.000000  0.299821  0.300636  1
  Cs  Cs1  1  0.000000  0.712298  0.694077  1
  Cs  Cs2  1  0.000000  0.212529  0.806608  1
  K  K3  1  0.000000  0.797875  0.194938  1
  Si  Si4  1  0.500000  0.400541  0.038323  1
  Si  Si5  1  0.500000  0.590799  0.972122  1
  Si  Si6  1  0.500000  0.092981  0.531717  1
  Si  Si7  1  0.500000  0.909796  0.464563  1
  Si  Si8  1  0.000000  0.107309  0.016719  1
  Si  Si9  1  0.000000  0.884794  0.989536  1
  Si  Si10  1  0.000000  0.389092  0.509892  1
  Si  Si11  1  0.000000  0.613341  0.480243  1
  Si  Si12  1  0.000000  0.161708  0.126305  1
  Si  Si13  1  0.000000  0.824059  0.880330  1
  Si  Si14  1  0.000000  0.325330  0.619953  1
  Si  Si15  1  0.000000  0.686989  0.371135  1
  As  As16  1  0.500000  0.086789  0.186556  1
  As  As17  1  0.500000  0.896220  0.819554  1
  As  As18  1  0.500000  0.397170  0.679133  1
  As  As19  1  0.500000  0.620633  0.309879  1
  As  As20  1  0.500000  0.283371  0.459013  1
  As  As21  1  0.500000  0.714343  0.533722  1
  As  As22  1  0.500000  0.216569  0.965362  1
  As  As23  1  0.500000  0.778648  0.042979  1
  As  As24  1  0.000000  0.400960  0.111646  1
  As  As25  1  0.000000  0.586126  0.898625  1
  As  As26  1  0.000000  0.087257  0.605237  1
  As  As27  1  0.000000  0.922650  0.391197  1
