# generated using pymatgen
data_BaNdUSe5
_symmetry_space_group_name_H-M   'P 1'
_cell_length_a   8.06739300
_cell_length_b   8.78713378
_cell_length_c   12.58001600
_cell_angle_alpha   89.69958996
_cell_angle_beta   90.00000000
_cell_angle_gamma   90.00000000
_symmetry_Int_Tables_number   1
_chemical_formula_structural   BaNdUSe5
_chemical_formula_sum   'Ba4 Nd4 U4 Se20'
_cell_volume   891.77578677
_cell_formula_units_Z   4
loop_
 _symmetry_equiv_pos_site_id
 _symmetry_equiv_pos_as_xyz
  1  'x, y, z'
loop_
 _atom_site_type_symbol
 _atom_site_label
 _atom_site_symmetry_multiplicity
 _atom_site_fract_x
 _atom_site_fract_y
 _atom_site_fract_z
 _atom_site_occupancy
  Ba  Ba0  1  0.053072  0.494079  0.330210  1
  Ba  Ba1  1  0.553072  0.505921  0.169790  1
  Ba  Ba2  1  0.946928  0.505921  0.669790  1
  Ba  Ba3  1  0.446928  0.494079  0.830210  1
  Nd  Nd4  1  0.040419  0.998761  0.322648  1
  Nd  Nd5  1  0.540419  0.001239  0.177352  1
  Nd  Nd6  1  0.959581  0.001239  0.677352  1
  Nd  Nd7  1  0.459581  0.998761  0.822648  1
  U  U8  1  0.064178  0.755956  0.006738  1
  U  U9  1  0.564178  0.244044  0.493262  1
  U  U10  1  0.935822  0.244044  0.993262  1
  U  U11  1  0.435822  0.755956  0.506738  1
  Se  Se12  1  0.667043  0.956963  0.412838  1
  Se  Se13  1  0.167043  0.043037  0.087162  1
  Se  Se14  1  0.332957  0.043037  0.587162  1
  Se  Se15  1  0.832957  0.956963  0.912838  1
  Se  Se16  1  0.438567  0.778062  0.005232  1
  Se  Se17  1  0.938567  0.221938  0.494768  1
  Se  Se18  1  0.561433  0.221938  0.994768  1
  Se  Se19  1  0.061433  0.778062  0.505232  1
  Se  Se20  1  0.853421  0.771457  0.187111  1
  Se  Se21  1  0.353421  0.228543  0.312889  1
  Se  Se22  1  0.146579  0.228543  0.812889  1
  Se  Se23  1  0.646579  0.771457  0.687111  1
  Se  Se24  1  0.327264  0.769404  0.292765  1
  Se  Se25  1  0.827264  0.230596  0.207235  1
  Se  Se26  1  0.672736  0.230596  0.707235  1
  Se  Se27  1  0.172736  0.769404  0.792765  1
  Se  Se28  1  0.171500  0.461663  0.071120  1
  Se  Se29  1  0.671500  0.538337  0.428880  1
  Se  Se30  1  0.828500  0.538337  0.928880  1
  Se  Se31  1  0.328500  0.461663  0.571120  1
