# generated using pymatgen
data_TbPaInRh2
_symmetry_space_group_name_H-M   'P 1'
_cell_length_a   7.79142200
_cell_length_b   7.63636200
_cell_length_c   3.64772400
_cell_angle_alpha   90.00000000
_cell_angle_beta   90.00000000
_cell_angle_gamma   90.00000000
_symmetry_Int_Tables_number   1
_chemical_formula_structural   TbPaInRh2
_chemical_formula_sum   'Tb2 Pa2 In2 Rh4'
_cell_volume   217.03271622
_cell_formula_units_Z   2
loop_
 _symmetry_equiv_pos_site_id
 _symmetry_equiv_pos_as_xyz
  1  'x, y, z'
loop_
 _atom_site_type_symbol
 _atom_site_label
 _atom_site_symmetry_multiplicity
 _atom_site_fract_x
 _atom_site_fract_y
 _atom_site_fract_z
 _atom_site_occupancy
  Tb  Tb0  1  0.170607  0.330081  0.500000  1
  Tb  Tb1  1  0.670607  0.169919  0.500000  1
  Pa  Pa2  1  0.323592  0.837673  0.500000  1
  Pa  Pa3  1  0.823592  0.662327  0.500000  1
  In  In4  1  0.490913  0.490228  0.000000  1
  In  In5  1  0.990913  0.009772  0.000000  1
  Rh  Rh6  1  0.370750  0.095073  0.000000  1
  Rh  Rh7  1  0.644137  0.842661  0.000000  1
  Rh  Rh8  1  0.870750  0.404927  0.000000  1
  Rh  Rh9  1  0.144137  0.657339  0.000000  1
