# generated using pymatgen
data_Nd5Al2Os2Ru
_symmetry_space_group_name_H-M   'P 1'
_cell_length_a   8.59203960
_cell_length_b   8.57426067
_cell_length_c   8.57515976
_cell_angle_alpha   109.45422945
_cell_angle_beta   109.75490001
_cell_angle_gamma   109.36243591
_symmetry_Int_Tables_number   1
_chemical_formula_structural   Nd5Al2Os2Ru
_chemical_formula_sum   'Nd10 Al4 Os4 Ru2'
_cell_volume   485.35541252
_cell_formula_units_Z   2
loop_
 _symmetry_equiv_pos_site_id
 _symmetry_equiv_pos_as_xyz
  1  'x, y, z'
loop_
 _atom_site_type_symbol
 _atom_site_label
 _atom_site_symmetry_multiplicity
 _atom_site_fract_x
 _atom_site_fract_y
 _atom_site_fract_z
 _atom_site_occupancy
  Nd  Nd0  1  0.249074  0.680992  0.433365  1
  Nd  Nd1  1  0.749729  0.818373  0.066146  1
  Nd  Nd2  1  0.432438  0.248488  0.681399  1
  Nd  Nd3  1  0.681718  0.432962  0.250617  1
  Nd  Nd4  1  0.067584  0.751014  0.819137  1
  Nd  Nd5  1  0.818205  0.067571  0.748764  1
  Nd  Nd6  1  0.213510  0.213937  0.214080  1
  Nd  Nd7  1  0.499520  0.999653  0.286177  1
  Nd  Nd8  1  0.286908  0.499979  0.000241  1
  Nd  Nd9  1  0.999481  0.286095  0.499338  1
  Al  Al10  1  0.589985  0.589032  0.590079  1
  Al  Al11  1  0.500434  0.001413  0.910920  1
  Al  Al12  1  0.910530  0.500124  0.000584  1
  Al  Al13  1  0.001115  0.910504  0.499413  1
  Os  Os14  1  0.250059  0.117478  0.867182  1
  Os  Os15  1  0.749677  0.382410  0.632634  1
  Os  Os16  1  0.866557  0.250139  0.116846  1
  Os  Os17  1  0.116836  0.866797  0.249995  1
  Ru  Ru18  1  0.633330  0.749677  0.383172  1
  Ru  Ru19  1  0.383304  0.633360  0.749910  1
