# generated using pymatgen
data_Th4Pd3PtPb2
_symmetry_space_group_name_H-M   'P 1'
_cell_length_a   8.03554121
_cell_length_b   8.03554121
_cell_length_c   3.85723800
_cell_angle_alpha   90.00000000
_cell_angle_beta   90.00000000
_cell_angle_gamma   89.82654838
_symmetry_Int_Tables_number   1
_chemical_formula_structural   Th4Pd3PtPb2
_chemical_formula_sum   'Th4 Pd3 Pt1 Pb2'
_cell_volume   249.06041731
_cell_formula_units_Z   1
loop_
 _symmetry_equiv_pos_site_id
 _symmetry_equiv_pos_as_xyz
  1  'x, y, z'
loop_
 _atom_site_type_symbol
 _atom_site_label
 _atom_site_symmetry_multiplicity
 _atom_site_fract_x
 _atom_site_fract_y
 _atom_site_fract_z
 _atom_site_occupancy
  Th  Th0  1  0.670571  0.175792  0.500000  1
  Th  Th1  1  0.177782  0.322218  0.500000  1
  Th  Th2  1  0.826665  0.673335  0.500000  1
  Th  Th3  1  0.324208  0.829429  0.500000  1
  Pd  Pd4  1  0.125450  0.625214  0.000000  1
  Pd  Pd5  1  0.628285  0.871715  0.000000  1
  Pd  Pd6  1  0.874786  0.374550  0.000000  1
  Pt  Pt7  1  0.376701  0.123299  0.000000  1
  Pb  Pb8  1  0.995131  0.999580  0.000000  1
  Pb  Pb9  1  0.500420  0.504869  0.000000  1
