# generated using pymatgen
data_SrTbMnFeO6
_symmetry_space_group_name_H-M   'P 1'
_cell_length_a   5.54098900
_cell_length_b   5.45028714
_cell_length_c   7.70826356
_cell_angle_alpha   90.11721801
_cell_angle_beta   90.00003570
_cell_angle_gamma   90.00029268
_symmetry_Int_Tables_number   1
_chemical_formula_structural   SrTbMnFeO6
_chemical_formula_sum   'Sr2 Tb2 Mn2 Fe2 O12'
_cell_volume   232.78892630
_cell_formula_units_Z   2
loop_
 _symmetry_equiv_pos_site_id
 _symmetry_equiv_pos_as_xyz
  1  'x, y, z'
loop_
 _atom_site_type_symbol
 _atom_site_label
 _atom_site_symmetry_multiplicity
 _atom_site_fract_x
 _atom_site_fract_y
 _atom_site_fract_z
 _atom_site_occupancy
  Sr  Sr0  1  0.528465  0.495262  0.750592  1
  Sr  Sr1  1  0.971538  0.995240  0.250600  1
  Tb  Tb2  1  0.053825  0.016675  0.750595  1
  Tb  Tb3  1  0.446178  0.516702  0.250584  1
  Mn  Mn4  1  0.997959  0.500087  0.999932  1
  Mn  Mn5  1  0.502043  0.000125  0.499953  1
  Fe  Fe6  1  0.507721  0.000909  0.000920  1
  Fe  Fe7  1  0.992274  0.500915  0.500927  1
  O  O8  1  0.987520  0.598765  0.754245  1
  O  O9  1  0.512478  0.098778  0.254236  1
  O  O10  1  0.471924  0.940643  0.745539  1
  O  O11  1  0.028078  0.440636  0.245540  1
  O  O12  1  0.266078  0.274511  0.960578  1
  O  O13  1  0.233935  0.774505  0.460586  1
  O  O14  1  0.790499  0.198039  0.547795  1
  O  O15  1  0.709498  0.698023  0.047779  1
  O  O16  1  0.700741  0.709280  0.452445  1
  O  O17  1  0.799267  0.209260  0.952443  1
  O  O18  1  0.226192  0.765824  0.037347  1
  O  O19  1  0.273785  0.265821  0.537362  1
