# generated using pymatgen
data_Ce3Ho4Th(ReB6)4
_symmetry_space_group_name_H-M   'P 1'
_cell_length_a   3.73463900
_cell_length_b   9.21726700
_cell_length_c   11.61725300
_cell_angle_alpha   90.00279201
_cell_angle_beta   90.00000000
_cell_angle_gamma   90.00000000
_symmetry_Int_Tables_number   1
_chemical_formula_structural   Ce3Ho4Th(ReB6)4
_chemical_formula_sum   'Ce3 Ho4 Th1 Re4 B24'
_cell_volume   399.90261444
_cell_formula_units_Z   1
loop_
 _symmetry_equiv_pos_site_id
 _symmetry_equiv_pos_as_xyz
  1  'x, y, z'
loop_
 _atom_site_type_symbol
 _atom_site_label
 _atom_site_symmetry_multiplicity
 _atom_site_fract_x
 _atom_site_fract_y
 _atom_site_fract_z
 _atom_site_occupancy
  Ce  Ce0  1  0.000000  0.322858  0.414438  1
  Ce  Ce1  1  0.000000  0.677078  0.585294  1
  Ce  Ce2  1  0.000000  0.822200  0.086061  1
  Ho  Ho3  1  0.000000  0.944368  0.372895  1
  Ho  Ho4  1  0.000000  0.055094  0.626451  1
  Ho  Ho5  1  0.000000  0.445057  0.128167  1
  Ho  Ho6  1  0.000000  0.556195  0.872355  1
  Th  Th7  1  0.000000  0.177477  0.914234  1
  Re  Re8  1  0.000000  0.638666  0.320918  1
  Re  Re9  1  0.000000  0.361795  0.678309  1
  Re  Re10  1  0.000000  0.138709  0.180537  1
  Re  Re11  1  0.000000  0.860235  0.820150  1
  B  B12  1  0.500000  0.554778  0.431628  1
  B  B13  1  0.500000  0.445557  0.567980  1
  B  B14  1  0.500000  0.054057  0.070013  1
  B  B15  1  0.500000  0.943622  0.931396  1
  B  B16  1  0.500000  0.748889  0.418475  1
  B  B17  1  0.500000  0.251188  0.580853  1
  B  B18  1  0.500000  0.249498  0.083511  1
  B  B19  1  0.500000  0.750496  0.918402  1
  B  B20  1  0.500000  0.791498  0.266144  1
  B  B21  1  0.500000  0.209131  0.732532  1
  B  B22  1  0.500000  0.291765  0.234786  1
  B  B23  1  0.500000  0.708279  0.765685  1
  B  B24  1  0.500000  0.631582  0.186030  1
  B  B25  1  0.500000  0.369939  0.813072  1
  B  B26  1  0.500000  0.131410  0.314629  1
  B  B27  1  0.500000  0.867934  0.685285  1
  B  B28  1  0.500000  0.983513  0.213695  1
  B  B29  1  0.500000  0.014602  0.785874  1
  B  B30  1  0.500000  0.484008  0.287229  1
  B  B31  1  0.500000  0.516565  0.712531  1
  B  B32  1  0.500000  0.604896  0.029007  1
  B  B33  1  0.500000  0.397369  0.971709  1
  B  B34  1  0.500000  0.105765  0.470709  1
  B  B35  1  0.500000  0.893927  0.529018  1
