# generated using pymatgen
data_NdDyBi2(TeO4)4
_symmetry_space_group_name_H-M   'P 1'
_cell_length_a   7.08839801
_cell_length_b   7.08839687
_cell_length_c   10.32204452
_cell_angle_alpha   66.38882131
_cell_angle_beta   66.38882603
_cell_angle_gamma   46.82068173
_symmetry_Int_Tables_number   1
_chemical_formula_structural   NdDyBi2(TeO4)4
_chemical_formula_sum   'Nd1 Dy1 Bi2 Te4 O16'
_cell_volume   340.27342930
_cell_formula_units_Z   1
loop_
 _symmetry_equiv_pos_site_id
 _symmetry_equiv_pos_as_xyz
  1  'x, y, z'
loop_
 _atom_site_type_symbol
 _atom_site_label
 _atom_site_symmetry_multiplicity
 _atom_site_fract_x
 _atom_site_fract_y
 _atom_site_fract_z
 _atom_site_occupancy
  Nd  Nd0  1  0.947994  0.052006  0.000000  1
  Dy  Dy1  1  0.058915  0.941085  0.500000  1
  Bi  Bi2  1  0.677167  0.775220  0.898344  1
  Bi  Bi3  1  0.224780  0.322833  0.101656  1
  Te  Te4  1  0.502771  0.500375  0.748102  1
  Te  Te5  1  0.499625  0.497229  0.251898  1
  Te  Te6  1  0.370635  0.193851  0.619467  1
  Te  Te7  1  0.806149  0.629365  0.380533  1
  O  O8  1  0.793777  0.344102  0.590233  1
  O  O9  1  0.655898  0.206223  0.409767  1
  O  O10  1  0.193304  0.651984  0.902256  1
  O  O11  1  0.348016  0.806696  0.097744  1
  O  O12  1  0.715575  0.484842  0.832115  1
  O  O13  1  0.515158  0.284425  0.167885  1
  O  O14  1  0.289593  0.500681  0.658948  1
  O  O15  1  0.499319  0.710407  0.341052  1
  O  O16  1  0.909401  0.716463  0.166104  1
  O  O17  1  0.283537  0.090599  0.833896  1
  O  O18  1  0.077005  0.272599  0.349009  1
  O  O19  1  0.727401  0.922995  0.650991  1
  O  O20  1  0.154831  0.650208  0.374434  1
  O  O21  1  0.349792  0.845169  0.625566  1
  O  O22  1  0.843373  0.364216  0.124373  1
  O  O23  1  0.635784  0.156627  0.875627  1
