# generated using pymatgen
data_Pr5Y11Cd4RuPt3
_symmetry_space_group_name_H-M   'P 1'
_cell_length_a   9.82908231
_cell_length_b   9.82949744
_cell_length_c   9.82951202
_cell_angle_alpha   59.70745836
_cell_angle_beta   59.74792915
_cell_angle_gamma   59.74795967
_symmetry_Int_Tables_number   1
_chemical_formula_structural   Pr5Y11Cd4RuPt3
_chemical_formula_sum   'Pr5 Y11 Cd4 Ru1 Pt3'
_cell_volume   667.47357946
_cell_formula_units_Z   1
loop_
 _symmetry_equiv_pos_site_id
 _symmetry_equiv_pos_as_xyz
  1  'x, y, z'
loop_
 _atom_site_type_symbol
 _atom_site_label
 _atom_site_symmetry_multiplicity
 _atom_site_fract_x
 _atom_site_fract_y
 _atom_site_fract_z
 _atom_site_occupancy
  Pr  Pr0  1  0.557164  0.940340  0.940339  1
  Pr  Pr1  1  0.564180  0.935834  0.561518  1
  Pr  Pr2  1  0.938111  0.559264  0.936641  1
  Pr  Pr3  1  0.564180  0.561521  0.935835  1
  Pr  Pr4  1  0.938112  0.936646  0.559271  1
  Y  Y5  1  0.351715  0.352576  0.352578  1
  Y  Y6  1  0.346299  0.349387  0.953323  1
  Y  Y7  1  0.346302  0.953321  0.349388  1
  Y  Y8  1  0.952815  0.347733  0.347729  1
  Y  Y9  1  0.816631  0.187582  0.187582  1
  Y  Y10  1  0.188036  0.810807  0.810811  1
  Y  Y11  1  0.187411  0.816133  0.187507  1
  Y  Y12  1  0.810891  0.188381  0.810170  1
  Y  Y13  1  0.187413  0.187505  0.816131  1
  Y  Y14  1  0.810892  0.810170  0.188376  1
  Y  Y15  1  0.940942  0.558026  0.558026  1
  Cd  Cd16  1  0.582767  0.578499  0.578501  1
  Cd  Cd17  1  0.579291  0.580313  0.260966  1
  Cd  Cd18  1  0.579290  0.260970  0.580312  1
  Cd  Cd19  1  0.258912  0.578743  0.578743  1
  Ru  Ru20  1  0.141362  0.142312  0.142306  1
  Pt  Pt21  1  0.142394  0.146395  0.573438  1
  Pt  Pt22  1  0.142393  0.573437  0.146400  1
  Pt  Pt23  1  0.572493  0.144105  0.144105  1
