# generated using pymatgen
data_Y3ErTm4(WO6)4
_symmetry_space_group_name_H-M   'P 1'
_cell_length_a   5.37745800
_cell_length_b   7.67284075
_cell_length_c   11.39348349
_cell_angle_alpha   75.44791603
_cell_angle_beta   90.00000000
_cell_angle_gamma   90.00000000
_symmetry_Int_Tables_number   1
_chemical_formula_structural   Y3ErTm4(WO6)4
_chemical_formula_sum   'Y3 Er1 Tm4 W4 O24'
_cell_volume   455.01848380
_cell_formula_units_Z   1
loop_
 _symmetry_equiv_pos_site_id
 _symmetry_equiv_pos_as_xyz
  1  'x, y, z'
loop_
 _atom_site_type_symbol
 _atom_site_label
 _atom_site_symmetry_multiplicity
 _atom_site_fract_x
 _atom_site_fract_y
 _atom_site_fract_z
 _atom_site_occupancy
  Y  Y0  1  0.258138  0.000000  0.250000  1
  Y  Y1  1  0.684384  0.500000  0.750000  1
  Y  Y2  1  0.316250  0.500000  0.250000  1
  Er  Er3  1  0.741203  0.000000  0.750000  1
  Tm  Tm4  1  0.183629  0.794534  0.579158  1
  Tm  Tm5  1  0.815952  0.794337  0.078433  1
  Tm  Tm6  1  0.183629  0.205466  0.920842  1
  Tm  Tm7  1  0.815952  0.205663  0.421567  1
  W  W8  1  0.255681  0.724399  0.885667  1
  W  W9  1  0.744445  0.723430  0.386256  1
  W  W10  1  0.255681  0.275601  0.614333  1
  W  W11  1  0.744445  0.276570  0.113744  1
  O  O12  1  0.043905  0.941225  0.895952  1
  O  O13  1  0.537103  0.845799  0.931645  1
  O  O14  1  0.953675  0.940739  0.397393  1
  O  O15  1  0.457949  0.792913  0.726152  1
  O  O16  1  0.463476  0.844189  0.432745  1
  O  O17  1  0.981633  0.713196  0.770279  1
  O  O18  1  0.544063  0.790956  0.226336  1
  O  O19  1  0.853418  0.634752  0.549498  1
  O  O20  1  0.357831  0.489069  0.886339  1
  O  O21  1  0.018174  0.712177  0.270677  1
  O  O22  1  0.357831  0.510931  0.613661  1
  O  O23  1  0.853418  0.365248  0.950502  1
  O  O24  1  0.147296  0.635850  0.049086  1
  O  O25  1  0.641782  0.488214  0.386980  1
  O  O26  1  0.981633  0.286804  0.729721  1
  O  O27  1  0.641782  0.511786  0.113020  1
  O  O28  1  0.147296  0.364150  0.450914  1
  O  O29  1  0.457949  0.207087  0.773848  1
  O  O30  1  0.018174  0.287823  0.229323  1
  O  O31  1  0.537103  0.154201  0.568355  1
  O  O32  1  0.544063  0.209044  0.273664  1
  O  O33  1  0.043905  0.058775  0.604048  1
  O  O34  1  0.463476  0.155811  0.067255  1
  O  O35  1  0.953675  0.059261  0.102607  1
