# generated using pymatgen
data_Sr3(GdPb2)2
_symmetry_space_group_name_H-M   'P 1'
_cell_length_a   8.24335000
_cell_length_b   8.84897100
_cell_length_c   16.66730400
_cell_angle_alpha   90.00000000
_cell_angle_beta   90.00000000
_cell_angle_gamma   90.00000000
_symmetry_Int_Tables_number   1
_chemical_formula_structural   Sr3(GdPb2)2
_chemical_formula_sum   'Sr12 Gd8 Pb16'
_cell_volume   1215.79924193
_cell_formula_units_Z   4
loop_
 _symmetry_equiv_pos_site_id
 _symmetry_equiv_pos_as_xyz
  1  'x, y, z'
loop_
 _atom_site_type_symbol
 _atom_site_label
 _atom_site_symmetry_multiplicity
 _atom_site_fract_x
 _atom_site_fract_y
 _atom_site_fract_z
 _atom_site_occupancy
  Sr  Sr0  1  0.500354  0.681416  0.591222  1
  Sr  Sr1  1  0.000354  0.818584  0.908778  1
  Sr  Sr2  1  0.499646  0.318584  0.091222  1
  Sr  Sr3  1  0.999646  0.181416  0.408778  1
  Sr  Sr4  1  0.499646  0.318584  0.408778  1
  Sr  Sr5  1  0.999646  0.181416  0.091222  1
  Sr  Sr6  1  0.500354  0.681416  0.908778  1
  Sr  Sr7  1  0.000354  0.818584  0.591222  1
  Sr  Sr8  1  0.828222  0.513837  0.750000  1
  Sr  Sr9  1  0.328222  0.986163  0.750000  1
  Sr  Sr10  1  0.171778  0.486163  0.250000  1
  Sr  Sr11  1  0.671778  0.013837  0.250000  1
  Gd  Gd12  1  0.672303  0.165369  0.621004  1
  Gd  Gd13  1  0.172303  0.334631  0.878996  1
  Gd  Gd14  1  0.327697  0.834631  0.121004  1
  Gd  Gd15  1  0.827697  0.665369  0.378996  1
  Gd  Gd16  1  0.327697  0.834631  0.378996  1
  Gd  Gd17  1  0.827697  0.665369  0.121004  1
  Gd  Gd18  1  0.672303  0.165369  0.878996  1
  Gd  Gd19  1  0.172303  0.334631  0.621004  1
  Pb  Pb20  1  0.670188  0.956728  0.460230  1
  Pb  Pb21  1  0.170188  0.543272  0.039770  1
  Pb  Pb22  1  0.329812  0.043272  0.960230  1
  Pb  Pb23  1  0.829812  0.456728  0.539770  1
  Pb  Pb24  1  0.329812  0.043272  0.539770  1
  Pb  Pb25  1  0.829812  0.456728  0.960230  1
  Pb  Pb26  1  0.670188  0.956728  0.039770  1
  Pb  Pb27  1  0.170188  0.543272  0.460230  1
  Pb  Pb28  1  0.466592  0.359070  0.750000  1
  Pb  Pb29  1  0.966592  0.140930  0.750000  1
  Pb  Pb30  1  0.533408  0.640930  0.250000  1
  Pb  Pb31  1  0.033408  0.859070  0.250000  1
  Pb  Pb32  1  0.716589  0.882488  0.750000  1
  Pb  Pb33  1  0.216589  0.617512  0.750000  1
  Pb  Pb34  1  0.283411  0.117512  0.250000  1
  Pb  Pb35  1  0.783411  0.382488  0.250000  1
