# generated using pymatgen
data_Ho3Lu2Tl2Sb
_symmetry_space_group_name_H-M   'P 1'
_cell_length_a   6.47727100
_cell_length_b   8.89996521
_cell_length_c   8.87519600
_cell_angle_alpha   119.85412003
_cell_angle_beta   90.00207873
_cell_angle_gamma   89.99722703
_symmetry_Int_Tables_number   1
_chemical_formula_structural   Ho3Lu2Tl2Sb
_chemical_formula_sum   'Ho6 Lu4 Tl4 Sb2'
_cell_volume   443.73684519
_cell_formula_units_Z   2
loop_
 _symmetry_equiv_pos_site_id
 _symmetry_equiv_pos_as_xyz
  1  'x, y, z'
loop_
 _atom_site_type_symbol
 _atom_site_label
 _atom_site_symmetry_multiplicity
 _atom_site_fract_x
 _atom_site_fract_y
 _atom_site_fract_z
 _atom_site_occupancy
  Ho  Ho0  1  0.749978  0.233903  0.995496  1
  Ho  Ho1  1  0.750022  0.765863  0.760328  1
  Ho  Ho2  1  0.750044  0.000048  0.236769  1
  Ho  Ho3  1  0.250030  0.763414  0.000483  1
  Ho  Ho4  1  0.250012  0.236399  0.237089  1
  Ho  Ho5  1  0.249988  0.999649  0.763997  1
  Lu  Lu6  1  0.495444  0.334237  0.668341  1
  Lu  Lu7  1  0.495957  0.665723  0.334294  1
  Lu  Lu8  1  0.004049  0.665753  0.334331  1
  Lu  Lu9  1  0.004526  0.334193  0.668349  1
  Tl  Tl10  1  0.749975  0.000215  0.596060  1
  Tl  Tl11  1  0.250003  0.397245  0.001737  1
  Tl  Tl12  1  0.249989  0.602698  0.604359  1
  Tl  Tl13  1  0.249990  0.999940  0.400961  1
  Sb  Sb14  1  0.749995  0.605436  0.001155  1
  Sb  Sb15  1  0.749998  0.395288  0.396251  1
