# generated using pymatgen
data_Hf16Fe4CuOs3
_symmetry_space_group_name_H-M   'P 1'
_cell_length_a   8.58786221
_cell_length_b   8.58786156
_cell_length_c   8.58786400
_cell_angle_alpha   59.90839591
_cell_angle_beta   59.90840614
_cell_angle_gamma   59.90839757
_symmetry_Int_Tables_number   1
_chemical_formula_structural   Hf16Fe4CuOs3
_chemical_formula_sum   'Hf16 Fe4 Cu1 Os3'
_cell_volume   446.92727665
_cell_formula_units_Z   1
loop_
 _symmetry_equiv_pos_site_id
 _symmetry_equiv_pos_as_xyz
  1  'x, y, z'
loop_
 _atom_site_type_symbol
 _atom_site_label
 _atom_site_symmetry_multiplicity
 _atom_site_fract_x
 _atom_site_fract_y
 _atom_site_fract_z
 _atom_site_occupancy
  Hf  Hf0  1  0.692094  0.102076  0.102076  1
  Hf  Hf1  1  0.102076  0.692094  0.102076  1
  Hf  Hf2  1  0.102076  0.102076  0.692094  1
  Hf  Hf3  1  0.102750  0.102750  0.102750  1
  Hf  Hf4  1  0.312679  0.312679  0.694469  1
  Hf  Hf5  1  0.687410  0.687410  0.312369  1
  Hf  Hf6  1  0.312679  0.694469  0.312679  1
  Hf  Hf7  1  0.687410  0.312369  0.687410  1
  Hf  Hf8  1  0.694469  0.312679  0.312679  1
  Hf  Hf9  1  0.312369  0.687410  0.687410  1
  Hf  Hf10  1  0.950102  0.950102  0.550430  1
  Hf  Hf11  1  0.551311  0.551311  0.944438  1
  Hf  Hf12  1  0.950102  0.550430  0.950102  1
  Hf  Hf13  1  0.551311  0.944438  0.551311  1
  Hf  Hf14  1  0.550430  0.950102  0.950102  1
  Hf  Hf15  1  0.944438  0.551311  0.551311  1
  Fe  Fe16  1  0.329765  0.890183  0.890183  1
  Fe  Fe17  1  0.890183  0.329765  0.890183  1
  Fe  Fe18  1  0.890183  0.890183  0.329765  1
  Fe  Fe19  1  0.890028  0.890028  0.890028  1
  Cu  Cu20  1  0.328936  0.328936  0.328936  1
  Os  Os21  1  0.001295  0.332950  0.332950  1
  Os  Os22  1  0.332950  0.001295  0.332950  1
  Os  Os23  1  0.332950  0.332950  0.001295  1
