# generated using pymatgen
data_Er5GaSb2
_symmetry_space_group_name_H-M   'P 1'
_cell_length_a   8.76971548
_cell_length_b   8.75618145
_cell_length_c   6.36603800
_cell_angle_alpha   90.00000000
_cell_angle_beta   90.00000000
_cell_angle_gamma   119.94895583
_symmetry_Int_Tables_number   1
_chemical_formula_structural   Er5GaSb2
_chemical_formula_sum   'Er10 Ga2 Sb4'
_cell_volume   423.56812124
_cell_formula_units_Z   2
loop_
 _symmetry_equiv_pos_site_id
 _symmetry_equiv_pos_as_xyz
  1  'x, y, z'
loop_
 _atom_site_type_symbol
 _atom_site_label
 _atom_site_symmetry_multiplicity
 _atom_site_fract_x
 _atom_site_fract_y
 _atom_site_fract_z
 _atom_site_occupancy
  Er  Er0  1  0.011151  0.767360  0.750000  1
  Er  Er1  1  0.011151  0.243790  0.250000  1
  Er  Er2  1  0.752871  0.753681  0.250000  1
  Er  Er3  1  0.752871  0.999191  0.750000  1
  Er  Er4  1  0.243861  0.232811  0.750000  1
  Er  Er5  1  0.243861  0.011050  0.250000  1
  Er  Er6  1  0.336467  0.668234  0.500000  1
  Er  Er7  1  0.653222  0.326611  0.000000  1
  Er  Er8  1  0.653222  0.326611  0.500000  1
  Er  Er9  1  0.336467  0.668234  0.000000  1
  Ga  Ga10  1  0.394480  0.997643  0.750000  1
  Ga  Ga11  1  0.394480  0.396837  0.250000  1
  Sb  Sb12  1  0.998958  0.607552  0.250000  1
  Sb  Sb13  1  0.998958  0.391406  0.750000  1
  Sb  Sb14  1  0.608990  0.607523  0.750000  1
  Sb  Sb15  1  0.608990  0.001467  0.250000  1
