# generated using pymatgen
data_La8Zn7InIr8
_symmetry_space_group_name_H-M   'P 1'
_cell_length_a   4.08173400
_cell_length_b   7.52477359
_cell_length_c   16.74316321
_cell_angle_alpha   90.00678543
_cell_angle_beta   90.00000000
_cell_angle_gamma   90.00000000
_symmetry_Int_Tables_number   1
_chemical_formula_structural   La8Zn7InIr8
_chemical_formula_sum   'La8 Zn7 In1 Ir8'
_cell_volume   514.25159055
_cell_formula_units_Z   1
loop_
 _symmetry_equiv_pos_site_id
 _symmetry_equiv_pos_as_xyz
  1  'x, y, z'
loop_
 _atom_site_type_symbol
 _atom_site_label
 _atom_site_symmetry_multiplicity
 _atom_site_fract_x
 _atom_site_fract_y
 _atom_site_fract_z
 _atom_site_occupancy
  La  La0  1  0.750000  0.328203  0.441941  1
  La  La1  1  0.250000  0.047578  0.716786  1
  La  La2  1  0.250000  0.547982  0.781340  1
  La  La3  1  0.250000  0.671892  0.560457  1
  La  La4  1  0.750000  0.819722  0.056643  1
  La  La5  1  0.250000  0.172790  0.937690  1
  La  La6  1  0.750000  0.459553  0.219461  1
  La  La7  1  0.750000  0.945667  0.289200  1
  Zn  Zn8  1  0.250000  0.999687  0.443062  1
  Zn  Zn9  1  0.750000  0.872524  0.849904  1
  Zn  Zn10  1  0.750000  0.001908  0.559874  1
  Zn  Zn11  1  0.250000  0.500163  0.058343  1
  Zn  Zn12  1  0.750000  0.371814  0.649374  1
  Zn  Zn13  1  0.750000  0.502209  0.937018  1
  Zn  Zn14  1  0.250000  0.623485  0.353523  1
  In  In15  1  0.250000  0.122373  0.150932  1
  Ir  Ir16  1  0.750000  0.254773  0.812898  1
  Ir  Ir17  1  0.250000  0.245933  0.315333  1
  Ir  Ir18  1  0.250000  0.740431  0.932353  1
  Ir  Ir19  1  0.250000  0.241721  0.566154  1
  Ir  Ir20  1  0.250000  0.744217  0.184916  1
  Ir  Ir21  1  0.750000  0.758934  0.436327  1
  Ir  Ir22  1  0.750000  0.270065  0.061389  1
  Ir  Ir23  1  0.750000  0.756378  0.685079  1
