# generated using pymatgen
data_TbLu4(In2Cu)2
_symmetry_space_group_name_H-M   'P 1'
_cell_length_a   3.60028100
_cell_length_b   7.94558100
_cell_length_c   17.77958800
_cell_angle_alpha   90.00000000
_cell_angle_beta   90.00000000
_cell_angle_gamma   90.00000000
_symmetry_Int_Tables_number   1
_chemical_formula_structural   TbLu4(In2Cu)2
_chemical_formula_sum   'Tb2 Lu8 In8 Cu4'
_cell_volume   508.60866040
_cell_formula_units_Z   2
loop_
 _symmetry_equiv_pos_site_id
 _symmetry_equiv_pos_as_xyz
  1  'x, y, z'
loop_
 _atom_site_type_symbol
 _atom_site_label
 _atom_site_symmetry_multiplicity
 _atom_site_fract_x
 _atom_site_fract_y
 _atom_site_fract_z
 _atom_site_occupancy
  Tb  Tb0  1  0.000000  0.500000  0.500000  1
  Tb  Tb1  1  0.000000  0.000000  0.000000  1
  Lu  Lu2  1  0.000000  0.741114  0.280280  1
  Lu  Lu3  1  0.000000  0.258886  0.719720  1
  Lu  Lu4  1  0.000000  0.758886  0.780280  1
  Lu  Lu5  1  0.000000  0.241114  0.219720  1
  Lu  Lu6  1  0.000000  0.619285  0.084328  1
  Lu  Lu7  1  0.000000  0.380715  0.915672  1
  Lu  Lu8  1  0.000000  0.880715  0.584328  1
  Lu  Lu9  1  0.000000  0.119285  0.415672  1
  In  In10  1  0.500000  0.703337  0.931876  1
  In  In11  1  0.500000  0.296663  0.068124  1
  In  In12  1  0.500000  0.796663  0.431876  1
  In  In13  1  0.500000  0.203337  0.568124  1
  In  In14  1  0.500000  0.579657  0.651759  1
  In  In15  1  0.500000  0.420343  0.348241  1
  In  In16  1  0.500000  0.920343  0.151759  1
  In  In17  1  0.500000  0.079657  0.848241  1
  Cu  Cu18  1  0.500000  0.525767  0.197223  1
  Cu  Cu19  1  0.500000  0.474233  0.802777  1
  Cu  Cu20  1  0.500000  0.974233  0.697223  1
  Cu  Cu21  1  0.500000  0.025767  0.302777  1
