# generated using pymatgen
data_Zr10AlSiGeSb5
_symmetry_space_group_name_H-M   'P 1'
_cell_length_a   8.62770738
_cell_length_b   8.66690890
_cell_length_c   5.85456326
_cell_angle_alpha   89.98309504
_cell_angle_beta   90.03396354
_cell_angle_gamma   119.85048483
_symmetry_Int_Tables_number   1
_chemical_formula_structural   Zr10AlSiGeSb5
_chemical_formula_sum   'Zr10 Al1 Si1 Ge1 Sb5'
_cell_volume   379.69689122
_cell_formula_units_Z   1
loop_
 _symmetry_equiv_pos_site_id
 _symmetry_equiv_pos_as_xyz
  1  'x, y, z'
loop_
 _atom_site_type_symbol
 _atom_site_label
 _atom_site_symmetry_multiplicity
 _atom_site_fract_x
 _atom_site_fract_y
 _atom_site_fract_z
 _atom_site_occupancy
  Zr  Zr0  1  0.270209  0.000000  0.252903  1
  Zr  Zr1  1  0.258605  0.257608  0.746946  1
  Zr  Zr2  1  0.000996  0.742392  0.746946  1
  Zr  Zr3  1  0.993837  0.264119  0.252733  1
  Zr  Zr4  1  0.729718  0.735881  0.252733  1
  Zr  Zr5  1  0.742008  0.000000  0.746993  1
  Zr  Zr6  1  0.336165  0.670426  0.003795  1
  Zr  Zr7  1  0.665697  0.329635  0.496336  1
  Zr  Zr8  1  0.665740  0.329574  0.003795  1
  Zr  Zr9  1  0.336061  0.670365  0.496336  1
  Al  Al10  1  0.607739  0.000000  0.249818  1
  Si  Si11  1  0.999324  0.000000  0.490122  1
  Ge  Ge12  1  0.999468  0.000000  0.009766  1
  Sb  Sb13  1  0.603620  0.603558  0.750450  1
  Sb  Sb14  1  0.000062  0.396442  0.750450  1
  Sb  Sb15  1  0.999090  0.609321  0.249639  1
  Sb  Sb16  1  0.389769  0.390679  0.249639  1
  Sb  Sb17  1  0.401892  0.000000  0.750598  1
