# generated using pymatgen
data_DyYAl9Ir2Pt
_symmetry_space_group_name_H-M   'P 1'
_cell_length_a   7.56990992
_cell_length_b   7.57016956
_cell_length_c   9.45575901
_cell_angle_alpha   89.95045731
_cell_angle_beta   89.94772787
_cell_angle_gamma   119.63704388
_symmetry_Int_Tables_number   1
_chemical_formula_structural   DyYAl9Ir2Pt
_chemical_formula_sum   'Dy2 Y2 Al18 Ir4 Pt2'
_cell_volume   470.97674032
_cell_formula_units_Z   2
loop_
 _symmetry_equiv_pos_site_id
 _symmetry_equiv_pos_as_xyz
  1  'x, y, z'
loop_
 _atom_site_type_symbol
 _atom_site_label
 _atom_site_symmetry_multiplicity
 _atom_site_fract_x
 _atom_site_fract_y
 _atom_site_fract_z
 _atom_site_occupancy
  Dy  Dy0  1  0.995053  0.670475  0.251008  1
  Dy  Dy1  1  0.004947  0.329525  0.748992  1
  Y  Y2  1  0.670442  0.995038  0.251000  1
  Y  Y3  1  0.329558  0.004962  0.749000  1
  Al  Al4  1  0.127743  0.127688  0.250650  1
  Al  Al5  1  0.872257  0.872312  0.749350  1
  Al  Al6  1  0.000629  0.331350  0.077208  1
  Al  Al7  1  0.999371  0.668650  0.922792  1
  Al  Al8  1  0.999915  0.665081  0.574163  1
  Al  Al9  1  0.334853  0.000043  0.425798  1
  Al  Al10  1  0.000085  0.334919  0.425837  1
  Al  Al11  1  0.665147  0.999957  0.574202  1
  Al  Al12  1  0.668728  0.999418  0.922752  1
  Al  Al13  1  0.331272  0.000582  0.077248  1
  Al  Al14  1  0.332605  0.332637  0.551509  1
  Al  Al15  1  0.667395  0.667363  0.448491  1
  Al  Al16  1  0.669195  0.669158  0.056941  1
  Al  Al17  1  0.330805  0.330842  0.943059  1
  Al  Al18  1  0.340242  0.546892  0.253094  1
  Al  Al19  1  0.659758  0.453108  0.746906  1
  Al  Al20  1  0.546945  0.340360  0.253092  1
  Al  Al21  1  0.453055  0.659640  0.746908  1
  Ir  Ir22  1  0.328094  0.671814  0.499997  1
  Ir  Ir23  1  0.671906  0.328186  0.500003  1
  Ir  Ir24  1  0.000000  0.000000  0.000000  1
  Ir  Ir25  1  0.000000  0.000000  0.500000  1
  Pt  Pt26  1  0.672020  0.328044  0.999994  1
  Pt  Pt27  1  0.327980  0.671956  0.000006  1
