# generated using pymatgen
data_La8Y3Ho9Sn16
_symmetry_space_group_name_H-M   'P 1'
_cell_length_a   8.12729200
_cell_length_b   8.32157204
_cell_length_c   15.65808100
_cell_angle_alpha   90.00000000
_cell_angle_beta   90.00000000
_cell_angle_gamma   89.78235107
_symmetry_Int_Tables_number   1
_chemical_formula_structural   La8Y3Ho9Sn16
_chemical_formula_sum   'La8 Y3 Ho9 Sn16'
_cell_volume   1058.97728022
_cell_formula_units_Z   1
loop_
 _symmetry_equiv_pos_site_id
 _symmetry_equiv_pos_as_xyz
  1  'x, y, z'
loop_
 _atom_site_type_symbol
 _atom_site_label
 _atom_site_symmetry_multiplicity
 _atom_site_fract_x
 _atom_site_fract_y
 _atom_site_fract_z
 _atom_site_occupancy
  La  La0  1  0.511284  0.322400  0.903299  1
  La  La1  1  0.011530  0.178090  0.596704  1
  La  La2  1  0.488788  0.677817  0.403603  1
  La  La3  1  0.988647  0.821916  0.096468  1
  La  La4  1  0.488788  0.677817  0.096397  1
  La  La5  1  0.988647  0.821916  0.403532  1
  La  La6  1  0.511284  0.322400  0.596701  1
  La  La7  1  0.011530  0.178090  0.903296  1
  Y  Y8  1  0.689270  0.997993  0.750000  1
  Y  Y9  1  0.810402  0.497749  0.250000  1
  Y  Y10  1  0.310634  0.002030  0.250000  1
  Ho  Ho11  1  0.355704  0.835131  0.876230  1
  Ho  Ho12  1  0.856026  0.664724  0.623588  1
  Ho  Ho13  1  0.644167  0.164884  0.376447  1
  Ho  Ho14  1  0.144026  0.335066  0.123230  1
  Ho  Ho15  1  0.644167  0.164884  0.123553  1
  Ho  Ho16  1  0.144026  0.335066  0.376770  1
  Ho  Ho17  1  0.355704  0.835131  0.623770  1
  Ho  Ho18  1  0.856026  0.664724  0.876412  1
  Ho  Ho19  1  0.189516  0.502594  0.750000  1
  Sn  Sn20  1  0.309540  0.041304  0.041705  1
  Sn  Sn21  1  0.809016  0.458059  0.458289  1
  Sn  Sn22  1  0.690599  0.958416  0.541822  1
  Sn  Sn23  1  0.190927  0.541845  0.957801  1
  Sn  Sn24  1  0.690599  0.958416  0.958178  1
  Sn  Sn25  1  0.190927  0.541845  0.542199  1
  Sn  Sn26  1  0.309540  0.041304  0.458295  1
  Sn  Sn27  1  0.809016  0.458059  0.041711  1
  Sn  Sn28  1  0.554442  0.624902  0.750000  1
  Sn  Sn29  1  0.054757  0.874382  0.750000  1
  Sn  Sn30  1  0.444839  0.374810  0.250000  1
  Sn  Sn31  1  0.945342  0.125354  0.250000  1
  Sn  Sn32  1  0.318985  0.141291  0.750000  1
  Sn  Sn33  1  0.819587  0.360132  0.750000  1
  Sn  Sn34  1  0.680732  0.859739  0.250000  1
  Sn  Sn35  1  0.180988  0.639717  0.250000  1
