# generated using pymatgen
data_Hf13Sc5Ti2(Re3P)2
_symmetry_space_group_name_H-M   'P 1'
_cell_length_a   8.65608881
_cell_length_b   8.64028002
_cell_length_c   8.50376200
_cell_angle_alpha   90.00000000
_cell_angle_beta   90.00000000
_cell_angle_gamma   119.93960034
_symmetry_Int_Tables_number   1
_chemical_formula_structural   Hf13Sc5Ti2(Re3P)2
_chemical_formula_sum   'Hf13 Sc5 Ti2 Re6 P2'
_cell_volume   551.13152228
_cell_formula_units_Z   1
loop_
 _symmetry_equiv_pos_site_id
 _symmetry_equiv_pos_as_xyz
  1  'x, y, z'
loop_
 _atom_site_type_symbol
 _atom_site_label
 _atom_site_symmetry_multiplicity
 _atom_site_fract_x
 _atom_site_fract_y
 _atom_site_fract_z
 _atom_site_occupancy
  Hf  Hf0  1  0.196496  0.803670  0.452068  1
  Hf  Hf1  1  0.196496  0.392824  0.452068  1
  Hf  Hf2  1  0.607534  0.803766  0.452195  1
  Hf  Hf3  1  0.803346  0.195993  0.548037  1
  Hf  Hf4  1  0.803346  0.607355  0.548037  1
  Hf  Hf5  1  0.392923  0.196462  0.547833  1
  Hf  Hf6  1  0.803346  0.195993  0.951963  1
  Hf  Hf7  1  0.803346  0.607355  0.951963  1
  Hf  Hf8  1  0.392923  0.196462  0.952167  1
  Hf  Hf9  1  0.196496  0.803670  0.047932  1
  Hf  Hf10  1  0.196496  0.392824  0.047932  1
  Hf  Hf11  1  0.607534  0.803766  0.047805  1
  Hf  Hf12  1  0.080667  0.540333  0.750000  1
  Sc  Sc13  1  0.540815  0.459522  0.250000  1
  Sc  Sc14  1  0.540815  0.081293  0.250000  1
  Sc  Sc15  1  0.918898  0.459449  0.250000  1
  Sc  Sc16  1  0.458933  0.541089  0.750000  1
  Sc  Sc17  1  0.458933  0.917844  0.750000  1
  Ti  Ti18  1  0.999702  0.999851  0.499283  1
  Ti  Ti19  1  0.999702  0.999851  0.000717  1
  Re  Re20  1  0.888725  0.111826  0.250000  1
  Re  Re21  1  0.888725  0.776898  0.250000  1
  Re  Re22  1  0.223083  0.111541  0.250000  1
  Re  Re23  1  0.110856  0.887066  0.750000  1
  Re  Re24  1  0.110856  0.223791  0.750000  1
  Re  Re25  1  0.777498  0.888750  0.750000  1
  P  P26  1  0.333101  0.666551  0.250000  1
  P  P27  1  0.668410  0.334204  0.750000  1
