# generated using pymatgen
data_La10PrNd5(CdPd)4
_symmetry_space_group_name_H-M   'P 1'
_cell_length_a   10.14580399
_cell_length_b   10.14714227
_cell_length_c   10.14714205
_cell_angle_alpha   60.00919839
_cell_angle_beta   60.00436478
_cell_angle_gamma   60.00436335
_symmetry_Int_Tables_number   1
_chemical_formula_structural   La10PrNd5(CdPd)4
_chemical_formula_sum   'La10 Pr1 Nd5 Cd4 Pd4'
_cell_volume   738.78452436
_cell_formula_units_Z   1
loop_
 _symmetry_equiv_pos_site_id
 _symmetry_equiv_pos_as_xyz
  1  'x, y, z'
loop_
 _atom_site_type_symbol
 _atom_site_label
 _atom_site_symmetry_multiplicity
 _atom_site_fract_x
 _atom_site_fract_y
 _atom_site_fract_z
 _atom_site_occupancy
  La  La0  1  0.351256  0.350805  0.350805  1
  La  La1  1  0.351412  0.351189  0.945988  1
  La  La2  1  0.351412  0.945988  0.351189  1
  La  La3  1  0.947135  0.350805  0.350805  1
  La  La4  1  0.806022  0.193978  0.193978  1
  La  La5  1  0.194327  0.805673  0.805673  1
  La  La6  1  0.194315  0.806336  0.194015  1
  La  La7  1  0.805334  0.194015  0.806336  1
  La  La8  1  0.194315  0.194015  0.806336  1
  La  La9  1  0.805334  0.806336  0.194015  1
  Pr  Pr10  1  0.933786  0.566214  0.566214  1
  Nd  Nd11  1  0.566163  0.933837  0.933837  1
  Nd  Nd12  1  0.566393  0.934851  0.565700  1
  Nd  Nd13  1  0.933056  0.565700  0.934851  1
  Nd  Nd14  1  0.566393  0.565700  0.934851  1
  Nd  Nd15  1  0.933056  0.934851  0.565700  1
  Cd  Cd16  1  0.580202  0.580551  0.580551  1
  Cd  Cd17  1  0.580646  0.580706  0.258003  1
  Cd  Cd18  1  0.580646  0.258003  0.580706  1
  Cd  Cd19  1  0.258696  0.580551  0.580551  1
  Pd  Pd20  1  0.143108  0.143086  0.143086  1
  Pd  Pd21  1  0.143138  0.142685  0.571038  1
  Pd  Pd22  1  0.143138  0.571038  0.142685  1
  Pd  Pd23  1  0.570719  0.143086  0.143086  1
