# generated using pymatgen
data_Nd5Ho11Cd4Ni3Ru
_symmetry_space_group_name_H-M   'P 1'
_cell_length_a   9.63691863
_cell_length_b   9.63145649
_cell_length_c   9.63145611
_cell_angle_alpha   59.74397690
_cell_angle_beta   59.69100743
_cell_angle_gamma   59.69100134
_symmetry_Int_Tables_number   1
_chemical_formula_structural   Nd5Ho11Cd4Ni3Ru
_chemical_formula_sum   'Nd5 Ho11 Cd4 Ni3 Ru1'
_cell_volume   627.94763149
_cell_formula_units_Z   1
loop_
 _symmetry_equiv_pos_site_id
 _symmetry_equiv_pos_as_xyz
  1  'x, y, z'
loop_
 _atom_site_type_symbol
 _atom_site_label
 _atom_site_symmetry_multiplicity
 _atom_site_fract_x
 _atom_site_fract_y
 _atom_site_fract_z
 _atom_site_occupancy
  Nd  Nd0  1  0.805473  0.190957  0.190957  1
  Nd  Nd1  1  0.815803  0.185753  0.813600  1
  Nd  Nd2  1  0.189935  0.806391  0.187226  1
  Nd  Nd3  1  0.815803  0.813600  0.185753  1
  Nd  Nd4  1  0.189935  0.187226  0.806391  1
  Ho  Ho5  1  0.597750  0.597984  0.597984  1
  Ho  Ho6  1  0.598290  0.600468  0.209017  1
  Ho  Ho7  1  0.598290  0.209017  0.600468  1
  Ho  Ho8  1  0.207171  0.599963  0.599963  1
  Ho  Ho9  1  0.062400  0.436204  0.436204  1
  Ho  Ho10  1  0.435246  0.062296  0.062296  1
  Ho  Ho11  1  0.434751  0.061771  0.438225  1
  Ho  Ho12  1  0.063103  0.435298  0.061629  1
  Ho  Ho13  1  0.434751  0.438225  0.061771  1
  Ho  Ho14  1  0.063103  0.061629  0.435298  1
  Ho  Ho15  1  0.190984  0.809442  0.809442  1
  Cd  Cd16  1  0.832023  0.828671  0.828671  1
  Cd  Cd17  1  0.828141  0.829573  0.511231  1
  Cd  Cd18  1  0.828141  0.511231  0.829573  1
  Cd  Cd19  1  0.508486  0.828581  0.828581  1
  Ni  Ni20  1  0.391450  0.395442  0.825477  1
  Ni  Ni21  1  0.391450  0.825477  0.395442  1
  Ni  Ni22  1  0.825620  0.392367  0.392367  1
  Ru  Ru23  1  0.391903  0.392437  0.392437  1
