# generated using pymatgen
data_TbY3Lu4(WO6)4
_symmetry_space_group_name_H-M   'P 1'
_cell_length_a   5.37908700
_cell_length_b   7.66072995
_cell_length_c   11.34604931
_cell_angle_alpha   75.62080121
_cell_angle_beta   90.00000000
_cell_angle_gamma   90.00000000
_symmetry_Int_Tables_number   1
_chemical_formula_structural   TbY3Lu4(WO6)4
_chemical_formula_sum   'Tb1 Y3 Lu4 W4 O24'
_cell_volume   452.89836762
_cell_formula_units_Z   1
loop_
 _symmetry_equiv_pos_site_id
 _symmetry_equiv_pos_as_xyz
  1  'x, y, z'
loop_
 _atom_site_type_symbol
 _atom_site_label
 _atom_site_symmetry_multiplicity
 _atom_site_fract_x
 _atom_site_fract_y
 _atom_site_fract_z
 _atom_site_occupancy
  Tb  Tb0  1  0.315766  0.500000  0.750000  1
  Y  Y1  1  0.256728  0.000000  0.750000  1
  Y  Y2  1  0.743261  0.000000  0.250000  1
  Y  Y3  1  0.684212  0.500000  0.250000  1
  Lu  Lu4  1  0.182465  0.793243  0.079275  1
  Lu  Lu5  1  0.182465  0.206757  0.420725  1
  Lu  Lu6  1  0.817476  0.206699  0.920792  1
  Lu  Lu7  1  0.817476  0.793301  0.579208  1
  W  W8  1  0.743505  0.724063  0.886283  1
  W  W9  1  0.256557  0.724063  0.386216  1
  W  W10  1  0.743505  0.275937  0.613717  1
  W  W11  1  0.256557  0.275937  0.113784  1
  O  O12  1  0.540450  0.158214  0.066565  1
  O  O13  1  0.049199  0.058060  0.102266  1
  O  O14  1  0.017920  0.713262  0.770165  1
  O  O15  1  0.459435  0.158243  0.566546  1
  O  O16  1  0.356476  0.488108  0.386669  1
  O  O17  1  0.950911  0.058063  0.602172  1
  O  O18  1  0.545661  0.792147  0.725285  1
  O  O19  1  0.454329  0.792195  0.225238  1
  O  O20  1  0.145336  0.635617  0.549610  1
  O  O21  1  0.049199  0.941940  0.397734  1
  O  O22  1  0.459435  0.841757  0.933454  1
  O  O23  1  0.454329  0.207805  0.274762  1
  O  O24  1  0.854616  0.364395  0.450207  1
  O  O25  1  0.643912  0.488113  0.886772  1
  O  O26  1  0.356476  0.511892  0.113331  1
  O  O27  1  0.950911  0.941937  0.897828  1
  O  O28  1  0.540450  0.841786  0.433435  1
  O  O29  1  0.981769  0.286996  0.229818  1
  O  O30  1  0.545661  0.207853  0.774715  1
  O  O31  1  0.854616  0.635605  0.049793  1
  O  O32  1  0.017920  0.286738  0.729835  1
  O  O33  1  0.145336  0.364383  0.950390  1
  O  O34  1  0.981769  0.713004  0.270182  1
  O  O35  1  0.643912  0.511887  0.613228  1
