# generated using pymatgen
data_HfZr7(Nb3Ge4)4
_symmetry_space_group_name_H-M   'P 1'
_cell_length_a   6.83939467
_cell_length_b   6.99692694
_cell_length_c   13.36272227
_cell_angle_alpha   89.98298298
_cell_angle_beta   90.13641238
_cell_angle_gamma   90.01256144
_symmetry_Int_Tables_number   1
_chemical_formula_structural   HfZr7(Nb3Ge4)4
_chemical_formula_sum   'Hf1 Zr7 Nb12 Ge16'
_cell_volume   639.46780884
_cell_formula_units_Z   1
loop_
 _symmetry_equiv_pos_site_id
 _symmetry_equiv_pos_as_xyz
  1  'x, y, z'
loop_
 _atom_site_type_symbol
 _atom_site_label
 _atom_site_symmetry_multiplicity
 _atom_site_fract_x
 _atom_site_fract_y
 _atom_site_fract_z
 _atom_site_occupancy
  Hf  Hf0  1  0.990204  0.175312  0.091422  1
  Zr  Zr1  1  0.491278  0.325072  0.091763  1
  Zr  Zr2  1  0.991260  0.175495  0.408548  1
  Zr  Zr3  1  0.508433  0.675302  0.591704  1
  Zr  Zr4  1  0.008601  0.825217  0.908751  1
  Zr  Zr5  1  0.508289  0.675813  0.908625  1
  Zr  Zr6  1  0.008615  0.824717  0.591646  1
  Zr  Zr7  1  0.491626  0.324594  0.407826  1
  Nb  Nb8  1  0.661937  0.007561  0.750285  1
  Nb  Nb9  1  0.162182  0.492339  0.750205  1
  Nb  Nb10  1  0.337871  0.992680  0.249596  1
  Nb  Nb11  1  0.838200  0.507128  0.249624  1
  Nb  Nb12  1  0.839036  0.335704  0.624823  1
  Nb  Nb13  1  0.338814  0.164399  0.875266  1
  Nb  Nb14  1  0.161135  0.664340  0.124705  1
  Nb  Nb15  1  0.661348  0.836288  0.374753  1
  Nb  Nb16  1  0.161320  0.664054  0.374781  1
  Nb  Nb17  1  0.661345  0.835713  0.124468  1
  Nb  Nb18  1  0.839909  0.334590  0.875665  1
  Nb  Nb19  1  0.338942  0.164023  0.624991  1
  Ge  Ge20  1  0.804601  0.649555  0.750256  1
  Ge  Ge21  1  0.304421  0.850282  0.750082  1
  Ge  Ge22  1  0.194508  0.349516  0.249325  1
  Ge  Ge23  1  0.696395  0.149835  0.249560  1
  Ge  Ge24  1  0.536037  0.386403  0.750269  1
  Ge  Ge25  1  0.035768  0.113237  0.750078  1
  Ge  Ge26  1  0.464254  0.613139  0.249904  1
  Ge  Ge27  1  0.964569  0.887010  0.249746  1
  Ge  Ge28  1  0.681272  0.040483  0.540097  1
  Ge  Ge29  1  0.181643  0.459775  0.960365  1
  Ge  Ge30  1  0.316924  0.961232  0.040461  1
  Ge  Ge31  1  0.818606  0.540204  0.459858  1
  Ge  Ge32  1  0.318521  0.959683  0.459686  1
  Ge  Ge33  1  0.818860  0.539588  0.040396  1
  Ge  Ge34  1  0.681695  0.040241  0.960378  1
  Ge  Ge35  1  0.181577  0.459476  0.540090  1
