# generated using pymatgen
data_Ce2P2Ir3PtAu2
_symmetry_space_group_name_H-M   'P 1'
_cell_length_a   3.99036100
_cell_length_b   3.99036100
_cell_length_c   11.37721300
_cell_angle_alpha   90.00000000
_cell_angle_beta   90.00000000
_cell_angle_gamma   90.00000000
_symmetry_Int_Tables_number   1
_chemical_formula_structural   Ce2P2Ir3PtAu2
_chemical_formula_sum   'Ce2 P2 Ir3 Pt1 Au2'
_cell_volume   181.15914541
_cell_formula_units_Z   1
loop_
 _symmetry_equiv_pos_site_id
 _symmetry_equiv_pos_as_xyz
  1  'x, y, z'
loop_
 _atom_site_type_symbol
 _atom_site_label
 _atom_site_symmetry_multiplicity
 _atom_site_fract_x
 _atom_site_fract_y
 _atom_site_fract_z
 _atom_site_occupancy
  Ce  Ce0  1  0.000000  0.500000  0.249370  1
  Ce  Ce1  1  0.500000  0.000000  0.743469  1
  P  P2  1  0.000000  0.500000  0.615454  1
  P  P3  1  0.500000  0.000000  0.382608  1
  Ir  Ir4  1  0.000000  0.000000  0.501132  1
  Ir  Ir5  1  0.500000  0.500000  0.501132  1
  Ir  Ir6  1  0.500000  0.000000  0.185554  1
  Pt  Pt7  1  0.000000  0.500000  0.818543  1
  Au  Au8  1  0.000000  0.000000  0.001369  1
  Au  Au9  1  0.500000  0.500000  0.001369  1
