# generated using pymatgen
data_HoZr3(MoN2)4
_symmetry_space_group_name_H-M   'P 1'
_cell_length_a   3.11043200
_cell_length_b   5.58809317
_cell_length_c   10.53159906
_cell_angle_alpha   90.23948278
_cell_angle_beta   90.00000000
_cell_angle_gamma   90.00000000
_symmetry_Int_Tables_number   1
_chemical_formula_structural   HoZr3(MoN2)4
_chemical_formula_sum   'Ho1 Zr3 Mo4 N8'
_cell_volume   183.05216647
_cell_formula_units_Z   1
loop_
 _symmetry_equiv_pos_site_id
 _symmetry_equiv_pos_as_xyz
  1  'x, y, z'
loop_
 _atom_site_type_symbol
 _atom_site_label
 _atom_site_symmetry_multiplicity
 _atom_site_fract_x
 _atom_site_fract_y
 _atom_site_fract_z
 _atom_site_occupancy
  Ho  Ho0  1  0.750000  0.414785  0.351486  1
  Zr  Zr1  1  0.250000  0.089929  0.846656  1
  Zr  Zr2  1  0.250000  0.586363  0.653048  1
  Zr  Zr3  1  0.750000  0.911360  0.151376  1
  Mo  Mo4  1  0.250000  0.427274  0.090602  1
  Mo  Mo5  1  0.250000  0.926122  0.405897  1
  Mo  Mo6  1  0.750000  0.573002  0.910588  1
  Mo  Mo7  1  0.750000  0.068846  0.592699  1
  N  N8  1  0.250000  0.152112  0.240237  1
  N  N9  1  0.250000  0.670027  0.247702  1
  N  N10  1  0.750000  0.839003  0.756324  1
  N  N11  1  0.750000  0.340438  0.747972  1
  N  N12  1  0.250000  0.776438  0.996234  1
  N  N13  1  0.250000  0.269756  0.507668  1
  N  N14  1  0.750000  0.224388  0.999274  1
  N  N15  1  0.750000  0.730157  0.502236  1
