# generated using pymatgen
data_Zr8Sc16As7P
_symmetry_space_group_name_H-M   'P 1'
_cell_length_a   11.03274432
_cell_length_b   11.02202127
_cell_length_c   5.49369079
_cell_angle_alpha   90.10081473
_cell_angle_beta   90.05587225
_cell_angle_gamma   89.99430691
_symmetry_Int_Tables_number   1
_chemical_formula_structural   Zr8Sc16As7P
_chemical_formula_sum   'Zr8 Sc16 As7 P1'
_cell_volume   668.04870885
_cell_formula_units_Z   1
loop_
 _symmetry_equiv_pos_site_id
 _symmetry_equiv_pos_as_xyz
  1  'x, y, z'
loop_
 _atom_site_type_symbol
 _atom_site_label
 _atom_site_symmetry_multiplicity
 _atom_site_fract_x
 _atom_site_fract_y
 _atom_site_fract_z
 _atom_site_occupancy
  Zr  Zr0  1  0.895505  0.419546  0.036004  1
  Zr  Zr1  1  0.920968  0.608275  0.539102  1
  Zr  Zr2  1  0.080320  0.395652  0.534693  1
  Zr  Zr3  1  0.104176  0.584038  0.030835  1
  Zr  Zr4  1  0.605041  0.080388  0.464860  1
  Zr  Zr5  1  0.580347  0.895297  0.964917  1
  Zr  Zr6  1  0.419441  0.104860  0.964597  1
  Zr  Zr7  1  0.395019  0.919154  0.463883  1
  Sc  Sc8  1  0.031828  0.857573  0.280910  1
  Sc  Sc9  1  0.359084  0.468698  0.781620  1
  Sc  Sc10  1  0.640972  0.532023  0.782229  1
  Sc  Sc11  1  0.968680  0.140621  0.282535  1
  Sc  Sc12  1  0.467823  0.641079  0.218261  1
  Sc  Sc13  1  0.139369  0.026955  0.718616  1
  Sc  Sc14  1  0.862639  0.964515  0.719088  1
  Sc  Sc15  1  0.531411  0.359500  0.218222  1
  Sc  Sc16  1  0.282966  0.825609  0.981895  1
  Sc  Sc17  1  0.325822  0.213895  0.484487  1
  Sc  Sc18  1  0.673775  0.785807  0.483768  1
  Sc  Sc19  1  0.714288  0.173243  0.982928  1
  Sc  Sc20  1  0.211530  0.675392  0.520658  1
  Sc  Sc21  1  0.173699  0.285866  0.015403  1
  Sc  Sc22  1  0.829138  0.714899  0.013532  1
  Sc  Sc23  1  0.785971  0.326882  0.516286  1
  As  As24  1  0.543406  0.297967  0.712788  1
  As  As25  1  0.798255  0.956283  0.212858  1
  As  As26  1  0.201774  0.043383  0.212610  1
  As  As27  1  0.455980  0.702302  0.712970  1
  As  As28  1  0.956696  0.201550  0.786886  1
  As  As29  1  0.703204  0.544870  0.287503  1
  As  As30  1  0.297026  0.457794  0.286723  1
  P  P31  1  0.043848  0.796085  0.788336  1
