# generated using pymatgen
data_Er12Fe(TcHg)2
_symmetry_space_group_name_H-M   'P 1'
_cell_length_a   8.28221562
_cell_length_b   8.28221564
_cell_length_c   8.28221600
_cell_angle_alpha   108.66243562
_cell_angle_beta   108.66243567
_cell_angle_gamma   111.10119417
_symmetry_Int_Tables_number   1
_chemical_formula_structural   Er12Fe(TcHg)2
_chemical_formula_sum   'Er12 Fe1 Tc2 Hg2'
_cell_volume   437.07218503
_cell_formula_units_Z   1
loop_
 _symmetry_equiv_pos_site_id
 _symmetry_equiv_pos_as_xyz
  1  'x, y, z'
loop_
 _atom_site_type_symbol
 _atom_site_label
 _atom_site_symmetry_multiplicity
 _atom_site_fract_x
 _atom_site_fract_y
 _atom_site_fract_z
 _atom_site_occupancy
  Er  Er0  1  0.188649  0.431524  0.242874  1
  Er  Er1  1  0.808187  0.569008  0.760822  1
  Er  Er2  1  0.188649  0.945776  0.757126  1
  Er  Er3  1  0.945776  0.188649  0.757126  1
  Er  Er4  1  0.808187  0.047363  0.239178  1
  Er  Er5  1  0.047363  0.808187  0.239178  1
  Er  Er6  1  0.431524  0.188649  0.242874  1
  Er  Er7  1  0.569008  0.808187  0.760822  1
  Er  Er8  1  0.306013  0.306013  0.614287  1
  Er  Er9  1  0.691727  0.691727  0.385713  1
  Er  Er10  1  0.691727  0.306013  0.000000  1
  Er  Er11  1  0.306013  0.691727  0.000000  1
  Fe  Fe12  1  0.634075  0.634075  0.000000  1
  Tc  Tc13  1  0.386309  0.386309  0.000000  1
  Tc  Tc14  1  0.000918  0.000918  0.000000  1
  Hg  Hg15  1  0.997938  0.497938  0.500000  1
  Hg  Hg16  1  0.497938  0.997938  0.500000  1
