# generated using pymatgen
data_Er7Tm9MgAg3Rh4
_symmetry_space_group_name_H-M   'P 1'
_cell_length_a   9.45657279
_cell_length_b   9.47337204
_cell_length_c   9.46527400
_cell_angle_alpha   60.02828020
_cell_angle_beta   59.96956489
_cell_angle_gamma   60.02400929
_symmetry_Int_Tables_number   1
_chemical_formula_structural   Er7Tm9MgAg3Rh4
_chemical_formula_sum   'Er7 Tm9 Mg1 Ag3 Rh4'
_cell_volume   599.69163742
_cell_formula_units_Z   1
loop_
 _symmetry_equiv_pos_site_id
 _symmetry_equiv_pos_as_xyz
  1  'x, y, z'
loop_
 _atom_site_type_symbol
 _atom_site_label
 _atom_site_symmetry_multiplicity
 _atom_site_fract_x
 _atom_site_fract_y
 _atom_site_fract_z
 _atom_site_occupancy
  Er  Er0  1  0.810588  0.811401  0.189006  1
  Er  Er1  1  0.932729  0.564636  0.565146  1
  Er  Er2  1  0.563687  0.935930  0.935291  1
  Er  Er3  1  0.563687  0.935930  0.565092  1
  Er  Er4  1  0.932729  0.564636  0.937489  1
  Er  Er5  1  0.563208  0.565174  0.935809  1
  Er  Er6  1  0.933067  0.937471  0.564731  1
  Tm  Tm7  1  0.351281  0.349380  0.349288  1
  Tm  Tm8  1  0.351281  0.349380  0.950052  1
  Tm  Tm9  1  0.350560  0.951579  0.348931  1
  Tm  Tm10  1  0.940945  0.352913  0.353070  1
  Tm  Tm11  1  0.810879  0.188114  0.188740  1
  Tm  Tm12  1  0.185432  0.813297  0.813669  1
  Tm  Tm13  1  0.185432  0.813297  0.187601  1
  Tm  Tm14  1  0.810879  0.188114  0.812267  1
  Tm  Tm15  1  0.185215  0.186927  0.813929  1
  Mg  Mg16  1  0.281698  0.573082  0.572609  1
  Ag  Ag17  1  0.582890  0.583629  0.583127  1
  Ag  Ag18  1  0.582890  0.583629  0.250352  1
  Ag  Ag19  1  0.583139  0.250348  0.583256  1
  Rh  Rh20  1  0.142168  0.143592  0.143332  1
  Rh  Rh21  1  0.142168  0.143592  0.570906  1
  Rh  Rh22  1  0.142673  0.570522  0.143401  1
  Rh  Rh23  1  0.570775  0.143420  0.142902  1
