# generated using pymatgen
data_ScCd3P6N13
_symmetry_space_group_name_H-M   'P 1'
_cell_length_a   7.20564803
_cell_length_b   7.26183876
_cell_length_c   7.26184015
_cell_angle_alpha   109.62744056
_cell_angle_beta   109.31455181
_cell_angle_gamma   109.31455179
_symmetry_Int_Tables_number   1
_chemical_formula_structural   ScCd3P6N13
_chemical_formula_sum   'Sc1 Cd3 P6 N13'
_cell_volume   293.07614128
_cell_formula_units_Z   1
loop_
 _symmetry_equiv_pos_site_id
 _symmetry_equiv_pos_as_xyz
  1  'x, y, z'
loop_
 _atom_site_type_symbol
 _atom_site_label
 _atom_site_symmetry_multiplicity
 _atom_site_fract_x
 _atom_site_fract_y
 _atom_site_fract_z
 _atom_site_occupancy
  Sc  Sc0  1  0.680303  0.000000  0.000000  1
  Cd  Cd1  1  0.997700  0.000000  0.712016  1
  Cd  Cd2  1  0.997700  0.712016  0.000000  1
  Cd  Cd3  1  0.285685  0.287984  0.287984  1
  P  P4  1  0.252813  0.749423  0.499276  1
  P  P5  1  0.753537  0.250147  0.500724  1
  P  P6  1  0.753537  0.500724  0.250147  1
  P  P7  1  0.252813  0.499276  0.749423  1
  P  P8  1  0.503391  0.749853  0.250577  1
  P  P9  1  0.503391  0.250577  0.749853  1
  N  N10  1  0.962699  0.000000  0.000000  1
  N  N11  1  0.719192  0.276268  0.276268  1
  N  N12  1  0.280428  0.717808  0.277940  1
  N  N13  1  0.301447  0.572012  0.572012  1
  N  N14  1  0.562621  0.560132  0.282192  1
  N  N15  1  0.442924  0.723732  0.000000  1
  N  N16  1  0.002488  0.722060  0.439868  1
  N  N17  1  0.562621  0.282192  0.560132  1
  N  N18  1  0.729435  0.000000  0.427988  1
  N  N19  1  0.442924  0.000000  0.723732  1
  N  N20  1  0.729435  0.427988  0.000000  1
  N  N21  1  0.280428  0.277940  0.717808  1
  N  N22  1  0.002488  0.439868  0.722060  1
