# generated using pymatgen
data_TbTh(GaRh)2
_symmetry_space_group_name_H-M   'P 1'
_cell_length_a   4.38070500
_cell_length_b   6.92545100
_cell_length_c   7.90465200
_cell_angle_alpha   90.00000000
_cell_angle_beta   90.00000000
_cell_angle_gamma   90.00000000
_symmetry_Int_Tables_number   1
_chemical_formula_structural   TbTh(GaRh)2
_chemical_formula_sum   'Tb2 Th2 Ga4 Rh4'
_cell_volume   239.81416084
_cell_formula_units_Z   2
loop_
 _symmetry_equiv_pos_site_id
 _symmetry_equiv_pos_as_xyz
  1  'x, y, z'
loop_
 _atom_site_type_symbol
 _atom_site_label
 _atom_site_symmetry_multiplicity
 _atom_site_fract_x
 _atom_site_fract_y
 _atom_site_fract_z
 _atom_site_occupancy
  Tb  Tb0  1  0.750000  0.031791  0.694843  1
  Tb  Tb1  1  0.750000  0.531791  0.805157  1
  Th  Th2  1  0.250000  0.969655  0.319269  1
  Th  Th3  1  0.250000  0.469655  0.180731  1
  Ga  Ga4  1  0.250000  0.350588  0.575120  1
  Ga  Ga5  1  0.250000  0.850588  0.924880  1
  Ga  Ga6  1  0.750000  0.648345  0.438849  1
  Ga  Ga7  1  0.750000  0.148345  0.061151  1
  Rh  Rh8  1  0.250000  0.238836  0.894399  1
  Rh  Rh9  1  0.250000  0.738836  0.605601  1
  Rh  Rh10  1  0.750000  0.760784  0.114965  1
  Rh  Rh11  1  0.750000  0.260784  0.385035  1
