# generated using pymatgen
data_DyY5Lu4(Si3H)2
_symmetry_space_group_name_H-M   'P 1'
_cell_length_a   8.39541112
_cell_length_b   8.39299175
_cell_length_c   6.14930400
_cell_angle_alpha   89.99941405
_cell_angle_beta   90.00029918
_cell_angle_gamma   119.99046011
_symmetry_Int_Tables_number   1
_chemical_formula_structural   DyY5Lu4(Si3H)2
_chemical_formula_sum   'Dy1 Y5 Lu4 Si6 H2'
_cell_volume   375.28145217
_cell_formula_units_Z   1
loop_
 _symmetry_equiv_pos_site_id
 _symmetry_equiv_pos_as_xyz
  1  'x, y, z'
loop_
 _atom_site_type_symbol
 _atom_site_label
 _atom_site_symmetry_multiplicity
 _atom_site_fract_x
 _atom_site_fract_y
 _atom_site_fract_z
 _atom_site_occupancy
  Dy  Dy0  1  0.000000  0.748818  0.249996  1
  Y  Y1  1  0.749223  0.749158  0.749993  1
  Y  Y2  1  0.250777  0.999935  0.749993  1
  Y  Y3  1  0.000000  0.250786  0.750010  1
  Y  Y4  1  0.250786  0.250776  0.250010  1
  Y  Y5  1  0.749214  0.999990  0.250010  1
  Lu  Lu6  1  0.666780  0.333459  0.000071  1
  Lu  Lu7  1  0.333220  0.666680  0.000071  1
  Lu  Lu8  1  0.333227  0.666694  0.499928  1
  Lu  Lu9  1  0.666773  0.333466  0.499928  1
  Si  Si10  1  0.391412  0.391467  0.749994  1
  Si  Si11  1  0.608588  0.000055  0.749994  1
  Si  Si12  1  0.000000  0.608632  0.749996  1
  Si  Si13  1  0.608583  0.608592  0.250003  1
  Si  Si14  1  0.391417  0.000009  0.250003  1
  Si  Si15  1  0.000000  0.391646  0.249999  1
  H  H16  1  0.000000  0.999916  0.499963  1
  H  H17  1  0.000000  0.999920  0.000035  1
