# generated using pymatgen
data_Tb3SmSiI6
_symmetry_space_group_name_H-M   'P 1'
_cell_length_a   4.24013700
_cell_length_b   14.19412117
_cell_length_c   14.90882797
_cell_angle_alpha   89.53074565
_cell_angle_beta   90.00000000
_cell_angle_gamma   90.00000000
_symmetry_Int_Tables_number   1
_chemical_formula_structural   Tb3SmSiI6
_chemical_formula_sum   'Tb6 Sm2 Si2 I12'
_cell_volume   897.25799220
_cell_formula_units_Z   2
loop_
 _symmetry_equiv_pos_site_id
 _symmetry_equiv_pos_as_xyz
  1  'x, y, z'
loop_
 _atom_site_type_symbol
 _atom_site_label
 _atom_site_symmetry_multiplicity
 _atom_site_fract_x
 _atom_site_fract_y
 _atom_site_fract_z
 _atom_site_occupancy
  Tb  Tb0  1  0.500000  0.114483  0.347324  1
  Tb  Tb1  1  0.500000  0.885517  0.652676  1
  Tb  Tb2  1  0.500000  0.612785  0.150992  1
  Tb  Tb3  1  0.500000  0.387215  0.849008  1
  Tb  Tb4  1  0.000000  0.610498  0.925202  1
  Tb  Tb5  1  0.000000  0.389502  0.074798  1
  Sm  Sm6  1  0.000000  0.113145  0.576377  1
  Sm  Sm7  1  0.000000  0.886855  0.423623  1
  Si  Si8  1  0.500000  0.000000  0.500000  1
  Si  Si9  1  0.500000  0.500000  0.000000  1
  I  I10  1  0.500000  0.248570  0.162984  1
  I  I11  1  0.500000  0.751430  0.837016  1
  I  I12  1  0.500000  0.742846  0.334895  1
  I  I13  1  0.500000  0.257154  0.665105  1
  I  I14  1  0.000000  0.257973  0.411084  1
  I  I15  1  0.000000  0.742027  0.588916  1
  I  I16  1  0.000000  0.755890  0.083899  1
  I  I17  1  0.000000  0.244110  0.916101  1
  I  I18  1  0.000000  0.003527  0.238947  1
  I  I19  1  0.000000  0.996473  0.761053  1
  I  I20  1  0.000000  0.498586  0.257737  1
  I  I21  1  0.000000  0.501414  0.742263  1
