# generated using pymatgen
data_Tm6U(Al3Co8)2
_symmetry_space_group_name_H-M   'P 1'
_cell_length_a   8.43019952
_cell_length_b   8.43066867
_cell_length_c   8.43056500
_cell_angle_alpha   60.00415386
_cell_angle_beta   60.00235246
_cell_angle_gamma   60.00283659
_symmetry_Int_Tables_number   1
_chemical_formula_structural   Tm6U(Al3Co8)2
_chemical_formula_sum   'Tm6 U1 Al6 Co16'
_cell_volume   423.71342209
_cell_formula_units_Z   1
loop_
 _symmetry_equiv_pos_site_id
 _symmetry_equiv_pos_as_xyz
  1  'x, y, z'
loop_
 _atom_site_type_symbol
 _atom_site_label
 _atom_site_symmetry_multiplicity
 _atom_site_fract_x
 _atom_site_fract_y
 _atom_site_fract_z
 _atom_site_occupancy
  Tm  Tm0  1  0.708124  0.291921  0.291926  1
  Tm  Tm1  1  0.291876  0.708079  0.708074  1
  Tm  Tm2  1  0.291902  0.708101  0.291949  1
  Tm  Tm3  1  0.291902  0.291945  0.708103  1
  Tm  Tm4  1  0.708098  0.291899  0.708051  1
  Tm  Tm5  1  0.708098  0.708055  0.291897  1
  U  U6  1  0.000000  0.000000  0.000000  1
  Al  Al7  1  0.500000  0.000000  0.000000  1
  Al  Al8  1  0.000000  0.500000  0.500000  1
  Al  Al9  1  0.000000  0.500000  0.000000  1
  Al  Al10  1  0.000000  0.000000  0.500000  1
  Al  Al11  1  0.500000  0.000000  0.500000  1
  Al  Al12  1  0.500000  0.500000  0.000000  1
  Co  Co13  1  0.322352  0.322363  0.322361  1
  Co  Co14  1  0.322359  0.322371  0.032867  1
  Co  Co15  1  0.032926  0.322347  0.322347  1
  Co  Co16  1  0.322367  0.032847  0.322378  1
  Co  Co17  1  0.677648  0.677637  0.677639  1
  Co  Co18  1  0.677641  0.677629  0.967133  1
  Co  Co19  1  0.677633  0.967153  0.677622  1
  Co  Co20  1  0.967074  0.677653  0.677653  1
  Co  Co21  1  0.122741  0.122742  0.122749  1
  Co  Co22  1  0.122747  0.122748  0.631748  1
  Co  Co23  1  0.631746  0.122747  0.122753  1
  Co  Co24  1  0.122741  0.631756  0.122749  1
  Co  Co25  1  0.877259  0.877258  0.877251  1
  Co  Co26  1  0.877253  0.877252  0.368252  1
  Co  Co27  1  0.877259  0.368244  0.877251  1
  Co  Co28  1  0.368254  0.877253  0.877247  1
