# generated using pymatgen
data_Li2ErCr2Ni9P7
_symmetry_space_group_name_H-M   'P 1'
_cell_length_a   9.05852375
_cell_length_b   9.04506110
_cell_length_c   3.62221900
_cell_angle_alpha   90.00000000
_cell_angle_beta   90.00000000
_cell_angle_gamma   119.38902543
_symmetry_Int_Tables_number   1
_chemical_formula_structural   Li2ErCr2Ni9P7
_chemical_formula_sum   'Li2 Er1 Cr2 Ni9 P7'
_cell_volume   258.59209843
_cell_formula_units_Z   1
loop_
 _symmetry_equiv_pos_site_id
 _symmetry_equiv_pos_as_xyz
  1  'x, y, z'
loop_
 _atom_site_type_symbol
 _atom_site_label
 _atom_site_symmetry_multiplicity
 _atom_site_fract_x
 _atom_site_fract_y
 _atom_site_fract_z
 _atom_site_occupancy
  Li  Li0  1  0.221595  0.105198  0.500000  1
  Li  Li1  1  0.667143  0.334712  0.500000  1
  Er  Er2  1  0.330815  0.663237  0.000000  1
  Cr  Cr3  1  0.878411  0.782414  0.500000  1
  Cr  Cr4  1  0.900563  0.120747  0.500000  1
  Ni  Ni5  1  0.713202  0.877047  0.000000  1
  Ni  Ni6  1  0.162536  0.277397  0.000000  1
  Ni  Ni7  1  0.123096  0.845043  0.000000  1
  Ni  Ni8  1  0.630871  0.568362  0.000000  1
  Ni  Ni9  1  0.936441  0.369643  0.000000  1
  Ni  Ni10  1  0.434280  0.061641  0.000000  1
  Ni  Ni11  1  0.563128  0.951221  0.500000  1
  Ni  Ni12  1  0.389469  0.433877  0.500000  1
  Ni  Ni13  1  0.047836  0.611060  0.500000  1
  P  P14  1  0.595397  0.710512  0.500000  1
  P  P15  1  0.113800  0.401576  0.500000  1
  P  P16  1  0.288234  0.879118  0.500000  1
  P  P17  1  0.991583  0.997070  0.000000  1
  P  P18  1  0.882545  0.586796  0.000000  1
  P  P19  1  0.703462  0.120656  0.000000  1
  P  P20  1  0.425594  0.302675  0.000000  1
