# generated using pymatgen
data_Ba6Tm(IrO6)2
_symmetry_space_group_name_H-M   'P 1'
_cell_length_a   9.23806983
_cell_length_b   9.23806913
_cell_length_c   7.41802700
_cell_angle_alpha   68.05675334
_cell_angle_beta   68.05675343
_cell_angle_gamma   36.87926308
_symmetry_Int_Tables_number   1
_chemical_formula_structural   Ba6Tm(IrO6)2
_chemical_formula_sum   'Ba6 Tm1 Ir2 O12'
_cell_volume   349.20637998
_cell_formula_units_Z   1
loop_
 _symmetry_equiv_pos_site_id
 _symmetry_equiv_pos_as_xyz
  1  'x, y, z'
loop_
 _atom_site_type_symbol
 _atom_site_label
 _atom_site_symmetry_multiplicity
 _atom_site_fract_x
 _atom_site_fract_y
 _atom_site_fract_z
 _atom_site_occupancy
  Ba  Ba0  1  0.215576  0.215576  0.707012  1
  Ba  Ba1  1  0.881386  0.881386  0.709563  1
  Ba  Ba2  1  0.548916  0.548916  0.705766  1
  Ba  Ba3  1  0.784424  0.784424  0.292988  1
  Ba  Ba4  1  0.451084  0.451084  0.294234  1
  Ba  Ba5  1  0.118614  0.118614  0.290437  1
  Tm  Tm6  1  0.000000  0.000000  0.000000  1
  Ir  Ir7  1  0.669997  0.669997  0.999586  1
  Ir  Ir8  1  0.330003  0.330003  0.000414  1
  O  O9  1  0.281846  0.281846  0.306010  1
  O  O10  1  0.944024  0.944024  0.327253  1
  O  O11  1  0.617273  0.617273  0.304109  1
  O  O12  1  0.718154  0.718154  0.693990  1
  O  O13  1  0.382727  0.382727  0.695891  1
  O  O14  1  0.055976  0.055976  0.672747  1
  O  O15  1  0.000000  0.500000  0.000000  1
  O  O16  1  0.646752  0.175138  0.001155  1
  O  O17  1  0.353248  0.824862  0.998845  1
  O  O18  1  0.500000  0.000000  0.000000  1
  O  O19  1  0.175138  0.646752  0.001155  1
  O  O20  1  0.824862  0.353248  0.998845  1
