# generated using pymatgen
data_SmEr2Ga(SiRh3)2
_symmetry_space_group_name_H-M   'P 1'
_cell_length_a   5.58965000
_cell_length_b   5.58964872
_cell_length_c   15.21460100
_cell_angle_alpha   90.00000000
_cell_angle_beta   90.00000000
_cell_angle_gamma   119.99999573
_symmetry_Int_Tables_number   1
_chemical_formula_structural   SmEr2Ga(SiRh3)2
_chemical_formula_sum   'Sm2 Er4 Ga2 Si4 Rh12'
_cell_volume   411.68054974
_cell_formula_units_Z   2
loop_
 _symmetry_equiv_pos_site_id
 _symmetry_equiv_pos_as_xyz
  1  'x, y, z'
loop_
 _atom_site_type_symbol
 _atom_site_label
 _atom_site_symmetry_multiplicity
 _atom_site_fract_x
 _atom_site_fract_y
 _atom_site_fract_z
 _atom_site_occupancy
  Sm  Sm0  1  0.333333  0.666667  0.750000  1
  Sm  Sm1  1  0.666667  0.333333  0.250000  1
  Er  Er2  1  0.333333  0.666667  0.536850  1
  Er  Er3  1  0.666667  0.333333  0.463150  1
  Er  Er4  1  0.666667  0.333333  0.036850  1
  Er  Er5  1  0.333333  0.666667  0.963150  1
  Ga  Ga6  1  0.000000  0.000000  0.000000  1
  Ga  Ga7  1  0.000000  0.000000  0.500000  1
  Si  Si8  1  0.000000  0.000000  0.250000  1
  Si  Si9  1  0.000000  0.000000  0.750000  1
  Si  Si10  1  0.333333  0.666667  0.250000  1
  Si  Si11  1  0.666667  0.333333  0.750000  1
  Rh  Rh12  1  0.167967  0.335934  0.132477  1
  Rh  Rh13  1  0.832033  0.664066  0.867523  1
  Rh  Rh14  1  0.664066  0.832033  0.132477  1
  Rh  Rh15  1  0.832033  0.664066  0.632477  1
  Rh  Rh16  1  0.335934  0.167967  0.867523  1
  Rh  Rh17  1  0.167967  0.335934  0.367523  1
  Rh  Rh18  1  0.167967  0.832033  0.132477  1
  Rh  Rh19  1  0.335934  0.167967  0.632477  1
  Rh  Rh20  1  0.832033  0.167967  0.867523  1
  Rh  Rh21  1  0.664066  0.832033  0.367523  1
  Rh  Rh22  1  0.832033  0.167967  0.632477  1
  Rh  Rh23  1  0.167967  0.832033  0.367523  1
