# generated using pymatgen
data_DyErCdNi7B2
_symmetry_space_group_name_H-M   'P 1'
_cell_length_a   4.99624000
_cell_length_b   4.99623934
_cell_length_c   14.21581100
_cell_angle_alpha   90.00000000
_cell_angle_beta   90.00000000
_cell_angle_gamma   120.00000438
_symmetry_Int_Tables_number   1
_chemical_formula_structural   DyErCdNi7B2
_chemical_formula_sum   'Dy2 Er2 Cd2 Ni14 B4'
_cell_volume   307.31855324
_cell_formula_units_Z   2
loop_
 _symmetry_equiv_pos_site_id
 _symmetry_equiv_pos_as_xyz
  1  'x, y, z'
loop_
 _atom_site_type_symbol
 _atom_site_label
 _atom_site_symmetry_multiplicity
 _atom_site_fract_x
 _atom_site_fract_y
 _atom_site_fract_z
 _atom_site_occupancy
  Dy  Dy0  1  0.666667  0.333333  0.529626  1
  Dy  Dy1  1  0.333333  0.666667  0.029626  1
  Er  Er2  1  0.666667  0.333333  0.756540  1
  Er  Er3  1  0.333333  0.666667  0.256540  1
  Cd  Cd4  1  0.333333  0.666667  0.467441  1
  Cd  Cd5  1  0.666667  0.333333  0.967441  1
  Ni  Ni6  1  0.834593  0.165407  0.351620  1
  Ni  Ni7  1  0.834593  0.669186  0.351620  1
  Ni  Ni8  1  0.000000  0.000000  0.999365  1
  Ni  Ni9  1  0.000000  0.000000  0.499365  1
  Ni  Ni10  1  0.834088  0.668178  0.148343  1
  Ni  Ni11  1  0.165912  0.834088  0.648343  1
  Ni  Ni12  1  0.668178  0.834088  0.648343  1
  Ni  Ni13  1  0.331822  0.165912  0.148343  1
  Ni  Ni14  1  0.834088  0.165912  0.148343  1
  Ni  Ni15  1  0.165407  0.330814  0.851620  1
  Ni  Ni16  1  0.165407  0.834593  0.851620  1
  Ni  Ni17  1  0.165912  0.331822  0.648343  1
  Ni  Ni18  1  0.669186  0.834593  0.851620  1
  Ni  Ni19  1  0.330814  0.165407  0.351620  1
  B  B20  1  0.666667  0.333333  0.249830  1
  B  B21  1  0.333333  0.666667  0.749830  1
  B  B22  1  0.000000  0.000000  0.747309  1
  B  B23  1  0.000000  0.000000  0.247309  1
