# generated using pymatgen
data_Dy4Y3HoPt4
_symmetry_space_group_name_H-M   'P 1'
_cell_length_a   4.75893900
_cell_length_b   7.17055192
_cell_length_c   8.81670609
_cell_angle_alpha   89.90370176
_cell_angle_beta   90.00000000
_cell_angle_gamma   90.00000000
_symmetry_Int_Tables_number   1
_chemical_formula_structural   Dy4Y3HoPt4
_chemical_formula_sum   'Dy4 Y3 Ho1 Pt4'
_cell_volume   300.86278609
_cell_formula_units_Z   1
loop_
 _symmetry_equiv_pos_site_id
 _symmetry_equiv_pos_as_xyz
  1  'x, y, z'
loop_
 _atom_site_type_symbol
 _atom_site_label
 _atom_site_symmetry_multiplicity
 _atom_site_fract_x
 _atom_site_fract_y
 _atom_site_fract_z
 _atom_site_occupancy
  Dy  Dy0  1  0.250000  0.354825  0.579907  1
  Dy  Dy1  1  0.750000  0.144157  0.080150  1
  Dy  Dy2  1  0.750000  0.645333  0.419668  1
  Dy  Dy3  1  0.250000  0.990843  0.332378  1
  Y  Y4  1  0.250000  0.490393  0.168706  1
  Y  Y5  1  0.750000  0.009306  0.669063  1
  Y  Y6  1  0.750000  0.509631  0.831525  1
  Ho  Ho7  1  0.250000  0.855309  0.920004  1
  Pt  Pt8  1  0.250000  0.256565  0.906456  1
  Pt  Pt9  1  0.250000  0.758125  0.592808  1
  Pt  Pt10  1  0.750000  0.743390  0.093250  1
  Pt  Pt11  1  0.750000  0.242121  0.406085  1
