# generated using pymatgen
data_NaHo(Cu2P)4
_symmetry_space_group_name_H-M   'P 1'
_cell_length_a   7.25980967
_cell_length_b   7.25981086
_cell_length_c   3.77041800
_cell_angle_alpha   90.00000000
_cell_angle_beta   90.00000000
_cell_angle_gamma   88.78409922
_symmetry_Int_Tables_number   1
_chemical_formula_structural   NaHo(Cu2P)4
_chemical_formula_sum   'Na1 Ho1 Cu8 P4'
_cell_volume   198.67455153
_cell_formula_units_Z   1
loop_
 _symmetry_equiv_pos_site_id
 _symmetry_equiv_pos_as_xyz
  1  'x, y, z'
loop_
 _atom_site_type_symbol
 _atom_site_label
 _atom_site_symmetry_multiplicity
 _atom_site_fract_x
 _atom_site_fract_y
 _atom_site_fract_z
 _atom_site_occupancy
  Na  Na0  1  0.500000  0.500000  0.500000  1
  Ho  Ho1  1  0.000000  0.000000  0.000000  1
  Cu  Cu2  1  0.665335  0.916645  0.500000  1
  Cu  Cu3  1  0.165780  0.583702  0.000000  1
  Cu  Cu4  1  0.416298  0.834220  0.000000  1
  Cu  Cu5  1  0.916645  0.665335  0.500000  1
  Cu  Cu6  1  0.834220  0.416298  0.000000  1
  Cu  Cu7  1  0.583702  0.165780  0.000000  1
  Cu  Cu8  1  0.083355  0.334665  0.500000  1
  Cu  Cu9  1  0.334665  0.083355  0.500000  1
  P  P10  1  0.276677  0.276677  0.000000  1
  P  P11  1  0.723323  0.723323  0.000000  1
  P  P12  1  0.785359  0.214641  0.500000  1
  P  P13  1  0.214641  0.785359  0.500000  1
