# generated using pymatgen
data_TbDy4Tm11(Ga3Co)2
_symmetry_space_group_name_H-M   'P 1'
_cell_length_a   9.91301800
_cell_length_b   9.91301627
_cell_length_c   6.92904200
_cell_angle_alpha   90.00000000
_cell_angle_beta   90.00000000
_cell_angle_gamma   119.99999909
_symmetry_Int_Tables_number   1
_chemical_formula_structural   TbDy4Tm11(Ga3Co)2
_chemical_formula_sum   'Tb1 Dy4 Tm11 Ga6 Co2'
_cell_volume   589.67883935
_cell_formula_units_Z   1
loop_
 _symmetry_equiv_pos_site_id
 _symmetry_equiv_pos_as_xyz
  1  'x, y, z'
loop_
 _atom_site_type_symbol
 _atom_site_label
 _atom_site_symmetry_multiplicity
 _atom_site_fract_x
 _atom_site_fract_y
 _atom_site_fract_z
 _atom_site_occupancy
  Tb  Tb0  1  0.000000  0.000000  0.269111  1
  Dy  Dy1  1  0.464088  0.928176  0.291602  1
  Dy  Dy2  1  0.071824  0.535912  0.291602  1
  Dy  Dy3  1  0.464088  0.535912  0.291602  1
  Dy  Dy4  1  0.000000  0.000000  0.768782  1
  Tm  Tm5  1  0.826092  0.652184  0.490001  1
  Tm  Tm6  1  0.347816  0.173908  0.490001  1
  Tm  Tm7  1  0.826092  0.173908  0.490001  1
  Tm  Tm8  1  0.173816  0.347630  0.986226  1
  Tm  Tm9  1  0.652370  0.826184  0.986226  1
  Tm  Tm10  1  0.173816  0.826184  0.986226  1
  Tm  Tm11  1  0.666667  0.333333  0.172371  1
  Tm  Tm12  1  0.333333  0.666667  0.674209  1
  Tm  Tm13  1  0.537276  0.074551  0.792649  1
  Tm  Tm14  1  0.925449  0.462724  0.792649  1
  Tm  Tm15  1  0.537276  0.462724  0.792649  1
  Ga  Ga16  1  0.835859  0.671720  0.040784  1
  Ga  Ga17  1  0.328280  0.164141  0.040784  1
  Ga  Ga18  1  0.835859  0.164141  0.040784  1
  Ga  Ga19  1  0.163523  0.327046  0.542765  1
  Ga  Ga20  1  0.672954  0.836477  0.542765  1
  Ga  Ga21  1  0.163523  0.836477  0.542765  1
  Co  Co22  1  0.666667  0.333333  0.555639  1
  Co  Co23  1  0.333333  0.666667  0.053885  1
