# generated using pymatgen
data_Dy3Ga4Se
_symmetry_space_group_name_H-M   'P 1'
_cell_length_a   7.84266738
_cell_length_b   7.84266707
_cell_length_c   7.84266743
_cell_angle_alpha   119.33048292
_cell_angle_beta   119.33047920
_cell_angle_gamma   91.16360163
_symmetry_Int_Tables_number   1
_chemical_formula_structural   Dy3Ga4Se
_chemical_formula_sum   'Dy6 Ga8 Se2'
_cell_volume   344.47073924
_cell_formula_units_Z   2
loop_
 _symmetry_equiv_pos_site_id
 _symmetry_equiv_pos_as_xyz
  1  'x, y, z'
loop_
 _atom_site_type_symbol
 _atom_site_label
 _atom_site_symmetry_multiplicity
 _atom_site_fract_x
 _atom_site_fract_y
 _atom_site_fract_z
 _atom_site_occupancy
  Dy  Dy0  1  0.662677  0.162677  0.825352  1
  Dy  Dy1  1  0.162677  0.337323  0.500000  1
  Dy  Dy2  1  0.837323  0.662677  0.500000  1
  Dy  Dy3  1  0.750000  0.750000  0.000000  1
  Dy  Dy4  1  0.337323  0.837323  0.174648  1
  Dy  Dy5  1  0.250000  0.250000  0.000000  1
  Ga  Ga6  1  0.948715  0.448715  0.788632  1
  Ga  Ga7  1  0.839917  0.051285  0.500000  1
  Ga  Ga8  1  0.339917  0.839917  0.788632  1
  Ga  Ga9  1  0.448715  0.660083  0.500000  1
  Ga  Ga10  1  0.551285  0.339917  0.500000  1
  Ga  Ga11  1  0.051285  0.551285  0.211368  1
  Ga  Ga12  1  0.160083  0.948715  0.500000  1
  Ga  Ga13  1  0.660083  0.160083  0.211368  1
  Se  Se14  1  0.500000  0.500000  0.000000  1
  Se  Se15  1  0.000000  0.000000  0.000000  1
