# generated using pymatgen
data_LaYEr(Si3Pd10)2
_symmetry_space_group_name_H-M   'P 1'
_cell_length_a   8.74257471
_cell_length_b   8.74257508
_cell_length_c   8.74257500
_cell_angle_alpha   60.00000407
_cell_angle_beta   60.00000269
_cell_angle_gamma   60.00000317
_symmetry_Int_Tables_number   1
_chemical_formula_structural   LaYEr(Si3Pd10)2
_chemical_formula_sum   'La1 Y1 Er1 Si6 Pd20'
_cell_volume   472.50142677
_cell_formula_units_Z   1
loop_
 _symmetry_equiv_pos_site_id
 _symmetry_equiv_pos_as_xyz
  1  'x, y, z'
loop_
 _atom_site_type_symbol
 _atom_site_label
 _atom_site_symmetry_multiplicity
 _atom_site_fract_x
 _atom_site_fract_y
 _atom_site_fract_z
 _atom_site_occupancy
  La  La0  1  0.250000  0.250000  0.250000  1
  Y  Y1  1  0.750000  0.750000  0.750000  1
  Er  Er2  1  0.000000  0.000000  0.000000  1
  Si  Si3  1  0.733146  0.266854  0.266854  1
  Si  Si4  1  0.266854  0.733146  0.733146  1
  Si  Si5  1  0.266854  0.733146  0.266854  1
  Si  Si6  1  0.733146  0.266854  0.733146  1
  Si  Si7  1  0.266854  0.266854  0.733146  1
  Si  Si8  1  0.733146  0.733146  0.266854  1
  Pd  Pd9  1  0.345861  0.999139  0.999139  1
  Pd  Pd10  1  0.655861  0.999139  0.999139  1
  Pd  Pd11  1  0.999139  0.345861  0.655861  1
  Pd  Pd12  1  0.999139  0.655861  0.345861  1
  Pd  Pd13  1  0.999139  0.345861  0.999139  1
  Pd  Pd14  1  0.655861  0.999139  0.345861  1
  Pd  Pd15  1  0.999139  0.655861  0.999139  1
  Pd  Pd16  1  0.345861  0.999139  0.655861  1
  Pd  Pd17  1  0.999139  0.999139  0.345861  1
  Pd  Pd18  1  0.999139  0.999139  0.655861  1
  Pd  Pd19  1  0.655861  0.345861  0.999139  1
  Pd  Pd20  1  0.345861  0.655861  0.999139  1
  Pd  Pd21  1  0.385281  0.385281  0.385281  1
  Pd  Pd22  1  0.616097  0.616097  0.616097  1
  Pd  Pd23  1  0.385281  0.385281  0.844158  1
  Pd  Pd24  1  0.385281  0.844158  0.385281  1
  Pd  Pd25  1  0.616097  0.616097  0.151708  1
  Pd  Pd26  1  0.616097  0.151708  0.616097  1
  Pd  Pd27  1  0.844158  0.385281  0.385281  1
  Pd  Pd28  1  0.151708  0.616097  0.616097  1
