# generated using pymatgen
data_Ba2SiGePd2
_symmetry_space_group_name_H-M   'P 1'
_cell_length_a   6.81072600
_cell_length_b   6.81592723
_cell_length_c   6.81681021
_cell_angle_alpha   89.61128153
_cell_angle_beta   90.00000000
_cell_angle_gamma   90.00000000
_symmetry_Int_Tables_number   1
_chemical_formula_structural   Ba2SiGePd2
_chemical_formula_sum   'Ba4 Si2 Ge2 Pd4'
_cell_volume   316.43867786
_cell_formula_units_Z   2
loop_
 _symmetry_equiv_pos_site_id
 _symmetry_equiv_pos_as_xyz
  1  'x, y, z'
loop_
 _atom_site_type_symbol
 _atom_site_label
 _atom_site_symmetry_multiplicity
 _atom_site_fract_x
 _atom_site_fract_y
 _atom_site_fract_z
 _atom_site_occupancy
  Ba  Ba0  1  0.366805  0.865828  0.633839  1
  Ba  Ba1  1  0.866805  0.634172  0.366161  1
  Ba  Ba2  1  0.633822  0.367180  0.866907  1
  Ba  Ba3  1  0.133822  0.132820  0.133093  1
  Si  Si4  1  0.342816  0.658838  0.154228  1
  Si  Si5  1  0.842816  0.841162  0.845772  1
  Ge  Ge6  1  0.658684  0.157045  0.338473  1
  Ge  Ge7  1  0.158684  0.342955  0.661527  1
  Pd  Pd8  1  0.093000  0.602260  0.912932  1
  Pd  Pd9  1  0.593000  0.897740  0.087068  1
  Pd  Pd10  1  0.904873  0.085434  0.601220  1
  Pd  Pd11  1  0.404873  0.414566  0.398780  1
