# generated using pymatgen
data_Ba4CuNi3P4
_symmetry_space_group_name_H-M   'P 1'
_cell_length_a   6.23535160
_cell_length_b   6.18902922
_cell_length_c   7.52094064
_cell_angle_alpha   89.57200170
_cell_angle_beta   89.67310111
_cell_angle_gamma   105.38851014
_symmetry_Int_Tables_number   1
_chemical_formula_structural   Ba4CuNi3P4
_chemical_formula_sum   'Ba4 Cu1 Ni3 P4'
_cell_volume   279.81675132
_cell_formula_units_Z   1
loop_
 _symmetry_equiv_pos_site_id
 _symmetry_equiv_pos_as_xyz
  1  'x, y, z'
loop_
 _atom_site_type_symbol
 _atom_site_label
 _atom_site_symmetry_multiplicity
 _atom_site_fract_x
 _atom_site_fract_y
 _atom_site_fract_z
 _atom_site_occupancy
  Ba  Ba0  1  0.185019  0.812186  0.511477  1
  Ba  Ba1  1  0.685809  0.316217  0.990761  1
  Ba  Ba2  1  0.815632  0.188857  0.488594  1
  Ba  Ba3  1  0.318572  0.690228  0.014008  1
  Cu  Cu4  1  0.878354  0.878307  0.876350  1
  Ni  Ni5  1  0.379668  0.379937  0.615784  1
  Ni  Ni6  1  0.615214  0.614861  0.379863  1
  Ni  Ni7  1  0.121460  0.119997  0.122507  1
  P  P8  1  0.162969  0.196153  0.828641  1
  P  P9  1  0.655189  0.680649  0.667558  1
  P  P10  1  0.843760  0.809938  0.177964  1
  P  P11  1  0.338356  0.312667  0.326494  1
