# generated using pymatgen
data_Dy4Ho(OsO6)2
_symmetry_space_group_name_H-M   'P 1'
_cell_length_a   6.87984545
_cell_length_b   6.87984567
_cell_length_c   7.48990205
_cell_angle_alpha   73.97426358
_cell_angle_beta   73.97426393
_cell_angle_gamma   48.52821776
_symmetry_Int_Tables_number   1
_chemical_formula_structural   Dy4Ho(OsO6)2
_chemical_formula_sum   'Dy4 Ho1 Os2 O12'
_cell_volume   253.15905790
_cell_formula_units_Z   1
loop_
 _symmetry_equiv_pos_site_id
 _symmetry_equiv_pos_as_xyz
  1  'x, y, z'
loop_
 _atom_site_type_symbol
 _atom_site_label
 _atom_site_symmetry_multiplicity
 _atom_site_fract_x
 _atom_site_fract_y
 _atom_site_fract_z
 _atom_site_occupancy
  Dy  Dy0  1  0.312218  0.312218  0.828242  1
  Dy  Dy1  1  0.687782  0.687782  0.171758  1
  Dy  Dy2  1  0.698824  0.698824  0.641838  1
  Dy  Dy3  1  0.301176  0.301176  0.358162  1
  Ho  Ho4  1  0.000000  0.000000  0.500000  1
  Os  Os5  1  0.219051  0.780949  0.000000  1
  Os  Os6  1  0.780949  0.219051  0.000000  1
  O  O7  1  0.499068  0.499068  0.174194  1
  O  O8  1  0.500932  0.500932  0.825806  1
  O  O9  1  0.001175  0.001175  0.204058  1
  O  O10  1  0.998825  0.998825  0.795942  1
  O  O11  1  0.913328  0.419041  0.914330  1
  O  O12  1  0.580959  0.086672  0.085670  1
  O  O13  1  0.086672  0.580959  0.085670  1
  O  O14  1  0.596851  0.098480  0.572397  1
  O  O15  1  0.901520  0.403149  0.427603  1
  O  O16  1  0.403149  0.901520  0.427603  1
  O  O17  1  0.098480  0.596851  0.572397  1
  O  O18  1  0.419041  0.913328  0.914330  1
