# generated using pymatgen
data_La4Al3OsI2
_symmetry_space_group_name_H-M   'P 1'
_cell_length_a   4.39172500
_cell_length_b   4.39172489
_cell_length_c   17.87889400
_cell_angle_alpha   90.00000000
_cell_angle_beta   90.00000000
_cell_angle_gamma   120.00000837
_symmetry_Int_Tables_number   1
_chemical_formula_structural   La4Al3OsI2
_chemical_formula_sum   'La4 Al3 Os1 I2'
_cell_volume   298.63555253
_cell_formula_units_Z   1
loop_
 _symmetry_equiv_pos_site_id
 _symmetry_equiv_pos_as_xyz
  1  'x, y, z'
loop_
 _atom_site_type_symbol
 _atom_site_label
 _atom_site_symmetry_multiplicity
 _atom_site_fract_x
 _atom_site_fract_y
 _atom_site_fract_z
 _atom_site_occupancy
  La  La0  1  0.000000  0.000000  0.105030  1
  La  La1  1  0.000000  0.000000  0.895854  1
  La  La2  1  0.000000  0.000000  0.618209  1
  La  La3  1  0.000000  0.000000  0.381507  1
  Al  Al4  1  0.333333  0.666667  0.506480  1
  Al  Al5  1  0.666667  0.333333  0.493498  1
  Al  Al6  1  0.666667  0.333333  0.000486  1
  Os  Os7  1  0.333333  0.666667  0.999578  1
  I  I8  1  0.333333  0.666667  0.251797  1
  I  I9  1  0.666667  0.333333  0.747560  1
