# generated using pymatgen
data_Er10TlBi3Pt2
_symmetry_space_group_name_H-M   'P 1'
_cell_length_a   7.97255003
_cell_length_b   9.00854318
_cell_length_c   12.32890500
_cell_angle_alpha   90.03297107
_cell_angle_beta   90.02917054
_cell_angle_gamma   90.04424357
_symmetry_Int_Tables_number   1
_chemical_formula_structural   Er10TlBi3Pt2
_chemical_formula_sum   'Er20 Tl2 Bi6 Pt4'
_cell_volume   885.47451527
_cell_formula_units_Z   2
loop_
 _symmetry_equiv_pos_site_id
 _symmetry_equiv_pos_as_xyz
  1  'x, y, z'
loop_
 _atom_site_type_symbol
 _atom_site_label
 _atom_site_symmetry_multiplicity
 _atom_site_fract_x
 _atom_site_fract_y
 _atom_site_fract_z
 _atom_site_occupancy
  Er  Er0  1  0.669561  0.753214  0.710235  1
  Er  Er1  1  0.330439  0.246786  0.289765  1
  Er  Er2  1  0.162713  0.245793  0.787103  1
  Er  Er3  1  0.837287  0.754207  0.212897  1
  Er  Er4  1  0.125317  0.753661  0.802556  1
  Er  Er5  1  0.874683  0.246339  0.197444  1
  Er  Er6  1  0.634821  0.246097  0.695683  1
  Er  Er7  1  0.365179  0.753903  0.304317  1
  Er  Er8  1  0.549825  0.749520  0.000364  1
  Er  Er9  1  0.450175  0.250480  0.999636  1
  Er  Er10  1  0.047438  0.242598  0.499842  1
  Er  Er11  1  0.952562  0.757402  0.500158  1
  Er  Er12  1  0.822374  0.454754  0.932352  1
  Er  Er13  1  0.177626  0.545246  0.067648  1
  Er  Er14  1  0.323473  0.543843  0.567818  1
  Er  Er15  1  0.174294  0.956035  0.071572  1
  Er  Er16  1  0.676527  0.456157  0.432182  1
  Er  Er17  1  0.825706  0.043965  0.928428  1
  Er  Er18  1  0.681641  0.042553  0.433692  1
  Er  Er19  1  0.318359  0.957447  0.566308  1
  Tl  Tl20  1  0.935284  0.007809  0.673305  1
  Tl  Tl21  1  0.064716  0.992191  0.326695  1
  Bi  Bi22  1  0.434236  0.990063  0.828313  1
  Bi  Bi23  1  0.065587  0.508808  0.328434  1
  Bi  Bi24  1  0.565764  0.009937  0.171687  1
  Bi  Bi25  1  0.934413  0.491192  0.671566  1
  Bi  Bi26  1  0.566207  0.490657  0.173235  1
  Bi  Bi27  1  0.433793  0.509343  0.826765  1
  Pt  Pt28  1  0.925022  0.748874  0.989697  1
  Pt  Pt29  1  0.074978  0.251126  0.010303  1
  Pt  Pt30  1  0.427492  0.250880  0.510383  1
  Pt  Pt31  1  0.572508  0.749120  0.489617  1
