# generated using pymatgen
data_Na4CaSi12Ir19
_symmetry_space_group_name_H-M   'P 1'
_cell_length_a   12.75464600
_cell_length_b   12.75464697
_cell_length_c   4.00830100
_cell_angle_alpha   90.00000000
_cell_angle_beta   90.00000000
_cell_angle_gamma   120.00000266
_symmetry_Int_Tables_number   1
_chemical_formula_structural   Na4CaSi12Ir19
_chemical_formula_sum   'Na4 Ca1 Si12 Ir19'
_cell_volume   564.71301774
_cell_formula_units_Z   1
loop_
 _symmetry_equiv_pos_site_id
 _symmetry_equiv_pos_as_xyz
  1  'x, y, z'
loop_
 _atom_site_type_symbol
 _atom_site_label
 _atom_site_symmetry_multiplicity
 _atom_site_fract_x
 _atom_site_fract_y
 _atom_site_fract_z
 _atom_site_occupancy
  Na  Na0  1  0.000050  0.181829  0.500000  1
  Na  Na1  1  0.818171  0.818221  0.500000  1
  Na  Na2  1  0.181779  0.999950  0.500000  1
  Na  Na3  1  0.666667  0.333333  0.000000  1
  Ca  Ca4  1  0.333333  0.666667  0.000000  1
  Si  Si5  1  0.480632  0.312367  0.500000  1
  Si  Si6  1  0.818076  0.000897  0.000000  1
  Si  Si7  1  0.182822  0.181924  0.000000  1
  Si  Si8  1  0.999103  0.817178  0.000000  1
  Si  Si9  1  0.370052  0.001089  0.000000  1
  Si  Si10  1  0.687633  0.168266  0.500000  1
  Si  Si11  1  0.831734  0.519368  0.500000  1
  Si  Si12  1  0.521714  0.833705  0.500000  1
  Si  Si13  1  0.166295  0.688009  0.500000  1
  Si  Si14  1  0.311991  0.478286  0.500000  1
  Si  Si15  1  0.998911  0.368963  0.000000  1
  Si  Si16  1  0.631037  0.629948  0.000000  1
  Ir  Ir17  1  0.805824  0.184396  0.000000  1
  Ir  Ir18  1  0.378571  0.194176  0.000000  1
  Ir  Ir19  1  0.639026  0.514125  0.500000  1
  Ir  Ir20  1  0.875098  0.360974  0.500000  1
  Ir  Ir21  1  0.360546  0.873707  0.500000  1
  Ir  Ir22  1  0.513161  0.639454  0.500000  1
  Ir  Ir23  1  0.126293  0.486839  0.500000  1
  Ir  Ir24  1  0.815604  0.621429  0.000000  1
  Ir  Ir25  1  0.623096  0.815351  0.000000  1
  Ir  Ir26  1  0.184649  0.807744  0.000000  1
  Ir  Ir27  1  0.192256  0.376904  0.000000  1
  Ir  Ir28  1  0.999368  0.717553  0.500000  1
  Ir  Ir29  1  0.282447  0.281815  0.500000  1
  Ir  Ir30  1  0.718185  0.000632  0.500000  1
  Ir  Ir31  1  0.001845  0.554819  0.000000  1
  Ir  Ir32  1  0.445181  0.447026  0.000000  1
  Ir  Ir33  1  0.552974  0.998155  0.000000  1
  Ir  Ir34  1  0.000000  0.000000  0.000000  1
  Ir  Ir35  1  0.485875  0.124902  0.500000  1
