# generated using pymatgen
data_Ce10PdPb6S
_symmetry_space_group_name_H-M   'P 1'
_cell_length_a   6.76109956
_cell_length_b   9.55856931
_cell_length_c   9.55857019
_cell_angle_alpha   120.13909537
_cell_angle_beta   89.96111698
_cell_angle_gamma   89.96112283
_symmetry_Int_Tables_number   1
_chemical_formula_structural   Ce10PdPb6S
_chemical_formula_sum   'Ce10 Pd1 Pb6 S1'
_cell_volume   534.22347208
_cell_formula_units_Z   1
loop_
 _symmetry_equiv_pos_site_id
 _symmetry_equiv_pos_as_xyz
  1  'x, y, z'
loop_
 _atom_site_type_symbol
 _atom_site_label
 _atom_site_symmetry_multiplicity
 _atom_site_fract_x
 _atom_site_fract_y
 _atom_site_fract_z
 _atom_site_occupancy
  Ce  Ce0  1  0.755279  0.750189  0.750189  1
  Ce  Ce1  1  0.755295  0.249589  0.999946  1
  Ce  Ce2  1  0.755295  0.999946  0.249589  1
  Ce  Ce3  1  0.244721  0.249811  0.249811  1
  Ce  Ce4  1  0.244705  0.750411  0.000054  1
  Ce  Ce5  1  0.244705  0.000054  0.750411  1
  Ce  Ce6  1  0.000000  0.666427  0.333573  1
  Ce  Ce7  1  0.000000  0.333573  0.666427  1
  Ce  Ce8  1  0.500000  0.333466  0.666534  1
  Ce  Ce9  1  0.500000  0.666534  0.333466  1
  Pd  Pd10  1  0.500000  0.000000  0.000000  1
  Pb  Pb11  1  0.749497  0.390906  0.390906  1
  Pb  Pb12  1  0.749544  0.609282  0.999748  1
  Pb  Pb13  1  0.749544  0.999748  0.609282  1
  Pb  Pb14  1  0.250503  0.609094  0.609094  1
  Pb  Pb15  1  0.250456  0.390718  0.000252  1
  Pb  Pb16  1  0.250456  0.000252  0.390718  1
  S  S17  1  0.000000  0.000000  0.000000  1
