# generated using pymatgen
data_Li3Nd3CuSn4
_symmetry_space_group_name_H-M   'P 1'
_cell_length_a   8.85019947
_cell_length_b   8.71611788
_cell_length_c   8.71611817
_cell_angle_alpha   149.00494135
_cell_angle_beta   131.80940459
_cell_angle_gamma   58.26240436
_symmetry_Int_Tables_number   1
_chemical_formula_structural   Li3Nd3CuSn4
_chemical_formula_sum   'Li3 Nd3 Cu1 Sn4'
_cell_volume   256.26078354
_cell_formula_units_Z   1
loop_
 _symmetry_equiv_pos_site_id
 _symmetry_equiv_pos_as_xyz
  1  'x, y, z'
loop_
 _atom_site_type_symbol
 _atom_site_label
 _atom_site_symmetry_multiplicity
 _atom_site_fract_x
 _atom_site_fract_y
 _atom_site_fract_z
 _atom_site_occupancy
  Li  Li0  1  0.861229  0.671166  0.190063  1
  Li  Li1  1  0.483039  0.671868  0.811170  1
  Li  Li2  1  0.513341  0.330755  0.182586  1
  Nd  Nd3  1  0.502765  0.999599  0.503166  1
  Nd  Nd4  1  0.122403  0.131448  0.990955  1
  Nd  Nd5  1  0.880046  0.869237  0.010809  1
  Cu  Cu6  1  0.131454  0.326080  0.805374  1
  Sn  Sn7  1  0.804971  0.500687  0.304285  1
  Sn  Sn8  1  0.198560  0.496813  0.701747  1
  Sn  Sn9  1  0.724038  0.215064  0.508974  1
  Sn  Sn10  1  0.278153  0.787283  0.490871  1
