# generated using pymatgen
data_La3Mg3IrAu2
_symmetry_space_group_name_H-M   'P 1'
_cell_length_a   7.82802200
_cell_length_b   7.82802171
_cell_length_c   4.18047500
_cell_angle_alpha   90.00000000
_cell_angle_beta   90.00000000
_cell_angle_gamma   120.00000968
_symmetry_Int_Tables_number   1
_chemical_formula_structural   La3Mg3IrAu2
_chemical_formula_sum   'La3 Mg3 Ir1 Au2'
_cell_volume   221.85043207
_cell_formula_units_Z   1
loop_
 _symmetry_equiv_pos_site_id
 _symmetry_equiv_pos_as_xyz
  1  'x, y, z'
loop_
 _atom_site_type_symbol
 _atom_site_label
 _atom_site_symmetry_multiplicity
 _atom_site_fract_x
 _atom_site_fract_y
 _atom_site_fract_z
 _atom_site_occupancy
  La  La0  1  0.569968  0.978834  0.000000  1
  La  La1  1  0.021166  0.591134  0.000000  1
  La  La2  1  0.408866  0.430032  0.000000  1
  Mg  Mg3  1  0.241759  0.997492  0.500000  1
  Mg  Mg4  1  0.002508  0.244267  0.500000  1
  Mg  Mg5  1  0.755733  0.758241  0.500000  1
  Ir  Ir6  1  0.333333  0.666667  0.500000  1
  Au  Au7  1  0.666667  0.333333  0.500000  1
  Au  Au8  1  0.000000  0.000000  0.000000  1
