# generated using pymatgen
data_La5P12Ru5Rh14
_symmetry_space_group_name_H-M   'P 1'
_cell_length_a   12.83089814
_cell_length_b   12.80088238
_cell_length_c   4.01414000
_cell_angle_alpha   90.00000000
_cell_angle_beta   90.00000000
_cell_angle_gamma   120.06909846
_symmetry_Int_Tables_number   1
_chemical_formula_structural   La5P12Ru5Rh14
_chemical_formula_sum   'La5 P12 Ru5 Rh14'
_cell_volume   570.58099072
_cell_formula_units_Z   1
loop_
 _symmetry_equiv_pos_site_id
 _symmetry_equiv_pos_as_xyz
  1  'x, y, z'
loop_
 _atom_site_type_symbol
 _atom_site_label
 _atom_site_symmetry_multiplicity
 _atom_site_fract_x
 _atom_site_fract_y
 _atom_site_fract_z
 _atom_site_occupancy
  La  La0  1  0.666472  0.331370  0.000000  1
  La  La1  1  0.334238  0.667878  0.000000  1
  La  La2  1  0.814842  0.000790  0.500000  1
  La  La3  1  0.184228  0.185974  0.500000  1
  La  La4  1  0.999550  0.813252  0.500000  1
  P  P5  1  0.631195  0.999191  0.000000  1
  P  P6  1  0.368665  0.368988  0.000000  1
  P  P7  1  0.000518  0.630714  0.000000  1
  P  P8  1  0.689192  0.521349  0.500000  1
  P  P9  1  0.830159  0.306152  0.500000  1
  P  P10  1  0.316448  0.836721  0.500000  1
  P  P11  1  0.521735  0.692219  0.500000  1
  P  P12  1  0.185654  0.000191  0.000000  1
  P  P13  1  0.814138  0.813488  0.000000  1
  P  P14  1  0.997391  0.186736  0.000000  1
  P  P15  1  0.476251  0.166362  0.500000  1
  P  P16  1  0.167521  0.478782  0.500000  1
  Ru  Ru17  1  0.514663  0.875513  0.500000  1
  Ru  Ru18  1  0.712246  0.712546  0.500000  1
  Ru  Ru19  1  0.000091  0.288071  0.500000  1
  Ru  Ru20  1  0.818211  0.197768  0.000000  1
  Ru  Ru21  1  0.284350  0.999640  0.500000  1
  Rh  Rh22  1  0.622533  0.802262  0.000000  1
  Rh  Rh23  1  0.181964  0.379020  0.000000  1
  Rh  Rh24  1  0.377289  0.181394  0.000000  1
  Rh  Rh25  1  0.196333  0.819088  0.000000  1
  Rh  Rh26  1  0.801766  0.620515  0.000000  1
  Rh  Rh27  1  0.872436  0.509931  0.500000  1
  Rh  Rh28  1  0.489835  0.361125  0.500000  1
  Rh  Rh29  1  0.634795  0.124806  0.500000  1
  Rh  Rh30  1  0.129969  0.640653  0.500000  1
  Rh  Rh31  1  0.361983  0.488983  0.500000  1
  Rh  Rh32  1  0.999625  0.000214  0.000000  1
  Rh  Rh33  1  0.451857  0.998518  0.000000  1
  Rh  Rh34  1  0.549381  0.547830  0.000000  1
  Rh  Rh35  1  0.002481  0.451970  0.000000  1
