# generated using pymatgen
data_BaSrGd2(ReN3)4
_symmetry_space_group_name_H-M   'P 1'
_cell_length_a   7.47359366
_cell_length_b   7.47359198
_cell_length_c   6.23361272
_cell_angle_alpha   77.78553389
_cell_angle_beta   77.78553085
_cell_angle_gamma   87.50126937
_symmetry_Int_Tables_number   1
_chemical_formula_structural   BaSrGd2(ReN3)4
_chemical_formula_sum   'Ba1 Sr1 Gd2 Re4 N12'
_cell_volume   332.59039631
_cell_formula_units_Z   1
loop_
 _symmetry_equiv_pos_site_id
 _symmetry_equiv_pos_as_xyz
  1  'x, y, z'
loop_
 _atom_site_type_symbol
 _atom_site_label
 _atom_site_symmetry_multiplicity
 _atom_site_fract_x
 _atom_site_fract_y
 _atom_site_fract_z
 _atom_site_occupancy
  Ba  Ba0  1  0.315300  0.684700  0.250000  1
  Sr  Sr1  1  0.686636  0.313364  0.750000  1
  Gd  Gd2  1  0.903223  0.096777  0.250000  1
  Gd  Gd3  1  0.090013  0.909987  0.750000  1
  Re  Re4  1  0.800680  0.625767  0.228755  1
  Re  Re5  1  0.374233  0.199320  0.271245  1
  Re  Re6  1  0.628088  0.798127  0.726377  1
  Re  Re7  1  0.201873  0.371912  0.773623  1
  N  N8  1  0.789082  0.988220  0.640900  1
  N  N9  1  0.122829  0.602043  0.704795  1
  N  N10  1  0.336182  0.356676  0.003391  1
  N  N11  1  0.601185  0.115216  0.191167  1
  N  N12  1  0.884784  0.398815  0.308833  1
  N  N13  1  0.201815  0.020921  0.359250  1
  N  N14  1  0.979079  0.798185  0.140750  1
  N  N15  1  0.358976  0.327039  0.509151  1
  N  N16  1  0.643324  0.663818  0.496609  1
  N  N17  1  0.011780  0.210918  0.859100  1
  N  N18  1  0.397957  0.877171  0.795205  1
  N  N19  1  0.672961  0.641024  0.990849  1
