# generated using pymatgen
data_Hf3Zr7Ga2(Sn2Sb)2
_symmetry_space_group_name_H-M   'P 1'
_cell_length_a   8.68448825
_cell_length_b   8.68080822
_cell_length_c   5.88907202
_cell_angle_alpha   90.00353818
_cell_angle_beta   90.00656749
_cell_angle_gamma   119.97589439
_symmetry_Int_Tables_number   1
_chemical_formula_structural   Hf3Zr7Ga2(Sn2Sb)2
_chemical_formula_sum   'Hf3 Zr7 Ga2 Sn4 Sb2'
_cell_volume   384.58055745
_cell_formula_units_Z   1
loop_
 _symmetry_equiv_pos_site_id
 _symmetry_equiv_pos_as_xyz
  1  'x, y, z'
loop_
 _atom_site_type_symbol
 _atom_site_label
 _atom_site_symmetry_multiplicity
 _atom_site_fract_x
 _atom_site_fract_y
 _atom_site_fract_z
 _atom_site_occupancy
  Hf  Hf0  1  0.333953  0.666618  0.001082  1
  Hf  Hf1  1  0.334038  0.666719  0.499029  1
  Hf  Hf2  1  0.666063  0.332760  0.498716  1
  Zr  Zr3  1  0.732423  0.734025  0.750186  1
  Zr  Zr4  1  0.267166  0.000717  0.750140  1
  Zr  Zr5  1  0.000493  0.265961  0.750125  1
  Zr  Zr6  1  0.268654  0.268590  0.250015  1
  Zr  Zr7  1  0.731021  0.999263  0.249949  1
  Zr  Zr8  1  0.000372  0.732230  0.249874  1
  Zr  Zr9  1  0.665797  0.332413  0.000664  1
  Ga  Ga10  1  0.000003  0.999495  0.002476  1
  Ga  Ga11  1  0.999991  0.999488  0.497543  1
  Sn  Sn12  1  0.000554  0.611448  0.749490  1
  Sn  Sn13  1  0.613089  0.612851  0.250533  1
  Sn  Sn14  1  0.386354  0.998652  0.250612  1
  Sn  Sn15  1  0.000580  0.388853  0.250563  1
  Sb  Sb16  1  0.390062  0.390538  0.749490  1
  Sb  Sb17  1  0.609387  0.999379  0.749512  1
