# generated using pymatgen
data_Er6ScRhO12
_symmetry_space_group_name_H-M   'P 1'
_cell_length_a   6.52199349
_cell_length_b   6.52199223
_cell_length_c   6.52199359
_cell_angle_alpha   93.45593964
_cell_angle_beta   93.45594749
_cell_angle_gamma   93.45593059
_symmetry_Int_Tables_number   1
_chemical_formula_structural   Er6ScRhO12
_chemical_formula_sum   'Er6 Sc1 Rh1 O12'
_cell_volume   275.84467341
_cell_formula_units_Z   1
loop_
 _symmetry_equiv_pos_site_id
 _symmetry_equiv_pos_as_xyz
  1  'x, y, z'
loop_
 _atom_site_type_symbol
 _atom_site_label
 _atom_site_symmetry_multiplicity
 _atom_site_fract_x
 _atom_site_fract_y
 _atom_site_fract_z
 _atom_site_occupancy
  Er  Er0  1  0.741925  0.921600  0.432679  1
  Er  Er1  1  0.921600  0.432679  0.741925  1
  Er  Er2  1  0.432679  0.741925  0.921600  1
  Er  Er3  1  0.258075  0.078400  0.567321  1
  Er  Er4  1  0.078400  0.567321  0.258075  1
  Er  Er5  1  0.567321  0.258075  0.078400  1
  Sc  Sc6  1  0.000000  0.000000  0.000000  1
  Rh  Rh7  1  0.500000  0.500000  0.500000  1
  O  O8  1  0.590332  0.460190  0.806906  1
  O  O9  1  0.460190  0.806906  0.590332  1
  O  O10  1  0.806906  0.590332  0.460190  1
  O  O11  1  0.409668  0.539810  0.193094  1
  O  O12  1  0.539810  0.193094  0.409668  1
  O  O13  1  0.193094  0.409668  0.539810  1
  O  O14  1  0.068810  0.916062  0.309844  1
  O  O15  1  0.916062  0.309844  0.068810  1
  O  O16  1  0.690156  0.931190  0.083938  1
  O  O17  1  0.083938  0.690156  0.931190  1
  O  O18  1  0.931190  0.083938  0.690156  1
  O  O19  1  0.309844  0.068810  0.916062  1
