# generated using pymatgen
data_Fe3Si2Ni(Mo3C)2
_symmetry_space_group_name_H-M   'P 1'
_cell_length_a   7.86677971
_cell_length_b   7.88103358
_cell_length_c   7.86678001
_cell_angle_alpha   59.94004274
_cell_angle_beta   59.80882479
_cell_angle_gamma   59.94004832
_symmetry_Int_Tables_number   1
_chemical_formula_structural   Fe3Si2Ni(Mo3C)2
_chemical_formula_sum   'Fe6 Si4 Ni2 Mo12 C4'
_cell_volume   344.06282506
_cell_formula_units_Z   2
loop_
 _symmetry_equiv_pos_site_id
 _symmetry_equiv_pos_as_xyz
  1  'x, y, z'
loop_
 _atom_site_type_symbol
 _atom_site_label
 _atom_site_symmetry_multiplicity
 _atom_site_fract_x
 _atom_site_fract_y
 _atom_site_fract_z
 _atom_site_occupancy
  Fe  Fe0  1  0.920324  0.916621  0.246434  1
  Fe  Fe1  1  0.330379  0.328735  0.330379  1
  Fe  Fe2  1  0.246434  0.916621  0.920324  1
  Fe  Fe3  1  0.330379  0.010507  0.330379  1
  Fe  Fe4  1  0.010241  0.328857  0.332045  1
  Fe  Fe5  1  0.332045  0.328857  0.010241  1
  Si  Si6  1  0.121365  0.127647  0.121365  1
  Si  Si7  1  0.633211  0.122550  0.121689  1
  Si  Si8  1  0.121689  0.122550  0.633211  1
  Si  Si9  1  0.121365  0.629622  0.121365  1
  Ni  Ni10  1  0.917405  0.916794  0.917405  1
  Ni  Ni11  1  0.917405  0.248396  0.917405  1
  Mo  Mo12  1  0.692496  0.306359  0.307264  1
  Mo  Mo13  1  0.948432  0.948094  0.549997  1
  Mo  Mo14  1  0.692496  0.693881  0.307264  1
  Mo  Mo15  1  0.692115  0.307885  0.692115  1
  Mo  Mo16  1  0.305908  0.694092  0.305908  1
  Mo  Mo17  1  0.555177  0.944823  0.555177  1
  Mo  Mo18  1  0.549997  0.948094  0.948432  1
  Mo  Mo19  1  0.948432  0.553478  0.549997  1
  Mo  Mo20  1  0.947563  0.552437  0.947563  1
  Mo  Mo21  1  0.307264  0.306359  0.692496  1
  Mo  Mo22  1  0.549997  0.553478  0.948432  1
  Mo  Mo23  1  0.307264  0.693881  0.692496  1
  C  C24  1  0.626229  0.625025  0.626229  1
  C  C25  1  0.625917  0.625920  0.122244  1
  C  C26  1  0.122244  0.625920  0.625917  1
  C  C27  1  0.626229  0.122518  0.626229  1
