# generated using pymatgen
data_TaNb2OsF20
_symmetry_space_group_name_H-M   'P 1'
_cell_length_a   5.79112628
_cell_length_b   7.55450856
_cell_length_c   9.91789280
_cell_angle_alpha   88.08132962
_cell_angle_beta   106.27177574
_cell_angle_gamma   99.22241683
_symmetry_Int_Tables_number   1
_chemical_formula_structural   TaNb2OsF20
_chemical_formula_sum   'Ta1 Nb2 Os1 F20'
_cell_volume   411.10455088
_cell_formula_units_Z   1
loop_
 _symmetry_equiv_pos_site_id
 _symmetry_equiv_pos_as_xyz
  1  'x, y, z'
loop_
 _atom_site_type_symbol
 _atom_site_label
 _atom_site_symmetry_multiplicity
 _atom_site_fract_x
 _atom_site_fract_y
 _atom_site_fract_z
 _atom_site_occupancy
  Ta  Ta0  1  0.034142  0.229797  0.684728  1
  Nb  Nb1  1  0.337169  0.379677  0.219140  1
  Nb  Nb2  1  0.659899  0.618764  0.778829  1
  Os  Os3  1  0.963773  0.758930  0.313984  1
  F  F4  1  0.025371  0.248892  0.167254  1
  F  F5  1  0.971358  0.752140  0.831517  1
  F  F6  1  0.495045  0.218553  0.156394  1
  F  F7  1  0.503376  0.780270  0.842877  1
  F  F8  1  0.115568  0.230374  0.884085  1
  F  F9  1  0.885605  0.781297  0.115727  1
  F  F10  1  0.960530  0.291742  0.492739  1
  F  F11  1  0.040582  0.721962  0.510376  1
  F  F12  1  0.764688  0.049702  0.662720  1
  F  F13  1  0.229645  0.942928  0.336865  1
  F  F14  1  0.255254  0.080603  0.674548  1
  F  F15  1  0.752492  0.916433  0.325341  1
  F  F16  1  0.314573  0.444321  0.712557  1
  F  F17  1  0.688029  0.553622  0.288723  1
  F  F18  1  0.824798  0.419994  0.701320  1
  F  F19  1  0.179268  0.580706  0.301397  1
  F  F20  1  0.693632  0.454048  0.928376  1
  F  F21  1  0.307591  0.547838  0.072678  1
  F  F22  1  0.571067  0.669929  0.585857  1
  F  F23  1  0.426544  0.327481  0.411967  1
