# generated using pymatgen
data_LaNd3HoIr3
_symmetry_space_group_name_H-M   'P 1'
_cell_length_a   11.23802400
_cell_length_b   11.23875900
_cell_length_c   6.53124500
_cell_angle_alpha   90.00000000
_cell_angle_beta   90.00000000
_cell_angle_gamma   90.00000000
_symmetry_Int_Tables_number   1
_chemical_formula_structural   LaNd3HoIr3
_chemical_formula_sum   'La4 Nd12 Ho4 Ir12'
_cell_volume   824.90567052
_cell_formula_units_Z   4
loop_
 _symmetry_equiv_pos_site_id
 _symmetry_equiv_pos_as_xyz
  1  'x, y, z'
loop_
 _atom_site_type_symbol
 _atom_site_label
 _atom_site_symmetry_multiplicity
 _atom_site_fract_x
 _atom_site_fract_y
 _atom_site_fract_z
 _atom_site_occupancy
  La  La0  1  0.288793  0.088871  0.381221  1
  La  La1  1  0.288793  0.911129  0.881221  1
  La  La2  1  0.711207  0.088871  0.881221  1
  La  La3  1  0.711207  0.911129  0.381221  1
  Nd  Nd4  1  0.587808  0.787753  0.880408  1
  Nd  Nd5  1  0.587808  0.212247  0.380408  1
  Nd  Nd6  1  0.412192  0.787753  0.380408  1
  Nd  Nd7  1  0.412192  0.212247  0.880408  1
  Nd  Nd8  1  0.210671  0.412780  0.619593  1
  Nd  Nd9  1  0.210671  0.587220  0.119593  1
  Nd  Nd10  1  0.789329  0.412780  0.119593  1
  Nd  Nd11  1  0.789329  0.587220  0.619593  1
  Nd  Nd12  1  0.912594  0.710339  0.118678  1
  Nd  Nd13  1  0.912594  0.289661  0.618678  1
  Nd  Nd14  1  0.087406  0.710339  0.618678  1
  Nd  Nd15  1  0.087406  0.289661  0.118678  1
  Ho  Ho16  1  0.000000  0.000000  0.499875  1
  Ho  Ho17  1  0.000000  0.000000  0.999875  1
  Ho  Ho18  1  0.500000  0.500000  0.000520  1
  Ho  Ho19  1  0.500000  0.500000  0.500520  1
  Ir  Ir20  1  0.850937  0.148910  0.249526  1
  Ir  Ir21  1  0.850937  0.851090  0.749526  1
  Ir  Ir22  1  0.149063  0.148910  0.749526  1
  Ir  Ir23  1  0.149063  0.851090  0.249526  1
  Ir  Ir24  1  0.648457  0.351528  0.750009  1
  Ir  Ir25  1  0.648457  0.648472  0.250009  1
  Ir  Ir26  1  0.351543  0.351528  0.250009  1
  Ir  Ir27  1  0.351543  0.648472  0.750009  1
  Ir  Ir28  1  0.500000  0.000000  0.119298  1
  Ir  Ir29  1  0.500000  0.000000  0.619298  1
  Ir  Ir30  1  0.000000  0.500000  0.881438  1
  Ir  Ir31  1  0.000000  0.500000  0.381438  1
