# generated using pymatgen
data_Dy2HfZnRh2
_symmetry_space_group_name_H-M   'P 1'
_cell_length_a   4.51681600
_cell_length_b   6.84229997
_cell_length_c   7.97547868
_cell_angle_alpha   90.90644107
_cell_angle_beta   90.00000000
_cell_angle_gamma   90.00000000
_symmetry_Int_Tables_number   1
_chemical_formula_structural   Dy2HfZnRh2
_chemical_formula_sum   'Dy4 Hf2 Zn2 Rh4'
_cell_volume   246.45459341
_cell_formula_units_Z   2
loop_
 _symmetry_equiv_pos_site_id
 _symmetry_equiv_pos_as_xyz
  1  'x, y, z'
loop_
 _atom_site_type_symbol
 _atom_site_label
 _atom_site_symmetry_multiplicity
 _atom_site_fract_x
 _atom_site_fract_y
 _atom_site_fract_z
 _atom_site_occupancy
  Dy  Dy0  1  0.250000  0.519365  0.207865  1
  Dy  Dy1  1  0.750000  0.480635  0.792135  1
  Dy  Dy2  1  0.250000  0.024895  0.335681  1
  Dy  Dy3  1  0.750000  0.975105  0.664319  1
  Hf  Hf4  1  0.250000  0.139820  0.921751  1
  Hf  Hf5  1  0.750000  0.860180  0.078249  1
  Zn  Zn6  1  0.250000  0.662600  0.574728  1
  Zn  Zn7  1  0.750000  0.337400  0.425272  1
  Rh  Rh8  1  0.750000  0.725135  0.388021  1
  Rh  Rh9  1  0.250000  0.274865  0.611979  1
  Rh  Rh10  1  0.750000  0.238718  0.089327  1
  Rh  Rh11  1  0.250000  0.761282  0.910673  1
