# generated using pymatgen
data_Ho2CoNi(P3Ir4)2
_symmetry_space_group_name_H-M   'P 1'
_cell_length_a   3.94545600
_cell_length_b   10.70598000
_cell_length_c   12.39977300
_cell_angle_alpha   90.00000000
_cell_angle_beta   90.00000000
_cell_angle_gamma   90.00000000
_symmetry_Int_Tables_number   1
_chemical_formula_structural   Ho2CoNi(P3Ir4)2
_chemical_formula_sum   'Ho4 Co2 Ni2 P12 Ir16'
_cell_volume   523.76607706
_cell_formula_units_Z   2
loop_
 _symmetry_equiv_pos_site_id
 _symmetry_equiv_pos_as_xyz
  1  'x, y, z'
loop_
 _atom_site_type_symbol
 _atom_site_label
 _atom_site_symmetry_multiplicity
 _atom_site_fract_x
 _atom_site_fract_y
 _atom_site_fract_z
 _atom_site_occupancy
  Ho  Ho0  1  0.250000  0.586651  0.709145  1
  Ho  Ho1  1  0.250000  0.913349  0.209145  1
  Ho  Ho2  1  0.750000  0.412097  0.290114  1
  Ho  Ho3  1  0.750000  0.087903  0.790114  1
  Co  Co4  1  0.750000  0.538239  0.065160  1
  Co  Co5  1  0.750000  0.961761  0.565160  1
  Ni  Ni6  1  0.250000  0.464486  0.934476  1
  Ni  Ni7  1  0.250000  0.035514  0.434476  1
  P  P8  1  0.250000  0.424003  0.107196  1
  P  P9  1  0.250000  0.075997  0.607196  1
  P  P10  1  0.750000  0.577490  0.894289  1
  P  P11  1  0.750000  0.922510  0.394289  1
  P  P12  1  0.250000  0.270850  0.871389  1
  P  P13  1  0.250000  0.229150  0.371389  1
  P  P14  1  0.750000  0.728024  0.128371  1
  P  P15  1  0.750000  0.771976  0.628371  1
  P  P16  1  0.250000  0.593690  0.384731  1
  P  P17  1  0.250000  0.906310  0.884731  1
  P  P18  1  0.750000  0.407539  0.616523  1
  P  P19  1  0.750000  0.092461  0.116523  1
  Ir  Ir20  1  0.250000  0.718181  0.975721  1
  Ir  Ir21  1  0.250000  0.781819  0.475721  1
  Ir  Ir22  1  0.750000  0.277865  0.022557  1
  Ir  Ir23  1  0.750000  0.222135  0.522557  1
  Ir  Ir24  1  0.250000  0.407468  0.478310  1
  Ir  Ir25  1  0.250000  0.092532  0.978310  1
  Ir  Ir26  1  0.750000  0.594156  0.521359  1
  Ir  Ir27  1  0.750000  0.905844  0.021359  1
  Ir  Ir28  1  0.250000  0.229986  0.180343  1
  Ir  Ir29  1  0.250000  0.270014  0.680343  1
  Ir  Ir30  1  0.750000  0.770064  0.818925  1
  Ir  Ir31  1  0.750000  0.729936  0.318925  1
  Ir  Ir32  1  0.250000  0.887120  0.698854  1
  Ir  Ir33  1  0.250000  0.612880  0.198854  1
  Ir  Ir34  1  0.750000  0.112561  0.302536  1
  Ir  Ir35  1  0.750000  0.387439  0.802536  1
