# generated using pymatgen
data_Er10Sn5Sb
_symmetry_space_group_name_H-M   'P 1'
_cell_length_a   8.89620300
_cell_length_b   8.88516079
_cell_length_c   6.43406300
_cell_angle_alpha   90.00000000
_cell_angle_beta   90.00000000
_cell_angle_gamma   120.04111528
_symmetry_Int_Tables_number   1
_chemical_formula_structural   Er10Sn5Sb
_chemical_formula_sum   'Er10 Sn5 Sb1'
_cell_volume   440.25656142
_cell_formula_units_Z   1
loop_
 _symmetry_equiv_pos_site_id
 _symmetry_equiv_pos_as_xyz
  1  'x, y, z'
loop_
 _atom_site_type_symbol
 _atom_site_label
 _atom_site_symmetry_multiplicity
 _atom_site_fract_x
 _atom_site_fract_y
 _atom_site_fract_z
 _atom_site_occupancy
  Er  Er0  1  0.997579  0.760163  0.750000  1
  Er  Er1  1  0.000911  0.238769  0.250000  1
  Er  Er2  1  0.762142  0.761231  0.250000  1
  Er  Er3  1  0.762074  0.000000  0.750000  1
  Er  Er4  1  0.237416  0.239837  0.750000  1
  Er  Er5  1  0.238899  0.000000  0.250000  1
  Er  Er6  1  0.333189  0.665627  0.499806  1
  Er  Er7  1  0.667563  0.334373  0.000194  1
  Er  Er8  1  0.667563  0.334373  0.499806  1
  Er  Er9  1  0.333189  0.665627  0.000194  1
  Sn  Sn10  1  0.395918  0.394838  0.250000  1
  Sn  Sn11  1  0.001080  0.605162  0.250000  1
  Sn  Sn12  1  0.999682  0.395831  0.750000  1
  Sn  Sn13  1  0.603851  0.604169  0.750000  1
  Sn  Sn14  1  0.605718  0.000000  0.250000  1
  Sb  Sb15  1  0.393226  0.000000  0.750000  1
