# generated using pymatgen
data_EuSeO
_symmetry_space_group_name_H-M   'P 1'
_cell_length_a   7.57228876
_cell_length_b   7.57228765
_cell_length_c   5.88651700
_cell_angle_alpha   90.00000000
_cell_angle_beta   90.00000000
_cell_angle_gamma   134.38041800
_symmetry_Int_Tables_number   1
_chemical_formula_structural   EuSeO
_chemical_formula_sum   'Eu4 Se4 O4'
_cell_volume   241.23682410
_cell_formula_units_Z   4
loop_
 _symmetry_equiv_pos_site_id
 _symmetry_equiv_pos_as_xyz
  1  'x, y, z'
loop_
 _atom_site_type_symbol
 _atom_site_label
 _atom_site_symmetry_multiplicity
 _atom_site_fract_x
 _atom_site_fract_y
 _atom_site_fract_z
 _atom_site_occupancy
  Eu  Eu0  1  0.325775  0.674225  0.000000  1
  Eu  Eu1  1  0.174225  0.825775  0.500000  1
  Eu  Eu2  1  0.825775  0.174225  0.500000  1
  Eu  Eu3  1  0.674225  0.325775  0.000000  1
  Se  Se4  1  0.850432  0.850432  0.859911  1
  Se  Se5  1  0.350432  0.350432  0.640089  1
  Se  Se6  1  0.149568  0.149568  0.140089  1
  Se  Se7  1  0.649568  0.649568  0.359911  1
  O  O8  1  0.497555  0.997555  0.750000  1
  O  O9  1  0.002445  0.502445  0.250000  1
  O  O10  1  0.502445  0.002445  0.250000  1
  O  O11  1  0.997555  0.497555  0.750000  1
