# generated using pymatgen
data_Tb3YGa18(Co2Pt)2
_symmetry_space_group_name_H-M   'P 1'
_cell_length_a   7.48978600
_cell_length_b   7.48963073
_cell_length_c   9.44320500
_cell_angle_alpha   89.99935608
_cell_angle_beta   89.99970904
_cell_angle_gamma   119.78309782
_symmetry_Int_Tables_number   1
_chemical_formula_structural   Tb3YGa18(Co2Pt)2
_chemical_formula_sum   'Tb3 Y1 Ga18 Co4 Pt2'
_cell_volume   459.75338613
_cell_formula_units_Z   1
loop_
 _symmetry_equiv_pos_site_id
 _symmetry_equiv_pos_as_xyz
  1  'x, y, z'
loop_
 _atom_site_type_symbol
 _atom_site_label
 _atom_site_symmetry_multiplicity
 _atom_site_fract_x
 _atom_site_fract_y
 _atom_site_fract_z
 _atom_site_occupancy
  Tb  Tb0  1  0.665183  0.996766  0.750491  1
  Tb  Tb1  1  0.334836  0.003258  0.250495  1
  Tb  Tb2  1  0.996760  0.665186  0.749507  1
  Y  Y3  1  0.003276  0.334843  0.249504  1
  Ga  Ga4  1  0.011296  0.675933  0.075345  1
  Ga  Ga5  1  0.676051  0.011366  0.424654  1
  Ga  Ga6  1  0.990781  0.667308  0.424794  1
  Ga  Ga7  1  0.009170  0.332667  0.924728  1
  Ga  Ga8  1  0.667373  0.990818  0.075204  1
  Ga  Ga9  1  0.323997  0.988682  0.924583  1
  Ga  Ga10  1  0.676534  0.670422  0.561091  1
  Ga  Ga11  1  0.323449  0.329591  0.061018  1
  Ga  Ga12  1  0.670416  0.676525  0.938913  1
  Ga  Ga13  1  0.329554  0.323490  0.438989  1
  Ga  Ga14  1  0.116096  0.116094  0.749999  1
  Ga  Ga15  1  0.883953  0.883942  0.250001  1
  Ga  Ga16  1  0.660624  0.454426  0.258072  1
  Ga  Ga17  1  0.339373  0.545524  0.758070  1
  Ga  Ga18  1  0.454448  0.660674  0.241925  1
  Ga  Ga19  1  0.545537  0.339373  0.741935  1
  Ga  Ga20  1  0.332662  0.009189  0.575278  1
  Ga  Ga21  1  0.988674  0.323999  0.575405  1
  Co  Co22  1  0.329857  0.670102  0.000070  1
  Co  Co23  1  0.670090  0.329854  0.499936  1
  Co  Co24  1  0.000564  0.999467  0.000072  1
  Co  Co25  1  0.999488  0.000539  0.499930  1
  Pt  Pt26  1  0.671569  0.328373  0.000062  1
  Pt  Pt27  1  0.328389  0.671589  0.499931  1
