# generated using pymatgen
data_Eu8Zn3Si12Pd
_symmetry_space_group_name_H-M   'P 1'
_cell_length_a   8.36766900
_cell_length_b   8.36766895
_cell_length_c   8.60039700
_cell_angle_alpha   89.99997261
_cell_angle_beta   90.00001369
_cell_angle_gamma   120.00001206
_symmetry_Int_Tables_number   1
_chemical_formula_structural   Eu8Zn3Si12Pd
_chemical_formula_sum   'Eu8 Zn3 Si12 Pd1'
_cell_volume   521.50450001
_cell_formula_units_Z   1
loop_
 _symmetry_equiv_pos_site_id
 _symmetry_equiv_pos_as_xyz
  1  'x, y, z'
loop_
 _atom_site_type_symbol
 _atom_site_label
 _atom_site_symmetry_multiplicity
 _atom_site_fract_x
 _atom_site_fract_y
 _atom_site_fract_z
 _atom_site_occupancy
  Eu  Eu0  1  0.500798  0.499195  0.746430  1
  Eu  Eu1  1  0.501420  0.498578  0.253451  1
  Eu  Eu2  1  0.998332  0.499190  0.746379  1
  Eu  Eu3  1  0.997129  0.498568  0.253411  1
  Eu  Eu4  1  0.500805  0.001675  0.746347  1
  Eu  Eu5  1  0.501406  0.002869  0.253580  1
  Eu  Eu6  1  0.999988  0.999981  0.749861  1
  Eu  Eu7  1  0.999944  0.000000  0.250299  1
  Zn  Zn8  1  0.666647  0.333495  0.998187  1
  Zn  Zn9  1  0.333437  0.666591  0.001734  1
  Zn  Zn10  1  0.333335  0.666535  0.498858  1
  Si  Si11  1  0.834886  0.165235  0.001097  1
  Si  Si12  1  0.164938  0.835043  0.999849  1
  Si  Si13  1  0.330329  0.165290  0.000986  1
  Si  Si14  1  0.162273  0.837599  0.499481  1
  Si  Si15  1  0.669996  0.834961  0.000081  1
  Si  Si16  1  0.833799  0.166088  0.499894  1
  Si  Si17  1  0.834746  0.669606  0.001068  1
  Si  Si18  1  0.675312  0.837544  0.499437  1
  Si  Si19  1  0.165067  0.329996  0.999913  1
  Si  Si20  1  0.332431  0.166284  0.499864  1
  Si  Si21  1  0.162463  0.324782  0.499369  1
  Si  Si22  1  0.833639  0.667554  0.499817  1
  Pd  Pd23  1  0.666879  0.333344  0.500609  1
