# generated using pymatgen
data_Dy3Ho4Co6AgSn22
_symmetry_space_group_name_H-M   'P 1'
_cell_length_a   9.65428602
_cell_length_b   9.65464043
_cell_length_c   9.97545803
_cell_angle_alpha   89.99999883
_cell_angle_beta   90.00738455
_cell_angle_gamma   120.00121508
_symmetry_Int_Tables_number   1
_chemical_formula_structural   Dy3Ho4Co6AgSn22
_chemical_formula_sum   'Dy3 Ho4 Co6 Ag1 Sn22'
_cell_volume   805.21975285
_cell_formula_units_Z   1
loop_
 _symmetry_equiv_pos_site_id
 _symmetry_equiv_pos_as_xyz
  1  'x, y, z'
loop_
 _atom_site_type_symbol
 _atom_site_label
 _atom_site_symmetry_multiplicity
 _atom_site_fract_x
 _atom_site_fract_y
 _atom_site_fract_z
 _atom_site_occupancy
  Dy  Dy0  1  0.000000  0.000000  0.000000  1
  Dy  Dy1  1  0.042306  0.521154  0.306164  1
  Dy  Dy2  1  0.957694  0.478846  0.693836  1
  Ho  Ho3  1  0.478937  0.521081  0.306221  1
  Ho  Ho4  1  0.521063  0.478919  0.693779  1
  Ho  Ho5  1  0.478937  0.957857  0.306221  1
  Ho  Ho6  1  0.521063  0.042143  0.693779  1
  Co  Co7  1  0.832118  0.167714  0.196984  1
  Co  Co8  1  0.167882  0.832286  0.803016  1
  Co  Co9  1  0.832118  0.664402  0.196984  1
  Co  Co10  1  0.167882  0.335598  0.803016  1
  Co  Co11  1  0.335662  0.167830  0.197028  1
  Co  Co12  1  0.664338  0.832170  0.802972  1
  Ag  Ag13  1  0.000000  0.000000  0.500000  1
  Sn  Sn14  1  0.345566  0.000024  0.999995  1
  Sn  Sn15  1  0.654434  0.999976  0.000005  1
  Sn  Sn16  1  0.000000  0.345530  0.000000  1
  Sn  Sn17  1  0.000000  0.654470  0.000000  1
  Sn  Sn18  1  0.654434  0.654458  0.000005  1
  Sn  Sn19  1  0.345566  0.345542  0.999995  1
  Sn  Sn20  1  0.333384  0.666693  0.818785  1
  Sn  Sn21  1  0.666616  0.333307  0.181215  1
  Sn  Sn22  1  0.782256  0.217329  0.452992  1
  Sn  Sn23  1  0.217744  0.782671  0.547008  1
  Sn  Sn24  1  0.782256  0.564928  0.452992  1
  Sn  Sn25  1  0.217744  0.435072  0.547008  1
  Sn  Sn26  1  0.435081  0.217541  0.453008  1
  Sn  Sn27  1  0.564919  0.782459  0.546992  1
  Sn  Sn28  1  0.333538  0.666769  0.117221  1
  Sn  Sn29  1  0.666462  0.333231  0.882779  1
  Sn  Sn30  1  0.114678  0.885466  0.275663  1
  Sn  Sn31  1  0.885322  0.114534  0.724337  1
  Sn  Sn32  1  0.114678  0.229213  0.275663  1
  Sn  Sn33  1  0.885322  0.770787  0.724337  1
  Sn  Sn34  1  0.770674  0.885338  0.275686  1
  Sn  Sn35  1  0.229326  0.114662  0.724314  1
