# generated using pymatgen
data_Pr7Nd3(InSi2)2
_symmetry_space_group_name_H-M   'P 1'
_cell_length_a   7.93839221
_cell_length_b   7.93839109
_cell_length_c   9.31111971
_cell_angle_alpha   115.23591488
_cell_angle_beta   115.21442562
_cell_angle_gamma   90.01464307
_symmetry_Int_Tables_number   1
_chemical_formula_structural   Pr7Nd3(InSi2)2
_chemical_formula_sum   'Pr7 Nd3 In2 Si4'
_cell_volume   468.18621988
_cell_formula_units_Z   1
loop_
 _symmetry_equiv_pos_site_id
 _symmetry_equiv_pos_as_xyz
  1  'x, y, z'
loop_
 _atom_site_type_symbol
 _atom_site_label
 _atom_site_symmetry_multiplicity
 _atom_site_fract_x
 _atom_site_fract_y
 _atom_site_fract_z
 _atom_site_occupancy
  Pr  Pr0  1  0.314638  0.461353  0.275991  1
  Pr  Pr1  1  0.814821  0.314751  0.275948  1
  Pr  Pr2  1  0.461197  0.961127  0.275948  1
  Pr  Pr3  1  0.038750  0.185285  0.724035  1
  Pr  Pr4  1  0.685295  0.538770  0.724065  1
  Pr  Pr5  1  0.185295  0.685334  0.724035  1
  Pr  Pr6  1  0.538701  0.038740  0.724035  1
  Nd  Nd7  1  0.500110  0.500077  0.000107  1
  Nd  Nd8  1  0.000029  0.999996  0.000107  1
  Nd  Nd9  1  0.961003  0.814237  0.275240  1
  In  In10  1  0.750192  0.750099  0.499796  1
  In  In11  1  0.249697  0.249604  0.499796  1
  Si  Si12  1  0.615680  0.884599  0.000280  1
  Si  Si13  1  0.384689  0.115332  0.000021  1
  Si  Si14  1  0.884707  0.385103  0.000298  1
  Si  Si15  1  0.115196  0.615592  0.000298  1
