# generated using pymatgen
data_Hf10ZnIn2SiSb4
_symmetry_space_group_name_H-M   'P 1'
_cell_length_a   8.60285488
_cell_length_b   8.62469585
_cell_length_c   5.79475904
_cell_angle_alpha   89.98917666
_cell_angle_beta   90.00487990
_cell_angle_gamma   120.08499298
_symmetry_Int_Tables_number   1
_chemical_formula_structural   Hf10ZnIn2SiSb4
_chemical_formula_sum   'Hf10 Zn1 In2 Si1 Sb4'
_cell_volume   372.03157774
_cell_formula_units_Z   1
loop_
 _symmetry_equiv_pos_site_id
 _symmetry_equiv_pos_as_xyz
  1  'x, y, z'
loop_
 _atom_site_type_symbol
 _atom_site_label
 _atom_site_symmetry_multiplicity
 _atom_site_fract_x
 _atom_site_fract_y
 _atom_site_fract_z
 _atom_site_occupancy
  Hf  Hf0  1  0.736609  0.736638  0.245119  1
  Hf  Hf1  1  0.736607  0.999969  0.754879  1
  Hf  Hf2  1  0.998964  0.265187  0.245788  1
  Hf  Hf3  1  0.998965  0.733777  0.754215  1
  Hf  Hf4  1  0.263308  0.264511  0.754763  1
  Hf  Hf5  1  0.263306  0.998799  0.245236  1
  Hf  Hf6  1  0.332858  0.666428  0.500000  1
  Hf  Hf7  1  0.668691  0.334343  0.000002  1
  Hf  Hf8  1  0.669187  0.334597  0.500002  1
  Hf  Hf9  1  0.333542  0.666772  0.999997  1
  Zn  Zn10  1  0.002668  0.001335  0.500000  1
  In  In11  1  0.387953  0.000510  0.747024  1
  In  In12  1  0.387955  0.387441  0.252976  1
  Si  Si13  1  0.001221  0.000611  0.000000  1
  Sb  Sb14  1  0.001182  0.610208  0.252763  1
  Sb  Sb15  1  0.001181  0.390973  0.747237  1
  Sb  Sb16  1  0.607903  0.607401  0.745964  1
  Sb  Sb17  1  0.607902  0.000502  0.254036  1
