# generated using pymatgen
data_Li3TbTm2Sn3
_symmetry_space_group_name_H-M   'P 1'
_cell_length_a   7.28068188
_cell_length_b   7.28068118
_cell_length_c   4.59907400
_cell_angle_alpha   90.00000000
_cell_angle_beta   90.00000000
_cell_angle_gamma   120.55982895
_symmetry_Int_Tables_number   1
_chemical_formula_structural   Li3TbTm2Sn3
_chemical_formula_sum   'Li3 Tb1 Tm2 Sn3'
_cell_volume   209.92656872
_cell_formula_units_Z   1
loop_
 _symmetry_equiv_pos_site_id
 _symmetry_equiv_pos_as_xyz
  1  'x, y, z'
loop_
 _atom_site_type_symbol
 _atom_site_label
 _atom_site_symmetry_multiplicity
 _atom_site_fract_x
 _atom_site_fract_y
 _atom_site_fract_z
 _atom_site_occupancy
  Li  Li0  1  0.769365  0.000180  0.500000  1
  Li  Li1  1  0.230467  0.230466  0.500000  1
  Li  Li2  1  0.000180  0.769364  0.500000  1
  Tb  Tb3  1  0.559036  0.559036  0.000000  1
  Tm  Tm4  1  0.439283  0.000080  0.000000  1
  Tm  Tm5  1  0.000080  0.439283  0.000000  1
  Sn  Sn6  1  0.003153  0.003153  0.000000  1
  Sn  Sn7  1  0.667435  0.331002  0.500000  1
  Sn  Sn8  1  0.331001  0.667434  0.500000  1
