# generated using pymatgen
data_SmHf2Fe2Co7
_symmetry_space_group_name_H-M   'P 1'
_cell_length_a   4.96976446
_cell_length_b   4.96976532
_cell_length_c   8.31913068
_cell_angle_alpha   72.62076250
_cell_angle_beta   72.62075946
_cell_angle_gamma   60.00000261
_symmetry_Int_Tables_number   1
_chemical_formula_structural   SmHf2Fe2Co7
_chemical_formula_sum   'Sm1 Hf2 Fe2 Co7'
_cell_volume   167.02385910
_cell_formula_units_Z   1
loop_
 _symmetry_equiv_pos_site_id
 _symmetry_equiv_pos_as_xyz
  1  'x, y, z'
loop_
 _atom_site_type_symbol
 _atom_site_label
 _atom_site_symmetry_multiplicity
 _atom_site_fract_x
 _atom_site_fract_y
 _atom_site_fract_z
 _atom_site_occupancy
  Sm  Sm0  1  0.000062  0.000062  0.999814  1
  Hf  Hf1  1  0.141612  0.141612  0.575164  1
  Hf  Hf2  1  0.858786  0.858786  0.423641  1
  Fe  Fe3  1  0.665690  0.665690  0.002929  1
  Fe  Fe4  1  0.500250  0.500250  0.499249  1
  Co  Co5  1  0.081762  0.587813  0.742612  1
  Co  Co6  1  0.587813  0.587813  0.742612  1
  Co  Co7  1  0.587813  0.081762  0.742612  1
  Co  Co8  1  0.921415  0.410379  0.257827  1
  Co  Co9  1  0.410379  0.410379  0.257827  1
  Co  Co10  1  0.410379  0.921415  0.257827  1
  Co  Co11  1  0.334039  0.334039  0.997885  1
