# generated using pymatgen
data_Mn7NbCrRu3
_symmetry_space_group_name_H-M   'P 1'
_cell_length_a   4.70148700
_cell_length_b   4.68514126
_cell_length_c   7.70340698
_cell_angle_alpha   89.92883809
_cell_angle_beta   90.00000000
_cell_angle_gamma   120.11547029
_symmetry_Int_Tables_number   1
_chemical_formula_structural   Mn7NbCrRu3
_chemical_formula_sum   'Mn7 Nb1 Cr1 Ru3'
_cell_volume   146.77917883
_cell_formula_units_Z   1
loop_
 _symmetry_equiv_pos_site_id
 _symmetry_equiv_pos_as_xyz
  1  'x, y, z'
loop_
 _atom_site_type_symbol
 _atom_site_label
 _atom_site_symmetry_multiplicity
 _atom_site_fract_x
 _atom_site_fract_y
 _atom_site_fract_z
 _atom_site_occupancy
  Mn  Mn0  1  0.825542  0.175557  0.255624  1
  Mn  Mn1  1  0.350014  0.175557  0.255624  1
  Mn  Mn2  1  0.655798  0.828908  0.747996  1
  Mn  Mn3  1  0.998307  0.996614  0.005595  1
  Mn  Mn4  1  0.997552  0.995105  0.496564  1
  Mn  Mn5  1  0.825985  0.651969  0.253845  1
  Mn  Mn6  1  0.173110  0.828908  0.747996  1
  Nb  Nb7  1  0.334057  0.668115  0.063303  1
  Cr  Cr8  1  0.172607  0.345213  0.746134  1
  Ru  Ru9  1  0.333059  0.666120  0.434347  1
  Ru  Ru10  1  0.667624  0.335246  0.925669  1
  Ru  Ru11  1  0.666345  0.332688  0.567302  1
