# generated using pymatgen
data_TmLu7Ga3Co
_symmetry_space_group_name_H-M   'P 1'
_cell_length_a   9.80005800
_cell_length_b   9.80005747
_cell_length_c   6.78416800
_cell_angle_alpha   90.00000000
_cell_angle_beta   90.00000000
_cell_angle_gamma   120.00000853
_symmetry_Int_Tables_number   1
_chemical_formula_structural   TmLu7Ga3Co
_chemical_formula_sum   'Tm2 Lu14 Ga6 Co2'
_cell_volume   564.26674643
_cell_formula_units_Z   2
loop_
 _symmetry_equiv_pos_site_id
 _symmetry_equiv_pos_as_xyz
  1  'x, y, z'
loop_
 _atom_site_type_symbol
 _atom_site_label
 _atom_site_symmetry_multiplicity
 _atom_site_fract_x
 _atom_site_fract_y
 _atom_site_fract_z
 _atom_site_occupancy
  Tm  Tm0  1  0.000000  0.000000  0.268134  1
  Tm  Tm1  1  0.000000  0.000000  0.768134  1
  Lu  Lu2  1  0.173687  0.826313  0.989997  1
  Lu  Lu3  1  0.347374  0.173687  0.489997  1
  Lu  Lu4  1  0.826313  0.652626  0.489997  1
  Lu  Lu5  1  0.173687  0.347374  0.989997  1
  Lu  Lu6  1  0.652626  0.826313  0.989997  1
  Lu  Lu7  1  0.826313  0.173687  0.489997  1
  Lu  Lu8  1  0.333333  0.666667  0.671923  1
  Lu  Lu9  1  0.666667  0.333333  0.171923  1
  Lu  Lu10  1  0.464100  0.535900  0.292034  1
  Lu  Lu11  1  0.928199  0.464100  0.792034  1
  Lu  Lu12  1  0.535900  0.071801  0.792034  1
  Lu  Lu13  1  0.464100  0.928199  0.292034  1
  Lu  Lu14  1  0.071801  0.535900  0.292034  1
  Lu  Lu15  1  0.535900  0.464100  0.792034  1
  Ga  Ga16  1  0.163466  0.836534  0.539560  1
  Ga  Ga17  1  0.326931  0.163466  0.039560  1
  Ga  Ga18  1  0.836534  0.673069  0.039560  1
  Ga  Ga19  1  0.163466  0.326931  0.539560  1
  Ga  Ga20  1  0.673069  0.836534  0.539560  1
  Ga  Ga21  1  0.836534  0.163466  0.039560  1
  Co  Co22  1  0.333333  0.666667  0.057177  1
  Co  Co23  1  0.666667  0.333333  0.557177  1
