# generated using pymatgen
data_Lu12Fe2ReSn2
_symmetry_space_group_name_H-M   'P 1'
_cell_length_a   8.22485019
_cell_length_b   8.22485066
_cell_length_c   8.22484944
_cell_angle_alpha   108.85654885
_cell_angle_beta   108.85656068
_cell_angle_gamma   110.70767176
_symmetry_Int_Tables_number   1
_chemical_formula_structural   Lu12Fe2ReSn2
_chemical_formula_sum   'Lu12 Fe2 Re1 Sn2'
_cell_volume   428.16385327
_cell_formula_units_Z   1
loop_
 _symmetry_equiv_pos_site_id
 _symmetry_equiv_pos_as_xyz
  1  'x, y, z'
loop_
 _atom_site_type_symbol
 _atom_site_label
 _atom_site_symmetry_multiplicity
 _atom_site_fract_x
 _atom_site_fract_y
 _atom_site_fract_z
 _atom_site_occupancy
  Lu  Lu0  1  0.308472  0.308472  0.616944  1
  Lu  Lu1  1  0.691528  0.691528  0.383056  1
  Lu  Lu2  1  0.691528  0.308472  0.000000  1
  Lu  Lu3  1  0.308472  0.691528  0.000000  1
  Lu  Lu4  1  0.193826  0.430699  0.236873  1
  Lu  Lu5  1  0.806174  0.569301  0.763127  1
  Lu  Lu6  1  0.193826  0.956954  0.763127  1
  Lu  Lu7  1  0.956954  0.193826  0.763127  1
  Lu  Lu8  1  0.806174  0.043046  0.236873  1
  Lu  Lu9  1  0.043046  0.806174  0.236873  1
  Lu  Lu10  1  0.430699  0.193826  0.236873  1
  Lu  Lu11  1  0.569301  0.806174  0.763127  1
  Fe  Fe12  1  0.384872  0.384872  0.000000  1
  Fe  Fe13  1  0.615128  0.615128  0.000000  1
  Re  Re14  1  0.000000  0.000000  0.000000  1
  Sn  Sn15  1  0.000000  0.500000  0.500000  1
  Sn  Sn16  1  0.500000  0.000000  0.500000  1
