# generated using pymatgen
data_Nd19LuSi15Pd
_symmetry_space_group_name_H-M   'P 1'
_cell_length_a   7.79817272
_cell_length_b   7.93731308
_cell_length_c   15.15243200
_cell_angle_alpha   89.69689948
_cell_angle_beta   89.49348289
_cell_angle_gamma   90.04728528
_symmetry_Int_Tables_number   1
_chemical_formula_structural   Nd19LuSi15Pd
_chemical_formula_sum   'Nd19 Lu1 Si15 Pd1'
_cell_volume   937.83296023
_cell_formula_units_Z   1
loop_
 _symmetry_equiv_pos_site_id
 _symmetry_equiv_pos_as_xyz
  1  'x, y, z'
loop_
 _atom_site_type_symbol
 _atom_site_label
 _atom_site_symmetry_multiplicity
 _atom_site_fract_x
 _atom_site_fract_y
 _atom_site_fract_z
 _atom_site_occupancy
  Nd  Nd0  1  0.813714  0.328330  0.618387  1
  Nd  Nd1  1  0.456640  0.686261  0.897578  1
  Nd  Nd2  1  0.957434  0.814003  0.897279  1
  Nd  Nd3  1  0.186483  0.682340  0.120010  1
  Nd  Nd4  1  0.691513  0.819342  0.120727  1
  Nd  Nd5  1  0.307163  0.178553  0.878077  1
  Nd  Nd6  1  0.188482  0.677378  0.380648  1
  Nd  Nd7  1  0.043106  0.187448  0.102543  1
  Nd  Nd8  1  0.311901  0.179842  0.622428  1
  Nd  Nd9  1  0.857306  0.490735  0.255933  1
  Nd  Nd10  1  0.363159  0.008101  0.251561  1
  Nd  Nd11  1  0.534201  0.312442  0.396982  1
  Nd  Nd12  1  0.810549  0.318973  0.878116  1
  Nd  Nd13  1  0.965708  0.818161  0.601436  1
  Nd  Nd14  1  0.459746  0.687084  0.604076  1
  Nd  Nd15  1  0.042545  0.181947  0.398043  1
  Nd  Nd16  1  0.688319  0.818276  0.381698  1
  Nd  Nd17  1  0.638186  0.992717  0.748629  1
  Nd  Nd18  1  0.543556  0.312199  0.101978  1
  Lu  Lu19  1  0.139230  0.511331  0.748319  1
  Si  Si20  1  0.479221  0.602401  0.246689  1
  Si  Si21  1  0.249552  0.378687  0.247538  1
  Si  Si22  1  0.513624  0.402795  0.751250  1
  Si  Si23  1  0.631518  0.025260  0.957979  1
  Si  Si24  1  0.016196  0.103942  0.749604  1
  Si  Si25  1  0.752890  0.621047  0.750199  1
  Si  Si26  1  0.751350  0.120728  0.248948  1
  Si  Si27  1  0.364345  0.970901  0.460931  1
  Si  Si28  1  0.982322  0.898023  0.248676  1
  Si  Si29  1  0.366392  0.974458  0.041280  1
  Si  Si30  1  0.635536  0.026181  0.541806  1
  Si  Si31  1  0.133791  0.476167  0.955507  1
  Si  Si32  1  0.146659  0.477317  0.546917  1
  Si  Si33  1  0.867666  0.525354  0.039277  1
  Si  Si34  1  0.244789  0.871143  0.750998  1
  Pd  Pd35  1  0.865207  0.520130  0.457950  1
