# generated using pymatgen
data_YTmCuSi2Ru
_symmetry_space_group_name_H-M   'P 1'
_cell_length_a   4.20079100
_cell_length_b   6.93789822
_cell_length_c   7.36588729
_cell_angle_alpha   91.43965874
_cell_angle_beta   90.00000000
_cell_angle_gamma   90.00000000
_symmetry_Int_Tables_number   1
_chemical_formula_structural   YTmCuSi2Ru
_chemical_formula_sum   'Y2 Tm2 Cu2 Si4 Ru2'
_cell_volume   214.60851872
_cell_formula_units_Z   2
loop_
 _symmetry_equiv_pos_site_id
 _symmetry_equiv_pos_as_xyz
  1  'x, y, z'
loop_
 _atom_site_type_symbol
 _atom_site_label
 _atom_site_symmetry_multiplicity
 _atom_site_fract_x
 _atom_site_fract_y
 _atom_site_fract_z
 _atom_site_occupancy
  Y  Y0  1  0.250000  0.995474  0.797102  1
  Y  Y1  1  0.750000  0.004526  0.202898  1
  Tm  Tm2  1  0.250000  0.493722  0.690365  1
  Tm  Tm3  1  0.750000  0.506278  0.309635  1
  Cu  Cu4  1  0.750000  0.829567  0.572285  1
  Cu  Cu5  1  0.250000  0.170433  0.427715  1
  Si  Si6  1  0.250000  0.299203  0.091351  1
  Si  Si7  1  0.750000  0.700797  0.908649  1
  Si  Si8  1  0.250000  0.791822  0.390296  1
  Si  Si9  1  0.750000  0.208178  0.609704  1
  Ru  Ru10  1  0.750000  0.347733  0.934202  1
  Ru  Ru11  1  0.250000  0.652267  0.065798  1
