# generated using pymatgen
data_Hf3Ga3Ir2Au
_symmetry_space_group_name_H-M   'P 1'
_cell_length_a   7.21533200
_cell_length_b   7.21533167
_cell_length_c   3.53676900
_cell_angle_alpha   90.00000000
_cell_angle_beta   90.00000000
_cell_angle_gamma   119.99999236
_symmetry_Int_Tables_number   1
_chemical_formula_structural   Hf3Ga3Ir2Au
_chemical_formula_sum   'Hf3 Ga3 Ir2 Au1'
_cell_volume   159.45934600
_cell_formula_units_Z   1
loop_
 _symmetry_equiv_pos_site_id
 _symmetry_equiv_pos_as_xyz
  1  'x, y, z'
loop_
 _atom_site_type_symbol
 _atom_site_label
 _atom_site_symmetry_multiplicity
 _atom_site_fract_x
 _atom_site_fract_y
 _atom_site_fract_z
 _atom_site_occupancy
  Hf  Hf0  1  0.400644  0.021051  0.500000  1
  Hf  Hf1  1  0.978949  0.379593  0.500000  1
  Hf  Hf2  1  0.620407  0.599356  0.500000  1
  Ga  Ga3  1  0.733148  0.995929  0.000000  1
  Ga  Ga4  1  0.004071  0.737219  0.000000  1
  Ga  Ga5  1  0.262781  0.266852  0.000000  1
  Ir  Ir6  1  0.666667  0.333333  0.000000  1
  Ir  Ir7  1  0.000000  0.000000  0.500000  1
  Au  Au8  1  0.333333  0.666667  0.000000  1
