# generated using pymatgen
data_Dy4PI6
_symmetry_space_group_name_H-M   'P 1'
_cell_length_a   4.19504700
_cell_length_b   13.81845900
_cell_length_c   14.62457800
_cell_angle_alpha   90.00000000
_cell_angle_beta   90.00000000
_cell_angle_gamma   90.00000000
_symmetry_Int_Tables_number   1
_chemical_formula_structural   Dy4PI6
_chemical_formula_sum   'Dy8 P2 I12'
_cell_volume   847.77340477
_cell_formula_units_Z   2
loop_
 _symmetry_equiv_pos_site_id
 _symmetry_equiv_pos_as_xyz
  1  'x, y, z'
loop_
 _atom_site_type_symbol
 _atom_site_label
 _atom_site_symmetry_multiplicity
 _atom_site_fract_x
 _atom_site_fract_y
 _atom_site_fract_z
 _atom_site_occupancy
  Dy  Dy0  1  0.500000  0.112822  0.350200  1
  Dy  Dy1  1  0.500000  0.887178  0.649800  1
  Dy  Dy2  1  0.500000  0.612822  0.149800  1
  Dy  Dy3  1  0.500000  0.387178  0.850200  1
  Dy  Dy4  1  0.000000  0.106822  0.571297  1
  Dy  Dy5  1  0.000000  0.893178  0.428703  1
  Dy  Dy6  1  0.000000  0.606822  0.928703  1
  Dy  Dy7  1  0.000000  0.393178  0.071297  1
  P  P8  1  0.500000  0.000000  0.500000  1
  P  P9  1  0.500000  0.500000  0.000000  1
  I  I10  1  0.500000  0.246887  0.160479  1
  I  I11  1  0.500000  0.753113  0.839521  1
  I  I12  1  0.500000  0.746887  0.339521  1
  I  I13  1  0.500000  0.253113  0.660479  1
  I  I14  1  0.000000  0.259337  0.415201  1
  I  I15  1  0.000000  0.740663  0.584799  1
  I  I16  1  0.000000  0.759337  0.084799  1
  I  I17  1  0.000000  0.240663  0.915201  1
  I  I18  1  0.000000  0.999111  0.240497  1
  I  I19  1  0.000000  0.000889  0.759503  1
  I  I20  1  0.000000  0.499111  0.259503  1
  I  I21  1  0.000000  0.500889  0.740497  1
