# generated using pymatgen
data_Tb2ThSn3Hg2
_symmetry_space_group_name_H-M   'P 1'
_cell_length_a   6.56160699
_cell_length_b   6.56160670
_cell_length_c   10.33598900
_cell_angle_alpha   89.64634407
_cell_angle_beta   89.64635282
_cell_angle_gamma   103.28601557
_symmetry_Int_Tables_number   1
_chemical_formula_structural   Tb2ThSn3Hg2
_chemical_formula_sum   'Tb4 Th2 Sn6 Hg4'
_cell_volume   433.08055103
_cell_formula_units_Z   2
loop_
 _symmetry_equiv_pos_site_id
 _symmetry_equiv_pos_as_xyz
  1  'x, y, z'
loop_
 _atom_site_type_symbol
 _atom_site_label
 _atom_site_symmetry_multiplicity
 _atom_site_fract_x
 _atom_site_fract_y
 _atom_site_fract_z
 _atom_site_occupancy
  Tb  Tb0  1  0.620081  0.620081  0.248172  1
  Tb  Tb1  1  0.379919  0.379919  0.751828  1
  Tb  Tb2  1  0.204664  0.795336  0.500000  1
  Tb  Tb3  1  0.795336  0.204664  0.500000  1
  Th  Th4  1  0.797375  0.202625  0.000000  1
  Th  Th5  1  0.202625  0.797375  0.000000  1
  Sn  Sn6  1  0.066119  0.493432  0.253740  1
  Sn  Sn7  1  0.933881  0.506568  0.746260  1
  Sn  Sn8  1  0.493432  0.066119  0.253740  1
  Sn  Sn9  1  0.506568  0.933881  0.746260  1
  Sn  Sn10  1  0.011755  0.011755  0.255290  1
  Sn  Sn11  1  0.988245  0.988245  0.744710  1
  Hg  Hg12  1  0.312015  0.312015  0.038939  1
  Hg  Hg13  1  0.687985  0.687985  0.961061  1
  Hg  Hg14  1  0.690853  0.690853  0.534077  1
  Hg  Hg15  1  0.309147  0.309147  0.465923  1
