# generated using pymatgen
data_U6Fe5NiSb8
_symmetry_space_group_name_H-M   'P 1'
_cell_length_a   8.08573884
_cell_length_b   8.08573903
_cell_length_c   8.08573905
_cell_angle_alpha   109.36450293
_cell_angle_beta   109.36450666
_cell_angle_gamma   109.68486510
_symmetry_Int_Tables_number   1
_chemical_formula_structural   U6Fe5NiSb8
_chemical_formula_sum   'U6 Fe5 Ni1 Sb8'
_cell_volume   406.94219462
_cell_formula_units_Z   1
loop_
 _symmetry_equiv_pos_site_id
 _symmetry_equiv_pos_as_xyz
  1  'x, y, z'
loop_
 _atom_site_type_symbol
 _atom_site_label
 _atom_site_symmetry_multiplicity
 _atom_site_fract_x
 _atom_site_fract_y
 _atom_site_fract_z
 _atom_site_occupancy
  U  U0  1  0.875450  0.252645  0.132224  1
  U  U1  1  0.620421  0.743226  0.367776  1
  U  U2  1  0.256774  0.124550  0.877194  1
  U  U3  1  0.747355  0.379579  0.622806  1
  U  U4  1  0.125000  0.875000  0.250000  1
  U  U5  1  0.375000  0.625000  0.750000  1
  Fe  Fe6  1  0.377001  0.248711  0.625816  1
  Fe  Fe7  1  0.122895  0.751184  0.874184  1
  Fe  Fe8  1  0.248816  0.622999  0.371710  1
  Fe  Fe9  1  0.751289  0.877105  0.128290  1
  Fe  Fe10  1  0.625000  0.375000  0.250000  1
  Ni  Ni11  1  0.875000  0.125000  0.750000  1
  Sb  Sb12  1  0.666759  0.500858  0.999609  1
  Sb  Sb13  1  0.501344  0.998709  0.663945  1
  Sb  Sb14  1  0.001249  0.667150  0.500391  1
  Sb  Sb15  1  0.834764  0.837399  0.836055  1
  Sb  Sb16  1  0.499142  0.998751  0.165901  1
  Sb  Sb17  1  0.162601  0.498656  0.997364  1
  Sb  Sb18  1  0.001291  0.165236  0.502636  1
  Sb  Sb19  1  0.332850  0.333241  0.334099  1
