# generated using pymatgen
data_Pr16Ho3ScPb16
_symmetry_space_group_name_H-M   'P 1'
_cell_length_a   8.41111432
_cell_length_b   16.18837100
_cell_length_c   8.52088065
_cell_angle_alpha   90.00000000
_cell_angle_beta   89.90393553
_cell_angle_gamma   90.00000000
_symmetry_Int_Tables_number   1
_chemical_formula_structural   Pr16Ho3ScPb16
_chemical_formula_sum   'Pr16 Ho3 Sc1 Pb16'
_cell_volume   1160.22055739
_cell_formula_units_Z   1
loop_
 _symmetry_equiv_pos_site_id
 _symmetry_equiv_pos_as_xyz
  1  'x, y, z'
loop_
 _atom_site_type_symbol
 _atom_site_label
 _atom_site_symmetry_multiplicity
 _atom_site_fract_x
 _atom_site_fract_y
 _atom_site_fract_z
 _atom_site_occupancy
  Pr  Pr0  1  0.625301  0.620358  0.158498  1
  Pr  Pr1  1  0.123911  0.879703  0.343157  1
  Pr  Pr2  1  0.375083  0.119354  0.841607  1
  Pr  Pr3  1  0.875221  0.381649  0.657801  1
  Pr  Pr4  1  0.375083  0.380646  0.841607  1
  Pr  Pr5  1  0.875221  0.118351  0.657801  1
  Pr  Pr6  1  0.625301  0.879642  0.158498  1
  Pr  Pr7  1  0.123911  0.620297  0.343157  1
  Pr  Pr8  1  0.468373  0.600221  0.678029  1
  Pr  Pr9  1  0.967447  0.899664  0.820943  1
  Pr  Pr10  1  0.531821  0.099158  0.321389  1
  Pr  Pr11  1  0.031767  0.400293  0.177903  1
  Pr  Pr12  1  0.531821  0.400842  0.321389  1
  Pr  Pr13  1  0.031767  0.099707  0.177903  1
  Pr  Pr14  1  0.468373  0.899779  0.678029  1
  Pr  Pr15  1  0.967447  0.600336  0.820943  1
  Ho  Ho16  1  0.292666  0.750000  0.003770  1
  Ho  Ho17  1  0.207742  0.250000  0.503812  1
  Ho  Ho18  1  0.707610  0.250000  0.995819  1
  Sc  Sc19  1  0.790897  0.750000  0.495953  1
  Pb  Pb20  1  0.717605  0.454378  0.968998  1
  Pb  Pb21  1  0.218280  0.045889  0.530842  1
  Pb  Pb22  1  0.281833  0.953555  0.031657  1
  Pb  Pb23  1  0.781784  0.548944  0.469739  1
  Pb  Pb24  1  0.281833  0.546445  0.031657  1
  Pb  Pb25  1  0.781784  0.951056  0.469739  1
  Pb  Pb26  1  0.717605  0.045622  0.968998  1
  Pb  Pb27  1  0.218280  0.454111  0.530842  1
  Pb  Pb28  1  0.434021  0.750000  0.379844  1
  Pb  Pb29  1  0.928204  0.750000  0.125885  1
  Pb  Pb30  1  0.571318  0.250000  0.622609  1
  Pb  Pb31  1  0.070592  0.250000  0.876174  1
  Pb  Pb32  1  0.661939  0.750000  0.842107  1
  Pb  Pb33  1  0.157006  0.750000  0.651884  1
  Pb  Pb34  1  0.340768  0.250000  0.152734  1
  Pb  Pb35  1  0.840394  0.250000  0.348285  1
