# generated using pymatgen
data_Y12Co4AgSn
_symmetry_space_group_name_H-M   'P 1'
_cell_length_a   8.38346488
_cell_length_b   8.38346479
_cell_length_c   8.38346583
_cell_angle_alpha   111.03602292
_cell_angle_beta   110.30716982
_cell_angle_gamma   107.09711367
_symmetry_Int_Tables_number   1
_chemical_formula_structural   Y12Co4AgSn
_chemical_formula_sum   'Y12 Co4 Ag1 Sn1'
_cell_volume   452.97446615
_cell_formula_units_Z   1
loop_
 _symmetry_equiv_pos_site_id
 _symmetry_equiv_pos_as_xyz
  1  'x, y, z'
loop_
 _atom_site_type_symbol
 _atom_site_label
 _atom_site_symmetry_multiplicity
 _atom_site_fract_x
 _atom_site_fract_y
 _atom_site_fract_z
 _atom_site_occupancy
  Y  Y0  1  0.426428  0.220889  0.205539  1
  Y  Y1  1  0.573572  0.779111  0.794461  1
  Y  Y2  1  0.015350  0.220889  0.794461  1
  Y  Y3  1  0.984650  0.779111  0.205539  1
  Y  Y4  1  0.186820  0.290730  0.477550  1
  Y  Y5  1  0.813180  0.709270  0.522450  1
  Y  Y6  1  0.186820  0.709270  0.896089  1
  Y  Y7  1  0.813180  0.290730  0.103911  1
  Y  Y8  1  0.314517  0.618551  0.304034  1
  Y  Y9  1  0.685483  0.381449  0.695966  1
  Y  Y10  1  0.314517  0.010484  0.695966  1
  Y  Y11  1  0.685483  0.989516  0.304034  1
  Co  Co12  1  0.379594  0.000000  0.379594  1
  Co  Co13  1  0.620406  0.000000  0.620406  1
  Co  Co14  1  0.111309  0.611309  0.500000  1
  Co  Co15  1  0.888691  0.388691  0.500000  1
  Ag  Ag16  1  0.000000  0.000000  0.000000  1
  Sn  Sn17  1  0.500000  0.500000  0.000000  1
