# generated using pymatgen
data_DyEr2TiAl11Ru4
_symmetry_space_group_name_H-M   'P 1'
_cell_length_a   8.83739100
_cell_length_b   8.83238638
_cell_length_c   9.52058402
_cell_angle_alpha   89.99352705
_cell_angle_beta   90.00000000
_cell_angle_gamma   120.01874171
_symmetry_Int_Tables_number   1
_chemical_formula_structural   DyEr2TiAl11Ru4
_chemical_formula_sum   'Dy2 Er4 Ti2 Al22 Ru8'
_cell_volume   643.44924941
_cell_formula_units_Z   2
loop_
 _symmetry_equiv_pos_site_id
 _symmetry_equiv_pos_as_xyz
  1  'x, y, z'
loop_
 _atom_site_type_symbol
 _atom_site_label
 _atom_site_symmetry_multiplicity
 _atom_site_fract_x
 _atom_site_fract_y
 _atom_site_fract_z
 _atom_site_occupancy
  Dy  Dy0  1  0.194117  0.388236  0.250666  1
  Dy  Dy1  1  0.805883  0.611764  0.749334  1
  Er  Er2  1  0.611124  0.805608  0.250482  1
  Er  Er3  1  0.388876  0.194392  0.749518  1
  Er  Er4  1  0.194484  0.805608  0.250482  1
  Er  Er5  1  0.805516  0.194392  0.749518  1
  Ti  Ti6  1  0.333403  0.666806  0.997110  1
  Ti  Ti7  1  0.666597  0.333194  0.002890  1
  Al  Al8  1  0.666567  0.333133  0.517686  1
  Al  Al9  1  0.333433  0.666867  0.482314  1
  Al  Al10  1  0.161419  0.322837  0.577764  1
  Al  Al11  1  0.838581  0.677163  0.422236  1
  Al  Al12  1  0.677114  0.838750  0.577475  1
  Al  Al13  1  0.840795  0.681589  0.077920  1
  Al  Al14  1  0.322886  0.161250  0.422525  1
  Al  Al15  1  0.159205  0.318411  0.922080  1
  Al  Al16  1  0.161636  0.838750  0.577475  1
  Al  Al17  1  0.318476  0.159095  0.077636  1
  Al  Al18  1  0.838364  0.161250  0.422525  1
  Al  Al19  1  0.681524  0.840905  0.922364  1
  Al  Al20  1  0.840619  0.159095  0.077636  1
  Al  Al21  1  0.159381  0.840905  0.922364  1
  Al  Al22  1  0.560665  0.121330  0.252133  1
  Al  Al23  1  0.439335  0.878670  0.747867  1
  Al  Al24  1  0.878305  0.439351  0.252136  1
  Al  Al25  1  0.121695  0.560649  0.747864  1
  Al  Al26  1  0.561046  0.439351  0.252136  1
  Al  Al27  1  0.438954  0.560649  0.747864  1
  Al  Al28  1  0.999750  0.999500  0.250484  1
  Al  Al29  1  0.000250  0.000500  0.749516  1
  Ru  Ru30  1  0.500000  0.000000  0.000000  1
  Ru  Ru31  1  0.000000  0.500000  0.000000  1
  Ru  Ru32  1  0.500000  0.000000  0.500000  1
  Ru  Ru33  1  0.500000  0.500000  0.000000  1
  Ru  Ru34  1  0.000000  0.500000  0.500000  1
  Ru  Ru35  1  0.500000  0.500000  0.500000  1
  Ru  Ru36  1  0.000000  0.000000  0.000000  1
  Ru  Ru37  1  0.000000  0.000000  0.500000  1
