# generated using pymatgen
data_Mg4Ni3(As3Ru2)2
_symmetry_space_group_name_H-M   'P 1'
_cell_length_a   7.01531394
_cell_length_b   6.92357090
_cell_length_c   6.92357162
_cell_angle_alpha   109.20123639
_cell_angle_beta   109.73986889
_cell_angle_gamma   109.73988161
_symmetry_Int_Tables_number   1
_chemical_formula_structural   Mg4Ni3(As3Ru2)2
_chemical_formula_sum   'Mg4 Ni3 As6 Ru4'
_cell_volume   258.00900471
_cell_formula_units_Z   1
loop_
 _symmetry_equiv_pos_site_id
 _symmetry_equiv_pos_as_xyz
  1  'x, y, z'
loop_
 _atom_site_type_symbol
 _atom_site_label
 _atom_site_symmetry_multiplicity
 _atom_site_fract_x
 _atom_site_fract_y
 _atom_site_fract_z
 _atom_site_occupancy
  Mg  Mg0  1  0.996941  0.993884  0.496941  1
  Mg  Mg1  1  0.500000  0.000000  0.000000  1
  Mg  Mg2  1  0.003059  0.503059  0.006116  1
  Mg  Mg3  1  0.500000  0.503059  0.496941  1
  Ni  Ni4  1  0.246725  0.493451  0.746725  1
  Ni  Ni5  1  0.753275  0.253275  0.506549  1
  Ni  Ni6  1  0.500000  0.253275  0.746725  1
  As  As7  1  0.684690  0.682982  0.995287  1
  As  As8  1  0.310597  0.312305  0.995287  1
  As  As9  1  0.998292  0.682982  0.687695  1
  As  As10  1  0.001708  0.312305  0.317018  1
  As  As11  1  0.689403  0.004713  0.687695  1
  As  As12  1  0.315310  0.004713  0.317018  1
  Ru  Ru13  1  0.000000  0.000000  0.000000  1
  Ru  Ru14  1  0.500000  0.753141  0.246859  1
  Ru  Ru15  1  0.746859  0.493717  0.246859  1
  Ru  Ru16  1  0.253141  0.753141  0.506283  1
