# generated using pymatgen
data_NbIn2NiPt8
_symmetry_space_group_name_H-M   'P 1'
_cell_length_a   3.99840200
_cell_length_b   3.99840200
_cell_length_c   12.06433700
_cell_angle_alpha   90.00000000
_cell_angle_beta   90.00000000
_cell_angle_gamma   90.00000000
_symmetry_Int_Tables_number   1
_chemical_formula_structural   NbIn2NiPt8
_chemical_formula_sum   'Nb1 In2 Ni1 Pt8'
_cell_volume   192.87519232
_cell_formula_units_Z   1
loop_
 _symmetry_equiv_pos_site_id
 _symmetry_equiv_pos_as_xyz
  1  'x, y, z'
loop_
 _atom_site_type_symbol
 _atom_site_label
 _atom_site_symmetry_multiplicity
 _atom_site_fract_x
 _atom_site_fract_y
 _atom_site_fract_z
 _atom_site_occupancy
  Nb  Nb0  1  0.000000  0.000000  0.000000  1
  In  In1  1  0.000000  0.000000  0.332355  1
  In  In2  1  0.000000  0.000000  0.667645  1
  Ni  Ni3  1  0.500000  0.500000  0.000000  1
  Pt  Pt4  1  0.500000  0.500000  0.327270  1
  Pt  Pt5  1  0.500000  0.500000  0.672730  1
  Pt  Pt6  1  0.500000  0.000000  0.152252  1
  Pt  Pt7  1  0.500000  0.000000  0.500000  1
  Pt  Pt8  1  0.500000  0.000000  0.847748  1
  Pt  Pt9  1  0.000000  0.500000  0.152252  1
  Pt  Pt10  1  0.000000  0.500000  0.500000  1
  Pt  Pt11  1  0.000000  0.500000  0.847748  1
