# generated using pymatgen
data_Pr2PaRu2
_symmetry_space_group_name_H-M   'P 1'
_cell_length_a   6.31133397
_cell_length_b   6.31133194
_cell_length_c   6.31133387
_cell_angle_alpha   145.17029302
_cell_angle_beta   118.63266919
_cell_angle_gamma   72.53966267
_symmetry_Int_Tables_number   1
_chemical_formula_structural   Pr2PaRu2
_chemical_formula_sum   'Pr2 Pa1 Ru2'
_cell_volume   123.82285482
_cell_formula_units_Z   1
loop_
 _symmetry_equiv_pos_site_id
 _symmetry_equiv_pos_as_xyz
  1  'x, y, z'
loop_
 _atom_site_type_symbol
 _atom_site_label
 _atom_site_symmetry_multiplicity
 _atom_site_fract_x
 _atom_site_fract_y
 _atom_site_fract_z
 _atom_site_occupancy
  Pr  Pr0  1  0.696207  0.196207  0.500000  1
  Pr  Pr1  1  0.303793  0.803793  0.500000  1
  Pa  Pa2  1  0.000000  0.000000  0.000000  1
  Ru  Ru3  1  0.278531  0.500000  0.778531  1
  Ru  Ru4  1  0.721469  0.500000  0.221469  1
