# generated using pymatgen
data_Tb5Th3(TcB6)4
_symmetry_space_group_name_H-M   'P 1'
_cell_length_a   3.77699100
_cell_length_b   9.25958786
_cell_length_c   11.67179700
_cell_angle_alpha   90.07618543
_cell_angle_beta   90.00000000
_cell_angle_gamma   90.00000000
_symmetry_Int_Tables_number   1
_chemical_formula_structural   Tb5Th3(TcB6)4
_chemical_formula_sum   'Tb5 Th3 Tc4 B24'
_cell_volume   408.20183135
_cell_formula_units_Z   1
loop_
 _symmetry_equiv_pos_site_id
 _symmetry_equiv_pos_as_xyz
  1  'x, y, z'
loop_
 _atom_site_type_symbol
 _atom_site_label
 _atom_site_symmetry_multiplicity
 _atom_site_fract_x
 _atom_site_fract_y
 _atom_site_fract_z
 _atom_site_occupancy
  Tb  Tb0  1  0.000000  0.176921  0.913712  1
  Tb  Tb1  1  0.000000  0.944625  0.371813  1
  Tb  Tb2  1  0.000000  0.056451  0.629605  1
  Tb  Tb3  1  0.000000  0.442427  0.127668  1
  Tb  Tb4  1  0.000000  0.555076  0.871515  1
  Th  Th5  1  0.000000  0.322036  0.414270  1
  Th  Th6  1  0.000000  0.677768  0.586725  1
  Th  Th7  1  0.000000  0.824360  0.085212  1
  Tc  Tc8  1  0.000000  0.638937  0.320357  1
  Tc  Tc9  1  0.000000  0.361528  0.679371  1
  Tc  Tc10  1  0.000000  0.139221  0.179160  1
  Tc  Tc11  1  0.000000  0.860994  0.820859  1
  B  B12  1  0.500000  0.555799  0.430056  1
  B  B13  1  0.500000  0.444138  0.570087  1
  B  B14  1  0.500000  0.056078  0.067604  1
  B  B15  1  0.500000  0.946278  0.930972  1
  B  B16  1  0.500000  0.749194  0.417200  1
  B  B17  1  0.500000  0.250662  0.583662  1
  B  B18  1  0.500000  0.248416  0.080533  1
  B  B19  1  0.500000  0.751986  0.917176  1
  B  B20  1  0.500000  0.790421  0.266866  1
  B  B21  1  0.500000  0.208258  0.734654  1
  B  B22  1  0.500000  0.290051  0.231846  1
  B  B23  1  0.500000  0.709738  0.767473  1
  B  B24  1  0.500000  0.630920  0.186315  1
  B  B25  1  0.500000  0.367408  0.814763  1
  B  B26  1  0.500000  0.131367  0.312930  1
  B  B27  1  0.500000  0.869687  0.687480  1
  B  B28  1  0.500000  0.986420  0.212345  1
  B  B29  1  0.500000  0.016568  0.787846  1
  B  B30  1  0.500000  0.485595  0.286374  1
  B  B31  1  0.500000  0.513654  0.713851  1
  B  B32  1  0.500000  0.602879  0.028569  1
  B  B33  1  0.500000  0.393837  0.970346  1
  B  B34  1  0.500000  0.104827  0.471410  1
  B  B35  1  0.500000  0.895476  0.529373  1
