# generated using pymatgen
data_Y2TcC2
_symmetry_space_group_name_H-M   'P 1'
_cell_length_a   5.11734300
_cell_length_b   6.58184700
_cell_length_c   9.90695100
_cell_angle_alpha   90.00000000
_cell_angle_beta   90.00000000
_cell_angle_gamma   90.00000000
_symmetry_Int_Tables_number   1
_chemical_formula_structural   Y2TcC2
_chemical_formula_sum   'Y8 Tc4 C8'
_cell_volume   333.68165044
_cell_formula_units_Z   4
loop_
 _symmetry_equiv_pos_site_id
 _symmetry_equiv_pos_as_xyz
  1  'x, y, z'
loop_
 _atom_site_type_symbol
 _atom_site_label
 _atom_site_symmetry_multiplicity
 _atom_site_fract_x
 _atom_site_fract_y
 _atom_site_fract_z
 _atom_site_occupancy
  Y  Y0  1  0.250000  0.678781  0.556870  1
  Y  Y1  1  0.750000  0.321219  0.443130  1
  Y  Y2  1  0.750000  0.821219  0.056870  1
  Y  Y3  1  0.250000  0.178781  0.943130  1
  Y  Y4  1  0.250000  0.531747  0.216260  1
  Y  Y5  1  0.750000  0.468253  0.783740  1
  Y  Y6  1  0.750000  0.968253  0.716260  1
  Y  Y7  1  0.250000  0.031747  0.283740  1
  Tc  Tc8  1  0.250000  0.720973  0.864983  1
  Tc  Tc9  1  0.750000  0.279027  0.135017  1
  Tc  Tc10  1  0.750000  0.779027  0.364983  1
  Tc  Tc11  1  0.250000  0.220973  0.635017  1
  C  C12  1  0.250000  0.454117  0.758780  1
  C  C13  1  0.750000  0.545883  0.241220  1
  C  C14  1  0.750000  0.045883  0.258780  1
  C  C15  1  0.250000  0.954117  0.741220  1
  C  C16  1  0.250000  0.820056  0.047313  1
  C  C17  1  0.750000  0.179944  0.952687  1
  C  C18  1  0.750000  0.679944  0.547313  1
  C  C19  1  0.250000  0.320056  0.452687  1
