# generated using pymatgen
data_YErMn17
_symmetry_space_group_name_H-M   'P 1'
_cell_length_a   6.32158934
_cell_length_b   6.32158987
_cell_length_c   6.32158978
_cell_angle_alpha   86.25180731
_cell_angle_beta   86.25180395
_cell_angle_gamma   86.25181802
_symmetry_Int_Tables_number   1
_chemical_formula_structural   YErMn17
_chemical_formula_sum   'Y1 Er1 Mn17'
_cell_volume   251.07291883
_cell_formula_units_Z   1
loop_
 _symmetry_equiv_pos_site_id
 _symmetry_equiv_pos_as_xyz
  1  'x, y, z'
loop_
 _atom_site_type_symbol
 _atom_site_label
 _atom_site_symmetry_multiplicity
 _atom_site_fract_x
 _atom_site_fract_y
 _atom_site_fract_z
 _atom_site_occupancy
  Y  Y0  1  0.644893  0.644893  0.644893  1
  Er  Er1  1  0.353894  0.353894  0.353894  1
  Mn  Mn2  1  0.275057  0.000171  0.725233  1
  Mn  Mn3  1  0.000171  0.725233  0.275057  1
  Mn  Mn4  1  0.725233  0.275057  0.000171  1
  Mn  Mn5  1  0.000171  0.275057  0.725233  1
  Mn  Mn6  1  0.275057  0.725233  0.000171  1
  Mn  Mn7  1  0.725233  0.000171  0.275057  1
  Mn  Mn8  1  0.644174  0.124558  0.644174  1
  Mn  Mn9  1  0.124558  0.644174  0.644174  1
  Mn  Mn10  1  0.644174  0.644174  0.124558  1
  Mn  Mn11  1  0.354774  0.876672  0.354774  1
  Mn  Mn12  1  0.876672  0.354774  0.354774  1
  Mn  Mn13  1  0.354774  0.354774  0.876672  1
  Mn  Mn14  1  0.000359  0.499941  0.000359  1
  Mn  Mn15  1  0.499941  0.000359  0.000359  1
  Mn  Mn16  1  0.000359  0.000359  0.499941  1
  Mn  Mn17  1  0.099242  0.099242  0.099242  1
  Mn  Mn18  1  0.901263  0.901263  0.901263  1
