# generated using pymatgen
data_Er3Tm17Sn7Pb9
_symmetry_space_group_name_H-M   'P 1'
_cell_length_a   8.07130820
_cell_length_b   8.11580410
_cell_length_c   15.38974409
_cell_angle_alpha   90.00378610
_cell_angle_beta   90.01202520
_cell_angle_gamma   90.01984927
_symmetry_Int_Tables_number   1
_chemical_formula_structural   Er3Tm17Sn7Pb9
_chemical_formula_sum   'Er3 Tm17 Sn7 Pb9'
_cell_volume   1008.10750490
_cell_formula_units_Z   1
loop_
 _symmetry_equiv_pos_site_id
 _symmetry_equiv_pos_as_xyz
  1  'x, y, z'
loop_
 _atom_site_type_symbol
 _atom_site_label
 _atom_site_symmetry_multiplicity
 _atom_site_fract_x
 _atom_site_fract_y
 _atom_site_fract_z
 _atom_site_occupancy
  Er  Er0  1  0.959834  0.827107  0.398505  1
  Er  Er1  1  0.537913  0.324912  0.604204  1
  Er  Er2  1  0.038425  0.174535  0.895605  1
  Tm  Tm3  1  0.380150  0.838500  0.876570  1
  Tm  Tm4  1  0.880431  0.661047  0.623573  1
  Tm  Tm5  1  0.619763  0.161122  0.377079  1
  Tm  Tm6  1  0.119619  0.337423  0.123075  1
  Tm  Tm7  1  0.619771  0.161106  0.122891  1
  Tm  Tm8  1  0.119627  0.337409  0.376952  1
  Tm  Tm9  1  0.380121  0.838525  0.623430  1
  Tm  Tm10  1  0.880430  0.661054  0.876439  1
  Tm  Tm11  1  0.538014  0.324929  0.895789  1
  Tm  Tm12  1  0.038480  0.174528  0.604431  1
  Tm  Tm13  1  0.464583  0.675102  0.397116  1
  Tm  Tm14  1  0.959728  0.827155  0.101605  1
  Tm  Tm15  1  0.464569  0.675125  0.102864  1
  Tm  Tm16  1  0.210895  0.503627  0.750008  1
  Tm  Tm17  1  0.710838  0.996273  0.749988  1
  Tm  Tm18  1  0.787232  0.494729  0.249992  1
  Tm  Tm19  1  0.291216  0.006678  0.249972  1
  Sn  Sn20  1  0.575655  0.623389  0.750008  1
  Sn  Sn21  1  0.075736  0.876117  0.749981  1
  Sn  Sn22  1  0.424909  0.375855  0.249975  1
  Sn  Sn23  1  0.924178  0.122485  0.249994  1
  Sn  Sn24  1  0.346474  0.149260  0.750095  1
  Sn  Sn25  1  0.846433  0.350637  0.749907  1
  Sn  Sn26  1  0.654542  0.850160  0.249954  1
  Pb  Pb27  1  0.280632  0.031445  0.041106  1
  Pb  Pb28  1  0.781310  0.467236  0.458965  1
  Pb  Pb29  1  0.718628  0.968329  0.542030  1
  Pb  Pb30  1  0.219538  0.531912  0.958954  1
  Pb  Pb31  1  0.718380  0.968125  0.958155  1
  Pb  Pb32  1  0.219100  0.532014  0.540977  1
  Pb  Pb33  1  0.280843  0.031884  0.459118  1
  Pb  Pb34  1  0.781324  0.467299  0.040864  1
  Pb  Pb35  1  0.150675  0.652966  0.249827  1
