# generated using pymatgen
data_Tl3BiF6
_symmetry_space_group_name_H-M   'P 1'
_cell_length_a   6.60074606
_cell_length_b   6.60074559
_cell_length_c   6.60074600
_cell_angle_alpha   64.13188195
_cell_angle_beta   64.13188394
_cell_angle_gamma   64.13188525
_symmetry_Int_Tables_number   1
_chemical_formula_structural   Tl3BiF6
_chemical_formula_sum   'Tl3 Bi1 F6'
_cell_volume   221.84465620
_cell_formula_units_Z   1
loop_
 _symmetry_equiv_pos_site_id
 _symmetry_equiv_pos_as_xyz
  1  'x, y, z'
loop_
 _atom_site_type_symbol
 _atom_site_label
 _atom_site_symmetry_multiplicity
 _atom_site_fract_x
 _atom_site_fract_y
 _atom_site_fract_z
 _atom_site_occupancy
  Tl  Tl0  1  0.233944  0.233944  0.233944  1
  Tl  Tl1  1  0.487004  0.487004  0.487004  1
  Tl  Tl2  1  0.723767  0.723767  0.723767  1
  Bi  Bi3  1  0.990484  0.990484  0.990484  1
  F  F4  1  0.830646  0.301841  0.118503  1
  F  F5  1  0.118503  0.830646  0.301841  1
  F  F6  1  0.660715  0.867203  0.285865  1
  F  F7  1  0.867203  0.285864  0.660715  1
  F  F8  1  0.301841  0.118503  0.830646  1
  F  F9  1  0.285865  0.660716  0.867202  1
