# generated using pymatgen
data_Hf6CdFeBr14
_symmetry_space_group_name_H-M   'P 1'
_cell_length_a   9.58721803
_cell_length_b   9.58721750
_cell_length_c   9.58721665
_cell_angle_alpha   112.54352337
_cell_angle_beta   103.48729570
_cell_angle_gamma   112.54352471
_symmetry_Int_Tables_number   1
_chemical_formula_structural   Hf6CdFeBr14
_chemical_formula_sum   'Hf6 Cd1 Fe1 Br14'
_cell_volume   672.88266463
_cell_formula_units_Z   1
loop_
 _symmetry_equiv_pos_site_id
 _symmetry_equiv_pos_as_xyz
  1  'x, y, z'
loop_
 _atom_site_type_symbol
 _atom_site_label
 _atom_site_symmetry_multiplicity
 _atom_site_fract_x
 _atom_site_fract_y
 _atom_site_fract_z
 _atom_site_occupancy
  Hf  Hf0  1  0.200162  0.000000  0.200162  1
  Hf  Hf1  1  0.229546  0.229546  0.000000  1
  Hf  Hf2  1  0.799838  0.000000  0.799838  1
  Hf  Hf3  1  0.000000  0.229546  0.229546  1
  Hf  Hf4  1  0.000000  0.770454  0.770454  1
  Hf  Hf5  1  0.770454  0.770454  0.000000  1
  Cd  Cd6  1  0.500000  0.000000  0.500000  1
  Fe  Fe7  1  0.000000  0.000000  0.000000  1
  Br  Br8  1  0.979370  0.751101  0.228270  1
  Br  Br9  1  0.228270  0.751101  0.979370  1
  Br  Br10  1  0.522831  0.751101  0.771730  1
  Br  Br11  1  0.020630  0.248899  0.771730  1
  Br  Br12  1  0.747592  0.000000  0.252408  1
  Br  Br13  1  0.252408  0.504815  0.252408  1
  Br  Br14  1  0.771730  0.248899  0.020630  1
  Br  Br15  1  0.500000  0.500000  0.000000  1
  Br  Br16  1  0.228270  0.248899  0.477169  1
  Br  Br17  1  0.747592  0.495185  0.747592  1
  Br  Br18  1  0.771730  0.751101  0.522831  1
  Br  Br19  1  0.477169  0.248899  0.228270  1
  Br  Br20  1  0.252408  0.000000  0.747592  1
  Br  Br21  1  0.000000  0.500000  0.500000  1
