# generated using pymatgen
data_Li4Ca7DySi11Ge
_symmetry_space_group_name_H-M   'P 1'
_cell_length_a   4.36594700
_cell_length_b   10.53638330
_cell_length_c   11.16387172
_cell_angle_alpha   90.33309819
_cell_angle_beta   90.00000000
_cell_angle_gamma   90.00000000
_symmetry_Int_Tables_number   1
_chemical_formula_structural   Li4Ca7DySi11Ge
_chemical_formula_sum   'Li4 Ca7 Dy1 Si11 Ge1'
_cell_volume   513.54383380
_cell_formula_units_Z   1
loop_
 _symmetry_equiv_pos_site_id
 _symmetry_equiv_pos_as_xyz
  1  'x, y, z'
loop_
 _atom_site_type_symbol
 _atom_site_label
 _atom_site_symmetry_multiplicity
 _atom_site_fract_x
 _atom_site_fract_y
 _atom_site_fract_z
 _atom_site_occupancy
  Li  Li0  1  0.500000  0.860278  0.285729  1
  Li  Li1  1  0.500000  0.140266  0.716677  1
  Li  Li2  1  0.000000  0.363054  0.217639  1
  Li  Li3  1  0.000000  0.637992  0.781579  1
  Ca  Ca4  1  0.500000  0.447210  0.651347  1
  Ca  Ca5  1  0.000000  0.054068  0.151355  1
  Ca  Ca6  1  0.000000  0.949439  0.849025  1
  Ca  Ca7  1  0.500000  0.822532  0.572961  1
  Ca  Ca8  1  0.500000  0.175967  0.426090  1
  Ca  Ca9  1  0.000000  0.322676  0.925227  1
  Ca  Ca10  1  0.000000  0.675752  0.075606  1
  Dy  Dy11  1  0.500000  0.550860  0.352843  1
  Si  Si12  1  0.500000  0.112620  0.959161  1
  Si  Si13  1  0.000000  0.394032  0.454084  1
  Si  Si14  1  0.000000  0.607412  0.538657  1
  Si  Si15  1  0.000000  0.964071  0.399409  1
  Si  Si16  1  0.000000  0.034336  0.598304  1
  Si  Si17  1  0.500000  0.468264  0.103790  1
  Si  Si18  1  0.500000  0.534332  0.903289  1
  Si  Si19  1  0.000000  0.255396  0.630448  1
  Si  Si20  1  0.000000  0.739312  0.362736  1
  Si  Si21  1  0.500000  0.753281  0.863553  1
  Si  Si22  1  0.500000  0.246879  0.135438  1
  Ge  Ge23  1  0.500000  0.889976  0.045058  1
