# generated using pymatgen
data_VFePt7
_symmetry_space_group_name_H-M   'P 1'
_cell_length_a   3.91473489
_cell_length_b   6.19480782
_cell_length_c   6.20007654
_cell_angle_alpha   95.72486815
_cell_angle_beta   71.59689959
_cell_angle_gamma   108.41931571
_symmetry_Int_Tables_number   1
_chemical_formula_structural   VFePt7
_chemical_formula_sum   'V1 Fe1 Pt7'
_cell_volume   135.35977711
_cell_formula_units_Z   1
loop_
 _symmetry_equiv_pos_site_id
 _symmetry_equiv_pos_as_xyz
  1  'x, y, z'
loop_
 _atom_site_type_symbol
 _atom_site_label
 _atom_site_symmetry_multiplicity
 _atom_site_fract_x
 _atom_site_fract_y
 _atom_site_fract_z
 _atom_site_occupancy
  V  V0  1  0.000879  0.001759  0.000000  1
  Fe  Fe1  1  0.663912  0.327825  0.000000  1
  Pt  Pt2  1  0.334232  0.668464  0.000000  1
  Pt  Pt3  1  0.345678  0.006065  0.314709  1
  Pt  Pt4  1  0.669738  0.667789  0.328311  1
  Pt  Pt5  1  0.005471  0.327121  0.316180  1
  Pt  Pt6  1  0.321651  0.327120  0.683820  1
  Pt  Pt7  1  0.998051  0.667789  0.671688  1
  Pt  Pt8  1  0.660387  0.006065  0.685290  1
