# generated using pymatgen
data_BeNb4V4P3
_symmetry_space_group_name_H-M   'P 1'
_cell_length_a   3.38900500
_cell_length_b   6.39869225
_cell_length_c   7.75323302
_cell_angle_alpha   89.73572425
_cell_angle_beta   90.00000000
_cell_angle_gamma   90.00000000
_symmetry_Int_Tables_number   1
_chemical_formula_structural   BeNb4V4P3
_chemical_formula_sum   'Be1 Nb4 V4 P3'
_cell_volume   168.12862051
_cell_formula_units_Z   1
loop_
 _symmetry_equiv_pos_site_id
 _symmetry_equiv_pos_as_xyz
  1  'x, y, z'
loop_
 _atom_site_type_symbol
 _atom_site_label
 _atom_site_symmetry_multiplicity
 _atom_site_fract_x
 _atom_site_fract_y
 _atom_site_fract_z
 _atom_site_occupancy
  Be  Be0  1  0.250000  0.757072  0.359977  1
  Nb  Nb1  1  0.250000  0.038027  0.829464  1
  Nb  Nb2  1  0.250000  0.543253  0.667016  1
  Nb  Nb3  1  0.750000  0.958563  0.172511  1
  Nb  Nb4  1  0.750000  0.466000  0.331271  1
  V  V5  1  0.250000  0.131564  0.442299  1
  V  V6  1  0.250000  0.634314  0.060165  1
  V  V7  1  0.750000  0.865795  0.555477  1
  V  V8  1  0.750000  0.364011  0.940949  1
  P  P9  1  0.250000  0.258499  0.142353  1
  P  P10  1  0.750000  0.243196  0.636911  1
  P  P11  1  0.750000  0.739707  0.861608  1
