# generated using pymatgen
data_Yb2GaRh3
_symmetry_space_group_name_H-M   'P 1'
_cell_length_a   5.11706453
_cell_length_b   5.52560113
_cell_length_c   5.52560200
_cell_angle_alpha   60.00000674
_cell_angle_beta   57.32187987
_cell_angle_gamma   57.32188734
_symmetry_Int_Tables_number   1
_chemical_formula_structural   Yb2GaRh3
_chemical_formula_sum   'Yb2 Ga1 Rh3'
_cell_volume   105.78981258
_cell_formula_units_Z   1
loop_
 _symmetry_equiv_pos_site_id
 _symmetry_equiv_pos_as_xyz
  1  'x, y, z'
loop_
 _atom_site_type_symbol
 _atom_site_label
 _atom_site_symmetry_multiplicity
 _atom_site_fract_x
 _atom_site_fract_y
 _atom_site_fract_z
 _atom_site_occupancy
  Yb  Yb0  1  0.742695  0.752435  0.752435  1
  Yb  Yb1  1  0.507305  0.497565  0.497565  1
  Ga  Ga2  1  0.625000  0.125000  0.125000  1
  Rh  Rh3  1  0.125000  0.625000  0.125000  1
  Rh  Rh4  1  0.125000  0.125000  0.625000  1
  Rh  Rh5  1  0.125000  0.125000  0.125000  1
