# generated using pymatgen
data_Ho8ReOs2WC8
_symmetry_space_group_name_H-M   'P 1'
_cell_length_a   5.08422800
_cell_length_b   6.54867752
_cell_length_c   9.82530882
_cell_angle_alpha   90.25745952
_cell_angle_beta   90.00000000
_cell_angle_gamma   90.00000000
_symmetry_Int_Tables_number   1
_chemical_formula_structural   Ho8ReOs2WC8
_chemical_formula_sum   'Ho8 Re1 Os2 W1 C8'
_cell_volume   327.13005561
_cell_formula_units_Z   1
loop_
 _symmetry_equiv_pos_site_id
 _symmetry_equiv_pos_as_xyz
  1  'x, y, z'
loop_
 _atom_site_type_symbol
 _atom_site_label
 _atom_site_symmetry_multiplicity
 _atom_site_fract_x
 _atom_site_fract_y
 _atom_site_fract_z
 _atom_site_occupancy
  Ho  Ho0  1  0.250000  0.467016  0.782882  1
  Ho  Ho1  1  0.750000  0.035669  0.281245  1
  Ho  Ho2  1  0.250000  0.966712  0.714726  1
  Ho  Ho3  1  0.750000  0.532119  0.215508  1
  Ho  Ho4  1  0.250000  0.822751  0.055281  1
  Ho  Ho5  1  0.750000  0.675903  0.556285  1
  Ho  Ho6  1  0.250000  0.320342  0.442580  1
  Ho  Ho7  1  0.750000  0.179519  0.942896  1
  Re  Re8  1  0.750000  0.721456  0.865490  1
  Os  Os9  1  0.250000  0.278849  0.132440  1
  Os  Os10  1  0.750000  0.219892  0.633840  1
  W  W11  1  0.250000  0.780998  0.367761  1
  C  C12  1  0.250000  0.175487  0.948860  1
  C  C13  1  0.750000  0.823798  0.050851  1
  C  C14  1  0.250000  0.674142  0.556118  1
  C  C15  1  0.750000  0.323951  0.451184  1
  C  C16  1  0.250000  0.048677  0.259128  1
  C  C17  1  0.750000  0.453575  0.760168  1
  C  C18  1  0.250000  0.544335  0.240404  1
  C  C19  1  0.750000  0.954809  0.742353  1
