# generated using pymatgen
data_Er2Si2Pt2Rh
_symmetry_space_group_name_H-M   'P 1'
_cell_length_a   4.21692600
_cell_length_b   6.60100800
_cell_length_c   8.75689000
_cell_angle_alpha   90.00000000
_cell_angle_beta   90.00000000
_cell_angle_gamma   90.00000000
_symmetry_Int_Tables_number   1
_chemical_formula_structural   Er2Si2Pt2Rh
_chemical_formula_sum   'Er4 Si4 Pt4 Rh2'
_cell_volume   243.75645957
_cell_formula_units_Z   2
loop_
 _symmetry_equiv_pos_site_id
 _symmetry_equiv_pos_as_xyz
  1  'x, y, z'
loop_
 _atom_site_type_symbol
 _atom_site_label
 _atom_site_symmetry_multiplicity
 _atom_site_fract_x
 _atom_site_fract_y
 _atom_site_fract_z
 _atom_site_occupancy
  Er  Er0  1  0.000000  0.884326  0.330624  1
  Er  Er1  1  0.000000  0.115674  0.669376  1
  Er  Er2  1  0.000000  0.384326  0.169376  1
  Er  Er3  1  0.000000  0.615674  0.830624  1
  Si  Si4  1  0.500000  0.569810  0.357407  1
  Si  Si5  1  0.500000  0.430190  0.642593  1
  Si  Si6  1  0.500000  0.069810  0.142593  1
  Si  Si7  1  0.500000  0.930190  0.857407  1
  Pt  Pt8  1  0.500000  0.695136  0.086394  1
  Pt  Pt9  1  0.500000  0.304864  0.913606  1
  Pt  Pt10  1  0.500000  0.195136  0.413606  1
  Pt  Pt11  1  0.500000  0.804864  0.586394  1
  Rh  Rh12  1  0.000000  0.500000  0.500000  1
  Rh  Rh13  1  0.000000  0.000000  0.000000  1
