# generated using pymatgen
data_Li3Y3AlSiAs
_symmetry_space_group_name_H-M   'P 1'
_cell_length_a   7.11722300
_cell_length_b   7.11722232
_cell_length_c   4.24338200
_cell_angle_alpha   90.00000000
_cell_angle_beta   90.00000000
_cell_angle_gamma   119.99998923
_symmetry_Int_Tables_number   1
_chemical_formula_structural   Li3Y3AlSiAs
_chemical_formula_sum   'Li3 Y3 Al1 Si1 As1'
_cell_volume   186.15037441
_cell_formula_units_Z   1
loop_
 _symmetry_equiv_pos_site_id
 _symmetry_equiv_pos_as_xyz
  1  'x, y, z'
loop_
 _atom_site_type_symbol
 _atom_site_label
 _atom_site_symmetry_multiplicity
 _atom_site_fract_x
 _atom_site_fract_y
 _atom_site_fract_z
 _atom_site_occupancy
  Li  Li0  1  0.246394  0.999244  0.500000  1
  Li  Li1  1  0.752850  0.753606  0.500000  1
  Li  Li2  1  0.000756  0.247150  0.500000  1
  Y  Y3  1  0.993104  0.563666  0.000000  1
  Y  Y4  1  0.570562  0.006896  0.000000  1
  Y  Y5  1  0.436334  0.429438  0.000000  1
  Al  Al6  1  0.000000  0.000000  0.000000  1
  Si  Si7  1  0.666667  0.333333  0.500000  1
  As  As8  1  0.333333  0.666667  0.500000  1
