# generated using pymatgen
data_Zr9Ta8Ti3Si16
_symmetry_space_group_name_H-M   'P 1'
_cell_length_a   6.88633481
_cell_length_b   6.88616130
_cell_length_c   12.72588069
_cell_angle_alpha   90.16536342
_cell_angle_beta   89.84858130
_cell_angle_gamma   90.00165416
_symmetry_Int_Tables_number   1
_chemical_formula_structural   Zr9Ta8Ti3Si16
_chemical_formula_sum   'Zr9 Ta8 Ti3 Si16'
_cell_volume   603.46188736
_cell_formula_units_Z   1
loop_
 _symmetry_equiv_pos_site_id
 _symmetry_equiv_pos_as_xyz
  1  'x, y, z'
loop_
 _atom_site_type_symbol
 _atom_site_label
 _atom_site_symmetry_multiplicity
 _atom_site_fract_x
 _atom_site_fract_y
 _atom_site_fract_z
 _atom_site_occupancy
  Zr  Zr0  1  0.152005  0.999910  0.873323  1
  Zr  Zr1  1  0.002511  0.655050  0.032589  1
  Zr  Zr2  1  0.997744  0.344103  0.530044  1
  Zr  Zr3  1  0.656229  0.003203  0.968967  1
  Zr  Zr4  1  0.155895  0.499696  0.780272  1
  Zr  Zr5  1  0.843252  0.500725  0.280823  1
  Zr  Zr6  1  0.501714  0.158880  0.220474  1
  Zr  Zr7  1  0.500900  0.842435  0.718159  1
  Zr  Zr8  1  0.341985  0.999280  0.468612  1
  Ta  Ta9  1  0.347562  0.505814  0.376285  1
  Ta  Ta10  1  0.847907  0.995821  0.373692  1
  Ta  Ta11  1  0.005822  0.151942  0.125978  1
  Ta  Ta12  1  0.994007  0.848468  0.626356  1
  Ta  Ta13  1  0.669184  0.670976  0.499950  1
  Ta  Ta14  1  0.828267  0.171405  0.748738  1
  Ta  Ta15  1  0.170002  0.829687  0.250660  1
  Ta  Ta16  1  0.332474  0.329703  0.000855  1
  Ti  Ti17  1  0.652896  0.494114  0.876834  1
  Ti  Ti18  1  0.504989  0.349103  0.622399  1
  Ti  Ti19  1  0.497267  0.650244  0.125037  1
  Si  Si20  1  0.044716  0.702756  0.437108  1
  Si  Si21  1  0.951663  0.301644  0.935807  1
  Si  Si22  1  0.699522  0.048006  0.564160  1
  Si  Si23  1  0.206532  0.455616  0.185872  1
  Si  Si24  1  0.791920  0.543638  0.687144  1
  Si  Si25  1  0.458333  0.208403  0.811594  1
  Si  Si26  1  0.546051  0.796816  0.311803  1
  Si  Si27  1  0.302909  0.951179  0.066346  1
  Si  Si28  1  0.855215  0.787793  0.822434  1
  Si  Si29  1  0.136456  0.207857  0.322552  1
  Si  Si30  1  0.791125  0.862547  0.175952  1
  Si  Si31  1  0.292851  0.632992  0.574124  1
  Si  Si32  1  0.705925  0.366620  0.072230  1
  Si  Si33  1  0.635380  0.294276  0.428774  1
  Si  Si34  1  0.369286  0.699050  0.929795  1
  Si  Si35  1  0.209502  0.140246  0.674258  1
