# generated using pymatgen
data_CaY2Ho(Mo2O7)2
_symmetry_space_group_name_H-M   'P 1'
_cell_length_a   7.33558392
_cell_length_b   7.33558406
_cell_length_c   7.43494949
_cell_angle_alpha   60.44116171
_cell_angle_beta   60.44116075
_cell_angle_gamma   60.00252478
_symmetry_Int_Tables_number   1
_chemical_formula_structural   CaY2Ho(Mo2O7)2
_chemical_formula_sum   'Ca1 Y2 Ho1 Mo4 O14'
_cell_volume   284.77692066
_cell_formula_units_Z   1
loop_
 _symmetry_equiv_pos_site_id
 _symmetry_equiv_pos_as_xyz
  1  'x, y, z'
loop_
 _atom_site_type_symbol
 _atom_site_label
 _atom_site_symmetry_multiplicity
 _atom_site_fract_x
 _atom_site_fract_y
 _atom_site_fract_z
 _atom_site_occupancy
  Ca  Ca0  1  0.125000  0.125000  0.625000  1
  Y  Y1  1  0.625000  0.125000  0.125000  1
  Y  Y2  1  0.125000  0.625000  0.125000  1
  Ho  Ho3  1  0.125000  0.125000  0.125000  1
  Mo  Mo4  1  0.625000  0.625000  0.625000  1
  Mo  Mo5  1  0.125000  0.625000  0.625000  1
  Mo  Mo6  1  0.625000  0.125000  0.625000  1
  Mo  Mo7  1  0.625000  0.625000  0.125000  1
  O  O8  1  0.252294  0.252294  0.241003  1
  O  O9  1  0.997706  0.997706  0.008997  1
  O  O10  1  0.553894  0.960367  0.525225  1
  O  O11  1  0.297367  0.708875  0.285999  1
  O  O12  1  0.542021  0.542021  0.963761  1
  O  O13  1  0.960367  0.553894  0.525225  1
  O  O14  1  0.541125  0.952633  0.964001  1
  O  O15  1  0.960838  0.960838  0.524130  1
  O  O16  1  0.952633  0.541125  0.964001  1
  O  O17  1  0.708875  0.297367  0.285999  1
  O  O18  1  0.289633  0.696106  0.724775  1
  O  O19  1  0.707979  0.707979  0.286239  1
  O  O20  1  0.289162  0.289162  0.725870  1
  O  O21  1  0.696106  0.289633  0.724775  1
