# generated using pymatgen
data_La6(GaSn)5
_symmetry_space_group_name_H-M   'P 1'
_cell_length_a   6.57614047
_cell_length_b   6.57613956
_cell_length_c   10.28116200
_cell_angle_alpha   90.00000000
_cell_angle_beta   90.00000000
_cell_angle_gamma   102.40789195
_symmetry_Int_Tables_number   1
_chemical_formula_structural   La6(GaSn)5
_chemical_formula_sum   'La6 Ga5 Sn5'
_cell_volume   434.23018493
_cell_formula_units_Z   1
loop_
 _symmetry_equiv_pos_site_id
 _symmetry_equiv_pos_as_xyz
  1  'x, y, z'
loop_
 _atom_site_type_symbol
 _atom_site_label
 _atom_site_symmetry_multiplicity
 _atom_site_fract_x
 _atom_site_fract_y
 _atom_site_fract_z
 _atom_site_occupancy
  La  La0  1  0.647385  0.647385  0.250000  1
  La  La1  1  0.362648  0.362648  0.750000  1
  La  La2  1  0.201603  0.798012  0.495546  1
  La  La3  1  0.201603  0.798012  0.004454  1
  La  La4  1  0.798012  0.201603  0.495546  1
  La  La5  1  0.798012  0.201603  0.004454  1
  Ga  Ga6  1  0.034851  0.034851  0.250000  1
  Ga  Ga7  1  0.304874  0.304874  0.051213  1
  Ga  Ga8  1  0.692588  0.692588  0.953351  1
  Ga  Ga9  1  0.304874  0.304874  0.448787  1
  Ga  Ga10  1  0.692588  0.692588  0.546649  1
  Sn  Sn11  1  0.972564  0.972564  0.750000  1
  Sn  Sn12  1  0.482187  0.090665  0.250000  1
  Sn  Sn13  1  0.907499  0.508044  0.750000  1
  Sn  Sn14  1  0.508044  0.907499  0.750000  1
  Sn  Sn15  1  0.090665  0.482187  0.250000  1
