# generated using pymatgen
data_Ce3Al3CuRh2
_symmetry_space_group_name_H-M   'P 1'
_cell_length_a   7.01396600
_cell_length_b   7.01396673
_cell_length_c   4.20679600
_cell_angle_alpha   90.00000000
_cell_angle_beta   90.00000000
_cell_angle_gamma   120.00000600
_symmetry_Int_Tables_number   1
_chemical_formula_structural   Ce3Al3CuRh2
_chemical_formula_sum   'Ce3 Al3 Cu1 Rh2'
_cell_volume   179.22946789
_cell_formula_units_Z   1
loop_
 _symmetry_equiv_pos_site_id
 _symmetry_equiv_pos_as_xyz
  1  'x, y, z'
loop_
 _atom_site_type_symbol
 _atom_site_label
 _atom_site_symmetry_multiplicity
 _atom_site_fract_x
 _atom_site_fract_y
 _atom_site_fract_z
 _atom_site_occupancy
  Ce  Ce0  1  0.423384  0.419264  0.500000  1
  Ce  Ce1  1  0.580736  0.004120  0.500000  1
  Ce  Ce2  1  0.995880  0.576616  0.500000  1
  Al  Al3  1  0.769340  0.767224  0.000000  1
  Al  Al4  1  0.232776  0.002116  0.000000  1
  Al  Al5  1  0.997884  0.230660  0.000000  1
  Cu  Cu6  1  0.333333  0.666667  0.000000  1
  Rh  Rh7  1  0.666667  0.333333  0.000000  1
  Rh  Rh8  1  0.000000  0.000000  0.500000  1
