# generated using pymatgen
data_Tb3GdBCl6
_symmetry_space_group_name_H-M   'P 1'
_cell_length_a   3.85514800
_cell_length_b   12.83290211
_cell_length_c   13.28584500
_cell_angle_alpha   89.63380267
_cell_angle_beta   90.00000000
_cell_angle_gamma   90.00000000
_symmetry_Int_Tables_number   1
_chemical_formula_structural   Tb3GdBCl6
_chemical_formula_sum   'Tb6 Gd2 B2 Cl12'
_cell_volume   657.27368924
_cell_formula_units_Z   2
loop_
 _symmetry_equiv_pos_site_id
 _symmetry_equiv_pos_as_xyz
  1  'x, y, z'
loop_
 _atom_site_type_symbol
 _atom_site_label
 _atom_site_symmetry_multiplicity
 _atom_site_fract_x
 _atom_site_fract_y
 _atom_site_fract_z
 _atom_site_occupancy
  Tb  Tb0  1  0.000000  0.107156  0.085094  1
  Tb  Tb1  1  0.000000  0.892844  0.914906  1
  Tb  Tb2  1  0.500000  0.126411  0.851794  1
  Tb  Tb3  1  0.500000  0.873589  0.148206  1
  Tb  Tb4  1  0.500000  0.625953  0.648351  1
  Tb  Tb5  1  0.500000  0.374047  0.351649  1
  Gd  Gd6  1  0.000000  0.607194  0.414742  1
  Gd  Gd7  1  0.000000  0.392806  0.585258  1
  B  B8  1  0.500000  0.000000  0.000000  1
  B  B9  1  0.500000  0.500000  0.500000  1
  Cl  Cl10  1  0.500000  0.266817  0.685637  1
  Cl  Cl11  1  0.500000  0.733183  0.314363  1
  Cl  Cl12  1  0.500000  0.768337  0.817479  1
  Cl  Cl13  1  0.500000  0.231663  0.182521  1
  Cl  Cl14  1  0.000000  0.254891  0.930009  1
  Cl  Cl15  1  0.000000  0.745109  0.069991  1
  Cl  Cl16  1  0.000000  0.477082  0.243325  1
  Cl  Cl17  1  0.000000  0.522918  0.756675  1
  Cl  Cl18  1  0.000000  0.977832  0.254847  1
  Cl  Cl19  1  0.000000  0.022168  0.745153  1
  Cl  Cl20  1  0.000000  0.244071  0.428799  1
  Cl  Cl21  1  0.000000  0.755929  0.571201  1
