# generated using pymatgen
data_Se3SN8
_symmetry_space_group_name_H-M   'P 1'
_cell_length_a   8.03420623
_cell_length_b   7.36072589
_cell_length_c   10.24874588
_cell_angle_alpha   91.04226808
_cell_angle_beta   120.06629564
_cell_angle_gamma   100.12090051
_symmetry_Int_Tables_number   1
_chemical_formula_structural   Se3SN8
_chemical_formula_sum   'Se3 S1 N8'
_cell_volume   512.34320333
_cell_formula_units_Z   1
loop_
 _symmetry_equiv_pos_site_id
 _symmetry_equiv_pos_as_xyz
  1  'x, y, z'
loop_
 _atom_site_type_symbol
 _atom_site_label
 _atom_site_symmetry_multiplicity
 _atom_site_fract_x
 _atom_site_fract_y
 _atom_site_fract_z
 _atom_site_occupancy
  Se  Se0  1  0.654849  0.214368  0.766759  1
  Se  Se1  1  0.334140  0.941028  0.400192  1
  Se  Se2  1  0.211572  0.964770  0.154410  1
  S  S3  1  0.542929  0.219017  0.534026  1
  N  N4  1  0.750584  0.461035  0.130951  1
  N  N5  1  0.706372  0.928614  0.182601  1
  N  N6  1  0.792616  0.983916  0.305460  1
  N  N7  1  0.936466  0.566698  0.497584  1
  N  N8  1  0.063896  0.497367  0.545061  1
  N  N9  1  0.136675  0.982336  0.706636  1
  N  N10  1  0.020622  0.983325  0.735708  1
  N  N11  1  0.598208  0.396835  0.102239  1
