# generated using pymatgen
data_Rb2PrDySe8
_symmetry_space_group_name_H-M   'P 1'
_cell_length_a   6.36815100
_cell_length_b   6.36815100
_cell_length_c   8.78384200
_cell_angle_alpha   90.00000000
_cell_angle_beta   90.00000000
_cell_angle_gamma   90.00000000
_symmetry_Int_Tables_number   1
_chemical_formula_structural   Rb2PrDySe8
_chemical_formula_sum   'Rb2 Pr1 Dy1 Se8'
_cell_volume   356.21419401
_cell_formula_units_Z   1
loop_
 _symmetry_equiv_pos_site_id
 _symmetry_equiv_pos_as_xyz
  1  'x, y, z'
loop_
 _atom_site_type_symbol
 _atom_site_label
 _atom_site_symmetry_multiplicity
 _atom_site_fract_x
 _atom_site_fract_y
 _atom_site_fract_z
 _atom_site_occupancy
  Rb  Rb0  1  0.000000  0.000000  0.000000  1
  Rb  Rb1  1  0.500000  0.500000  0.000000  1
  Pr  Pr2  1  0.000000  0.000000  0.500000  1
  Dy  Dy3  1  0.500000  0.500000  0.500000  1
  Se  Se4  1  0.624633  0.145779  0.298541  1
  Se  Se5  1  0.145779  0.375367  0.298541  1
  Se  Se6  1  0.854221  0.624633  0.298541  1
  Se  Se7  1  0.375367  0.854221  0.298541  1
  Se  Se8  1  0.375367  0.145779  0.701459  1
  Se  Se9  1  0.854221  0.375367  0.701459  1
  Se  Se10  1  0.145779  0.624633  0.701459  1
  Se  Se11  1  0.624633  0.854221  0.701459  1
