# generated using pymatgen
data_NpTlNiSe3
_symmetry_space_group_name_H-M   'P 1'
_cell_length_a   7.67604900
_cell_length_b   7.67604924
_cell_length_c   10.32621900
_cell_angle_alpha   90.00000000
_cell_angle_beta   90.00000000
_cell_angle_gamma   150.17177049
_symmetry_Int_Tables_number   1
_chemical_formula_structural   NpTlNiSe3
_chemical_formula_sum   'Np2 Tl2 Ni2 Se6'
_cell_volume   302.63828428
_cell_formula_units_Z   2
loop_
 _symmetry_equiv_pos_site_id
 _symmetry_equiv_pos_as_xyz
  1  'x, y, z'
loop_
 _atom_site_type_symbol
 _atom_site_label
 _atom_site_symmetry_multiplicity
 _atom_site_fract_x
 _atom_site_fract_y
 _atom_site_fract_z
 _atom_site_occupancy
  Np  Np0  1  0.000000  0.000000  0.500000  1
  Np  Np1  1  0.000000  0.000000  0.000000  1
  Tl  Tl2  1  0.749506  0.250494  0.250000  1
  Tl  Tl3  1  0.250494  0.749506  0.750000  1
  Ni  Ni4  1  0.529871  0.470129  0.750000  1
  Ni  Ni5  1  0.470129  0.529871  0.250000  1
  Se  Se6  1  0.626678  0.373322  0.564197  1
  Se  Se7  1  0.373322  0.626678  0.435803  1
  Se  Se8  1  0.064396  0.935604  0.250000  1
  Se  Se9  1  0.935604  0.064396  0.750000  1
  Se  Se10  1  0.626678  0.373322  0.935803  1
  Se  Se11  1  0.373322  0.626678  0.064197  1
