# generated using pymatgen
data_Nd16In3Co4Hg
_symmetry_space_group_name_H-M   'P 1'
_cell_length_a   9.90101848
_cell_length_b   9.80284750
_cell_length_c   9.90433370
_cell_angle_alpha   59.69682863
_cell_angle_beta   60.01816591
_cell_angle_gamma   59.69164795
_symmetry_Int_Tables_number   1
_chemical_formula_structural   Nd16In3Co4Hg
_chemical_formula_sum   'Nd16 In3 Co4 Hg1'
_cell_volume   676.67284139
_cell_formula_units_Z   1
loop_
 _symmetry_equiv_pos_site_id
 _symmetry_equiv_pos_as_xyz
  1  'x, y, z'
loop_
 _atom_site_type_symbol
 _atom_site_label
 _atom_site_symmetry_multiplicity
 _atom_site_fract_x
 _atom_site_fract_y
 _atom_site_fract_z
 _atom_site_occupancy
  Nd  Nd0  1  0.941177  0.933729  0.562552  1
  Nd  Nd1  1  0.562518  0.933775  0.562541  1
  Nd  Nd2  1  0.562551  0.933711  0.941183  1
  Nd  Nd3  1  0.690691  0.689167  0.310107  1
  Nd  Nd4  1  0.154314  0.154026  0.537263  1
  Nd  Nd5  1  0.310109  0.689128  0.690707  1
  Nd  Nd6  1  0.154326  0.154099  0.154308  1
  Nd  Nd7  1  0.537286  0.154031  0.154287  1
  Nd  Nd8  1  0.310067  0.689245  0.310084  1
  Nd  Nd9  1  0.312752  0.307278  0.690051  1
  Nd  Nd10  1  0.689979  0.307290  0.690005  1
  Nd  Nd11  1  0.940570  0.556230  0.562694  1
  Nd  Nd12  1  0.562691  0.556245  0.940579  1
  Nd  Nd13  1  0.153114  0.540583  0.153081  1
  Nd  Nd14  1  0.690008  0.307280  0.312773  1
  Nd  Nd15  1  0.940478  0.556272  0.940515  1
  In  In16  1  0.239905  0.923830  0.918123  1
  In  In17  1  0.918121  0.923830  0.918107  1
  In  In18  1  0.918130  0.923841  0.239924  1
  Co  Co19  1  0.920206  0.364922  0.357413  1
  Co  Co20  1  0.357438  0.364917  0.920181  1
  Co  Co21  1  0.359025  0.922922  0.359008  1
  Co  Co22  1  0.357437  0.364956  0.357415  1
  Hg  Hg23  1  0.917103  0.248692  0.917096  1
