# generated using pymatgen
data_YbAl4PbI16
_symmetry_space_group_name_H-M   'P 1'
_cell_length_a   8.52700940
_cell_length_b   8.42587988
_cell_length_c   15.52334651
_cell_angle_alpha   88.34904143
_cell_angle_beta   90.21912455
_cell_angle_gamma   90.13202932
_symmetry_Int_Tables_number   1
_chemical_formula_structural   YbAl4PbI16
_chemical_formula_sum   'Yb1 Al4 Pb1 I16'
_cell_volume   1114.84070191
_cell_formula_units_Z   1
loop_
 _symmetry_equiv_pos_site_id
 _symmetry_equiv_pos_as_xyz
  1  'x, y, z'
loop_
 _atom_site_type_symbol
 _atom_site_label
 _atom_site_symmetry_multiplicity
 _atom_site_fract_x
 _atom_site_fract_y
 _atom_site_fract_z
 _atom_site_occupancy
  Yb  Yb0  1  0.755071  0.078600  0.809815  1
  Al  Al1  1  0.932292  0.212684  0.583596  1
  Al  Al2  1  0.056811  0.221471  0.075022  1
  Al  Al3  1  0.584677  0.644547  0.777749  1
  Al  Al4  1  0.428507  0.644097  0.279417  1
  Pb  Pb5  1  0.239126  0.079087  0.311813  1
  I  I6  1  0.434199  0.614815  0.640837  1
  I  I7  1  0.567926  0.614469  0.139189  1
  I  I8  1  0.873884  0.734766  0.759037  1
  I  I9  1  0.134557  0.722574  0.261335  1
  I  I10  1  0.941888  0.470768  0.500121  1
  I  I11  1  0.059636  0.481538  0.993549  1
  I  I12  1  0.916197  0.997655  0.991927  1
  I  I13  1  0.070659  0.985114  0.504287  1
  I  I14  1  0.644982  0.125620  0.617195  1
  I  I15  1  0.340711  0.124657  0.110986  1
  I  I16  1  0.578200  0.386172  0.874779  1
  I  I17  1  0.443163  0.392543  0.379022  1
  I  I18  1  0.462680  0.869793  0.868313  1
  I  I19  1  0.551470  0.873430  0.366732  1
  I  I20  1  0.920531  0.230687  0.224463  1
  I  I21  1  0.062834  0.229713  0.735219  1
