# generated using pymatgen
data_Ca7La(Si3Pt4)2
_symmetry_space_group_name_H-M   'P 1'
_cell_length_a   10.99481746
_cell_length_b   10.97091537
_cell_length_c   7.76725900
_cell_angle_alpha   72.15732265
_cell_angle_beta   71.97492720
_cell_angle_gamma   30.44762090
_symmetry_Int_Tables_number   1
_chemical_formula_structural   Ca7La(Si3Pt4)2
_chemical_formula_sum   'Ca7 La1 Si6 Pt8'
_cell_volume   449.94830919
_cell_formula_units_Z   1
loop_
 _symmetry_equiv_pos_site_id
 _symmetry_equiv_pos_as_xyz
  1  'x, y, z'
loop_
 _atom_site_type_symbol
 _atom_site_label
 _atom_site_symmetry_multiplicity
 _atom_site_fract_x
 _atom_site_fract_y
 _atom_site_fract_z
 _atom_site_occupancy
  Ca  Ca0  1  0.214837  0.447208  0.406702  1
  Ca  Ca1  1  0.550253  0.791532  0.089518  1
  Ca  Ca2  1  0.450522  0.207942  0.908976  1
  Ca  Ca3  1  0.935614  0.199550  0.325609  1
  Ca  Ca4  1  0.795764  0.066646  0.172613  1
  Ca  Ca5  1  0.066315  0.796065  0.673024  1
  Ca  Ca6  1  0.197882  0.936602  0.829642  1
  La  La7  1  0.786360  0.551717  0.590712  1
  Si  Si8  1  0.593889  0.404523  0.749640  1
  Si  Si9  1  0.406647  0.593657  0.250274  1
  Si  Si10  1  0.304430  0.044337  0.424292  1
  Si  Si11  1  0.965901  0.689607  0.070785  1
  Si  Si12  1  0.690651  0.960345  0.575662  1
  Si  Si13  1  0.039753  0.309653  0.930559  1
  Pt  Pt14  1  0.292448  0.584427  0.029854  1
  Pt  Pt15  1  0.585463  0.288537  0.528926  1
  Pt  Pt16  1  0.707112  0.416877  0.971687  1
  Pt  Pt17  1  0.078620  0.361673  0.179743  1
  Pt  Pt18  1  0.646514  0.916259  0.319554  1
  Pt  Pt19  1  0.414925  0.708365  0.469656  1
  Pt  Pt20  1  0.920370  0.642413  0.821070  1
  Pt  Pt21  1  0.355730  0.082066  0.681503  1
