# generated using pymatgen
data_Ac2Th(GaRh)3
_symmetry_space_group_name_H-M   'P 1'
_cell_length_a   7.43629700
_cell_length_b   7.57113857
_cell_length_c   4.10931800
_cell_angle_alpha   90.00000000
_cell_angle_beta   90.00000000
_cell_angle_gamma   119.41258431
_symmetry_Int_Tables_number   1
_chemical_formula_structural   Ac2Th(GaRh)3
_chemical_formula_sum   'Ac2 Th1 Ga3 Rh3'
_cell_volume   201.53879696
_cell_formula_units_Z   1
loop_
 _symmetry_equiv_pos_site_id
 _symmetry_equiv_pos_as_xyz
  1  'x, y, z'
loop_
 _atom_site_type_symbol
 _atom_site_label
 _atom_site_symmetry_multiplicity
 _atom_site_fract_x
 _atom_site_fract_y
 _atom_site_fract_z
 _atom_site_occupancy
  Ac  Ac0  1  0.998351  0.416956  0.500000  1
  Ac  Ac1  1  0.581395  0.583044  0.500000  1
  Th  Th2  1  0.418260  0.000000  0.500000  1
  Ga  Ga3  1  0.011517  0.779354  0.000000  1
  Ga  Ga4  1  0.232164  0.220646  0.000000  1
  Ga  Ga5  1  0.771052  0.000000  0.000000  1
  Rh  Rh6  1  0.339497  0.706209  0.000000  1
  Rh  Rh7  1  0.633288  0.293791  0.000000  1
  Rh  Rh8  1  0.014476  0.000000  0.500000  1
