# generated using pymatgen
data_Y3(Th2Au5)2
_symmetry_space_group_name_H-M   'P 1'
_cell_length_a   8.90819147
_cell_length_b   8.90813149
_cell_length_c   10.57980700
_cell_angle_alpha   90.00023155
_cell_angle_beta   89.99991639
_cell_angle_gamma   107.37700129
_symmetry_Int_Tables_number   1
_chemical_formula_structural   Y3(Th2Au5)2
_chemical_formula_sum   'Y6 Th8 Au20'
_cell_volume   801.24672366
_cell_formula_units_Z   2
loop_
 _symmetry_equiv_pos_site_id
 _symmetry_equiv_pos_as_xyz
  1  'x, y, z'
loop_
 _atom_site_type_symbol
 _atom_site_label
 _atom_site_symmetry_multiplicity
 _atom_site_fract_x
 _atom_site_fract_y
 _atom_site_fract_z
 _atom_site_occupancy
  Y  Y0  1  0.503053  0.003050  0.249999  1
  Y  Y1  1  0.996947  0.496950  0.749999  1
  Y  Y2  1  0.000000  0.000000  0.000000  1
  Y  Y3  1  0.003053  0.503050  0.250001  1
  Y  Y4  1  0.496947  0.996950  0.750001  1
  Y  Y5  1  0.500000  0.500000  0.500000  1
  Th  Th6  1  0.696220  0.303782  0.999999  1
  Th  Th7  1  0.196219  0.803781  0.500001  1
  Th  Th8  1  0.809158  0.809157  0.306386  1
  Th  Th9  1  0.309158  0.309156  0.193614  1
  Th  Th10  1  0.803781  0.196219  0.499999  1
  Th  Th11  1  0.303780  0.696218  0.000001  1
  Th  Th12  1  0.690842  0.690844  0.806386  1
  Th  Th13  1  0.190842  0.190843  0.693614  1
  Au  Au14  1  0.147034  0.437614  0.497347  1
  Au  Au15  1  0.898727  0.898727  0.599412  1
  Au  Au16  1  0.562386  0.852963  0.502655  1
  Au  Au17  1  0.860466  0.150323  0.207195  1
  Au  Au18  1  0.360466  0.650323  0.292805  1
  Au  Au19  1  0.650325  0.360465  0.292805  1
  Au  Au20  1  0.398727  0.398727  0.900588  1
  Au  Au21  1  0.937614  0.647037  0.002655  1
  Au  Au22  1  0.349675  0.639535  0.707195  1
  Au  Au23  1  0.352967  0.062386  0.997347  1
  Au  Au24  1  0.601273  0.601273  0.099412  1
  Au  Au25  1  0.647033  0.937614  0.002653  1
  Au  Au26  1  0.101273  0.101273  0.400588  1
  Au  Au27  1  0.639534  0.349677  0.707195  1
  Au  Au28  1  0.139534  0.849677  0.792805  1
  Au  Au29  1  0.062386  0.352963  0.997345  1
  Au  Au30  1  0.852966  0.562386  0.502653  1
  Au  Au31  1  0.150324  0.860465  0.207195  1
  Au  Au32  1  0.437614  0.147037  0.497345  1
  Au  Au33  1  0.849676  0.139535  0.792805  1
