# generated using pymatgen
data_Tb3Tm9TlZnCo4
_symmetry_space_group_name_H-M   'P 1'
_cell_length_a   8.26007642
_cell_length_b   8.23595947
_cell_length_c   8.23596138
_cell_angle_alpha   112.27672276
_cell_angle_beta   109.56746307
_cell_angle_gamma   106.51046134
_symmetry_Int_Tables_number   1
_chemical_formula_structural   Tb3Tm9TlZnCo4
_chemical_formula_sum   'Tb3 Tm9 Tl1 Zn1 Co4'
_cell_volume   430.80518936
_cell_formula_units_Z   1
loop_
 _symmetry_equiv_pos_site_id
 _symmetry_equiv_pos_as_xyz
  1  'x, y, z'
loop_
 _atom_site_type_symbol
 _atom_site_label
 _atom_site_symmetry_multiplicity
 _atom_site_fract_x
 _atom_site_fract_y
 _atom_site_fract_z
 _atom_site_occupancy
  Tb  Tb0  1  0.431319  0.231138  0.200181  1
  Tb  Tb1  1  0.569214  0.768555  0.800659  1
  Tb  Tb2  1  0.033455  0.231842  0.801613  1
  Tm  Tm3  1  0.967699  0.766627  0.201072  1
  Tm  Tm4  1  0.178919  0.281832  0.461517  1
  Tm  Tm5  1  0.820070  0.716902  0.536499  1
  Tm  Tm6  1  0.178919  0.717401  0.897087  1
  Tm  Tm7  1  0.820070  0.283571  0.103169  1
  Tm  Tm8  1  0.324787  0.639056  0.311583  1
  Tm  Tm9  1  0.676676  0.363368  0.689299  1
  Tm  Tm10  1  0.324787  0.013205  0.685733  1
  Tm  Tm11  1  0.676676  0.987378  0.313306  1
  Tl  Tl12  1  0.502217  0.500847  0.001369  1
  Zn  Zn13  1  0.999466  0.996759  0.002708  1
  Co  Co14  1  0.339900  0.999028  0.340872  1
  Co  Co15  1  0.657516  0.000707  0.656809  1
  Co  Co16  1  0.111369  0.616036  0.495332  1
  Co  Co17  1  0.886941  0.385750  0.501192  1
