# generated using pymatgen
data_Er2Lu10Tc3Pb2
_symmetry_space_group_name_H-M   'P 1'
_cell_length_a   8.31931101
_cell_length_b   8.31931158
_cell_length_c   8.33636500
_cell_angle_alpha   108.77721025
_cell_angle_beta   108.77719703
_cell_angle_gamma   110.78746106
_symmetry_Int_Tables_number   1
_chemical_formula_structural   Er2Lu10Tc3Pb2
_chemical_formula_sum   'Er2 Lu10 Tc3 Pb2'
_cell_volume   444.40540081
_cell_formula_units_Z   1
loop_
 _symmetry_equiv_pos_site_id
 _symmetry_equiv_pos_as_xyz
  1  'x, y, z'
loop_
 _atom_site_type_symbol
 _atom_site_label
 _atom_site_symmetry_multiplicity
 _atom_site_fract_x
 _atom_site_fract_y
 _atom_site_fract_z
 _atom_site_occupancy
  Er  Er0  1  0.306017  0.306017  0.612034  1
  Er  Er1  1  0.693983  0.693983  0.387966  1
  Lu  Lu2  1  0.693460  0.306540  0.000000  1
  Lu  Lu3  1  0.306540  0.693460  0.000000  1
  Lu  Lu4  1  0.189145  0.427403  0.236400  1
  Lu  Lu5  1  0.810855  0.572597  0.763600  1
  Lu  Lu6  1  0.191004  0.952745  0.763600  1
  Lu  Lu7  1  0.952745  0.191004  0.763600  1
  Lu  Lu8  1  0.808996  0.047255  0.236400  1
  Lu  Lu9  1  0.047255  0.808996  0.236400  1
  Lu  Lu10  1  0.427403  0.189145  0.236400  1
  Lu  Lu11  1  0.572597  0.810855  0.763600  1
  Tc  Tc12  1  0.369206  0.369206  0.000000  1
  Tc  Tc13  1  0.630794  0.630794  0.000000  1
  Tc  Tc14  1  0.000000  0.000000  0.000000  1
  Pb  Pb15  1  0.000000  0.500000  0.500000  1
  Pb  Pb16  1  0.500000  0.000000  0.500000  1
