# generated using pymatgen
data_Ba5TaNbCl2O9
_symmetry_space_group_name_H-M   'P 1'
_cell_length_a   6.04765500
_cell_length_b   6.04765450
_cell_length_c   25.12053700
_cell_angle_alpha   90.00000000
_cell_angle_beta   90.00000000
_cell_angle_gamma   120.00000819
_symmetry_Int_Tables_number   1
_chemical_formula_structural   Ba5TaNbCl2O9
_chemical_formula_sum   'Ba10 Ta2 Nb2 Cl4 O18'
_cell_volume   795.67093720
_cell_formula_units_Z   2
loop_
 _symmetry_equiv_pos_site_id
 _symmetry_equiv_pos_as_xyz
  1  'x, y, z'
loop_
 _atom_site_type_symbol
 _atom_site_label
 _atom_site_symmetry_multiplicity
 _atom_site_fract_x
 _atom_site_fract_y
 _atom_site_fract_z
 _atom_site_occupancy
  Ba  Ba0  1  0.333333  0.666667  0.418941  1
  Ba  Ba1  1  0.333333  0.666667  0.082150  1
  Ba  Ba2  1  0.333333  0.666667  0.826978  1
  Ba  Ba3  1  0.666667  0.333333  0.582150  1
  Ba  Ba4  1  0.666667  0.333333  0.918941  1
  Ba  Ba5  1  0.666667  0.333333  0.326978  1
  Ba  Ba6  1  0.666667  0.333333  0.171970  1
  Ba  Ba7  1  0.333333  0.666667  0.249250  1
  Ba  Ba8  1  0.666667  0.333333  0.749250  1
  Ba  Ba9  1  0.333333  0.666667  0.671970  1
  Ta  Ta10  1  0.000000  0.000000  0.190053  1
  Ta  Ta11  1  0.000000  0.000000  0.690053  1
  Nb  Nb12  1  0.000000  0.000000  0.811351  1
  Nb  Nb13  1  0.000000  0.000000  0.311351  1
  Cl  Cl14  1  0.333333  0.666667  0.546555  1
  Cl  Cl15  1  0.333333  0.666667  0.952998  1
  Cl  Cl16  1  0.666667  0.333333  0.046555  1
  Cl  Cl17  1  0.666667  0.333333  0.452998  1
  O  O18  1  0.161767  0.323534  0.155117  1
  O  O19  1  0.702686  0.851343  0.749684  1
  O  O20  1  0.838233  0.676466  0.655117  1
  O  O21  1  0.851343  0.148657  0.249684  1
  O  O22  1  0.162916  0.837084  0.345116  1
  O  O23  1  0.161767  0.838233  0.155117  1
  O  O24  1  0.838233  0.161767  0.655117  1
  O  O25  1  0.323534  0.161767  0.655117  1
  O  O26  1  0.837084  0.162916  0.845116  1
  O  O27  1  0.851343  0.702686  0.249684  1
  O  O28  1  0.297314  0.148657  0.249684  1
  O  O29  1  0.325831  0.162916  0.845116  1
  O  O30  1  0.148657  0.297314  0.749684  1
  O  O31  1  0.837084  0.674169  0.845116  1
  O  O32  1  0.162916  0.325831  0.345116  1
  O  O33  1  0.676466  0.838233  0.155117  1
  O  O34  1  0.148657  0.851343  0.749684  1
  O  O35  1  0.674169  0.837084  0.345116  1
