# generated using pymatgen
data_Dy3Al12FeRu2Au
_symmetry_space_group_name_H-M   'P 1'
_cell_length_a   8.83705678
_cell_length_b   8.80822987
_cell_length_c   9.51623804
_cell_angle_alpha   89.99999948
_cell_angle_beta   90.09069026
_cell_angle_gamma   119.89215164
_symmetry_Int_Tables_number   1
_chemical_formula_structural   Dy3Al12FeRu2Au
_chemical_formula_sum   'Dy6 Al24 Fe2 Ru4 Au2'
_cell_volume   642.18836887
_cell_formula_units_Z   2
loop_
 _symmetry_equiv_pos_site_id
 _symmetry_equiv_pos_as_xyz
  1  'x, y, z'
loop_
 _atom_site_type_symbol
 _atom_site_label
 _atom_site_symmetry_multiplicity
 _atom_site_fract_x
 _atom_site_fract_y
 _atom_site_fract_z
 _atom_site_occupancy
  Dy  Dy0  1  0.191348  0.805600  0.247536  1
  Dy  Dy1  1  0.191348  0.385748  0.247536  1
  Dy  Dy2  1  0.615093  0.807546  0.252872  1
  Dy  Dy3  1  0.808652  0.194400  0.752464  1
  Dy  Dy4  1  0.808652  0.614252  0.752464  1
  Dy  Dy5  1  0.384907  0.192454  0.747128  1
  Al  Al6  1  0.564950  0.436418  0.243261  1
  Al  Al7  1  0.564950  0.128532  0.243261  1
  Al  Al8  1  0.881004  0.440502  0.254422  1
  Al  Al9  1  0.435050  0.563582  0.756739  1
  Al  Al10  1  0.435050  0.871468  0.756739  1
  Al  Al11  1  0.118996  0.559498  0.745578  1
  Al  Al12  1  0.317975  0.158987  0.415958  1
  Al  Al13  1  0.850407  0.174639  0.420160  1
  Al  Al14  1  0.850407  0.675768  0.420160  1
  Al  Al15  1  0.682025  0.841013  0.584042  1
  Al  Al16  1  0.149593  0.825361  0.579840  1
  Al  Al17  1  0.149593  0.324232  0.579840  1
  Al  Al18  1  0.679440  0.839721  0.928565  1
  Al  Al19  1  0.160747  0.838977  0.925412  1
  Al  Al20  1  0.160747  0.321770  0.925412  1
  Al  Al21  1  0.320560  0.160279  0.071435  1
  Al  Al22  1  0.839253  0.161023  0.074588  1
  Al  Al23  1  0.839253  0.678230  0.074588  1
  Al  Al24  1  0.686084  0.343041  0.527916  1
  Al  Al25  1  0.313916  0.656959  0.472084  1
  Al  Al26  1  0.333507  0.666754  0.024247  1
  Al  Al27  1  0.666493  0.333246  0.975753  1
  Al  Al28  1  0.997537  0.998769  0.243108  1
  Al  Al29  1  0.002463  0.001231  0.756892  1
  Fe  Fe30  1  0.000000  0.000000  0.000000  1
  Fe  Fe31  1  0.000000  0.500000  0.500000  1
  Ru  Ru32  1  0.000000  0.000000  0.500000  1
  Ru  Ru33  1  0.500000  0.500000  0.000000  1
  Ru  Ru34  1  0.500000  0.000000  0.000000  1
  Ru  Ru35  1  0.000000  0.500000  0.000000  1
  Au  Au36  1  0.500000  0.500000  0.500000  1
  Au  Au37  1  0.500000  0.000000  0.500000  1
