# generated using pymatgen
data_Sm2Y3Tm3(Si3Rh)4
_symmetry_space_group_name_H-M   'P 1'
_cell_length_a   8.17429800
_cell_length_b   8.17429774
_cell_length_c   7.94464300
_cell_angle_alpha   90.00000000
_cell_angle_beta   90.00000000
_cell_angle_gamma   119.99999297
_symmetry_Int_Tables_number   1
_chemical_formula_structural   Sm2Y3Tm3(Si3Rh)4
_chemical_formula_sum   'Sm2 Y3 Tm3 Si12 Rh4'
_cell_volume   459.73330545
_cell_formula_units_Z   1
loop_
 _symmetry_equiv_pos_site_id
 _symmetry_equiv_pos_as_xyz
  1  'x, y, z'
loop_
 _atom_site_type_symbol
 _atom_site_label
 _atom_site_symmetry_multiplicity
 _atom_site_fract_x
 _atom_site_fract_y
 _atom_site_fract_z
 _atom_site_occupancy
  Sm  Sm0  1  0.000000  0.000000  0.250000  1
  Sm  Sm1  1  0.000000  0.000000  0.750000  1
  Y  Y2  1  0.491543  0.508457  0.750000  1
  Y  Y3  1  0.491543  0.983086  0.750000  1
  Y  Y4  1  0.016914  0.508457  0.750000  1
  Tm  Tm5  1  0.508738  0.491262  0.250000  1
  Tm  Tm6  1  0.508738  0.017477  0.250000  1
  Tm  Tm7  1  0.982523  0.491262  0.250000  1
  Si  Si8  1  0.168085  0.831915  0.498922  1
  Si  Si9  1  0.168085  0.336171  0.498922  1
  Si  Si10  1  0.663829  0.831915  0.498922  1
  Si  Si11  1  0.832270  0.167730  0.496979  1
  Si  Si12  1  0.832270  0.664539  0.496979  1
  Si  Si13  1  0.335461  0.167730  0.496979  1
  Si  Si14  1  0.832270  0.167730  0.003021  1
  Si  Si15  1  0.832270  0.664539  0.003021  1
  Si  Si16  1  0.335461  0.167730  0.003021  1
  Si  Si17  1  0.168085  0.831915  0.001078  1
  Si  Si18  1  0.168085  0.336171  0.001078  1
  Si  Si19  1  0.663829  0.831915  0.001078  1
  Rh  Rh20  1  0.333333  0.666667  0.460107  1
  Rh  Rh21  1  0.666667  0.333333  0.527921  1
  Rh  Rh22  1  0.666667  0.333333  0.972079  1
  Rh  Rh23  1  0.333333  0.666667  0.039893  1
