# generated using pymatgen
data_Lu2AlCoRu
_symmetry_space_group_name_H-M   'P 1'
_cell_length_a   5.39456993
_cell_length_b   5.39456926
_cell_length_c   5.39457020
_cell_angle_alpha   136.71359589
_cell_angle_beta   117.64525420
_cell_angle_gamma   78.93449202
_symmetry_Int_Tables_number   1
_chemical_formula_structural   Lu2AlCoRu
_chemical_formula_sum   'Lu2 Al1 Co1 Ru1'
_cell_volume   92.56164734
_cell_formula_units_Z   1
loop_
 _symmetry_equiv_pos_site_id
 _symmetry_equiv_pos_as_xyz
  1  'x, y, z'
loop_
 _atom_site_type_symbol
 _atom_site_label
 _atom_site_symmetry_multiplicity
 _atom_site_fract_x
 _atom_site_fract_y
 _atom_site_fract_z
 _atom_site_occupancy
  Lu  Lu0  1  0.286328  0.792733  0.493594  1
  Lu  Lu1  1  0.700861  0.207267  0.493594  1
  Al  Al2  1  0.993118  0.000000  0.993118  1
  Co  Co3  1  0.729052  0.500000  0.229052  1
  Ru  Ru4  1  0.290640  0.500000  0.790640  1
