# generated using pymatgen
data_Er4LuCo2Au
_symmetry_space_group_name_H-M   'P 1'
_cell_length_a   8.42736538
_cell_length_b   8.42736506
_cell_length_c   8.42739300
_cell_angle_alpha   127.80059811
_cell_angle_beta   127.80058783
_cell_angle_gamma   76.94860526
_symmetry_Int_Tables_number   1
_chemical_formula_structural   Er4LuCo2Au
_chemical_formula_sum   'Er8 Lu2 Co4 Au2'
_cell_volume   362.75398527
_cell_formula_units_Z   2
loop_
 _symmetry_equiv_pos_site_id
 _symmetry_equiv_pos_as_xyz
  1  'x, y, z'
loop_
 _atom_site_type_symbol
 _atom_site_label
 _atom_site_symmetry_multiplicity
 _atom_site_fract_x
 _atom_site_fract_y
 _atom_site_fract_z
 _atom_site_occupancy
  Er  Er0  1  0.698748  0.530417  0.499991  1
  Er  Er1  1  0.469586  0.969586  0.168346  1
  Er  Er2  1  0.801248  0.301248  0.831677  1
  Er  Er3  1  0.530414  0.030414  0.831654  1
  Er  Er4  1  0.030417  0.198748  0.499991  1
  Er  Er5  1  0.301252  0.469583  0.500009  1
  Er  Er6  1  0.198752  0.698752  0.168323  1
  Er  Er7  1  0.969583  0.801252  0.500009  1
  Lu  Lu8  1  0.000000  0.000000  0.000000  1
  Lu  Lu9  1  0.500000  0.500000  0.000000  1
  Co  Co10  1  0.128831  0.628831  0.757655  1
  Co  Co11  1  0.871169  0.371169  0.242345  1
  Co  Co12  1  0.628821  0.871179  0.500000  1
  Co  Co13  1  0.371179  0.128821  0.500000  1
  Au  Au14  1  0.250002  0.249998  0.000000  1
  Au  Au15  1  0.749998  0.750002  0.000000  1
