# generated using pymatgen
data_LiEr2Co2P6Ir7
_symmetry_space_group_name_H-M   'P 1'
_cell_length_a   3.88594000
_cell_length_b   10.70837800
_cell_length_c   12.42660400
_cell_angle_alpha   90.00000000
_cell_angle_beta   90.00000000
_cell_angle_gamma   90.00000000
_symmetry_Int_Tables_number   1
_chemical_formula_structural   LiEr2Co2P6Ir7
_chemical_formula_sum   'Li2 Er4 Co4 P12 Ir14'
_cell_volume   517.09726732
_cell_formula_units_Z   2
loop_
 _symmetry_equiv_pos_site_id
 _symmetry_equiv_pos_as_xyz
  1  'x, y, z'
loop_
 _atom_site_type_symbol
 _atom_site_label
 _atom_site_symmetry_multiplicity
 _atom_site_fract_x
 _atom_site_fract_y
 _atom_site_fract_z
 _atom_site_occupancy
  Li  Li0  1  0.250000  0.704740  0.986782  1
  Li  Li1  1  0.250000  0.795260  0.486782  1
  Er  Er2  1  0.250000  0.586183  0.710716  1
  Er  Er3  1  0.250000  0.913817  0.210716  1
  Er  Er4  1  0.750000  0.420927  0.292921  1
  Er  Er5  1  0.750000  0.079073  0.792921  1
  Co  Co6  1  0.250000  0.457524  0.934572  1
  Co  Co7  1  0.250000  0.042476  0.434572  1
  Co  Co8  1  0.750000  0.533592  0.062378  1
  Co  Co9  1  0.750000  0.966408  0.562378  1
  P  P10  1  0.250000  0.427179  0.106199  1
  P  P11  1  0.250000  0.072821  0.606199  1
  P  P12  1  0.750000  0.576008  0.891215  1
  P  P13  1  0.750000  0.923992  0.391215  1
  P  P14  1  0.250000  0.267698  0.868484  1
  P  P15  1  0.250000  0.232302  0.368484  1
  P  P16  1  0.750000  0.729617  0.131708  1
  P  P17  1  0.750000  0.770383  0.631708  1
  P  P18  1  0.250000  0.601812  0.387790  1
  P  P19  1  0.250000  0.898188  0.887790  1
  P  P20  1  0.750000  0.405925  0.613241  1
  P  P21  1  0.750000  0.094075  0.113241  1
  Ir  Ir22  1  0.750000  0.282481  0.016507  1
  Ir  Ir23  1  0.750000  0.217519  0.516507  1
  Ir  Ir24  1  0.250000  0.406258  0.477669  1
  Ir  Ir25  1  0.250000  0.093742  0.977669  1
  Ir  Ir26  1  0.750000  0.593891  0.523361  1
  Ir  Ir27  1  0.750000  0.906109  0.023361  1
  Ir  Ir28  1  0.250000  0.233498  0.178427  1
  Ir  Ir29  1  0.250000  0.266502  0.678427  1
  Ir  Ir30  1  0.750000  0.774075  0.823996  1
  Ir  Ir31  1  0.750000  0.725925  0.323996  1
  Ir  Ir32  1  0.250000  0.885215  0.694443  1
  Ir  Ir33  1  0.250000  0.614785  0.194443  1
  Ir  Ir34  1  0.750000  0.112911  0.299591  1
  Ir  Ir35  1  0.750000  0.387089  0.799591  1
