# generated using pymatgen
data_Dy4Ho15Tm(CoSb2)4
_symmetry_space_group_name_H-M   'P 1'
_cell_length_a   7.85582242
_cell_length_b   8.73705828
_cell_length_c   12.15602263
_cell_angle_alpha   89.98022550
_cell_angle_beta   90.03130511
_cell_angle_gamma   89.97909164
_symmetry_Int_Tables_number   1
_chemical_formula_structural   Dy4Ho15Tm(CoSb2)4
_chemical_formula_sum   'Dy4 Ho15 Tm1 Co4 Sb8'
_cell_volume   834.35000101
_cell_formula_units_Z   1
loop_
 _symmetry_equiv_pos_site_id
 _symmetry_equiv_pos_as_xyz
  1  'x, y, z'
loop_
 _atom_site_type_symbol
 _atom_site_label
 _atom_site_symmetry_multiplicity
 _atom_site_fract_x
 _atom_site_fract_y
 _atom_site_fract_z
 _atom_site_occupancy
  Dy  Dy0  1  0.622066  0.749703  0.307130  1
  Dy  Dy1  1  0.878020  0.750024  0.806726  1
  Dy  Dy2  1  0.378533  0.250199  0.692904  1
  Dy  Dy3  1  0.121783  0.250019  0.193101  1
  Ho  Ho4  1  0.155562  0.749964  0.203845  1
  Ho  Ho5  1  0.344818  0.749788  0.703738  1
  Ho  Ho6  1  0.844441  0.250090  0.796247  1
  Ho  Ho7  1  0.655492  0.250094  0.296327  1
  Ho  Ho8  1  0.451853  0.749959  0.998075  1
  Ho  Ho9  1  0.047935  0.749806  0.498089  1
  Ho  Ho10  1  0.548249  0.250014  0.001890  1
  Ho  Ho11  1  0.951210  0.250298  0.501972  1
  Ho  Ho12  1  0.822199  0.535940  0.065451  1
  Ho  Ho13  1  0.677709  0.963821  0.565512  1
  Ho  Ho14  1  0.177793  0.036189  0.934535  1
  Ho  Ho15  1  0.322676  0.464149  0.434704  1
  Ho  Ho16  1  0.177770  0.463800  0.934525  1
  Ho  Ho17  1  0.322226  0.035841  0.434586  1
  Ho  Ho18  1  0.822214  0.964031  0.065420  1
  Tm  Tm19  1  0.676337  0.536187  0.565371  1
  Co  Co20  1  0.434353  0.749489  0.491216  1
  Co  Co21  1  0.066547  0.749989  0.990940  1
  Co  Co22  1  0.566902  0.250373  0.509037  1
  Co  Co23  1  0.933435  0.250016  0.009028  1
  Sb  Sb24  1  0.929429  0.508600  0.327577  1
  Sb  Sb25  1  0.570756  0.991438  0.827553  1
  Sb  Sb26  1  0.070797  0.008589  0.672391  1
  Sb  Sb27  1  0.429250  0.491459  0.172447  1
  Sb  Sb28  1  0.070174  0.491546  0.672236  1
  Sb  Sb29  1  0.429285  0.008561  0.172503  1
  Sb  Sb30  1  0.929259  0.991422  0.327589  1
  Sb  Sb31  1  0.570925  0.508604  0.827334  1
