# generated using pymatgen
data_Dy10Ho2Co4BiIr
_symmetry_space_group_name_H-M   'P 1'
_cell_length_a   8.31655909
_cell_length_b   8.31273677
_cell_length_c   8.31272940
_cell_angle_alpha   111.12062532
_cell_angle_beta   110.57815196
_cell_angle_gamma   106.73153021
_symmetry_Int_Tables_number   1
_chemical_formula_structural   Dy10Ho2Co4BiIr
_chemical_formula_sum   'Dy10 Ho2 Co4 Bi1 Ir1'
_cell_volume   441.73093643
_cell_formula_units_Z   1
loop_
 _symmetry_equiv_pos_site_id
 _symmetry_equiv_pos_as_xyz
  1  'x, y, z'
loop_
 _atom_site_type_symbol
 _atom_site_label
 _atom_site_symmetry_multiplicity
 _atom_site_fract_x
 _atom_site_fract_y
 _atom_site_fract_z
 _atom_site_occupancy
  Dy  Dy0  1  0.817868  0.714185  0.531722  1
  Dy  Dy1  1  0.182132  0.285815  0.468278  1
  Dy  Dy2  1  0.182133  0.713854  0.896318  1
  Dy  Dy3  1  0.817867  0.286146  0.103682  1
  Dy  Dy4  1  0.688163  0.378936  0.691261  1
  Dy  Dy5  1  0.311837  0.621064  0.308739  1
  Dy  Dy6  1  0.688162  0.996899  0.309224  1
  Dy  Dy7  1  0.311838  0.003101  0.690776  1
  Dy  Dy8  1  0.591827  0.788793  0.803038  1
  Dy  Dy9  1  0.408173  0.211207  0.196962  1
  Ho  Ho10  1  0.986036  0.788906  0.197132  1
  Ho  Ho11  1  0.013964  0.211094  0.802868  1
  Co  Co12  1  0.623443  0.000231  0.623212  1
  Co  Co13  1  0.376557  0.999769  0.376788  1
  Co  Co14  1  0.110623  0.610774  0.499851  1
  Co  Co15  1  0.889377  0.389226  0.500149  1
  Bi  Bi16  1  0.500000  0.500000  0.000000  1
  Ir  Ir17  1  0.000000  0.000000  0.000000  1
