# generated using pymatgen
data_Er4Al23GaPt8Rh
_symmetry_space_group_name_H-M   'P 1'
_cell_length_a   7.50887532
_cell_length_b   7.50875172
_cell_length_c   13.16472251
_cell_angle_alpha   84.54695546
_cell_angle_beta   100.85571741
_cell_angle_gamma   119.79879223
_symmetry_Int_Tables_number   1
_chemical_formula_structural   Er4Al23GaPt8Rh
_chemical_formula_sum   'Er4 Al23 Ga1 Pt8 Rh1'
_cell_volume   632.58524894
_cell_formula_units_Z   1
loop_
 _symmetry_equiv_pos_site_id
 _symmetry_equiv_pos_as_xyz
  1  'x, y, z'
loop_
 _atom_site_type_symbol
 _atom_site_label
 _atom_site_symmetry_multiplicity
 _atom_site_fract_x
 _atom_site_fract_y
 _atom_site_fract_z
 _atom_site_occupancy
  Er  Er0  1  0.731980  0.998748  0.191448  1
  Er  Er1  1  0.265964  0.001598  0.808396  1
  Er  Er2  1  0.062253  0.667908  0.191526  1
  Er  Er3  1  0.938043  0.330057  0.808335  1
  Al  Al4  1  0.188892  0.128040  0.182148  1
  Al  Al5  1  0.982717  0.669781  0.945625  1
  Al  Al6  1  0.017646  0.330544  0.054531  1
  Al  Al7  1  0.398401  0.665248  0.817034  1
  Al  Al8  1  0.601529  0.335953  0.183004  1
  Al  Al9  1  0.882503  0.665065  0.671831  1
  Al  Al10  1  0.117443  0.334731  0.327711  1
  Al  Al11  1  0.604197  0.458191  0.816686  1
  Al  Al12  1  0.396932  0.541579  0.183333  1
  Al  Al13  1  0.230624  0.339974  0.670101  1
  Al  Al14  1  0.769938  0.660559  0.329969  1
  Al  Al15  1  0.853093  0.333380  0.558855  1
  Al  Al16  1  0.185780  0.999333  0.558797  1
  Al  Al17  1  0.814399  0.000933  0.440994  1
  Al  Al18  1  0.348640  0.999110  0.054537  1
  Al  Al19  1  0.651645  0.001149  0.945592  1
  Al  Al20  1  0.556312  0.992915  0.671792  1
  Al  Al21  1  0.443301  0.007159  0.327729  1
  Al  Al22  1  0.521227  0.668123  0.561134  1
  Al  Al23  1  0.478774  0.331965  0.438373  1
  Al  Al24  1  0.687979  0.672293  0.046758  1
  Al  Al25  1  0.313112  0.328397  0.954413  1
  Al  Al26  1  0.146978  0.666734  0.441094  1
  Ga  Ga27  1  0.807133  0.867905  0.818402  1
  Pt  Pt28  1  0.328939  0.671907  0.999988  1
  Pt  Pt29  1  0.546142  0.324777  0.637632  1
  Pt  Pt30  1  0.454005  0.675571  0.362502  1
  Pt  Pt31  1  0.888081  0.008752  0.637354  1
  Pt  Pt32  1  0.111981  0.991887  0.361127  1
  Pt  Pt33  1  0.671787  0.328877  0.999853  1
  Pt  Pt34  1  0.204299  0.666783  0.638925  1
  Pt  Pt35  1  0.796153  0.333307  0.361239  1
  Rh  Rh36  1  0.001175  0.000768  0.001233  1
