# generated using pymatgen
data_HoTm7(Tc3Ge4)4
_symmetry_space_group_name_H-M   'P 1'
_cell_length_a   6.95312907
_cell_length_b   6.91744608
_cell_length_c   12.84868966
_cell_angle_alpha   90.04468967
_cell_angle_beta   89.99495186
_cell_angle_gamma   90.02576340
_symmetry_Int_Tables_number   1
_chemical_formula_structural   HoTm7(Tc3Ge4)4
_chemical_formula_sum   'Ho1 Tm7 Tc12 Ge16'
_cell_volume   617.99467927
_cell_formula_units_Z   1
loop_
 _symmetry_equiv_pos_site_id
 _symmetry_equiv_pos_as_xyz
  1  'x, y, z'
loop_
 _atom_site_type_symbol
 _atom_site_label
 _atom_site_symmetry_multiplicity
 _atom_site_fract_x
 _atom_site_fract_y
 _atom_site_fract_z
 _atom_site_occupancy
  Ho  Ho0  1  0.984502  0.165472  0.092200  1
  Tm  Tm1  1  0.483666  0.333928  0.092287  1
  Tm  Tm2  1  0.983545  0.166201  0.407613  1
  Tm  Tm3  1  0.516378  0.666595  0.592161  1
  Tm  Tm4  1  0.016510  0.833306  0.907552  1
  Tm  Tm5  1  0.516534  0.665804  0.907405  1
  Tm  Tm6  1  0.016562  0.834314  0.592343  1
  Tm  Tm7  1  0.483988  0.333795  0.408020  1
  Tc  Tc8  1  0.676644  0.989130  0.749625  1
  Tc  Tc9  1  0.176466  0.511189  0.749914  1
  Tc  Tc10  1  0.323516  0.010618  0.250171  1
  Tc  Tc11  1  0.823278  0.489339  0.250317  1
  Tc  Tc12  1  0.825698  0.357369  0.623699  1
  Tc  Tc13  1  0.325993  0.142684  0.876167  1
  Tc  Tc14  1  0.175647  0.642338  0.123422  1
  Tc  Tc15  1  0.674996  0.857545  0.376768  1
  Tc  Tc16  1  0.175556  0.642376  0.376733  1
  Tc  Tc17  1  0.673743  0.856726  0.123761  1
  Tc  Tc18  1  0.823178  0.358513  0.876088  1
  Tc  Tc19  1  0.323575  0.142349  0.623408  1
  Ge  Ge20  1  0.819538  0.645261  0.749750  1
  Ge  Ge21  1  0.319693  0.855244  0.749984  1
  Ge  Ge22  1  0.181064  0.355524  0.250455  1
  Ge  Ge23  1  0.679701  0.144643  0.250209  1
  Ge  Ge24  1  0.525191  0.350549  0.749240  1
  Ge  Ge25  1  0.025364  0.149721  0.750810  1
  Ge  Ge26  1  0.474400  0.649402  0.250480  1
  Ge  Ge27  1  0.974230  0.849349  0.250451  1
  Ge  Ge28  1  0.667655  0.054096  0.550749  1
  Ge  Ge29  1  0.167736  0.445938  0.948824  1
  Ge  Ge30  1  0.333024  0.945730  0.050380  1
  Ge  Ge31  1  0.832316  0.554042  0.449428  1
  Ge  Ge32  1  0.332008  0.946303  0.449223  1
  Ge  Ge33  1  0.832197  0.554494  0.050761  1
  Ge  Ge34  1  0.667795  0.053588  0.948966  1
  Ge  Ge35  1  0.168113  0.446522  0.550634  1
