# generated using pymatgen
data_Yb13Dy7Si15P
_symmetry_space_group_name_H-M   'P 1'
_cell_length_a   7.48551565
_cell_length_b   7.78994923
_cell_length_c   15.16390400
_cell_angle_alpha   90.13076626
_cell_angle_beta   89.20055207
_cell_angle_gamma   90.30481882
_symmetry_Int_Tables_number   1
_chemical_formula_structural   Yb13Dy7Si15P
_chemical_formula_sum   'Yb13 Dy7 Si15 P1'
_cell_volume   884.13359826
_cell_formula_units_Z   1
loop_
 _symmetry_equiv_pos_site_id
 _symmetry_equiv_pos_as_xyz
  1  'x, y, z'
loop_
 _atom_site_type_symbol
 _atom_site_label
 _atom_site_symmetry_multiplicity
 _atom_site_fract_x
 _atom_site_fract_y
 _atom_site_fract_z
 _atom_site_occupancy
  Yb  Yb0  1  0.649103  0.979918  0.250100  1
  Yb  Yb1  1  0.148847  0.519530  0.250752  1
  Yb  Yb2  1  0.849150  0.482407  0.751077  1
  Yb  Yb3  1  0.354833  0.018137  0.751203  1
  Yb  Yb4  1  0.976335  0.815653  0.095766  1
  Yb  Yb5  1  0.472282  0.683645  0.403958  1
  Yb  Yb6  1  0.524579  0.314812  0.903293  1
  Yb  Yb7  1  0.028672  0.185216  0.597542  1
  Yb  Yb8  1  0.023900  0.183879  0.902500  1
  Yb  Yb9  1  0.529200  0.314757  0.597684  1
  Yb  Yb10  1  0.467606  0.690984  0.097394  1
  Yb  Yb11  1  0.971887  0.816769  0.403880  1
  Yb  Yb12  1  0.685409  0.817042  0.880841  1
  Dy  Dy13  1  0.182845  0.676616  0.622118  1
  Dy  Dy14  1  0.818137  0.323274  0.120151  1
  Dy  Dy15  1  0.315166  0.177188  0.379370  1
  Dy  Dy16  1  0.316690  0.176657  0.121470  1
  Dy  Dy17  1  0.814774  0.324138  0.378614  1
  Dy  Dy18  1  0.183394  0.677661  0.877110  1
  Dy  Dy19  1  0.683518  0.823529  0.621709  1
  Si  Si20  1  0.755722  0.605898  0.248234  1
  Si  Si21  1  0.252674  0.895330  0.249781  1
  Si  Si22  1  0.748683  0.109001  0.748622  1
  Si  Si23  1  0.240722  0.391106  0.749901  1
  Si  Si24  1  0.024545  0.116215  0.250138  1
  Si  Si25  1  0.524812  0.386451  0.248790  1
  Si  Si26  1  0.472621  0.609662  0.748652  1
  Si  Si27  1  0.976910  0.888024  0.749051  1
  Si  Si28  1  0.358540  0.967033  0.538828  1
  Si  Si29  1  0.639157  0.036621  0.038890  1
  Si  Si30  1  0.139375  0.468162  0.460702  1
  Si  Si31  1  0.147027  0.467458  0.037420  1
  Si  Si32  1  0.639935  0.032508  0.460489  1
  Si  Si33  1  0.352031  0.966858  0.963112  1
  Si  Si34  1  0.858189  0.533225  0.538460  1
  P  P35  1  0.872729  0.524636  0.962396  1
