# generated using pymatgen
data_Sr2TlInPd2
_symmetry_space_group_name_H-M   'P 1'
_cell_length_a   4.62987100
_cell_length_b   7.71269768
_cell_length_c   8.73923183
_cell_angle_alpha   89.60514602
_cell_angle_beta   90.00000000
_cell_angle_gamma   90.00000000
_symmetry_Int_Tables_number   1
_chemical_formula_structural   Sr2TlInPd2
_chemical_formula_sum   'Sr4 Tl2 In2 Pd4'
_cell_volume   312.06003034
_cell_formula_units_Z   2
loop_
 _symmetry_equiv_pos_site_id
 _symmetry_equiv_pos_as_xyz
  1  'x, y, z'
loop_
 _atom_site_type_symbol
 _atom_site_label
 _atom_site_symmetry_multiplicity
 _atom_site_fract_x
 _atom_site_fract_y
 _atom_site_fract_z
 _atom_site_occupancy
  Sr  Sr0  1  0.250000  0.029538  0.318685  1
  Sr  Sr1  1  0.250000  0.527959  0.179888  1
  Sr  Sr2  1  0.750000  0.970989  0.681158  1
  Sr  Sr3  1  0.750000  0.473114  0.819504  1
  Tl  Tl4  1  0.750000  0.846623  0.067181  1
  Tl  Tl5  1  0.250000  0.153720  0.933329  1
  In  In6  1  0.250000  0.646259  0.563458  1
  In  In7  1  0.750000  0.352027  0.436944  1
  Pd  Pd8  1  0.250000  0.280478  0.615692  1
  Pd  Pd9  1  0.250000  0.772940  0.867507  1
  Pd  Pd10  1  0.750000  0.717018  0.385729  1
  Pd  Pd11  1  0.750000  0.229335  0.130923  1
