# generated using pymatgen
data_SrPr8(BiO)5
_symmetry_space_group_name_H-M   'P 1'
_cell_length_a   10.48000500
_cell_length_b   10.48000500
_cell_length_c   9.45739100
_cell_angle_alpha   90.00000000
_cell_angle_beta   90.00000000
_cell_angle_gamma   90.00000000
_symmetry_Int_Tables_number   1
_chemical_formula_structural   SrPr8(BiO)5
_chemical_formula_sum   'Sr2 Pr16 Bi10 O10'
_cell_volume   1038.71002762
_cell_formula_units_Z   2
loop_
 _symmetry_equiv_pos_site_id
 _symmetry_equiv_pos_as_xyz
  1  'x, y, z'
loop_
 _atom_site_type_symbol
 _atom_site_label
 _atom_site_symmetry_multiplicity
 _atom_site_fract_x
 _atom_site_fract_y
 _atom_site_fract_z
 _atom_site_occupancy
  Sr  Sr0  1  0.000000  0.500000  0.328585  1
  Sr  Sr1  1  0.500000  0.000000  0.671415  1
  Pr  Pr2  1  0.725234  0.918449  0.001773  1
  Pr  Pr3  1  0.581551  0.225234  0.001773  1
  Pr  Pr4  1  0.774766  0.581551  0.998227  1
  Pr  Pr5  1  0.225234  0.418449  0.998227  1
  Pr  Pr6  1  0.204909  0.895623  0.337691  1
  Pr  Pr7  1  0.274766  0.081551  0.001773  1
  Pr  Pr8  1  0.895623  0.795091  0.662309  1
  Pr  Pr9  1  0.918449  0.274766  0.998227  1
  Pr  Pr10  1  0.295091  0.604377  0.662309  1
  Pr  Pr11  1  0.418449  0.774766  0.001773  1
  Pr  Pr12  1  0.104377  0.204909  0.662309  1
  Pr  Pr13  1  0.795091  0.104377  0.337691  1
  Pr  Pr14  1  0.081551  0.725234  0.998227  1
  Pr  Pr15  1  0.395623  0.295091  0.337691  1
  Pr  Pr16  1  0.704909  0.395623  0.662309  1
  Pr  Pr17  1  0.604377  0.704909  0.337691  1
  Bi  Bi18  1  0.500000  0.000000  0.311130  1
  Bi  Bi19  1  0.191867  0.902546  0.699604  1
  Bi  Bi20  1  0.402546  0.308133  0.699604  1
  Bi  Bi21  1  0.000000  0.500000  0.688870  1
  Bi  Bi22  1  0.691867  0.402546  0.300396  1
  Bi  Bi23  1  0.097454  0.191867  0.300396  1
  Bi  Bi24  1  0.597454  0.691867  0.699604  1
  Bi  Bi25  1  0.308133  0.597454  0.300396  1
  Bi  Bi26  1  0.808133  0.097454  0.699604  1
  Bi  Bi27  1  0.902546  0.808133  0.300396  1
  O  O28  1  0.500000  0.000000  0.942047  1
  O  O29  1  0.725956  0.378437  0.912793  1
  O  O30  1  0.621563  0.725956  0.087207  1
  O  O31  1  0.378437  0.274044  0.087207  1
  O  O32  1  0.121563  0.225956  0.912793  1
  O  O33  1  0.274044  0.621563  0.912793  1
  O  O34  1  0.000000  0.500000  0.057953  1
  O  O35  1  0.225956  0.878437  0.087207  1
  O  O36  1  0.878437  0.774044  0.912793  1
  O  O37  1  0.774044  0.121563  0.087207  1
