# generated using pymatgen
data_Tb3ErTcOs7
_symmetry_space_group_name_H-M   'P 1'
_cell_length_a   5.31450445
_cell_length_b   5.31450539
_cell_length_c   8.83803907
_cell_angle_alpha   89.98756373
_cell_angle_beta   90.01243482
_cell_angle_gamma   118.88916307
_symmetry_Int_Tables_number   1
_chemical_formula_structural   Tb3ErTcOs7
_chemical_formula_sum   'Tb3 Er1 Tc1 Os7'
_cell_volume   218.55735112
_cell_formula_units_Z   1
loop_
 _symmetry_equiv_pos_site_id
 _symmetry_equiv_pos_as_xyz
  1  'x, y, z'
loop_
 _atom_site_type_symbol
 _atom_site_label
 _atom_site_symmetry_multiplicity
 _atom_site_fract_x
 _atom_site_fract_y
 _atom_site_fract_z
 _atom_site_occupancy
  Tb  Tb0  1  0.331618  0.668382  0.435885  1
  Tb  Tb1  1  0.665718  0.334282  0.565687  1
  Tb  Tb2  1  0.665614  0.334386  0.934510  1
  Er  Er3  1  0.331387  0.668613  0.064073  1
  Tc  Tc4  1  0.830876  0.169124  0.249256  1
  Os  Os5  1  0.995897  0.004103  0.499971  1
  Os  Os6  1  0.995946  0.004054  0.000271  1
  Os  Os7  1  0.826978  0.652748  0.248928  1
  Os  Os8  1  0.347252  0.173022  0.248928  1
  Os  Os9  1  0.177428  0.822572  0.750869  1
  Os  Os10  1  0.170383  0.339099  0.750811  1
  Os  Os11  1  0.660901  0.829617  0.750811  1
