# generated using pymatgen
data_Lu12Si12IrAu3
_symmetry_space_group_name_H-M   'P 1'
_cell_length_a   4.18898700
_cell_length_b   10.65777326
_cell_length_c   12.14039932
_cell_angle_alpha   89.97419402
_cell_angle_beta   90.00000000
_cell_angle_gamma   90.00000000
_symmetry_Int_Tables_number   1
_chemical_formula_structural   Lu12Si12IrAu3
_chemical_formula_sum   'Lu12 Si12 Ir1 Au3'
_cell_volume   542.01139469
_cell_formula_units_Z   1
loop_
 _symmetry_equiv_pos_site_id
 _symmetry_equiv_pos_as_xyz
  1  'x, y, z'
loop_
 _atom_site_type_symbol
 _atom_site_label
 _atom_site_symmetry_multiplicity
 _atom_site_fract_x
 _atom_site_fract_y
 _atom_site_fract_z
 _atom_site_occupancy
  Lu  Lu0  1  0.250000  0.876218  0.019630  1
  Lu  Lu1  1  0.250000  0.625659  0.522349  1
  Lu  Lu2  1  0.750000  0.120144  0.976624  1
  Lu  Lu3  1  0.750000  0.374924  0.479761  1
  Lu  Lu4  1  0.250000  0.920795  0.601565  1
  Lu  Lu5  1  0.250000  0.579609  0.097721  1
  Lu  Lu6  1  0.750000  0.078306  0.400845  1
  Lu  Lu7  1  0.750000  0.420860  0.900153  1
  Lu  Lu8  1  0.250000  0.666227  0.801538  1
  Lu  Lu9  1  0.250000  0.836920  0.302569  1
  Lu  Lu10  1  0.750000  0.337636  0.196531  1
  Lu  Lu11  1  0.750000  0.153752  0.699563  1
  Si  Si12  1  0.250000  0.010253  0.824218  1
  Si  Si13  1  0.250000  0.475773  0.325599  1
  Si  Si14  1  0.750000  0.975985  0.177001  1
  Si  Si15  1  0.750000  0.527089  0.673437  1
  Si  Si16  1  0.250000  0.240053  0.846345  1
  Si  Si17  1  0.250000  0.252858  0.347833  1
  Si  Si18  1  0.750000  0.753631  0.151405  1
  Si  Si19  1  0.750000  0.753838  0.660699  1
  Si  Si20  1  0.250000  0.184239  0.539327  1
  Si  Si21  1  0.250000  0.316409  0.035983  1
  Si  Si22  1  0.750000  0.817416  0.464659  1
  Si  Si23  1  0.750000  0.698765  0.954487  1
  Ir  Ir24  1  0.750000  0.890877  0.821126  1
  Au  Au25  1  0.250000  0.388470  0.680028  1
  Au  Au26  1  0.250000  0.111231  0.178736  1
  Au  Au27  1  0.750000  0.612063  0.320267  1
