# generated using pymatgen
data_Ca8NdDy(Sn3H)2
_symmetry_space_group_name_H-M   'P 1'
_cell_length_a   9.43076187
_cell_length_b   9.43076003
_cell_length_c   9.43380526
_cell_angle_alpha   128.79144955
_cell_angle_beta   128.79143835
_cell_angle_gamma   75.33501150
_symmetry_Int_Tables_number   1
_chemical_formula_structural   Ca8NdDy(Sn3H)2
_chemical_formula_sum   'Ca8 Nd1 Dy1 Sn6 H2'
_cell_volume   496.14089827
_cell_formula_units_Z   1
loop_
 _symmetry_equiv_pos_site_id
 _symmetry_equiv_pos_as_xyz
  1  'x, y, z'
loop_
 _atom_site_type_symbol
 _atom_site_label
 _atom_site_symmetry_multiplicity
 _atom_site_fract_x
 _atom_site_fract_y
 _atom_site_fract_z
 _atom_site_occupancy
  Ca  Ca0  1  0.502588  0.502507  0.001060  1
  Ca  Ca1  1  0.002507  0.002588  0.001060  1
  Ca  Ca2  1  0.007534  0.185833  0.498618  1
  Ca  Ca3  1  0.685833  0.507534  0.498618  1
  Ca  Ca4  1  0.488778  0.988778  0.178288  1
  Ca  Ca5  1  0.808909  0.308909  0.819571  1
  Ca  Ca6  1  0.989215  0.812936  0.501233  1
  Ca  Ca7  1  0.312936  0.489215  0.501233  1
  Nd  Nd8  1  0.183641  0.683641  0.164216  1
  Dy  Dy9  1  0.517092  0.017092  0.829315  1
  Sn  Sn10  1  0.256446  0.249401  0.998772  1
  Sn  Sn11  1  0.749401  0.756446  0.998772  1
  Sn  Sn12  1  0.868115  0.368115  0.238566  1
  Sn  Sn13  1  0.125295  0.625295  0.753457  1
  Sn  Sn14  1  0.367576  0.124528  0.502905  1
  Sn  Sn15  1  0.624528  0.867576  0.502905  1
  H  H16  1  0.261639  0.761639  0.510638  1
  H  H17  1  0.747967  0.247967  0.500771  1
