# generated using pymatgen
data_DyEr2Al12(RuRh)2
_symmetry_space_group_name_H-M   'P 1'
_cell_length_a   8.83075184
_cell_length_b   8.76669362
_cell_length_c   9.53391500
_cell_angle_alpha   90.00000000
_cell_angle_beta   90.00000000
_cell_angle_gamma   120.02405755
_symmetry_Int_Tables_number   1
_chemical_formula_structural   DyEr2Al12(RuRh)2
_chemical_formula_sum   'Dy2 Er4 Al24 Ru4 Rh4'
_cell_volume   639.04300284
_cell_formula_units_Z   2
loop_
 _symmetry_equiv_pos_site_id
 _symmetry_equiv_pos_as_xyz
  1  'x, y, z'
loop_
 _atom_site_type_symbol
 _atom_site_label
 _atom_site_symmetry_multiplicity
 _atom_site_fract_x
 _atom_site_fract_y
 _atom_site_fract_z
 _atom_site_occupancy
  Dy  Dy0  1  0.808763  0.612270  0.750000  1
  Dy  Dy1  1  0.384337  0.191930  0.750000  1
  Er  Er2  1  0.190618  0.801680  0.250000  1
  Er  Er3  1  0.191804  0.389252  0.250000  1
  Er  Er4  1  0.614224  0.807303  0.250000  1
  Er  Er5  1  0.809536  0.198166  0.750000  1
  Al  Al6  1  0.560943  0.437954  0.250000  1
  Al  Al7  1  0.560946  0.122779  0.250000  1
  Al  Al8  1  0.875552  0.437558  0.250000  1
  Al  Al9  1  0.438425  0.562706  0.750000  1
  Al  Al10  1  0.439222  0.876702  0.750000  1
  Al  Al11  1  0.124878  0.562268  0.750000  1
  Al  Al12  1  0.324597  0.161555  0.421161  1
  Al  Al13  1  0.837592  0.163372  0.422511  1
  Al  Al14  1  0.837844  0.673599  0.422093  1
  Al  Al15  1  0.675162  0.838628  0.577729  1
  Al  Al16  1  0.162669  0.836335  0.576632  1
  Al  Al17  1  0.161993  0.326645  0.576810  1
  Al  Al18  1  0.675162  0.838628  0.922271  1
  Al  Al19  1  0.162669  0.836335  0.923368  1
  Al  Al20  1  0.161993  0.326645  0.923190  1
  Al  Al21  1  0.324597  0.161555  0.078839  1
  Al  Al22  1  0.837592  0.163372  0.077489  1
  Al  Al23  1  0.837844  0.673599  0.077907  1
  Al  Al24  1  0.668510  0.334432  0.524324  1
  Al  Al25  1  0.331856  0.665394  0.474485  1
  Al  Al26  1  0.331856  0.665394  0.025515  1
  Al  Al27  1  0.668510  0.334432  0.975676  1
  Al  Al28  1  0.998555  0.999276  0.250000  1
  Al  Al29  1  0.000979  0.001289  0.750000  1
  Ru  Ru30  1  0.000005  0.999893  0.500013  1
  Ru  Ru31  1  0.000005  0.999893  0.999987  1
  Ru  Ru32  1  0.000529  0.499956  0.499399  1
  Ru  Ru33  1  0.000529  0.499956  0.000601  1
  Rh  Rh34  1  0.499679  0.500236  0.499204  1
  Rh  Rh35  1  0.500173  0.999387  0.499390  1
  Rh  Rh36  1  0.499679  0.500236  0.000796  1
  Rh  Rh37  1  0.500173  0.999387  0.000610  1
