# generated using pymatgen
data_Ac(CdGa)2
_symmetry_space_group_name_H-M   'P 1'
_cell_length_a   6.66316923
_cell_length_b   6.66316993
_cell_length_c   6.66316884
_cell_angle_alpha   139.91642506
_cell_angle_beta   139.91643364
_cell_angle_gamma   57.98020285
_symmetry_Int_Tables_number   1
_chemical_formula_structural   Ac(CdGa)2
_chemical_formula_sum   'Ac1 Cd2 Ga2'
_cell_volume   121.56405606
_cell_formula_units_Z   1
loop_
 _symmetry_equiv_pos_site_id
 _symmetry_equiv_pos_as_xyz
  1  'x, y, z'
loop_
 _atom_site_type_symbol
 _atom_site_label
 _atom_site_symmetry_multiplicity
 _atom_site_fract_x
 _atom_site_fract_y
 _atom_site_fract_z
 _atom_site_occupancy
  Ac  Ac0  1  0.000000  0.000000  0.000000  1
  Cd  Cd1  1  0.750000  0.250000  0.500000  1
  Cd  Cd2  1  0.250000  0.750000  0.500000  1
  Ga  Ga3  1  0.609243  0.609243  0.000000  1
  Ga  Ga4  1  0.390757  0.390757  0.000000  1
