# generated using pymatgen
data_Ho10CdIn8Ir3
_symmetry_space_group_name_H-M   'P 1'
_cell_length_a   3.62950400
_cell_length_b   8.15466869
_cell_length_c   18.35266886
_cell_angle_alpha   89.91125776
_cell_angle_beta   90.00000000
_cell_angle_gamma   90.00000000
_symmetry_Int_Tables_number   1
_chemical_formula_structural   Ho10CdIn8Ir3
_chemical_formula_sum   'Ho10 Cd1 In8 Ir3'
_cell_volume   543.19067824
_cell_formula_units_Z   1
loop_
 _symmetry_equiv_pos_site_id
 _symmetry_equiv_pos_as_xyz
  1  'x, y, z'
loop_
 _atom_site_type_symbol
 _atom_site_label
 _atom_site_symmetry_multiplicity
 _atom_site_fract_x
 _atom_site_fract_y
 _atom_site_fract_z
 _atom_site_occupancy
  Ho  Ho0  1  0.000000  0.500483  0.502469  1
  Ho  Ho1  1  0.000000  0.000140  0.997707  1
  Ho  Ho2  1  0.000000  0.707828  0.277263  1
  Ho  Ho3  1  0.000000  0.258463  0.723463  1
  Ho  Ho4  1  0.000000  0.757197  0.776780  1
  Ho  Ho5  1  0.000000  0.265912  0.213799  1
  Ho  Ho6  1  0.000000  0.614908  0.083767  1
  Ho  Ho7  1  0.000000  0.385796  0.909200  1
  Ho  Ho8  1  0.000000  0.887846  0.591464  1
  Ho  Ho9  1  0.000000  0.124402  0.426642  1
  Cd  Cd10  1  0.500000  0.021262  0.301469  1
  In  In11  1  0.500000  0.707942  0.930923  1
  In  In12  1  0.500000  0.292095  0.064371  1
  In  In13  1  0.500000  0.792566  0.435166  1
  In  In14  1  0.500000  0.210939  0.571892  1
  In  In15  1  0.500000  0.572438  0.649045  1
  In  In16  1  0.500000  0.416711  0.353057  1
  In  In17  1  0.500000  0.918519  0.146582  1
  In  In18  1  0.500000  0.071993  0.850762  1
  Ir  Ir19  1  0.500000  0.522113  0.193333  1
  Ir  Ir20  1  0.500000  0.484972  0.803543  1
  Ir  Ir21  1  0.500000  0.985473  0.697304  1
