# generated using pymatgen
data_TbNd2BiO7
_symmetry_space_group_name_H-M   'P 1'
_cell_length_a   6.68731665
_cell_length_b   6.71387608
_cell_length_c   7.87593762
_cell_angle_alpha   106.88720305
_cell_angle_beta   89.84109113
_cell_angle_gamma   98.77913401
_symmetry_Int_Tables_number   1
_chemical_formula_structural   TbNd2BiO7
_chemical_formula_sum   'Tb2 Nd4 Bi2 O14'
_cell_volume   334.07670036
_cell_formula_units_Z   2
loop_
 _symmetry_equiv_pos_site_id
 _symmetry_equiv_pos_as_xyz
  1  'x, y, z'
loop_
 _atom_site_type_symbol
 _atom_site_label
 _atom_site_symmetry_multiplicity
 _atom_site_fract_x
 _atom_site_fract_y
 _atom_site_fract_z
 _atom_site_occupancy
  Tb  Tb0  1  0.461853  0.005426  0.253398  1
  Tb  Tb1  1  0.538147  0.994574  0.746602  1
  Nd  Nd2  1  0.269891  0.539513  0.883348  1
  Nd  Nd3  1  0.730109  0.460487  0.116652  1
  Nd  Nd4  1  0.738491  0.478131  0.615560  1
  Nd  Nd5  1  0.261509  0.521869  0.384440  1
  Bi  Bi6  1  0.000000  0.000000  0.500000  1
  Bi  Bi7  1  0.000000  0.000000  0.000000  1
  O  O8  1  0.445033  0.654135  0.169279  1
  O  O9  1  0.554967  0.345865  0.830721  1
  O  O10  1  0.301702  0.932942  0.953960  1
  O  O11  1  0.698298  0.067058  0.046040  1
  O  O12  1  0.298015  0.931914  0.513883  1
  O  O13  1  0.701985  0.068086  0.486117  1
  O  O14  1  0.544345  0.355496  0.343707  1
  O  O15  1  0.455655  0.644504  0.656293  1
  O  O16  1  0.926606  0.671012  0.954188  1
  O  O17  1  0.073394  0.328988  0.045812  1
  O  O18  1  0.071359  0.340338  0.615264  1
  O  O19  1  0.928641  0.659662  0.384736  1
  O  O20  1  0.878999  0.914034  0.727836  1
  O  O21  1  0.121001  0.085966  0.272164  1
