# generated using pymatgen
data_Dy2Fe9Ni3P7
_symmetry_space_group_name_H-M   'P 1'
_cell_length_a   9.04416947
_cell_length_b   8.99703326
_cell_length_c   3.63462900
_cell_angle_alpha   90.00000000
_cell_angle_beta   90.00000000
_cell_angle_gamma   120.08839207
_symmetry_Int_Tables_number   1
_chemical_formula_structural   Dy2Fe9Ni3P7
_chemical_formula_sum   'Dy2 Fe9 Ni3 P7'
_cell_volume   255.90055190
_cell_formula_units_Z   1
loop_
 _symmetry_equiv_pos_site_id
 _symmetry_equiv_pos_as_xyz
  1  'x, y, z'
loop_
 _atom_site_type_symbol
 _atom_site_label
 _atom_site_symmetry_multiplicity
 _atom_site_fract_x
 _atom_site_fract_y
 _atom_site_fract_z
 _atom_site_occupancy
  Dy  Dy0  1  0.334589  0.665877  0.000000  1
  Dy  Dy1  1  0.998218  0.002484  0.500000  1
  Fe  Fe2  1  0.034326  0.272628  0.000000  1
  Fe  Fe3  1  0.942055  0.489000  0.000000  1
  Fe  Fe4  1  0.511916  0.449581  0.000000  1
  Fe  Fe5  1  0.546720  0.060137  0.000000  1
  Fe  Fe6  1  0.281476  0.380908  0.500000  1
  Fe  Fe7  1  0.618087  0.897817  0.500000  1
  Fe  Fe8  1  0.764923  0.557184  0.500000  1
  Fe  Fe9  1  0.451140  0.214384  0.500000  1
  Fe  Fe10  1  0.789209  0.235680  0.500000  1
  Ni  Ni11  1  0.726786  0.764730  0.000000  1
  Ni  Ni12  1  0.233161  0.961762  0.000000  1
  Ni  Ni13  1  0.103760  0.718779  0.500000  1
  P  P14  1  0.960205  0.739137  0.000000  1
  P  P15  1  0.255340  0.225621  0.000000  1
  P  P16  1  0.776103  0.039817  0.000000  1
  P  P17  1  0.066251  0.438295  0.500000  1
  P  P18  1  0.547817  0.616649  0.500000  1
  P  P19  1  0.388586  0.935235  0.500000  1
  P  P20  1  0.669333  0.334294  0.000000  1
