# generated using pymatgen
data_Tb2Y3Hf5(Si5Ir2)4
_symmetry_space_group_name_H-M   'P 1'
_cell_length_a   12.49808242
_cell_length_b   12.49861842
_cell_length_c   4.17176300
_cell_angle_alpha   90.00000000
_cell_angle_beta   90.00000000
_cell_angle_gamma   90.02977940
_symmetry_Int_Tables_number   1
_chemical_formula_structural   Tb2Y3Hf5(Si5Ir2)4
_chemical_formula_sum   'Tb2 Y3 Hf5 Si20 Ir8'
_cell_volume   651.66585057
_cell_formula_units_Z   1
loop_
 _symmetry_equiv_pos_site_id
 _symmetry_equiv_pos_as_xyz
  1  'x, y, z'
loop_
 _atom_site_type_symbol
 _atom_site_label
 _atom_site_symmetry_multiplicity
 _atom_site_fract_x
 _atom_site_fract_y
 _atom_site_fract_z
 _atom_site_occupancy
  Tb  Tb0  1  0.884195  0.384972  0.500000  1
  Tb  Tb1  1  0.115805  0.615028  0.500000  1
  Y  Y2  1  0.000000  0.000000  0.000000  1
  Y  Y3  1  0.384995  0.115785  0.500000  1
  Y  Y4  1  0.615005  0.884215  0.500000  1
  Hf  Hf5  1  0.500000  0.500000  0.000000  1
  Hf  Hf6  1  0.673720  0.175684  0.500000  1
  Hf  Hf7  1  0.326280  0.824316  0.500000  1
  Hf  Hf8  1  0.175644  0.326301  0.500000  1
  Hf  Hf9  1  0.824356  0.673699  0.500000  1
  Si  Si10  1  0.565863  0.068177  0.000000  1
  Si  Si11  1  0.434137  0.931823  0.000000  1
  Si  Si12  1  0.068198  0.434093  0.000000  1
  Si  Si13  1  0.931802  0.565907  0.000000  1
  Si  Si14  1  0.665176  0.701528  0.000000  1
  Si  Si15  1  0.334824  0.298472  0.000000  1
  Si  Si16  1  0.163761  0.800293  0.000000  1
  Si  Si17  1  0.836239  0.199707  0.000000  1
  Si  Si18  1  0.298507  0.665174  0.000000  1
  Si  Si19  1  0.701493  0.334826  0.000000  1
  Si  Si20  1  0.199738  0.163751  0.000000  1
  Si  Si21  1  0.800262  0.836249  0.000000  1
  Si  Si22  1  0.650926  0.508280  0.500000  1
  Si  Si23  1  0.349074  0.491720  0.500000  1
  Si  Si24  1  0.157384  0.992252  0.500000  1
  Si  Si25  1  0.842616  0.007748  0.500000  1
  Si  Si26  1  0.491686  0.650932  0.500000  1
  Si  Si27  1  0.508314  0.349068  0.500000  1
  Si  Si28  1  0.007727  0.157364  0.500000  1
  Si  Si29  1  0.992273  0.842636  0.500000  1
  Ir  Ir30  1  0.741343  0.522203  0.000000  1
  Ir  Ir31  1  0.258657  0.477797  0.000000  1
  Ir  Ir32  1  0.246570  0.977392  0.000000  1
  Ir  Ir33  1  0.753430  0.022608  0.000000  1
  Ir  Ir34  1  0.477932  0.741562  0.000000  1
  Ir  Ir35  1  0.522068  0.258438  0.000000  1
  Ir  Ir36  1  0.022740  0.246364  0.000000  1
  Ir  Ir37  1  0.977260  0.753636  0.000000  1
