# generated using pymatgen
data_Y2VPtF14
_symmetry_space_group_name_H-M   'P 1'
_cell_length_a   5.53578030
_cell_length_b   8.89550864
_cell_length_c   11.91134186
_cell_angle_alpha   62.72823791
_cell_angle_beta   90.27631507
_cell_angle_gamma   90.13245428
_symmetry_Int_Tables_number   1
_chemical_formula_structural   Y2VPtF14
_chemical_formula_sum   'Y4 V2 Pt2 F28'
_cell_volume   521.35123489
_cell_formula_units_Z   2
loop_
 _symmetry_equiv_pos_site_id
 _symmetry_equiv_pos_as_xyz
  1  'x, y, z'
loop_
 _atom_site_type_symbol
 _atom_site_label
 _atom_site_symmetry_multiplicity
 _atom_site_fract_x
 _atom_site_fract_y
 _atom_site_fract_z
 _atom_site_occupancy
  Y  Y0  1  0.258587  0.810735  0.264231  1
  Y  Y1  1  0.741413  0.189265  0.735769  1
  Y  Y2  1  0.761673  0.185344  0.232632  1
  Y  Y3  1  0.238327  0.814656  0.767368  1
  V  V4  1  0.753979  0.725658  0.043236  1
  V  V5  1  0.246021  0.274342  0.956764  1
  Pt  Pt6  1  0.259726  0.273267  0.454952  1
  Pt  Pt7  1  0.740274  0.726733  0.545048  1
  F  F8  1  0.931167  0.700374  0.416459  1
  F  F9  1  0.068833  0.299626  0.583541  1
  F  F10  1  0.452523  0.289185  0.078485  1
  F  F11  1  0.547477  0.710815  0.921515  1
  F  F12  1  0.482398  0.736294  0.135063  1
  F  F13  1  0.517602  0.263706  0.864937  1
  F  F14  1  0.964189  0.277669  0.360662  1
  F  F15  1  0.035811  0.722331  0.639338  1
  F  F16  1  0.958071  0.748780  0.164738  1
  F  F17  1  0.041929  0.251220  0.835262  1
  F  F18  1  0.446795  0.256617  0.320332  1
  F  F19  1  0.553205  0.743383  0.679668  1
  F  F20  1  0.766676  0.494618  0.134270  1
  F  F21  1  0.233324  0.505382  0.865730  1
  F  F22  1  0.274593  0.521085  0.355221  1
  F  F23  1  0.725407  0.478915  0.644779  1
  F  F24  1  0.964669  0.281991  0.047848  1
  F  F25  1  0.035331  0.718009  0.952152  1
  F  F26  1  0.437564  0.720101  0.459775  1
  F  F27  1  0.562436  0.279899  0.540225  1
  F  F28  1  0.743581  0.974599  0.451340  1
  F  F29  1  0.256419  0.025401  0.548660  1
  F  F30  1  0.240265  0.042440  0.048672  1
  F  F31  1  0.759735  0.957560  0.951328  1
  F  F32  1  0.585990  0.967140  0.232028  1
  F  F33  1  0.414010  0.032860  0.767972  1
  F  F34  1  0.084421  0.025486  0.271021  1
  F  F35  1  0.915579  0.974514  0.728979  1
