# generated using pymatgen
data_Ho2B6Ir5Rh4
_symmetry_space_group_name_H-M   'P 1'
_cell_length_a   5.62683336
_cell_length_b   5.61106540
_cell_length_c   8.63884500
_cell_angle_alpha   90.00000000
_cell_angle_beta   90.00000000
_cell_angle_gamma   119.90735207
_symmetry_Int_Tables_number   1
_chemical_formula_structural   Ho2B6Ir5Rh4
_chemical_formula_sum   'Ho2 B6 Ir5 Rh4'
_cell_volume   236.42880665
_cell_formula_units_Z   1
loop_
 _symmetry_equiv_pos_site_id
 _symmetry_equiv_pos_as_xyz
  1  'x, y, z'
loop_
 _atom_site_type_symbol
 _atom_site_label
 _atom_site_symmetry_multiplicity
 _atom_site_fract_x
 _atom_site_fract_y
 _atom_site_fract_z
 _atom_site_occupancy
  Ho  Ho0  1  0.000000  0.000000  0.700323  1
  Ho  Ho1  1  0.000000  0.000000  0.299677  1
  B  B2  1  0.667853  0.333926  0.000000  1
  B  B3  1  0.332147  0.666074  0.000000  1
  B  B4  1  0.667278  0.333639  0.668168  1
  B  B5  1  0.332722  0.666361  0.668168  1
  B  B6  1  0.332722  0.666361  0.331832  1
  B  B7  1  0.667278  0.333639  0.331832  1
  Ir  Ir8  1  0.000000  0.500000  0.836433  1
  Ir  Ir9  1  0.000000  0.500000  0.163567  1
  Ir  Ir10  1  0.500000  0.500000  0.500000  1
  Ir  Ir11  1  0.500000  0.000000  0.500000  1
  Ir  Ir12  1  0.000000  0.500000  0.500000  1
  Rh  Rh13  1  0.500000  0.500000  0.836565  1
  Rh  Rh14  1  0.500000  0.000000  0.836565  1
  Rh  Rh15  1  0.500000  0.500000  0.163435  1
  Rh  Rh16  1  0.500000  0.000000  0.163435  1
