# generated using pymatgen
data_Lu3Sc2(Hg2Pt)2
_symmetry_space_group_name_H-M   'P 1'
_cell_length_a   3.49843800
_cell_length_b   7.84109556
_cell_length_c   17.65037395
_cell_angle_alpha   89.88154942
_cell_angle_beta   90.00000000
_cell_angle_gamma   90.00000000
_symmetry_Int_Tables_number   1
_chemical_formula_structural   Lu3Sc2(Hg2Pt)2
_chemical_formula_sum   'Lu6 Sc4 Hg8 Pt4'
_cell_volume   484.17672832
_cell_formula_units_Z   2
loop_
 _symmetry_equiv_pos_site_id
 _symmetry_equiv_pos_as_xyz
  1  'x, y, z'
loop_
 _atom_site_type_symbol
 _atom_site_label
 _atom_site_symmetry_multiplicity
 _atom_site_fract_x
 _atom_site_fract_y
 _atom_site_fract_z
 _atom_site_occupancy
  Lu  Lu0  1  0.000000  0.614507  0.082491  1
  Lu  Lu1  1  0.000000  0.239491  0.215204  1
  Lu  Lu2  1  0.000000  0.759398  0.785450  1
  Lu  Lu3  1  0.000000  0.259932  0.714467  1
  Lu  Lu4  1  0.000000  0.740237  0.286971  1
  Lu  Lu5  1  0.000000  0.499856  0.500943  1
  Sc  Sc6  1  0.000000  0.111407  0.415355  1
  Sc  Sc7  1  0.000000  0.888414  0.585237  1
  Sc  Sc8  1  0.000000  0.384880  0.914814  1
  Sc  Sc9  1  0.000000  0.001409  0.998061  1
  Hg  Hg10  1  0.500000  0.415888  0.357489  1
  Hg  Hg11  1  0.500000  0.584315  0.644205  1
  Hg  Hg12  1  0.500000  0.082495  0.856945  1
  Hg  Hg13  1  0.500000  0.924038  0.142443  1
  Hg  Hg14  1  0.500000  0.284856  0.056522  1
  Hg  Hg15  1  0.500000  0.713043  0.939736  1
  Hg  Hg16  1  0.500000  0.203272  0.558218  1
  Hg  Hg17  1  0.500000  0.795929  0.442579  1
  Pt  Pt18  1  0.500000  0.029504  0.305739  1
  Pt  Pt19  1  0.500000  0.969767  0.694863  1
  Pt  Pt20  1  0.500000  0.468837  0.805748  1
  Pt  Pt21  1  0.500000  0.528522  0.196517  1
