# generated using pymatgen
data_K2LiTaSe4
_symmetry_space_group_name_H-M   'P 1'
_cell_length_a   13.73043014
_cell_length_b   12.27479720
_cell_length_c   7.58069880
_cell_angle_alpha   83.95051894
_cell_angle_beta   62.74866559
_cell_angle_gamma   33.30081641
_symmetry_Int_Tables_number   1
_chemical_formula_structural   K2LiTaSe4
_chemical_formula_sum   'K4 Li2 Ta2 Se8'
_cell_volume   513.17524849
_cell_formula_units_Z   2
loop_
 _symmetry_equiv_pos_site_id
 _symmetry_equiv_pos_as_xyz
  1  'x, y, z'
loop_
 _atom_site_type_symbol
 _atom_site_label
 _atom_site_symmetry_multiplicity
 _atom_site_fract_x
 _atom_site_fract_y
 _atom_site_fract_z
 _atom_site_occupancy
  K  K0  1  0.430278  0.430278  0.069722  1
  K  K1  1  0.819722  0.819722  0.180278  1
  K  K2  1  0.069722  0.069722  0.430278  1
  K  K3  1  0.180278  0.180278  0.819722  1
  Li  Li4  1  0.500000  0.500000  0.500000  1
  Li  Li5  1  0.750000  0.750000  0.750000  1
  Ta  Ta6  1  0.000000  0.000000  0.000000  1
  Ta  Ta7  1  0.250000  0.250000  0.250000  1
  Se  Se8  1  0.730899  0.384514  0.065658  1
  Se  Se9  1  0.818929  0.065658  0.384514  1
  Se  Se10  1  0.065658  0.818929  0.730899  1
  Se  Se11  1  0.384514  0.730899  0.818929  1
  Se  Se12  1  0.519101  0.865486  0.184342  1
  Se  Se13  1  0.865486  0.519101  0.431071  1
  Se  Se14  1  0.184342  0.431071  0.519101  1
  Se  Se15  1  0.431071  0.184342  0.865486  1
