# generated using pymatgen
data_In2Fe(SeO3)4
_symmetry_space_group_name_H-M   'P 1'
_cell_length_a   4.90068700
_cell_length_b   8.76789778
_cell_length_c   15.63172521
_cell_angle_alpha   69.76889953
_cell_angle_beta   90.00000000
_cell_angle_gamma   90.00000000
_symmetry_Int_Tables_number   1
_chemical_formula_structural   In2Fe(SeO3)4
_chemical_formula_sum   'In4 Fe2 Se8 O24'
_cell_volume   630.23656538
_cell_formula_units_Z   2
loop_
 _symmetry_equiv_pos_site_id
 _symmetry_equiv_pos_as_xyz
  1  'x, y, z'
loop_
 _atom_site_type_symbol
 _atom_site_label
 _atom_site_symmetry_multiplicity
 _atom_site_fract_x
 _atom_site_fract_y
 _atom_site_fract_z
 _atom_site_occupancy
  In  In0  1  0.535887  0.153818  0.787751  1
  In  In1  1  0.964113  0.153818  0.287751  1
  In  In2  1  0.464113  0.846182  0.212249  1
  In  In3  1  0.035887  0.846182  0.712249  1
  Fe  Fe4  1  0.000000  0.000000  0.000000  1
  Fe  Fe5  1  0.500000  0.000000  0.500000  1
  Se  Se6  1  0.574175  0.781455  0.888935  1
  Se  Se7  1  0.925825  0.781455  0.388935  1
  Se  Se8  1  0.425825  0.218545  0.111065  1
  Se  Se9  1  0.074175  0.218545  0.611065  1
  Se  Se10  1  0.006198  0.345403  0.871187  1
  Se  Se11  1  0.493802  0.345403  0.371187  1
  Se  Se12  1  0.993802  0.654597  0.128813  1
  Se  Se13  1  0.506198  0.654597  0.628813  1
  O  O14  1  0.769775  0.357908  0.786654  1
  O  O15  1  0.730225  0.357908  0.286654  1
  O  O16  1  0.230225  0.642092  0.213346  1
  O  O17  1  0.269775  0.642092  0.713346  1
  O  O18  1  0.827071  0.712055  0.836281  1
  O  O19  1  0.672929  0.712055  0.336281  1
  O  O20  1  0.172929  0.287945  0.163719  1
  O  O21  1  0.327071  0.287945  0.663719  1
  O  O22  1  0.205980  0.173044  0.876288  1
  O  O23  1  0.294020  0.173044  0.376288  1
  O  O24  1  0.794020  0.826956  0.123712  1
  O  O25  1  0.705980  0.826956  0.623712  1
  O  O26  1  0.713381  0.953527  0.905451  1
  O  O27  1  0.786619  0.953527  0.405451  1
  O  O28  1  0.286619  0.046473  0.094549  1
  O  O29  1  0.213381  0.046473  0.594549  1
  O  O30  1  0.372019  0.905945  0.798115  1
  O  O31  1  0.127981  0.905945  0.298115  1
  O  O32  1  0.627981  0.094055  0.201885  1
  O  O33  1  0.872019  0.094055  0.701885  1
  O  O34  1  0.839940  0.241207  0.970267  1
  O  O35  1  0.660060  0.241207  0.470267  1
  O  O36  1  0.160060  0.758793  0.029733  1
  O  O37  1  0.339940  0.758793  0.529733  1
