# generated using pymatgen
data_Pr3CuPt2Pb3
_symmetry_space_group_name_H-M   'P 1'
_cell_length_a   7.92369400
_cell_length_b   7.92369424
_cell_length_c   4.05147000
_cell_angle_alpha   90.00000000
_cell_angle_beta   90.00000000
_cell_angle_gamma   120.00000733
_symmetry_Int_Tables_number   1
_chemical_formula_structural   Pr3CuPt2Pb3
_chemical_formula_sum   'Pr3 Cu1 Pt2 Pb3'
_cell_volume   220.29195205
_cell_formula_units_Z   1
loop_
 _symmetry_equiv_pos_site_id
 _symmetry_equiv_pos_as_xyz
  1  'x, y, z'
loop_
 _atom_site_type_symbol
 _atom_site_label
 _atom_site_symmetry_multiplicity
 _atom_site_fract_x
 _atom_site_fract_y
 _atom_site_fract_z
 _atom_site_occupancy
  Pr  Pr0  1  0.595368  0.000000  0.000000  1
  Pr  Pr1  1  0.000000  0.595368  0.000000  1
  Pr  Pr2  1  0.404632  0.404632  0.000000  1
  Cu  Cu3  1  0.000000  0.000000  0.000000  1
  Pt  Pt4  1  0.333333  0.666667  0.500000  1
  Pt  Pt5  1  0.666667  0.333333  0.500000  1
  Pb  Pb6  1  0.253359  0.000000  0.500000  1
  Pb  Pb7  1  0.000000  0.253359  0.500000  1
  Pb  Pb8  1  0.746641  0.746641  0.500000  1
