# generated using pymatgen
data_Ca3AcB24
_symmetry_space_group_name_H-M   'P 1'
_cell_length_a   4.16301100
_cell_length_b   4.16301100
_cell_length_c   16.65854100
_cell_angle_alpha   90.00000000
_cell_angle_beta   90.00000000
_cell_angle_gamma   90.00000000
_symmetry_Int_Tables_number   1
_chemical_formula_structural   Ca3AcB24
_chemical_formula_sum   'Ca3 Ac1 B24'
_cell_volume   288.70351993
_cell_formula_units_Z   1
loop_
 _symmetry_equiv_pos_site_id
 _symmetry_equiv_pos_as_xyz
  1  'x, y, z'
loop_
 _atom_site_type_symbol
 _atom_site_label
 _atom_site_symmetry_multiplicity
 _atom_site_fract_x
 _atom_site_fract_y
 _atom_site_fract_z
 _atom_site_occupancy
  Ca  Ca0  1  0.000000  0.000000  0.255106  1
  Ca  Ca1  1  0.000000  0.000000  0.500000  1
  Ca  Ca2  1  0.000000  0.000000  0.744894  1
  Ac  Ac3  1  0.000000  0.000000  0.000000  1
  B  B4  1  0.201384  0.500000  0.126521  1
  B  B5  1  0.201706  0.500000  0.375560  1
  B  B6  1  0.201706  0.500000  0.624440  1
  B  B7  1  0.201384  0.500000  0.873479  1
  B  B8  1  0.500000  0.500000  0.200842  1
  B  B9  1  0.500000  0.500000  0.449788  1
  B  B10  1  0.500000  0.500000  0.698859  1
  B  B11  1  0.500000  0.500000  0.948952  1
  B  B12  1  0.500000  0.201384  0.126521  1
  B  B13  1  0.500000  0.201706  0.375560  1
  B  B14  1  0.500000  0.201706  0.624440  1
  B  B15  1  0.500000  0.201384  0.873479  1
  B  B16  1  0.500000  0.500000  0.051048  1
  B  B17  1  0.500000  0.500000  0.301141  1
  B  B18  1  0.500000  0.500000  0.550212  1
  B  B19  1  0.500000  0.500000  0.799158  1
  B  B20  1  0.500000  0.798616  0.126521  1
  B  B21  1  0.500000  0.798294  0.375560  1
  B  B22  1  0.500000  0.798294  0.624440  1
  B  B23  1  0.500000  0.798616  0.873479  1
  B  B24  1  0.798616  0.500000  0.126521  1
  B  B25  1  0.798294  0.500000  0.375560  1
  B  B26  1  0.798294  0.500000  0.624440  1
  B  B27  1  0.798616  0.500000  0.873479  1
