# generated using pymatgen
data_Ca3Yb2SnSb2
_symmetry_space_group_name_H-M   'P 1'
_cell_length_a   9.17230372
_cell_length_b   9.17859970
_cell_length_c   6.93583900
_cell_angle_alpha   90.00000000
_cell_angle_beta   90.00000000
_cell_angle_gamma   120.02270654
_symmetry_Int_Tables_number   1
_chemical_formula_structural   Ca3Yb2SnSb2
_chemical_formula_sum   'Ca6 Yb4 Sn2 Sb4'
_cell_volume   505.57440213
_cell_formula_units_Z   2
loop_
 _symmetry_equiv_pos_site_id
 _symmetry_equiv_pos_as_xyz
  1  'x, y, z'
loop_
 _atom_site_type_symbol
 _atom_site_label
 _atom_site_symmetry_multiplicity
 _atom_site_fract_x
 _atom_site_fract_y
 _atom_site_fract_z
 _atom_site_occupancy
  Ca  Ca0  1  0.275949  0.999798  0.250000  1
  Ca  Ca1  1  0.275949  0.276151  0.750000  1
  Ca  Ca2  1  0.996529  0.722199  0.750000  1
  Ca  Ca3  1  0.996529  0.274329  0.250000  1
  Ca  Ca4  1  0.725587  0.728705  0.250000  1
  Ca  Ca5  1  0.725587  0.996882  0.750000  1
  Yb  Yb6  1  0.338756  0.669379  0.000000  1
  Yb  Yb7  1  0.666560  0.333279  0.500000  1
  Yb  Yb8  1  0.666560  0.333279  0.000000  1
  Yb  Yb9  1  0.338756  0.669379  0.500000  1
  Sn  Sn10  1  0.622430  0.002572  0.250000  1
  Sn  Sn11  1  0.622430  0.619858  0.750000  1
  Sb  Sb12  1  0.001350  0.377010  0.750000  1
  Sb  Sb13  1  0.001350  0.624340  0.250000  1
  Sb  Sb14  1  0.372840  0.374090  0.250000  1
  Sb  Sb15  1  0.372840  0.998750  0.750000  1
