# generated using pymatgen
data_HfPa5(Al3Fe)8
_symmetry_space_group_name_H-M   'P 1'
_cell_length_a   8.67974211
_cell_length_b   8.67974257
_cell_length_c   9.13047800
_cell_angle_alpha   90.00000000
_cell_angle_beta   90.00000000
_cell_angle_gamma   120.17490006
_symmetry_Int_Tables_number   1
_chemical_formula_structural   HfPa5(Al3Fe)8
_chemical_formula_sum   'Hf1 Pa5 Al24 Fe8'
_cell_volume   594.66134238
_cell_formula_units_Z   1
loop_
 _symmetry_equiv_pos_site_id
 _symmetry_equiv_pos_as_xyz
  1  'x, y, z'
loop_
 _atom_site_type_symbol
 _atom_site_label
 _atom_site_symmetry_multiplicity
 _atom_site_fract_x
 _atom_site_fract_y
 _atom_site_fract_z
 _atom_site_occupancy
  Hf  Hf0  1  0.796716  0.203284  0.750000  1
  Pa  Pa1  1  0.200297  0.799703  0.250000  1
  Pa  Pa2  1  0.394833  0.199816  0.750000  1
  Pa  Pa3  1  0.604215  0.802822  0.250000  1
  Pa  Pa4  1  0.800184  0.605167  0.750000  1
  Pa  Pa5  1  0.197178  0.395785  0.250000  1
  Al  Al6  1  0.669958  0.330042  0.986939  1
  Al  Al7  1  0.334573  0.665427  0.006785  1
  Al  Al8  1  0.334573  0.665427  0.493215  1
  Al  Al9  1  0.669958  0.330042  0.513061  1
  Al  Al10  1  0.839867  0.160133  0.426711  1
  Al  Al11  1  0.160295  0.839705  0.580471  1
  Al  Al12  1  0.320761  0.159670  0.422027  1
  Al  Al13  1  0.160295  0.839705  0.919529  1
  Al  Al14  1  0.681625  0.844798  0.580237  1
  Al  Al15  1  0.839867  0.160133  0.073289  1
  Al  Al16  1  0.840330  0.679239  0.422027  1
  Al  Al17  1  0.681625  0.844798  0.919763  1
  Al  Al18  1  0.155202  0.318375  0.580237  1
  Al  Al19  1  0.320761  0.159670  0.077973  1
  Al  Al20  1  0.155202  0.318375  0.919763  1
  Al  Al21  1  0.840330  0.679239  0.077973  1
  Al  Al22  1  0.437796  0.562204  0.750000  1
  Al  Al23  1  0.561057  0.438943  0.250000  1
  Al  Al24  1  0.113571  0.553831  0.750000  1
  Al  Al25  1  0.876623  0.436800  0.250000  1
  Al  Al26  1  0.446169  0.886429  0.750000  1
  Al  Al27  1  0.563200  0.123377  0.250000  1
  Al  Al28  1  0.993572  0.006428  0.750000  1
  Al  Al29  1  0.000405  0.999595  0.250000  1
  Fe  Fe30  1  0.502247  0.497753  0.997443  1
  Fe  Fe31  1  0.003577  0.501650  0.003627  1
  Fe  Fe32  1  0.502247  0.497753  0.502557  1
  Fe  Fe33  1  0.498350  0.996423  0.003627  1
  Fe  Fe34  1  0.003577  0.501650  0.496373  1
  Fe  Fe35  1  0.498350  0.996423  0.496373  1
  Fe  Fe36  1  0.000308  0.999692  0.999949  1
  Fe  Fe37  1  0.000308  0.999692  0.500051  1
