# generated using pymatgen
data_Tm7LuB24MoOs3
_symmetry_space_group_name_H-M   'P 1'
_cell_length_a   3.61671800
_cell_length_b   9.09942144
_cell_length_c   11.47775302
_cell_angle_alpha   89.91654666
_cell_angle_beta   90.00000000
_cell_angle_gamma   90.00000000
_symmetry_Int_Tables_number   1
_chemical_formula_structural   Tm7LuB24MoOs3
_chemical_formula_sum   'Tm7 Lu1 B24 Mo1 Os3'
_cell_volume   377.73292536
_cell_formula_units_Z   1
loop_
 _symmetry_equiv_pos_site_id
 _symmetry_equiv_pos_as_xyz
  1  'x, y, z'
loop_
 _atom_site_type_symbol
 _atom_site_label
 _atom_site_symmetry_multiplicity
 _atom_site_fract_x
 _atom_site_fract_y
 _atom_site_fract_z
 _atom_site_occupancy
  Tm  Tm0  1  0.000000  0.321771  0.413249  1
  Tm  Tm1  1  0.000000  0.677746  0.584816  1
  Tm  Tm2  1  0.000000  0.819786  0.087282  1
  Tm  Tm3  1  0.000000  0.178246  0.914553  1
  Tm  Tm4  1  0.000000  0.944943  0.372761  1
  Tm  Tm5  1  0.000000  0.057541  0.628388  1
  Tm  Tm6  1  0.000000  0.443465  0.126590  1
  Lu  Lu7  1  0.000000  0.556812  0.871514  1
  B  B8  1  0.500000  0.550978  0.435948  1
  B  B9  1  0.500000  0.446380  0.567796  1
  B  B10  1  0.500000  0.053281  0.066418  1
  B  B11  1  0.500000  0.946216  0.933567  1
  B  B12  1  0.500000  0.751152  0.421944  1
  B  B13  1  0.500000  0.251795  0.580872  1
  B  B14  1  0.500000  0.248919  0.079908  1
  B  B15  1  0.500000  0.750391  0.919260  1
  B  B16  1  0.500000  0.794689  0.264246  1
  B  B17  1  0.500000  0.208473  0.734839  1
  B  B18  1  0.500000  0.291148  0.233214  1
  B  B19  1  0.500000  0.708309  0.765651  1
  B  B20  1  0.500000  0.631493  0.182685  1
  B  B21  1  0.500000  0.368905  0.815566  1
  B  B22  1  0.500000  0.131192  0.314177  1
  B  B23  1  0.500000  0.869379  0.685381  1
  B  B24  1  0.500000  0.982598  0.212548  1
  B  B25  1  0.500000  0.017822  0.788158  1
  B  B26  1  0.500000  0.477811  0.286694  1
  B  B27  1  0.500000  0.517606  0.713324  1
  B  B28  1  0.500000  0.604411  0.027071  1
  B  B29  1  0.500000  0.395443  0.969892  1
  B  B30  1  0.500000  0.105995  0.471240  1
  B  B31  1  0.500000  0.896865  0.530100  1
  Mo  Mo32  1  0.000000  0.637374  0.321242  1
  Os  Os33  1  0.000000  0.361750  0.680835  1
  Os  Os34  1  0.000000  0.137472  0.177179  1
  Os  Os35  1  0.000000  0.861842  0.821092  1
