# generated using pymatgen
data_Zr14Nb6Si15Ge
_symmetry_space_group_name_H-M   'P 1'
_cell_length_a   7.03753663
_cell_length_b   7.03346503
_cell_length_c   12.93855373
_cell_angle_alpha   90.34313169
_cell_angle_beta   89.96147782
_cell_angle_gamma   90.02999457
_symmetry_Int_Tables_number   1
_chemical_formula_structural   Zr14Nb6Si15Ge
_chemical_formula_sum   'Zr14 Nb6 Si15 Ge1'
_cell_volume   640.42428200
_cell_formula_units_Z   1
loop_
 _symmetry_equiv_pos_site_id
 _symmetry_equiv_pos_as_xyz
  1  'x, y, z'
loop_
 _atom_site_type_symbol
 _atom_site_label
 _atom_site_symmetry_multiplicity
 _atom_site_fract_x
 _atom_site_fract_y
 _atom_site_fract_z
 _atom_site_occupancy
  Zr  Zr0  1  0.003910  0.147730  0.127514  1
  Zr  Zr1  1  0.999481  0.854045  0.626661  1
  Zr  Zr2  1  0.645795  0.497146  0.876049  1
  Zr  Zr3  1  0.503985  0.351781  0.622570  1
  Zr  Zr4  1  0.499471  0.646375  0.124532  1
  Zr  Zr5  1  0.146034  0.002454  0.873918  1
  Zr  Zr6  1  0.001618  0.652163  0.036583  1
  Zr  Zr7  1  0.001420  0.344345  0.530715  1
  Zr  Zr8  1  0.650151  0.999458  0.966805  1
  Zr  Zr9  1  0.150737  0.500210  0.782795  1
  Zr  Zr10  1  0.844697  0.497611  0.282258  1
  Zr  Zr11  1  0.501472  0.152982  0.220146  1
  Zr  Zr12  1  0.501862  0.848407  0.714153  1
  Zr  Zr13  1  0.348476  0.001945  0.466303  1
  Nb  Nb14  1  0.357516  0.505122  0.375300  1
  Nb  Nb15  1  0.851971  0.997710  0.373157  1
  Nb  Nb16  1  0.671123  0.673314  0.497851  1
  Nb  Nb17  1  0.825703  0.174404  0.748889  1
  Nb  Nb18  1  0.174685  0.828384  0.251358  1
  Nb  Nb19  1  0.325324  0.325381  0.001158  1
  Si  Si20  1  0.951535  0.301548  0.936327  1
  Si  Si21  1  0.702448  0.047822  0.560997  1
  Si  Si22  1  0.202022  0.451678  0.189265  1
  Si  Si23  1  0.800805  0.548278  0.684714  1
  Si  Si24  1  0.451740  0.198469  0.813727  1
  Si  Si25  1  0.549283  0.799235  0.315120  1
  Si  Si26  1  0.301180  0.951944  0.065188  1
  Si  Si27  1  0.851702  0.797511  0.820203  1
  Si  Si28  1  0.140910  0.208425  0.325454  1
  Si  Si29  1  0.797426  0.855557  0.182245  1
  Si  Si30  1  0.299783  0.644132  0.569715  1
  Si  Si31  1  0.702757  0.352181  0.071919  1
  Si  Si32  1  0.640547  0.291963  0.424497  1
  Si  Si33  1  0.352252  0.702620  0.929606  1
  Si  Si34  1  0.203320  0.147640  0.678324  1
  Ge  Ge35  1  0.046858  0.700029  0.433983  1
