# generated using pymatgen
data_PrNdFe3Tc14C3
_symmetry_space_group_name_H-M   'P 1'
_cell_length_a   6.92133268
_cell_length_b   6.92133257
_cell_length_c   6.92133140
_cell_angle_alpha   82.81335411
_cell_angle_beta   82.81335643
_cell_angle_gamma   82.81336029
_symmetry_Int_Tables_number   1
_chemical_formula_structural   PrNdFe3Tc14C3
_chemical_formula_sum   'Pr1 Nd1 Fe3 Tc14 C3'
_cell_volume   324.35228341
_cell_formula_units_Z   1
loop_
 _symmetry_equiv_pos_site_id
 _symmetry_equiv_pos_as_xyz
  1  'x, y, z'
loop_
 _atom_site_type_symbol
 _atom_site_label
 _atom_site_symmetry_multiplicity
 _atom_site_fract_x
 _atom_site_fract_y
 _atom_site_fract_z
 _atom_site_occupancy
  Pr  Pr0  1  0.649548  0.649548  0.649548  1
  Nd  Nd1  1  0.349999  0.349999  0.349999  1
  Fe  Fe2  1  0.999740  0.999740  0.500161  1
  Fe  Fe3  1  0.500161  0.999740  0.999740  1
  Fe  Fe4  1  0.999740  0.500161  0.999740  1
  Tc  Tc5  1  0.724272  0.275646  0.000171  1
  Tc  Tc6  1  0.000171  0.724272  0.275646  1
  Tc  Tc7  1  0.275646  0.000171  0.724272  1
  Tc  Tc8  1  0.000171  0.275646  0.724272  1
  Tc  Tc9  1  0.724272  0.000171  0.275646  1
  Tc  Tc10  1  0.275646  0.724272  0.000171  1
  Tc  Tc11  1  0.346226  0.864413  0.346226  1
  Tc  Tc12  1  0.346226  0.346226  0.864413  1
  Tc  Tc13  1  0.864413  0.346226  0.346226  1
  Tc  Tc14  1  0.653499  0.136359  0.653499  1
  Tc  Tc15  1  0.653499  0.653499  0.136359  1
  Tc  Tc16  1  0.136359  0.653499  0.653499  1
  Tc  Tc17  1  0.900124  0.900124  0.900124  1
  Tc  Tc18  1  0.100061  0.100061  0.100061  1
  C  C19  1  0.499338  0.499338  0.001549  1
  C  C20  1  0.001549  0.499338  0.499338  1
  C  C21  1  0.499338  0.001549  0.499338  1
