# generated using pymatgen
data_Dy5HoReB14Os
_symmetry_space_group_name_H-M   'P 1'
_cell_length_a   8.07087701
_cell_length_b   8.07087693
_cell_length_c   9.33707700
_cell_angle_alpha   90.00000000
_cell_angle_beta   90.00000000
_cell_angle_gamma   154.70673261
_symmetry_Int_Tables_number   1
_chemical_formula_structural   Dy5HoReB14Os
_chemical_formula_sum   'Dy5 Ho1 Re1 B14 Os1'
_cell_volume   259.85801553
_cell_formula_units_Z   1
loop_
 _symmetry_equiv_pos_site_id
 _symmetry_equiv_pos_as_xyz
  1  'x, y, z'
loop_
 _atom_site_type_symbol
 _atom_site_label
 _atom_site_symmetry_multiplicity
 _atom_site_fract_x
 _atom_site_fract_y
 _atom_site_fract_z
 _atom_site_occupancy
  Dy  Dy0  1  0.894418  0.105582  0.059822  1
  Dy  Dy1  1  0.105709  0.894291  0.561114  1
  Dy  Dy2  1  0.105709  0.894291  0.938886  1
  Dy  Dy3  1  0.894418  0.105582  0.440178  1
  Dy  Dy4  1  0.243439  0.756561  0.250000  1
  Ho  Ho5  1  0.757252  0.242748  0.750000  1
  Re  Re6  1  0.947216  0.052783  0.750000  1
  B  B7  1  0.456924  0.543076  0.250000  1
  B  B8  1  0.543553  0.456447  0.750000  1
  B  B9  1  0.726927  0.273073  0.034366  1
  B  B10  1  0.272465  0.727535  0.533828  1
  B  B11  1  0.272465  0.727535  0.966172  1
  B  B12  1  0.726927  0.273073  0.465634  1
  B  B13  1  0.631647  0.368353  0.348749  1
  B  B14  1  0.367704  0.632296  0.848915  1
  B  B15  1  0.367704  0.632296  0.651085  1
  B  B16  1  0.631647  0.368353  0.151251  1
  B  B17  1  0.520648  0.479352  0.403592  1
  B  B18  1  0.479375  0.520625  0.904407  1
  B  B19  1  0.479375  0.520625  0.595593  1
  B  B20  1  0.520648  0.479352  0.096408  1
  Os  Os21  1  0.053827  0.946173  0.250000  1
