# generated using pymatgen
data_Er(NbC)5
_symmetry_space_group_name_H-M   'P 1'
_cell_length_a   5.60031200
_cell_length_b   5.60031253
_cell_length_c   5.57101691
_cell_angle_alpha   80.99108112
_cell_angle_beta   80.99108335
_cell_angle_gamma   120.36626191
_symmetry_Int_Tables_number   1
_chemical_formula_structural   Er(NbC)5
_chemical_formula_sum   'Er1 Nb5 C5'
_cell_volume   143.08528768
_cell_formula_units_Z   1
loop_
 _symmetry_equiv_pos_site_id
 _symmetry_equiv_pos_as_xyz
  1  'x, y, z'
loop_
 _atom_site_type_symbol
 _atom_site_label
 _atom_site_symmetry_multiplicity
 _atom_site_fract_x
 _atom_site_fract_y
 _atom_site_fract_z
 _atom_site_occupancy
  Er  Er0  1  0.750801  0.750801  0.748031  1
  Nb  Nb1  1  0.260672  0.260672  0.262280  1
  Nb  Nb2  1  0.089151  0.445908  0.742441  1
  Nb  Nb3  1  0.555021  0.908067  0.254339  1
  Nb  Nb4  1  0.908067  0.555021  0.254339  1
  Nb  Nb5  1  0.445908  0.089151  0.742441  1
  C  C6  1  0.493125  0.493125  0.496020  1
  C  C7  1  0.661912  0.319110  0.009025  1
  C  C8  1  0.319110  0.661912  0.009025  1
  C  C9  1  0.836742  0.179490  0.491030  1
  C  C10  1  0.179490  0.836742  0.491030  1
