# generated using pymatgen
data_Tb3ThHgIr
_symmetry_space_group_name_H-M   'P 1'
_cell_length_a   9.75619773
_cell_length_b   9.75619781
_cell_length_c   9.75619800
_cell_angle_alpha   59.99999937
_cell_angle_beta   59.99999908
_cell_angle_gamma   59.99999771
_symmetry_Int_Tables_number   1
_chemical_formula_structural   Tb3ThHgIr
_chemical_formula_sum   'Tb12 Th4 Hg4 Ir4'
_cell_volume   656.63917054
_cell_formula_units_Z   4
loop_
 _symmetry_equiv_pos_site_id
 _symmetry_equiv_pos_as_xyz
  1  'x, y, z'
loop_
 _atom_site_type_symbol
 _atom_site_label
 _atom_site_symmetry_multiplicity
 _atom_site_fract_x
 _atom_site_fract_y
 _atom_site_fract_z
 _atom_site_occupancy
  Tb  Tb0  1  0.061887  0.438113  0.438113  1
  Tb  Tb1  1  0.438113  0.061887  0.061887  1
  Tb  Tb2  1  0.438113  0.061887  0.438113  1
  Tb  Tb3  1  0.061887  0.438113  0.061887  1
  Tb  Tb4  1  0.438113  0.438113  0.061887  1
  Tb  Tb5  1  0.061887  0.061887  0.438113  1
  Tb  Tb6  1  0.186327  0.813673  0.813673  1
  Tb  Tb7  1  0.813673  0.186327  0.186327  1
  Tb  Tb8  1  0.813673  0.186327  0.813673  1
  Tb  Tb9  1  0.186327  0.813673  0.186327  1
  Tb  Tb10  1  0.813673  0.813673  0.186327  1
  Tb  Tb11  1  0.186327  0.186327  0.813673  1
  Th  Th12  1  0.600870  0.600870  0.600870  1
  Th  Th13  1  0.600870  0.600870  0.197391  1
  Th  Th14  1  0.600870  0.197391  0.600870  1
  Th  Th15  1  0.197391  0.600870  0.600870  1
  Hg  Hg16  1  0.837090  0.837090  0.837090  1
  Hg  Hg17  1  0.837090  0.837090  0.488730  1
  Hg  Hg18  1  0.837090  0.488730  0.837090  1
  Hg  Hg19  1  0.488730  0.837090  0.837090  1
  Ir  Ir20  1  0.394001  0.394001  0.394001  1
  Ir  Ir21  1  0.394001  0.394001  0.817997  1
  Ir  Ir22  1  0.394001  0.817997  0.394001  1
  Ir  Ir23  1  0.817997  0.394001  0.394001  1
