# generated using pymatgen
data_CeSmSbO2
_symmetry_space_group_name_H-M   'P 1'
_cell_length_a   7.04982983
_cell_length_b   7.04982967
_cell_length_c   7.04983084
_cell_angle_alpha   147.24198075
_cell_angle_beta   147.24197392
_cell_angle_gamma   47.00562921
_symmetry_Int_Tables_number   1
_chemical_formula_structural   CeSmSbO2
_chemical_formula_sum   'Ce1 Sm1 Sb1 O2'
_cell_volume   102.20024424
_cell_formula_units_Z   1
loop_
 _symmetry_equiv_pos_site_id
 _symmetry_equiv_pos_as_xyz
  1  'x, y, z'
loop_
 _atom_site_type_symbol
 _atom_site_label
 _atom_site_symmetry_multiplicity
 _atom_site_fract_x
 _atom_site_fract_y
 _atom_site_fract_z
 _atom_site_occupancy
  Ce  Ce0  1  0.341404  0.341404  0.000000  1
  Sm  Sm1  1  0.657413  0.657413  0.000000  1
  Sb  Sb2  1  0.997862  0.997862  0.000000  1
  O  O3  1  0.751660  0.251660  0.500000  1
  O  O4  1  0.251660  0.751660  0.500000  1
