# generated using pymatgen
data_PrNd7Cu3Si12Rh
_symmetry_space_group_name_H-M   'P 1'
_cell_length_a   8.16248800
_cell_length_b   8.16248803
_cell_length_c   8.54357800
_cell_angle_alpha   90.00000000
_cell_angle_beta   90.00000000
_cell_angle_gamma   119.99999988
_symmetry_Int_Tables_number   1
_chemical_formula_structural   PrNd7Cu3Si12Rh
_chemical_formula_sum   'Pr1 Nd7 Cu3 Si12 Rh1'
_cell_volume   492.96437369
_cell_formula_units_Z   1
loop_
 _symmetry_equiv_pos_site_id
 _symmetry_equiv_pos_as_xyz
  1  'x, y, z'
loop_
 _atom_site_type_symbol
 _atom_site_label
 _atom_site_symmetry_multiplicity
 _atom_site_fract_x
 _atom_site_fract_y
 _atom_site_fract_z
 _atom_site_occupancy
  Pr  Pr0  1  0.000000  0.000000  0.750068  1
  Nd  Nd1  1  0.000000  0.000000  0.249954  1
  Nd  Nd2  1  0.499319  0.500681  0.751614  1
  Nd  Nd3  1  0.499319  0.998640  0.751614  1
  Nd  Nd4  1  0.001360  0.500681  0.751614  1
  Nd  Nd5  1  0.499820  0.500180  0.248480  1
  Nd  Nd6  1  0.000362  0.500180  0.248480  1
  Nd  Nd7  1  0.499820  0.999638  0.248480  1
  Cu  Cu8  1  0.666667  0.333333  0.998129  1
  Cu  Cu9  1  0.666667  0.333333  0.501570  1
  Cu  Cu10  1  0.333333  0.666667  0.498951  1
  Si  Si11  1  0.832369  0.167631  0.000143  1
  Si  Si12  1  0.832369  0.664739  0.000143  1
  Si  Si13  1  0.335261  0.167631  0.000143  1
  Si  Si14  1  0.831038  0.168962  0.499809  1
  Si  Si15  1  0.831038  0.662076  0.499809  1
  Si  Si16  1  0.337924  0.168962  0.499809  1
  Si  Si17  1  0.169058  0.830942  0.499433  1
  Si  Si18  1  0.661884  0.830942  0.499433  1
  Si  Si19  1  0.169058  0.338116  0.499433  1
  Si  Si20  1  0.168273  0.831727  0.000754  1
  Si  Si21  1  0.663456  0.831727  0.000754  1
  Si  Si22  1  0.168273  0.336544  0.000754  1
  Rh  Rh23  1  0.333333  0.666667  0.000628  1
