# generated using pymatgen
data_MgTi2NbPt12
_symmetry_space_group_name_H-M   'P 1'
_cell_length_a   5.62040800
_cell_length_b   5.62040791
_cell_length_c   9.12599500
_cell_angle_alpha   90.00000000
_cell_angle_beta   90.00000000
_cell_angle_gamma   120.00000055
_symmetry_Int_Tables_number   1
_chemical_formula_structural   MgTi2NbPt12
_chemical_formula_sum   'Mg1 Ti2 Nb1 Pt12'
_cell_volume   249.65860249
_cell_formula_units_Z   1
loop_
 _symmetry_equiv_pos_site_id
 _symmetry_equiv_pos_as_xyz
  1  'x, y, z'
loop_
 _atom_site_type_symbol
 _atom_site_label
 _atom_site_symmetry_multiplicity
 _atom_site_fract_x
 _atom_site_fract_y
 _atom_site_fract_z
 _atom_site_occupancy
  Mg  Mg0  1  0.333333  0.666667  0.249707  1
  Ti  Ti1  1  0.000000  0.000000  0.002897  1
  Ti  Ti2  1  0.666667  0.333333  0.751215  1
  Nb  Nb3  1  0.000000  0.000000  0.496685  1
  Pt  Pt4  1  0.501872  0.498128  0.504017  1
  Pt  Pt5  1  0.501872  0.003744  0.504017  1
  Pt  Pt6  1  0.996256  0.498128  0.504017  1
  Pt  Pt7  1  0.501958  0.498042  0.995941  1
  Pt  Pt8  1  0.501958  0.003916  0.995941  1
  Pt  Pt9  1  0.996084  0.498042  0.995941  1
  Pt  Pt10  1  0.832151  0.664303  0.249350  1
  Pt  Pt11  1  0.335697  0.167849  0.249350  1
  Pt  Pt12  1  0.832151  0.167849  0.249350  1
  Pt  Pt13  1  0.167001  0.334001  0.750523  1
  Pt  Pt14  1  0.665999  0.832999  0.750523  1
  Pt  Pt15  1  0.167001  0.832999  0.750523  1
