# generated using pymatgen
data_Sm2Er3Tm(SiRh2)6
_symmetry_space_group_name_H-M   'P 1'
_cell_length_a   5.58076400
_cell_length_b   5.58076316
_cell_length_c   14.96845300
_cell_angle_alpha   90.00000000
_cell_angle_beta   90.00000000
_cell_angle_gamma   119.99999314
_symmetry_Int_Tables_number   1
_chemical_formula_structural   Sm2Er3Tm(SiRh2)6
_chemical_formula_sum   'Sm2 Er3 Tm1 Si6 Rh12'
_cell_volume   403.73353922
_cell_formula_units_Z   1
loop_
 _symmetry_equiv_pos_site_id
 _symmetry_equiv_pos_as_xyz
  1  'x, y, z'
loop_
 _atom_site_type_symbol
 _atom_site_label
 _atom_site_symmetry_multiplicity
 _atom_site_fract_x
 _atom_site_fract_y
 _atom_site_fract_z
 _atom_site_occupancy
  Sm  Sm0  1  0.333333  0.666667  0.749969  1
  Sm  Sm1  1  0.666667  0.333333  0.250015  1
  Er  Er2  1  0.666667  0.333333  0.463384  1
  Er  Er3  1  0.666667  0.333333  0.036727  1
  Er  Er4  1  0.333333  0.666667  0.963284  1
  Tm  Tm5  1  0.333333  0.666667  0.536455  1
  Si  Si6  1  0.000000  0.000000  0.250155  1
  Si  Si7  1  0.000000  0.000000  0.749884  1
  Si  Si8  1  0.333333  0.666667  0.250074  1
  Si  Si9  1  0.666667  0.333333  0.749934  1
  Si  Si10  1  0.000000  0.000000  0.000005  1
  Si  Si11  1  0.000000  0.000000  0.499997  1
  Rh  Rh12  1  0.166999  0.333997  0.129254  1
  Rh  Rh13  1  0.832973  0.665947  0.870725  1
  Rh  Rh14  1  0.666003  0.833001  0.129254  1
  Rh  Rh15  1  0.833025  0.666050  0.629019  1
  Rh  Rh16  1  0.334053  0.167027  0.870725  1
  Rh  Rh17  1  0.167118  0.334236  0.371040  1
  Rh  Rh18  1  0.166999  0.833001  0.129254  1
  Rh  Rh19  1  0.333950  0.166975  0.629019  1
  Rh  Rh20  1  0.832973  0.167027  0.870725  1
  Rh  Rh21  1  0.665764  0.832882  0.371040  1
  Rh  Rh22  1  0.833025  0.166975  0.629019  1
  Rh  Rh23  1  0.167118  0.832882  0.371040  1
