# generated using pymatgen
data_La4(NdPt)3
_symmetry_space_group_name_H-M   'P 1'
_cell_length_a   6.58824200
_cell_length_b   10.26855046
_cell_length_c   10.26855090
_cell_angle_alpha   120.05000370
_cell_angle_beta   90.00000000
_cell_angle_gamma   90.00000000
_symmetry_Int_Tables_number   1
_chemical_formula_structural   La4(NdPt)3
_chemical_formula_sum   'La8 Nd6 Pt6'
_cell_volume   601.31138651
_cell_formula_units_Z   2
loop_
 _symmetry_equiv_pos_site_id
 _symmetry_equiv_pos_as_xyz
  1  'x, y, z'
loop_
 _atom_site_type_symbol
 _atom_site_label
 _atom_site_symmetry_multiplicity
 _atom_site_fract_x
 _atom_site_fract_y
 _atom_site_fract_z
 _atom_site_occupancy
  La  La0  1  0.458651  0.333286  0.666714  1
  La  La1  1  0.958651  0.666714  0.333286  1
  La  La2  1  0.246637  0.127593  0.872407  1
  La  La3  1  0.247002  0.744565  0.872229  1
  La  La4  1  0.247002  0.127771  0.255435  1
  La  La5  1  0.746637  0.872407  0.127593  1
  La  La6  1  0.747002  0.255435  0.127771  1
  La  La7  1  0.747002  0.872229  0.744565  1
  Nd  Nd8  1  0.441224  0.537957  0.462043  1
  Nd  Nd9  1  0.441424  0.924336  0.462097  1
  Nd  Nd10  1  0.441424  0.537903  0.075664  1
  Nd  Nd11  1  0.941224  0.462043  0.537957  1
  Nd  Nd12  1  0.941424  0.075664  0.537903  1
  Nd  Nd13  1  0.941424  0.462097  0.924336  1
  Pt  Pt14  1  0.189729  0.810998  0.189002  1
  Pt  Pt15  1  0.189953  0.378047  0.188860  1
  Pt  Pt16  1  0.189953  0.811140  0.621953  1
  Pt  Pt17  1  0.689729  0.189002  0.810998  1
  Pt  Pt18  1  0.689953  0.621953  0.811140  1
  Pt  Pt19  1  0.689953  0.188860  0.378047  1
