# generated using pymatgen
data_Be5Nb6AsRu6
_symmetry_space_group_name_H-M   'P 1'
_cell_length_a   7.40009725
_cell_length_b   7.39805927
_cell_length_c   7.39923959
_cell_angle_alpha   126.23670489
_cell_angle_beta   129.59115963
_cell_angle_gamma   76.78661457
_symmetry_Int_Tables_number   1
_chemical_formula_structural   Be5Nb6AsRu6
_chemical_formula_sum   'Be5 Nb6 As1 Ru6'
_cell_volume   244.52657322
_cell_formula_units_Z   1
loop_
 _symmetry_equiv_pos_site_id
 _symmetry_equiv_pos_as_xyz
  1  'x, y, z'
loop_
 _atom_site_type_symbol
 _atom_site_label
 _atom_site_symmetry_multiplicity
 _atom_site_fract_x
 _atom_site_fract_y
 _atom_site_fract_z
 _atom_site_occupancy
  Be  Be0  1  0.749838  0.497075  0.246472  1
  Be  Be1  1  0.250403  0.496707  0.747374  1
  Be  Be2  1  0.331245  0.829904  0.499218  1
  Be  Be3  1  0.665846  0.163392  0.495944  1
  Be  Be4  1  0.835454  0.830165  0.994089  1
  Nb  Nb5  1  0.558506  0.087922  0.042068  1
  Nb  Nb6  1  0.460849  0.509689  0.561808  1
  Nb  Nb7  1  0.947920  0.509237  0.048256  1
  Nb  Nb8  1  0.045382  0.087614  0.529445  1
  Nb  Nb9  1  0.736235  0.893285  0.641949  1
  Nb  Nb10  1  0.250505  0.892490  0.156731  1
  As  As11  1  0.167371  0.163653  0.997483  1
  Ru  Ru12  1  0.500305  0.245480  0.745166  1
  Ru  Ru13  1  0.997164  0.244885  0.247960  1
  Ru  Ru14  1  0.125496  0.743219  0.618207  1
  Ru  Ru15  1  0.873692  0.495249  0.621220  1
  Ru  Ru16  1  0.626360  0.748651  0.122138  1
  Ru  Ru17  1  0.377428  0.503583  0.126673  1
