# generated using pymatgen
data_Th(PaRh2)5
_symmetry_space_group_name_H-M   'P 1'
_cell_length_a   5.80553610
_cell_length_b   5.80553598
_cell_length_c   9.35572900
_cell_angle_alpha   86.73768331
_cell_angle_beta   86.73768338
_cell_angle_gamma   104.40341751
_symmetry_Int_Tables_number   1
_chemical_formula_structural   Th(PaRh2)5
_chemical_formula_sum   'Th1 Pa5 Rh10'
_cell_volume   304.09711466
_cell_formula_units_Z   1
loop_
 _symmetry_equiv_pos_site_id
 _symmetry_equiv_pos_as_xyz
  1  'x, y, z'
loop_
 _atom_site_type_symbol
 _atom_site_label
 _atom_site_symmetry_multiplicity
 _atom_site_fract_x
 _atom_site_fract_y
 _atom_site_fract_z
 _atom_site_occupancy
  Th  Th0  1  0.804237  0.195763  0.500000  1
  Pa  Pa1  1  0.611396  0.609215  0.732131  1
  Pa  Pa2  1  0.390785  0.388604  0.267869  1
  Pa  Pa3  1  0.209105  0.790895  0.000000  1
  Pa  Pa4  1  0.191946  0.808054  0.500000  1
  Pa  Pa5  1  0.789807  0.210193  0.000000  1
  Rh  Rh6  1  0.698608  0.701942  0.016838  1
  Rh  Rh7  1  0.692739  0.686568  0.436010  1
  Rh  Rh8  1  0.298058  0.301392  0.983162  1
  Rh  Rh9  1  0.313432  0.307261  0.563990  1
  Rh  Rh10  1  0.497369  0.033265  0.770759  1
  Rh  Rh11  1  0.489645  0.952992  0.237791  1
  Rh  Rh12  1  0.998400  0.999269  0.230891  1
  Rh  Rh13  1  0.000731  0.001600  0.769109  1
  Rh  Rh14  1  0.047008  0.510355  0.762209  1
  Rh  Rh15  1  0.966735  0.502631  0.229241  1
