# generated using pymatgen
data_DyWN2
_symmetry_space_group_name_H-M   'P 1'
_cell_length_a   3.21164900
_cell_length_b   5.72382100
_cell_length_c   10.56009300
_cell_angle_alpha   90.00000000
_cell_angle_beta   90.00000000
_cell_angle_gamma   90.00000000
_symmetry_Int_Tables_number   1
_chemical_formula_structural   DyWN2
_chemical_formula_sum   'Dy4 W4 N8'
_cell_volume   194.12517575
_cell_formula_units_Z   4
loop_
 _symmetry_equiv_pos_site_id
 _symmetry_equiv_pos_as_xyz
  1  'x, y, z'
loop_
 _atom_site_type_symbol
 _atom_site_label
 _atom_site_symmetry_multiplicity
 _atom_site_fract_x
 _atom_site_fract_y
 _atom_site_fract_z
 _atom_site_occupancy
  Dy  Dy0  1  0.250000  0.580117  0.354706  1
  Dy  Dy1  1  0.250000  0.080117  0.145294  1
  Dy  Dy2  1  0.750000  0.419883  0.645294  1
  Dy  Dy3  1  0.750000  0.919883  0.854706  1
  W  W4  1  0.250000  0.933088  0.595106  1
  W  W5  1  0.250000  0.433088  0.904894  1
  W  W6  1  0.750000  0.066912  0.404894  1
  W  W7  1  0.750000  0.566912  0.095106  1
  N  N8  1  0.250000  0.664388  0.749084  1
  N  N9  1  0.250000  0.164388  0.750916  1
  N  N10  1  0.750000  0.335612  0.250916  1
  N  N11  1  0.750000  0.835612  0.249084  1
  N  N12  1  0.250000  0.260826  0.492778  1
  N  N13  1  0.250000  0.760826  0.007222  1
  N  N14  1  0.750000  0.739174  0.507222  1
  N  N15  1  0.750000  0.239174  0.992778  1
