# generated using pymatgen
data_Ho15Er5(Ir5Au)2
_symmetry_space_group_name_H-M   'P 1'
_cell_length_a   10.98081377
_cell_length_b   10.92998500
_cell_length_c   6.31381220
_cell_angle_alpha   89.99978622
_cell_angle_beta   89.81452819
_cell_angle_gamma   90.00030297
_symmetry_Int_Tables_number   1
_chemical_formula_structural   Ho15Er5(Ir5Au)2
_chemical_formula_sum   'Ho15 Er5 Ir10 Au2'
_cell_volume   757.78058880
_cell_formula_units_Z   1
loop_
 _symmetry_equiv_pos_site_id
 _symmetry_equiv_pos_as_xyz
  1  'x, y, z'
loop_
 _atom_site_type_symbol
 _atom_site_label
 _atom_site_symmetry_multiplicity
 _atom_site_fract_x
 _atom_site_fract_y
 _atom_site_fract_z
 _atom_site_occupancy
  Ho  Ho0  1  0.292138  0.088203  0.372599  1
  Ho  Ho1  1  0.292206  0.911887  0.872632  1
  Ho  Ho2  1  0.699147  0.091618  0.866582  1
  Ho  Ho3  1  0.699133  0.908352  0.366566  1
  Ho  Ho4  1  0.578772  0.789386  0.877419  1
  Ho  Ho5  1  0.578801  0.210612  0.377410  1
  Ho  Ho6  1  0.409381  0.790647  0.376892  1
  Ho  Ho7  1  0.409330  0.209370  0.876897  1
  Ho  Ho8  1  0.209466  0.411413  0.621791  1
  Ho  Ho9  1  0.209452  0.588429  0.121827  1
  Ho  Ho10  1  0.789365  0.419175  0.122738  1
  Ho  Ho11  1  0.789314  0.580798  0.622727  1
  Ho  Ho12  1  0.916679  0.705111  0.137272  1
  Ho  Ho13  1  0.916720  0.294855  0.637224  1
  Ho  Ho14  1  0.095293  0.703939  0.623853  1
  Er  Er15  1  0.095370  0.296255  0.123732  1
  Er  Er16  1  0.008924  0.998648  0.499966  1
  Er  Er17  1  0.008961  0.001467  0.999998  1
  Er  Er18  1  0.499668  0.499008  0.000525  1
  Er  Er19  1  0.499690  0.501010  0.500611  1
  Ir  Ir20  1  0.153188  0.153641  0.750522  1
  Ir  Ir21  1  0.153263  0.846491  0.250155  1
  Ir  Ir22  1  0.655217  0.345950  0.748762  1
  Ir  Ir23  1  0.655215  0.654044  0.248799  1
  Ir  Ir24  1  0.346948  0.346229  0.251274  1
  Ir  Ir25  1  0.347125  0.653689  0.751399  1
  Ir  Ir26  1  0.500287  0.999710  0.122084  1
  Ir  Ir27  1  0.500270  0.000293  0.622037  1
  Ir  Ir28  1  0.999729  0.500507  0.878021  1
  Ir  Ir29  1  0.999721  0.499206  0.377735  1
  Au  Au30  1  0.845628  0.154426  0.249976  1
  Au  Au31  1  0.845597  0.845633  0.749976  1
