# generated using pymatgen
data_TbFe3P3IrW
_symmetry_space_group_name_H-M   'P 1'
_cell_length_a   3.74151000
_cell_length_b   10.46739800
_cell_length_c   12.27077100
_cell_angle_alpha   90.00000000
_cell_angle_beta   90.00000000
_cell_angle_gamma   90.00000000
_symmetry_Int_Tables_number   1
_chemical_formula_structural   TbFe3P3IrW
_chemical_formula_sum   'Tb4 Fe12 P12 Ir4 W4'
_cell_volume   480.57093290
_cell_formula_units_Z   4
loop_
 _symmetry_equiv_pos_site_id
 _symmetry_equiv_pos_as_xyz
  1  'x, y, z'
loop_
 _atom_site_type_symbol
 _atom_site_label
 _atom_site_symmetry_multiplicity
 _atom_site_fract_x
 _atom_site_fract_y
 _atom_site_fract_z
 _atom_site_occupancy
  Tb  Tb0  1  0.250000  0.581755  0.713465  1
  Tb  Tb1  1  0.250000  0.918245  0.213465  1
  Tb  Tb2  1  0.750000  0.418245  0.286535  1
  Tb  Tb3  1  0.750000  0.081755  0.786535  1
  Fe  Fe4  1  0.250000  0.218372  0.172527  1
  Fe  Fe5  1  0.250000  0.281628  0.672527  1
  Fe  Fe6  1  0.750000  0.781628  0.827473  1
  Fe  Fe7  1  0.750000  0.718372  0.327473  1
  Fe  Fe8  1  0.250000  0.879816  0.693105  1
  Fe  Fe9  1  0.250000  0.620184  0.193105  1
  Fe  Fe10  1  0.750000  0.120184  0.306895  1
  Fe  Fe11  1  0.750000  0.379816  0.806895  1
  Fe  Fe12  1  0.250000  0.462059  0.937339  1
  Fe  Fe13  1  0.250000  0.037941  0.437339  1
  Fe  Fe14  1  0.750000  0.537941  0.062661  1
  Fe  Fe15  1  0.750000  0.962059  0.562661  1
  P  P16  1  0.250000  0.423995  0.113696  1
  P  P17  1  0.250000  0.076005  0.613696  1
  P  P18  1  0.750000  0.576005  0.886304  1
  P  P19  1  0.750000  0.923995  0.386304  1
  P  P20  1  0.250000  0.274570  0.855361  1
  P  P21  1  0.250000  0.225430  0.355361  1
  P  P22  1  0.750000  0.725430  0.144639  1
  P  P23  1  0.750000  0.774570  0.644639  1
  P  P24  1  0.250000  0.603521  0.375014  1
  P  P25  1  0.250000  0.896479  0.875014  1
  P  P26  1  0.750000  0.396479  0.624986  1
  P  P27  1  0.750000  0.103521  0.124986  1
  Ir  Ir28  1  0.250000  0.402636  0.476739  1
  Ir  Ir29  1  0.250000  0.097364  0.976739  1
  Ir  Ir30  1  0.750000  0.597364  0.523261  1
  Ir  Ir31  1  0.750000  0.902636  0.023261  1
  W  W32  1  0.250000  0.698493  0.988112  1
  W  W33  1  0.250000  0.801507  0.488112  1
  W  W34  1  0.750000  0.301507  0.011888  1
  W  W35  1  0.750000  0.198493  0.511888  1
