# generated using pymatgen
data_Mg4GeP5Ir7
_symmetry_space_group_name_H-M   'P 1'
_cell_length_a   6.90310721
_cell_length_b   6.90351643
_cell_length_c   6.90310737
_cell_angle_alpha   110.04551197
_cell_angle_beta   108.32660409
_cell_angle_gamma   110.04550713
_symmetry_Int_Tables_number   1
_chemical_formula_structural   Mg4GeP5Ir7
_chemical_formula_sum   'Mg4 Ge1 P5 Ir7'
_cell_volume   253.17406565
_cell_formula_units_Z   1
loop_
 _symmetry_equiv_pos_site_id
 _symmetry_equiv_pos_as_xyz
  1  'x, y, z'
loop_
 _atom_site_type_symbol
 _atom_site_label
 _atom_site_symmetry_multiplicity
 _atom_site_fract_x
 _atom_site_fract_y
 _atom_site_fract_z
 _atom_site_occupancy
  Mg  Mg0  1  0.505367  0.504716  0.505367  1
  Mg  Mg1  1  0.000648  0.000005  0.505368  1
  Mg  Mg2  1  0.505368  0.000005  0.000648  1
  Mg  Mg3  1  0.000642  0.495287  0.000642  1
  Ge  Ge4  1  0.304360  0.000109  0.304360  1
  P  P5  1  0.674860  0.999940  0.674860  1
  P  P6  1  0.999130  0.682471  0.681746  1
  P  P7  1  0.999397  0.317520  0.316774  1
  P  P8  1  0.681746  0.682471  0.999130  1
  P  P9  1  0.316774  0.317520  0.999397  1
  Ir  Ir10  1  0.988243  0.999960  0.988243  1
  Ir  Ir11  1  0.251290  0.746719  0.504617  1
  Ir  Ir12  1  0.252495  0.500006  0.752499  1
  Ir  Ir13  1  0.504617  0.746719  0.251290  1
  Ir  Ir14  1  0.504613  0.253273  0.757951  1
  Ir  Ir15  1  0.757951  0.253273  0.504613  1
  Ir  Ir16  1  0.752499  0.500006  0.252495  1
