# generated using pymatgen
data_HoEr(Tm2Ir)2
_symmetry_space_group_name_H-M   'P 1'
_cell_length_a   6.36338300
_cell_length_b   7.18821300
_cell_length_c   9.01710600
_cell_angle_alpha   90.00000000
_cell_angle_beta   90.00000000
_cell_angle_gamma   90.00000000
_symmetry_Int_Tables_number   1
_chemical_formula_structural   HoEr(Tm2Ir)2
_chemical_formula_sum   'Ho2 Er2 Tm8 Ir4'
_cell_volume   412.45462322
_cell_formula_units_Z   2
loop_
 _symmetry_equiv_pos_site_id
 _symmetry_equiv_pos_as_xyz
  1  'x, y, z'
loop_
 _atom_site_type_symbol
 _atom_site_label
 _atom_site_symmetry_multiplicity
 _atom_site_fract_x
 _atom_site_fract_y
 _atom_site_fract_z
 _atom_site_occupancy
  Ho  Ho0  1  0.873810  0.533249  0.250000  1
  Ho  Ho1  1  0.626190  0.033249  0.250000  1
  Er  Er2  1  0.126286  0.466783  0.750000  1
  Er  Er3  1  0.373714  0.966783  0.750000  1
  Tm  Tm4  1  0.327545  0.677564  0.061604  1
  Tm  Tm5  1  0.172455  0.177564  0.438396  1
  Tm  Tm6  1  0.672766  0.322320  0.562183  1
  Tm  Tm7  1  0.827234  0.822320  0.937817  1
  Tm  Tm8  1  0.672766  0.322320  0.937817  1
  Tm  Tm9  1  0.827234  0.822320  0.562183  1
  Tm  Tm10  1  0.327545  0.677564  0.438396  1
  Tm  Tm11  1  0.172455  0.177564  0.061604  1
  Ir  Ir12  1  0.043579  0.884767  0.250000  1
  Ir  Ir13  1  0.456421  0.384767  0.250000  1
  Ir  Ir14  1  0.958222  0.115431  0.750000  1
  Ir  Ir15  1  0.541778  0.615431  0.750000  1
