# generated using pymatgen
data_Hf3Pa5(Ni2Sn)4
_symmetry_space_group_name_H-M   'P 1'
_cell_length_a   7.24281542
_cell_length_b   7.24281542
_cell_length_c   7.07721200
_cell_angle_alpha   90.00000000
_cell_angle_beta   90.00000000
_cell_angle_gamma   90.82438173
_symmetry_Int_Tables_number   1
_chemical_formula_structural   Hf3Pa5(Ni2Sn)4
_chemical_formula_sum   'Hf3 Pa5 Ni8 Sn4'
_cell_volume   371.22061473
_cell_formula_units_Z   1
loop_
 _symmetry_equiv_pos_site_id
 _symmetry_equiv_pos_as_xyz
  1  'x, y, z'
loop_
 _atom_site_type_symbol
 _atom_site_label
 _atom_site_symmetry_multiplicity
 _atom_site_fract_x
 _atom_site_fract_y
 _atom_site_fract_z
 _atom_site_occupancy
  Hf  Hf0  1  0.816563  0.816563  0.000000  1
  Hf  Hf1  1  0.677111  0.318764  0.499999  1
  Hf  Hf2  1  0.318764  0.677111  0.499999  1
  Pa  Pa3  1  0.183272  0.183272  0.000000  1
  Pa  Pa4  1  0.356070  0.644060  0.000000  1
  Pa  Pa5  1  0.644060  0.356070  0.000000  1
  Pa  Pa6  1  0.856983  0.856983  0.499999  1
  Pa  Pa7  1  0.145144  0.145144  0.499999  1
  Ni  Ni8  1  0.369941  0.369941  0.296957  1
  Ni  Ni9  1  0.631196  0.631196  0.296078  1
  Ni  Ni10  1  0.868649  0.130594  0.204234  1
  Ni  Ni11  1  0.130594  0.868649  0.204234  1
  Ni  Ni12  1  0.631196  0.631196  0.703922  1
  Ni  Ni13  1  0.369941  0.369941  0.703043  1
  Ni  Ni14  1  0.868649  0.130594  0.795766  1
  Ni  Ni15  1  0.130594  0.868649  0.795766  1
  Sn  Sn16  1  0.994690  0.505943  0.256540  1
  Sn  Sn17  1  0.505943  0.994690  0.256540  1
  Sn  Sn18  1  0.505943  0.994690  0.743462  1
  Sn  Sn19  1  0.994690  0.505943  0.743462  1
