# generated using pymatgen
data_Ac2Y(SnPd)3
_symmetry_space_group_name_H-M   'P 1'
_cell_length_a   4.72233600
_cell_length_b   4.72233555
_cell_length_c   11.97628900
_cell_angle_alpha   90.00000000
_cell_angle_beta   90.00000000
_cell_angle_gamma   119.99998914
_symmetry_Int_Tables_number   1
_chemical_formula_structural   Ac2Y(SnPd)3
_chemical_formula_sum   'Ac2 Y1 Sn3 Pd3'
_cell_volume   231.29522883
_cell_formula_units_Z   1
loop_
 _symmetry_equiv_pos_site_id
 _symmetry_equiv_pos_as_xyz
  1  'x, y, z'
loop_
 _atom_site_type_symbol
 _atom_site_label
 _atom_site_symmetry_multiplicity
 _atom_site_fract_x
 _atom_site_fract_y
 _atom_site_fract_z
 _atom_site_occupancy
  Ac  Ac0  1  0.000000  0.000000  0.836439  1
  Ac  Ac1  1  0.000000  0.000000  0.485233  1
  Y  Y2  1  0.000000  0.000000  0.163591  1
  Sn  Sn3  1  0.666667  0.333333  0.651596  1
  Sn  Sn4  1  0.666667  0.333333  0.305476  1
  Sn  Sn5  1  0.333333  0.666667  0.023539  1
  Pd  Pd6  1  0.666667  0.333333  0.041441  1
  Pd  Pd7  1  0.333333  0.666667  0.671527  1
  Pd  Pd8  1  0.333333  0.666667  0.277156  1
