# generated using pymatgen
data_Cs2Zr(AgSe2)2
_symmetry_space_group_name_H-M   'P 1'
_cell_length_a   8.01991666
_cell_length_b   8.01991631
_cell_length_c   6.39933300
_cell_angle_alpha   90.00000000
_cell_angle_beta   90.00000000
_cell_angle_gamma   132.93332038
_symmetry_Int_Tables_number   1
_chemical_formula_structural   Cs2Zr(AgSe2)2
_chemical_formula_sum   'Cs2 Zr1 Ag2 Se4'
_cell_volume   301.35099537
_cell_formula_units_Z   1
loop_
 _symmetry_equiv_pos_site_id
 _symmetry_equiv_pos_as_xyz
  1  'x, y, z'
loop_
 _atom_site_type_symbol
 _atom_site_label
 _atom_site_symmetry_multiplicity
 _atom_site_fract_x
 _atom_site_fract_y
 _atom_site_fract_z
 _atom_site_occupancy
  Cs  Cs0  1  0.500000  0.000000  0.260381  1
  Cs  Cs1  1  0.000000  0.500000  0.739619  1
  Zr  Zr2  1  0.000000  0.000000  0.000000  1
  Ag  Ag3  1  0.000000  0.000000  0.500000  1
  Ag  Ag4  1  0.500000  0.500000  0.000000  1
  Se  Se5  1  0.871537  0.666979  0.230159  1
  Se  Se6  1  0.128463  0.333021  0.230159  1
  Se  Se7  1  0.666979  0.871537  0.769841  1
  Se  Se8  1  0.333021  0.128463  0.769841  1
