# generated using pymatgen
data_Nb12Al11Zn6Cu5Ir2
_symmetry_space_group_name_H-M   'P 1'
_cell_length_a   8.78589171
_cell_length_b   8.73591444
_cell_length_c   8.17691100
_cell_angle_alpha   90.00000000
_cell_angle_beta   90.00000000
_cell_angle_gamma   119.83983432
_symmetry_Int_Tables_number   1
_chemical_formula_structural   Nb12Al11Zn6Cu5Ir2
_chemical_formula_sum   'Nb12 Al11 Zn6 Cu5 Ir2'
_cell_volume   544.39331550
_cell_formula_units_Z   1
loop_
 _symmetry_equiv_pos_site_id
 _symmetry_equiv_pos_as_xyz
  1  'x, y, z'
loop_
 _atom_site_type_symbol
 _atom_site_label
 _atom_site_symmetry_multiplicity
 _atom_site_fract_x
 _atom_site_fract_y
 _atom_site_fract_z
 _atom_site_occupancy
  Nb  Nb0  1  0.330405  0.998855  0.069140  1
  Nb  Nb1  1  0.667818  0.998494  0.931181  1
  Nb  Nb2  1  0.001268  0.336474  0.068492  1
  Nb  Nb3  1  0.667818  0.998494  0.568819  1
  Nb  Nb4  1  0.001268  0.336474  0.431508  1
  Nb  Nb5  1  0.002133  0.666399  0.932526  1
  Nb  Nb6  1  0.330405  0.998855  0.430860  1
  Nb  Nb7  1  0.002133  0.666399  0.567474  1
  Nb  Nb8  1  0.667284  0.668147  0.067797  1
  Nb  Nb9  1  0.332040  0.330258  0.930726  1
  Nb  Nb10  1  0.332040  0.330258  0.569274  1
  Nb  Nb11  1  0.667284  0.668147  0.432203  1
  Al  Al12  1  0.159418  0.662130  0.250000  1
  Al  Al13  1  0.337632  0.666799  0.503766  1
  Al  Al14  1  0.669267  0.332508  0.503879  1
  Al  Al15  1  0.669267  0.332508  0.996121  1
  Al  Al16  1  0.337632  0.666799  0.996234  1
  Al  Al17  1  0.173654  0.995681  0.750000  1
  Al  Al18  1  0.826456  0.008805  0.250000  1
  Al  Al19  1  0.996741  0.172961  0.750000  1
  Al  Al20  1  0.996779  0.831842  0.250000  1
  Al  Al21  1  0.828179  0.820994  0.750000  1
  Al  Al22  1  0.173929  0.181220  0.250000  1
  Zn  Zn23  1  0.156297  0.495250  0.750000  1
  Zn  Zn24  1  0.834693  0.503729  0.250000  1
  Zn  Zn25  1  0.507108  0.662073  0.750000  1
  Zn  Zn26  1  0.495519  0.157515  0.750000  1
  Zn  Zn27  1  0.494648  0.335714  0.250000  1
  Zn  Zn28  1  0.505699  0.841726  0.250000  1
  Cu  Cu29  1  0.333218  0.834384  0.750000  1
  Cu  Cu30  1  0.669575  0.501612  0.750000  1
  Cu  Cu31  1  0.665098  0.165901  0.250000  1
  Cu  Cu32  1  0.333573  0.500680  0.250000  1
  Cu  Cu33  1  0.834599  0.328674  0.750000  1
  Ir  Ir34  1  0.999563  0.001621  0.500609  1
  Ir  Ir35  1  0.999563  0.001621  0.999391  1
