# generated using pymatgen
data_Yb(PIr)2
_symmetry_space_group_name_H-M   'P 1'
_cell_length_a   6.63674200
_cell_length_b   6.63674135
_cell_length_c   7.08264200
_cell_angle_alpha   90.00000000
_cell_angle_beta   90.00000000
_cell_angle_gamma   119.99999326
_symmetry_Int_Tables_number   1
_chemical_formula_structural   Yb(PIr)2
_chemical_formula_sum   'Yb3 P6 Ir6'
_cell_volume   270.16916421
_cell_formula_units_Z   3
loop_
 _symmetry_equiv_pos_site_id
 _symmetry_equiv_pos_as_xyz
  1  'x, y, z'
loop_
 _atom_site_type_symbol
 _atom_site_label
 _atom_site_symmetry_multiplicity
 _atom_site_fract_x
 _atom_site_fract_y
 _atom_site_fract_z
 _atom_site_occupancy
  Yb  Yb0  1  0.000000  0.606983  0.833333  1
  Yb  Yb1  1  0.393017  0.393017  0.500000  1
  Yb  Yb2  1  0.606983  0.000000  0.166667  1
  P  P3  1  0.883850  0.223927  0.542846  1
  P  P4  1  0.223927  0.883850  0.457154  1
  P  P5  1  0.116150  0.340078  0.123820  1
  P  P6  1  0.776073  0.659922  0.209513  1
  P  P7  1  0.340078  0.116150  0.876180  1
  P  P8  1  0.659922  0.776073  0.790487  1
  Ir  Ir9  1  0.861983  0.861983  0.500000  1
  Ir  Ir10  1  0.138017  0.000000  0.166667  1
  Ir  Ir11  1  0.485511  0.485511  0.000000  1
  Ir  Ir12  1  0.000000  0.514489  0.333333  1
  Ir  Ir13  1  0.514489  0.000000  0.666667  1
  Ir  Ir14  1  0.000000  0.138017  0.833333  1
