# generated using pymatgen
data_CsK3(NO3)8
_symmetry_space_group_name_H-M   'P 1'
_cell_length_a   8.67813466
_cell_length_b   8.67813501
_cell_length_c   8.67813427
_cell_angle_alpha   89.90470648
_cell_angle_beta   89.90470681
_cell_angle_gamma   89.90470871
_symmetry_Int_Tables_number   1
_chemical_formula_structural   CsK3(NO3)8
_chemical_formula_sum   'Cs1 K3 N8 O24'
_cell_volume   653.54779325
_cell_formula_units_Z   1
loop_
 _symmetry_equiv_pos_site_id
 _symmetry_equiv_pos_as_xyz
  1  'x, y, z'
loop_
 _atom_site_type_symbol
 _atom_site_label
 _atom_site_symmetry_multiplicity
 _atom_site_fract_x
 _atom_site_fract_y
 _atom_site_fract_z
 _atom_site_occupancy
  Cs  Cs0  1  0.500000  0.500000  0.500000  1
  K  K1  1  0.500000  0.000000  0.000000  1
  K  K2  1  0.000000  0.000000  0.500000  1
  K  K3  1  0.000000  0.500000  0.000000  1
  N  N4  1  0.659062  0.869950  0.340699  1
  N  N5  1  0.340938  0.130050  0.659301  1
  N  N6  1  0.150999  0.150999  0.150999  1
  N  N7  1  0.869950  0.340699  0.659062  1
  N  N8  1  0.340699  0.659062  0.869950  1
  N  N9  1  0.849001  0.849001  0.849001  1
  N  N10  1  0.130050  0.659301  0.340938  1
  N  N11  1  0.659301  0.340938  0.130050  1
  O  O12  1  0.032733  0.202738  0.217617  1
  O  O13  1  0.809315  0.460808  0.713898  1
  O  O14  1  0.283018  0.722441  0.987094  1
  O  O15  1  0.967267  0.797262  0.782383  1
  O  O16  1  0.190685  0.539192  0.286102  1
  O  O17  1  0.716982  0.277559  0.012906  1
  O  O18  1  0.217617  0.032733  0.202738  1
  O  O19  1  0.813659  0.278647  0.540624  1
  O  O20  1  0.460808  0.713898  0.809315  1
  O  O21  1  0.782383  0.967267  0.797262  1
  O  O22  1  0.186341  0.721353  0.459376  1
  O  O23  1  0.539192  0.286102  0.190685  1
  O  O24  1  0.202738  0.217617  0.032733  1
  O  O25  1  0.987094  0.283018  0.722441  1
  O  O26  1  0.278647  0.540624  0.813659  1
  O  O27  1  0.797262  0.782383  0.967267  1
  O  O28  1  0.012906  0.716982  0.277559  1
  O  O29  1  0.721353  0.459376  0.186341  1
  O  O30  1  0.722441  0.987094  0.283018  1
  O  O31  1  0.713898  0.809315  0.460808  1
  O  O32  1  0.540624  0.813659  0.278647  1
  O  O33  1  0.277559  0.012906  0.716982  1
  O  O34  1  0.286102  0.190685  0.539192  1
  O  O35  1  0.459376  0.186341  0.721353  1
