# generated using pymatgen
data_Nd4InOs
_symmetry_space_group_name_H-M   'P 1'
_cell_length_a   9.95411708
_cell_length_b   9.95411764
_cell_length_c   9.95411600
_cell_angle_alpha   59.99999881
_cell_angle_beta   59.99999695
_cell_angle_gamma   59.99999983
_symmetry_Int_Tables_number   1
_chemical_formula_structural   Nd4InOs
_chemical_formula_sum   'Nd16 In4 Os4'
_cell_volume   697.41807526
_cell_formula_units_Z   4
loop_
 _symmetry_equiv_pos_site_id
 _symmetry_equiv_pos_as_xyz
  1  'x, y, z'
loop_
 _atom_site_type_symbol
 _atom_site_label
 _atom_site_symmetry_multiplicity
 _atom_site_fract_x
 _atom_site_fract_y
 _atom_site_fract_z
 _atom_site_occupancy
  Nd  Nd0  1  0.941904  0.941904  0.558096  1
  Nd  Nd1  1  0.558096  0.941904  0.558096  1
  Nd  Nd2  1  0.558096  0.941904  0.941904  1
  Nd  Nd3  1  0.692126  0.692126  0.307874  1
  Nd  Nd4  1  0.153645  0.153645  0.539063  1
  Nd  Nd5  1  0.307874  0.692126  0.692126  1
  Nd  Nd6  1  0.153645  0.153645  0.153645  1
  Nd  Nd7  1  0.539063  0.153645  0.153645  1
  Nd  Nd8  1  0.307874  0.692126  0.307874  1
  Nd  Nd9  1  0.307874  0.307874  0.692126  1
  Nd  Nd10  1  0.692126  0.307874  0.692126  1
  Nd  Nd11  1  0.941904  0.558096  0.558096  1
  Nd  Nd12  1  0.558096  0.558096  0.941904  1
  Nd  Nd13  1  0.153645  0.539063  0.153645  1
  Nd  Nd14  1  0.692126  0.307874  0.307874  1
  Nd  Nd15  1  0.941904  0.558096  0.941904  1
  In  In16  1  0.243197  0.918934  0.918934  1
  In  In17  1  0.918934  0.918934  0.918934  1
  In  In18  1  0.918934  0.918934  0.243197  1
  In  In19  1  0.918934  0.243197  0.918934  1
  Os  Os20  1  0.915004  0.361666  0.361666  1
  Os  Os21  1  0.361666  0.361666  0.915004  1
  Os  Os22  1  0.361666  0.915004  0.361666  1
  Os  Os23  1  0.361666  0.361666  0.361666  1
