# generated using pymatgen
data_LaPr15Cd4Ir3Os
_symmetry_space_group_name_H-M   'P 1'
_cell_length_a   10.07968358
_cell_length_b   10.07968370
_cell_length_c   10.07968376
_cell_angle_alpha   59.63846252
_cell_angle_beta   59.63845897
_cell_angle_gamma   59.63846308
_symmetry_Int_Tables_number   1
_chemical_formula_structural   LaPr15Cd4Ir3Os
_chemical_formula_sum   'La1 Pr15 Cd4 Ir3 Os1'
_cell_volume   718.19613907
_cell_formula_units_Z   1
loop_
 _symmetry_equiv_pos_site_id
 _symmetry_equiv_pos_as_xyz
  1  'x, y, z'
loop_
 _atom_site_type_symbol
 _atom_site_label
 _atom_site_symmetry_multiplicity
 _atom_site_fract_x
 _atom_site_fract_y
 _atom_site_fract_z
 _atom_site_occupancy
  La  La0  1  0.346637  0.346637  0.346637  1
  Pr  Pr1  1  0.346749  0.346749  0.957214  1
  Pr  Pr2  1  0.346749  0.957214  0.346749  1
  Pr  Pr3  1  0.957214  0.346749  0.346749  1
  Pr  Pr4  1  0.811857  0.190020  0.190020  1
  Pr  Pr5  1  0.190476  0.809253  0.809253  1
  Pr  Pr6  1  0.190020  0.811857  0.190020  1
  Pr  Pr7  1  0.809253  0.190476  0.809253  1
  Pr  Pr8  1  0.190020  0.190020  0.811857  1
  Pr  Pr9  1  0.809253  0.809253  0.190476  1
  Pr  Pr10  1  0.937824  0.561918  0.561918  1
  Pr  Pr11  1  0.557828  0.940063  0.940063  1
  Pr  Pr12  1  0.561918  0.937824  0.561918  1
  Pr  Pr13  1  0.940063  0.557828  0.940063  1
  Pr  Pr14  1  0.561918  0.561918  0.937824  1
  Pr  Pr15  1  0.940063  0.940063  0.557828  1
  Cd  Cd16  1  0.579436  0.579436  0.579436  1
  Cd  Cd17  1  0.579952  0.579952  0.260438  1
  Cd  Cd18  1  0.579952  0.260438  0.579952  1
  Cd  Cd19  1  0.260438  0.579952  0.579952  1
  Ir  Ir20  1  0.142779  0.142779  0.576492  1
  Ir  Ir21  1  0.142779  0.576492  0.142779  1
  Ir  Ir22  1  0.576492  0.142779  0.142779  1
  Os  Os23  1  0.140329  0.140329  0.140329  1
