# generated using pymatgen
data_La3LuMg2Ir3
_symmetry_space_group_name_H-M   'P 1'
_cell_length_a   7.61286100
_cell_length_b   7.63551589
_cell_length_c   4.21799900
_cell_angle_alpha   90.00000000
_cell_angle_beta   90.00000000
_cell_angle_gamma   119.90189518
_symmetry_Int_Tables_number   1
_chemical_formula_structural   La3LuMg2Ir3
_chemical_formula_sum   'La3 Lu1 Mg2 Ir3'
_cell_volume   212.54547898
_cell_formula_units_Z   1
loop_
 _symmetry_equiv_pos_site_id
 _symmetry_equiv_pos_as_xyz
  1  'x, y, z'
loop_
 _atom_site_type_symbol
 _atom_site_label
 _atom_site_symmetry_multiplicity
 _atom_site_fract_x
 _atom_site_fract_y
 _atom_site_fract_z
 _atom_site_occupancy
  La  La0  1  0.398001  0.000000  0.500001  1
  La  La1  1  0.016016  0.433257  0.500001  1
  La  La2  1  0.582759  0.566744  0.500001  1
  Lu  Lu3  1  0.756412  0.000000  0.000000  1
  Mg  Mg4  1  0.238464  0.241410  0.000000  1
  Mg  Mg5  1  0.997054  0.758590  0.000000  1
  Ir  Ir6  1  0.671815  0.327437  0.000000  1
  Ir  Ir7  1  0.344378  0.672563  0.000000  1
  Ir  Ir8  1  0.995100  0.000000  0.500001  1
