# generated using pymatgen
data_Tm4Al17GaIr6
_symmetry_space_group_name_H-M   'P 1'
_cell_length_a   7.52312254
_cell_length_b   7.52312191
_cell_length_c   9.44872000
_cell_angle_alpha   90.00000000
_cell_angle_beta   90.00000000
_cell_angle_gamma   119.45279814
_symmetry_Int_Tables_number   1
_chemical_formula_structural   Tm4Al17GaIr6
_chemical_formula_sum   'Tm4 Al17 Ga1 Ir6'
_cell_volume   465.65923542
_cell_formula_units_Z   1
loop_
 _symmetry_equiv_pos_site_id
 _symmetry_equiv_pos_as_xyz
  1  'x, y, z'
loop_
 _atom_site_type_symbol
 _atom_site_label
 _atom_site_symmetry_multiplicity
 _atom_site_fract_x
 _atom_site_fract_y
 _atom_site_fract_z
 _atom_site_occupancy
  Tm  Tm0  1  0.993852  0.674929  0.250000  1
  Tm  Tm1  1  0.005213  0.327848  0.750000  1
  Tm  Tm2  1  0.674929  0.993852  0.250000  1
  Tm  Tm3  1  0.327848  0.005213  0.750000  1
  Al  Al4  1  0.869792  0.869792  0.750000  1
  Al  Al5  1  0.000740  0.335304  0.073466  1
  Al  Al6  1  0.998926  0.664224  0.925540  1
  Al  Al7  1  0.998926  0.664224  0.574460  1
  Al  Al8  1  0.335304  0.000740  0.426534  1
  Al  Al9  1  0.000740  0.335304  0.426534  1
  Al  Al10  1  0.664224  0.998926  0.574460  1
  Al  Al11  1  0.664224  0.998926  0.925540  1
  Al  Al12  1  0.335304  0.000740  0.073466  1
  Al  Al13  1  0.333221  0.333221  0.555113  1
  Al  Al14  1  0.666100  0.666100  0.447846  1
  Al  Al15  1  0.666100  0.666100  0.052154  1
  Al  Al16  1  0.333221  0.333221  0.944887  1
  Al  Al17  1  0.338429  0.550065  0.250000  1
  Al  Al18  1  0.660837  0.450741  0.750000  1
  Al  Al19  1  0.550065  0.338429  0.250000  1
  Al  Al20  1  0.450741  0.660837  0.750000  1
  Ga  Ga21  1  0.134578  0.134578  0.250000  1
  Ir  Ir22  1  0.671423  0.327276  0.000125  1
  Ir  Ir23  1  0.327276  0.671423  0.000125  1
  Ir  Ir24  1  0.327276  0.671423  0.499875  1
  Ir  Ir25  1  0.671423  0.327276  0.499875  1
  Ir  Ir26  1  0.999645  0.999645  0.997594  1
  Ir  Ir27  1  0.999645  0.999645  0.502406  1
