# generated using pymatgen
data_Ca(NbIr)2
_symmetry_space_group_name_H-M   'P 1'
_cell_length_a   6.11913239
_cell_length_b   6.11913209
_cell_length_c   6.11913238
_cell_angle_alpha   136.96805015
_cell_angle_beta   136.96803032
_cell_angle_gamma   62.48721764
_symmetry_Int_Tables_number   1
_chemical_formula_structural   Ca(NbIr)2
_chemical_formula_sum   'Ca1 Nb2 Ir2'
_cell_volume   105.40127419
_cell_formula_units_Z   1
loop_
 _symmetry_equiv_pos_site_id
 _symmetry_equiv_pos_as_xyz
  1  'x, y, z'
loop_
 _atom_site_type_symbol
 _atom_site_label
 _atom_site_symmetry_multiplicity
 _atom_site_fract_x
 _atom_site_fract_y
 _atom_site_fract_z
 _atom_site_occupancy
  Ca  Ca0  1  0.000000  0.000000  0.000000  1
  Nb  Nb1  1  0.250000  0.750000  0.500000  1
  Nb  Nb2  1  0.750000  0.250000  0.500000  1
  Ir  Ir3  1  0.625134  0.625134  0.000000  1
  Ir  Ir4  1  0.374866  0.374866  0.000000  1
