# generated using pymatgen
data_U5SO12
_symmetry_space_group_name_H-M   'P 1'
_cell_length_a   4.15050900
_cell_length_b   7.14089300
_cell_length_c   19.51442300
_cell_angle_alpha   90.00000000
_cell_angle_beta   90.00000000
_cell_angle_gamma   90.00000000
_symmetry_Int_Tables_number   1
_chemical_formula_structural   U5SO12
_chemical_formula_sum   'U10 S2 O24'
_cell_volume   578.37511675
_cell_formula_units_Z   2
loop_
 _symmetry_equiv_pos_site_id
 _symmetry_equiv_pos_as_xyz
  1  'x, y, z'
loop_
 _atom_site_type_symbol
 _atom_site_label
 _atom_site_symmetry_multiplicity
 _atom_site_fract_x
 _atom_site_fract_y
 _atom_site_fract_z
 _atom_site_occupancy
  U  U0  1  0.000000  0.207978  0.856832  1
  U  U1  1  0.000000  0.792022  0.143168  1
  U  U2  1  0.000000  0.207978  0.643168  1
  U  U3  1  0.000000  0.792022  0.356832  1
  U  U4  1  0.000000  0.320402  0.433420  1
  U  U5  1  0.000000  0.679598  0.566580  1
  U  U6  1  0.000000  0.320402  0.066580  1
  U  U7  1  0.000000  0.679598  0.933420  1
  U  U8  1  0.000000  0.260151  0.250000  1
  U  U9  1  0.000000  0.739849  0.750000  1
  S  S10  1  0.000000  0.000000  0.500000  1
  S  S11  1  0.000000  0.000000  0.000000  1
  O  O12  1  0.000000  0.620661  0.047977  1
  O  O13  1  0.000000  0.379339  0.952023  1
  O  O14  1  0.000000  0.620661  0.452023  1
  O  O15  1  0.000000  0.379339  0.547977  1
  O  O16  1  0.000000  0.109747  0.149621  1
  O  O17  1  0.000000  0.890253  0.850379  1
  O  O18  1  0.000000  0.109747  0.350379  1
  O  O19  1  0.000000  0.890253  0.649621  1
  O  O20  1  0.500000  0.210097  0.857773  1
  O  O21  1  0.500000  0.789903  0.142227  1
  O  O22  1  0.500000  0.210097  0.642227  1
  O  O23  1  0.500000  0.789903  0.357773  1
  O  O24  1  0.500000  0.251900  0.250000  1
  O  O25  1  0.500000  0.748100  0.750000  1
  O  O26  1  0.000000  0.849754  0.250000  1
  O  O27  1  0.000000  0.150246  0.750000  1
  O  O28  1  0.500000  0.322916  0.432716  1
  O  O29  1  0.500000  0.677084  0.567284  1
  O  O30  1  0.500000  0.322916  0.067284  1
  O  O31  1  0.500000  0.677084  0.932716  1
  O  O32  1  0.000000  0.478355  0.170210  1
  O  O33  1  0.000000  0.521645  0.829790  1
  O  O34  1  0.000000  0.478355  0.329790  1
  O  O35  1  0.000000  0.521645  0.670210  1
