# generated using pymatgen
data_Y6CrB14W
_symmetry_space_group_name_H-M   'P 1'
_cell_length_a   8.14567005
_cell_length_b   8.14566863
_cell_length_c   9.44079200
_cell_angle_alpha   90.00000000
_cell_angle_beta   90.00000000
_cell_angle_gamma   155.51832946
_symmetry_Int_Tables_number   1
_chemical_formula_structural   Y6CrB14W
_chemical_formula_sum   'Y6 Cr1 B14 W1'
_cell_volume   259.58760254
_cell_formula_units_Z   1
loop_
 _symmetry_equiv_pos_site_id
 _symmetry_equiv_pos_as_xyz
  1  'x, y, z'
loop_
 _atom_site_type_symbol
 _atom_site_label
 _atom_site_symmetry_multiplicity
 _atom_site_fract_x
 _atom_site_fract_y
 _atom_site_fract_z
 _atom_site_occupancy
  Y  Y0  1  0.894543  0.105457  0.936037  1
  Y  Y1  1  0.106614  0.893386  0.056317  1
  Y  Y2  1  0.754619  0.245381  0.250000  1
  Y  Y3  1  0.241344  0.758656  0.750000  1
  Y  Y4  1  0.894543  0.105457  0.563963  1
  Y  Y5  1  0.106614  0.893386  0.443683  1
  Cr  Cr6  1  0.053254  0.946746  0.750000  1
  B  B7  1  0.544713  0.455287  0.250000  1
  B  B8  1  0.460733  0.539267  0.750000  1
  B  B9  1  0.521959  0.478041  0.902357  1
  B  B10  1  0.480559  0.519441  0.090749  1
  B  B11  1  0.480559  0.519441  0.409251  1
  B  B12  1  0.521959  0.478041  0.597643  1
  B  B13  1  0.630983  0.369017  0.847801  1
  B  B14  1  0.365117  0.634883  0.146207  1
  B  B15  1  0.727086  0.272914  0.966181  1
  B  B16  1  0.272324  0.727676  0.031613  1
  B  B17  1  0.272324  0.727676  0.468387  1
  B  B18  1  0.727086  0.272914  0.533819  1
  B  B19  1  0.630983  0.369017  0.652199  1
  B  B20  1  0.365117  0.634883  0.353793  1
  W  W21  1  0.946968  0.053032  0.250000  1
