# generated using pymatgen
data_TiReIrRh5
_symmetry_space_group_name_H-M   'P 1'
_cell_length_a   5.49848700
_cell_length_b   5.50891662
_cell_length_c   4.41006100
_cell_angle_alpha   90.00000000
_cell_angle_beta   90.00000000
_cell_angle_gamma   119.93738636
_symmetry_Int_Tables_number   1
_chemical_formula_structural   TiReIrRh5
_chemical_formula_sum   'Ti1 Re1 Ir1 Rh5'
_cell_volume   115.75994096
_cell_formula_units_Z   1
loop_
 _symmetry_equiv_pos_site_id
 _symmetry_equiv_pos_as_xyz
  1  'x, y, z'
loop_
 _atom_site_type_symbol
 _atom_site_label
 _atom_site_symmetry_multiplicity
 _atom_site_fract_x
 _atom_site_fract_y
 _atom_site_fract_z
 _atom_site_occupancy
  Ti  Ti0  1  0.331956  0.663912  0.250000  1
  Re  Re1  1  0.667739  0.335476  0.750000  1
  Ir  Ir2  1  0.831259  0.662519  0.250000  1
  Rh  Rh3  1  0.166208  0.836164  0.750000  1
  Rh  Rh4  1  0.669958  0.836164  0.750000  1
  Rh  Rh5  1  0.336711  0.166882  0.250000  1
  Rh  Rh6  1  0.830170  0.166882  0.250000  1
  Rh  Rh7  1  0.166000  0.332000  0.750000  1
