# generated using pymatgen
data_Dy12Si8Ir5Rh7
_symmetry_space_group_name_H-M   'P 1'
_cell_length_a   5.53752240
_cell_length_b   7.54895517
_cell_length_c   14.82381139
_cell_angle_alpha   89.97616622
_cell_angle_beta   89.95671091
_cell_angle_gamma   89.99659092
_symmetry_Int_Tables_number   1
_chemical_formula_structural   Dy12Si8Ir5Rh7
_chemical_formula_sum   'Dy12 Si8 Ir5 Rh7'
_cell_volume   619.67226681
_cell_formula_units_Z   1
loop_
 _symmetry_equiv_pos_site_id
 _symmetry_equiv_pos_as_xyz
  1  'x, y, z'
loop_
 _atom_site_type_symbol
 _atom_site_label
 _atom_site_symmetry_multiplicity
 _atom_site_fract_x
 _atom_site_fract_y
 _atom_site_fract_z
 _atom_site_occupancy
  Dy  Dy0  1  0.896654  0.830083  0.749964  1
  Dy  Dy1  1  0.867264  0.525898  0.391358  1
  Dy  Dy2  1  0.367255  0.974485  0.608983  1
  Dy  Dy3  1  0.132562  0.473322  0.891016  1
  Dy  Dy4  1  0.632985  0.025804  0.108567  1
  Dy  Dy5  1  0.103163  0.169951  0.250002  1
  Dy  Dy6  1  0.132640  0.473939  0.609159  1
  Dy  Dy7  1  0.632525  0.025540  0.391232  1
  Dy  Dy8  1  0.396707  0.669574  0.249825  1
  Dy  Dy9  1  0.367994  0.975498  0.891346  1
  Dy  Dy10  1  0.603020  0.330225  0.750418  1
  Dy  Dy11  1  0.867945  0.525214  0.108654  1
  Si  Si12  1  0.623388  0.625209  0.896396  1
  Si  Si13  1  0.875533  0.124805  0.603333  1
  Si  Si14  1  0.123457  0.875586  0.103544  1
  Si  Si15  1  0.124047  0.875350  0.396454  1
  Si  Si16  1  0.624040  0.624748  0.603558  1
  Si  Si17  1  0.875751  0.123797  0.896488  1
  Si  Si18  1  0.377627  0.374680  0.103529  1
  Si  Si19  1  0.375804  0.375457  0.396533  1
  Ir  Ir20  1  0.599438  0.332879  0.961223  1
  Ir  Ir21  1  0.407953  0.680971  0.750060  1
  Ir  Ir22  1  0.592892  0.319287  0.250326  1
  Ir  Ir23  1  0.907955  0.819283  0.250069  1
  Ir  Ir24  1  0.090785  0.180469  0.749729  1
  Rh  Rh25  1  0.099778  0.167311  0.461948  1
  Rh  Rh26  1  0.099735  0.167575  0.038065  1
  Rh  Rh27  1  0.900939  0.832349  0.961689  1
  Rh  Rh28  1  0.900910  0.832608  0.538232  1
  Rh  Rh29  1  0.599215  0.332818  0.538038  1
  Rh  Rh30  1  0.400305  0.667372  0.462046  1
  Rh  Rh31  1  0.399737  0.667915  0.038216  1
