# generated using pymatgen
data_Mn4GePd8Au3
_symmetry_space_group_name_H-M   'P 1'
_cell_length_a   6.89674071
_cell_length_b   6.89674128
_cell_length_c   6.89674123
_cell_angle_alpha   107.39092761
_cell_angle_beta   107.39092823
_cell_angle_gamma   113.71707918
_symmetry_Int_Tables_number   1
_chemical_formula_structural   Mn4GePd8Au3
_chemical_formula_sum   'Mn4 Ge1 Pd8 Au3'
_cell_volume   251.48005427
_cell_formula_units_Z   1
loop_
 _symmetry_equiv_pos_site_id
 _symmetry_equiv_pos_as_xyz
  1  'x, y, z'
loop_
 _atom_site_type_symbol
 _atom_site_label
 _atom_site_symmetry_multiplicity
 _atom_site_fract_x
 _atom_site_fract_y
 _atom_site_fract_z
 _atom_site_occupancy
  Mn  Mn0  1  0.258469  0.258469  0.516939  1
  Mn  Mn1  1  0.741531  0.741531  0.483061  1
  Mn  Mn2  1  0.258469  0.741531  0.000000  1
  Mn  Mn3  1  0.741531  0.258469  0.000000  1
  Ge  Ge4  1  0.000000  0.000000  0.000000  1
  Pd  Pd5  1  0.482839  0.237385  0.245453  1
  Pd  Pd6  1  0.517161  0.762615  0.754547  1
  Pd  Pd7  1  0.991932  0.237385  0.754547  1
  Pd  Pd8  1  0.237385  0.991932  0.754547  1
  Pd  Pd9  1  0.008068  0.762615  0.245453  1
  Pd  Pd10  1  0.762615  0.008068  0.245453  1
  Pd  Pd11  1  0.237385  0.482839  0.245453  1
  Pd  Pd12  1  0.762615  0.517161  0.754547  1
  Au  Au13  1  0.500000  0.000000  0.500000  1
  Au  Au14  1  0.000000  0.500000  0.500000  1
  Au  Au15  1  0.500000  0.500000  0.000000  1
