# generated using pymatgen
data_Ti18VSi16Ir
_symmetry_space_group_name_H-M   'P 1'
_cell_length_a   6.67006804
_cell_length_b   6.67006777
_cell_length_c   12.12093382
_cell_angle_alpha   89.76673462
_cell_angle_beta   90.23326500
_cell_angle_gamma   89.98821578
_symmetry_Int_Tables_number   1
_chemical_formula_structural   Ti18VSi16Ir
_chemical_formula_sum   'Ti18 V1 Si16 Ir1'
_cell_volume   539.24904060
_cell_formula_units_Z   1
loop_
 _symmetry_equiv_pos_site_id
 _symmetry_equiv_pos_as_xyz
  1  'x, y, z'
loop_
 _atom_site_type_symbol
 _atom_site_label
 _atom_site_symmetry_multiplicity
 _atom_site_fract_x
 _atom_site_fract_y
 _atom_site_fract_z
 _atom_site_occupancy
  Ti  Ti0  1  0.995258  0.145896  0.623150  1
  Ti  Ti1  1  0.353984  0.500585  0.869381  1
  Ti  Ti2  1  0.649435  0.504675  0.371980  1
  Ti  Ti3  1  0.500585  0.353984  0.130619  1
  Ti  Ti4  1  0.504675  0.649435  0.628020  1
  Ti  Ti5  1  0.004218  0.848416  0.121190  1
  Ti  Ti6  1  0.145896  0.995258  0.376850  1
  Ti  Ti7  1  0.848416  0.004218  0.878810  1
  Ti  Ti8  1  0.000368  0.346759  0.220600  1
  Ti  Ti9  1  0.154972  0.502063  0.468980  1
  Ti  Ti10  1  0.839067  0.500738  0.970112  1
  Ti  Ti11  1  0.502063  0.154972  0.531020  1
  Ti  Ti12  1  0.500738  0.839067  0.029888  1
  Ti  Ti13  1  0.998156  0.656546  0.720324  1
  Ti  Ti14  1  0.346759  0.000368  0.779400  1
  Ti  Ti15  1  0.656546  0.998156  0.279676  1
  Ti  Ti16  1  0.327140  0.671727  0.248045  1
  Ti  Ti17  1  0.671727  0.327140  0.751955  1
  V  V18  1  0.828268  0.828268  0.500000  1
  Si  Si19  1  0.047144  0.299925  0.816133  1
  Si  Si20  1  0.199892  0.541354  0.061795  1
  Si  Si21  1  0.802238  0.457582  0.564376  1
  Si  Si22  1  0.541354  0.199892  0.938205  1
  Si  Si23  1  0.457582  0.802238  0.435624  1
  Si  Si24  1  0.953701  0.699861  0.315899  1
  Si  Si25  1  0.299925  0.047144  0.183867  1
  Si  Si26  1  0.699861  0.953701  0.684101  1
  Si  Si27  1  0.294598  0.356365  0.673104  1
  Si  Si28  1  0.139725  0.792054  0.921652  1
  Si  Si29  1  0.856768  0.203633  0.424192  1
  Si  Si30  1  0.792054  0.139725  0.078348  1
  Si  Si31  1  0.203633  0.856768  0.575808  1
  Si  Si32  1  0.705790  0.645336  0.174326  1
  Si  Si33  1  0.356365  0.294598  0.326896  1
  Si  Si34  1  0.645336  0.705790  0.825674  1
  Ir  Ir35  1  0.175764  0.175764  0.000000  1
