# generated using pymatgen
data_Th5Fe19
_symmetry_space_group_name_H-M   'P 1'
_cell_length_a   5.12090706
_cell_length_b   5.12090637
_cell_length_c   16.70020049
_cell_angle_alpha   81.18069505
_cell_angle_beta   81.18069434
_cell_angle_gamma   60.00000382
_symmetry_Int_Tables_number   1
_chemical_formula_structural   Th5Fe19
_chemical_formula_sum   'Th5 Fe19'
_cell_volume   373.27701700
_cell_formula_units_Z   1
loop_
 _symmetry_equiv_pos_site_id
 _symmetry_equiv_pos_as_xyz
  1  'x, y, z'
loop_
 _atom_site_type_symbol
 _atom_site_label
 _atom_site_symmetry_multiplicity
 _atom_site_fract_x
 _atom_site_fract_y
 _atom_site_fract_z
 _atom_site_occupancy
  Th  Th0  1  0.000000  0.000000  0.000000  1
  Th  Th1  1  0.078806  0.078806  0.763580  1
  Th  Th2  1  0.921194  0.921194  0.236420  1
  Th  Th3  1  0.152493  0.152493  0.542521  1
  Th  Th4  1  0.847507  0.847507  0.457479  1
  Fe  Fe5  1  0.500000  0.500000  0.500000  1
  Fe  Fe6  1  0.250871  0.250871  0.247387  1
  Fe  Fe7  1  0.749129  0.749129  0.752613  1
  Fe  Fe8  1  0.333324  0.333324  0.000029  1
  Fe  Fe9  1  0.666676  0.666676  0.999971  1
  Fe  Fe10  1  0.415322  0.415322  0.754033  1
  Fe  Fe11  1  0.584678  0.584678  0.245967  1
  Fe  Fe12  1  0.123988  0.622972  0.630068  1
  Fe  Fe13  1  0.622972  0.622972  0.630068  1
  Fe  Fe14  1  0.622972  0.123988  0.630068  1
  Fe  Fe15  1  0.876012  0.377028  0.369932  1
  Fe  Fe16  1  0.377028  0.377028  0.369932  1
  Fe  Fe17  1  0.377028  0.876012  0.369932  1
  Fe  Fe18  1  0.040699  0.540997  0.877308  1
  Fe  Fe19  1  0.540997  0.540997  0.877308  1
  Fe  Fe20  1  0.540997  0.040699  0.877308  1
  Fe  Fe21  1  0.959301  0.459003  0.122692  1
  Fe  Fe22  1  0.459003  0.459003  0.122692  1
  Fe  Fe23  1  0.459003  0.959301  0.122692  1
