# generated using pymatgen
data_La12AlTcI17
_symmetry_space_group_name_H-M   'P 1'
_cell_length_a   10.18288113
_cell_length_b   12.21413740
_cell_length_c   12.15006740
_cell_angle_alpha   93.86266549
_cell_angle_beta   104.71892228
_cell_angle_gamma   114.84565461
_symmetry_Int_Tables_number   1
_chemical_formula_structural   La12AlTcI17
_chemical_formula_sum   'La12 Al1 Tc1 I17'
_cell_volume   1299.93297525
_cell_formula_units_Z   1
loop_
 _symmetry_equiv_pos_site_id
 _symmetry_equiv_pos_as_xyz
  1  'x, y, z'
loop_
 _atom_site_type_symbol
 _atom_site_label
 _atom_site_symmetry_multiplicity
 _atom_site_fract_x
 _atom_site_fract_y
 _atom_site_fract_z
 _atom_site_occupancy
  La  La0  1  0.065011  0.524869  0.330132  1
  La  La1  1  0.986049  0.808507  0.577088  1
  La  La2  1  0.627976  0.238091  0.285648  1
  La  La3  1  0.017423  0.187619  0.428952  1
  La  La4  1  0.226993  0.670622  0.995688  1
  La  La5  1  0.268637  0.993930  0.899700  1
  La  La6  1  0.357676  0.760472  0.715783  1
  La  La7  1  0.938465  0.481048  0.674135  1
  La  La8  1  0.724969  0.998072  0.096912  1
  La  La9  1  0.163435  0.287331  0.143797  1
  La  La10  1  0.772703  0.334418  0.996691  1
  La  La11  1  0.848793  0.712149  0.853278  1
  Al  Al12  1  0.894766  0.261981  0.214183  1
  Tc  Tc13  1  0.104189  0.738385  0.786218  1
  I  I14  1  0.780291  0.526510  0.416665  1
  I  I15  1  0.633158  0.419335  0.749863  1
  I  I16  1  0.842250  0.894566  0.323995  1
  I  I17  1  0.324750  0.211944  0.371254  1
  I  I18  1  0.157868  0.103980  0.677852  1
  I  I19  1  0.588481  0.054245  0.839189  1
  I  I20  1  0.751920  0.177616  0.538516  1
  I  I21  1  0.544777  0.696939  0.950943  1
  I  I22  1  0.362764  0.581937  0.245455  1
  I  I23  1  0.218633  0.471912  0.582926  1
  I  I24  1  0.057742  0.367161  0.895400  1
  I  I25  1  0.457548  0.302344  0.046031  1
  I  I26  1  0.998880  0.999784  0.999741  1
  I  I27  1  0.251991  0.826574  0.463348  1
  I  I28  1  0.411614  0.947625  0.162645  1
  I  I29  1  0.675275  0.786624  0.631571  1
  I  I30  1  0.944968  0.633410  0.106403  1
