# generated using pymatgen
data_Pr8SmRh6
_symmetry_space_group_name_H-M   'P 1'
_cell_length_a   7.67061392
_cell_length_b   7.67061428
_cell_length_c   7.67061264
_cell_angle_alpha   71.28672891
_cell_angle_beta   71.28673030
_cell_angle_gamma   71.28672760
_symmetry_Int_Tables_number   1
_chemical_formula_structural   Pr8SmRh6
_chemical_formula_sum   'Pr8 Sm1 Rh6'
_cell_volume   392.74397502
_cell_formula_units_Z   1
loop_
 _symmetry_equiv_pos_site_id
 _symmetry_equiv_pos_as_xyz
  1  'x, y, z'
loop_
 _atom_site_type_symbol
 _atom_site_label
 _atom_site_symmetry_multiplicity
 _atom_site_fract_x
 _atom_site_fract_y
 _atom_site_fract_z
 _atom_site_occupancy
  Pr  Pr0  1  0.336931  0.832792  0.109913  1
  Pr  Pr1  1  0.109913  0.336931  0.832792  1
  Pr  Pr2  1  0.832792  0.109913  0.336931  1
  Pr  Pr3  1  0.167208  0.890087  0.663069  1
  Pr  Pr4  1  0.890087  0.663069  0.167208  1
  Pr  Pr5  1  0.663069  0.167208  0.890087  1
  Pr  Pr6  1  0.298626  0.298626  0.298626  1
  Pr  Pr7  1  0.701374  0.701374  0.701374  1
  Sm  Sm8  1  0.500000  0.500000  0.500000  1
  Rh  Rh9  1  0.457230  0.093354  0.661179  1
  Rh  Rh10  1  0.093354  0.661179  0.457230  1
  Rh  Rh11  1  0.661179  0.457230  0.093354  1
  Rh  Rh12  1  0.542770  0.906646  0.338821  1
  Rh  Rh13  1  0.906646  0.338821  0.542770  1
  Rh  Rh14  1  0.338821  0.542770  0.906646  1
