# generated using pymatgen
data_TbDy7(LuRu2)2
_symmetry_space_group_name_H-M   'P 1'
_cell_length_a   6.32490982
_cell_length_b   7.24648371
_cell_length_c   8.45250782
_cell_angle_alpha   96.73732233
_cell_angle_beta   112.04915023
_cell_angle_gamma   89.94529095
_symmetry_Int_Tables_number   1
_chemical_formula_structural   TbDy7(LuRu2)2
_chemical_formula_sum   'Tb1 Dy7 Lu2 Ru4'
_cell_volume   356.20222008
_cell_formula_units_Z   1
loop_
 _symmetry_equiv_pos_site_id
 _symmetry_equiv_pos_as_xyz
  1  'x, y, z'
loop_
 _atom_site_type_symbol
 _atom_site_label
 _atom_site_symmetry_multiplicity
 _atom_site_fract_x
 _atom_site_fract_y
 _atom_site_fract_z
 _atom_site_occupancy
  Tb  Tb0  1  0.523286  0.083362  0.814169  1
  Dy  Dy1  1  0.476922  0.916517  0.185854  1
  Dy  Dy2  1  0.708496  0.416727  0.186035  1
  Dy  Dy3  1  0.291395  0.583327  0.814111  1
  Dy  Dy4  1  0.297590  0.312491  0.431917  1
  Dy  Dy5  1  0.702368  0.687536  0.567960  1
  Dy  Dy6  1  0.865468  0.187471  0.567795  1
  Dy  Dy7  1  0.134491  0.812432  0.431961  1
  Lu  Lu8  1  0.077827  0.250314  0.000193  1
  Lu  Lu9  1  0.922351  0.749726  0.999945  1
  Ru  Ru10  1  0.319529  0.575855  0.217851  1
  Ru  Ru11  1  0.680530  0.424323  0.782093  1
  Ru  Ru12  1  0.101271  0.924569  0.782030  1
  Ru  Ru13  1  0.898476  0.075351  0.218087  1
