# generated using pymatgen
data_CeCrAs3
_symmetry_space_group_name_H-M   'P 1'
_cell_length_a   5.60493100
_cell_length_b   5.74076400
_cell_length_c   12.26280000
_cell_angle_alpha   90.00000000
_cell_angle_beta   90.00000000
_cell_angle_gamma   90.00000000
_symmetry_Int_Tables_number   1
_chemical_formula_structural   CeCrAs3
_chemical_formula_sum   'Ce4 Cr4 As12'
_cell_volume   394.57504012
_cell_formula_units_Z   4
loop_
 _symmetry_equiv_pos_site_id
 _symmetry_equiv_pos_as_xyz
  1  'x, y, z'
loop_
 _atom_site_type_symbol
 _atom_site_label
 _atom_site_symmetry_multiplicity
 _atom_site_fract_x
 _atom_site_fract_y
 _atom_site_fract_z
 _atom_site_occupancy
  Ce  Ce0  1  0.250000  0.505745  0.308468  1
  Ce  Ce1  1  0.750000  0.494255  0.691532  1
  Ce  Ce2  1  0.250000  0.005745  0.691532  1
  Ce  Ce3  1  0.750000  0.994255  0.308468  1
  Cr  Cr4  1  0.000000  0.750000  0.915564  1
  Cr  Cr5  1  0.000000  0.250000  0.084436  1
  Cr  Cr6  1  0.500000  0.250000  0.084436  1
  Cr  Cr7  1  0.500000  0.750000  0.915564  1
  As  As8  1  0.000000  0.750000  0.501164  1
  As  As9  1  0.000000  0.250000  0.498836  1
  As  As10  1  0.500000  0.250000  0.498836  1
  As  As11  1  0.500000  0.750000  0.501164  1
  As  As12  1  0.250000  0.603152  0.067810  1
  As  As13  1  0.750000  0.396848  0.932190  1
  As  As14  1  0.250000  0.103152  0.932190  1
  As  As15  1  0.750000  0.896848  0.067810  1
  As  As16  1  0.250000  0.012267  0.217721  1
  As  As17  1  0.750000  0.987733  0.782279  1
  As  As18  1  0.250000  0.512267  0.782279  1
  As  As19  1  0.750000  0.487733  0.217721  1
