# generated using pymatgen
data_Rb4AgP2Au
_symmetry_space_group_name_H-M   'P 1'
_cell_length_a   6.52125507
_cell_length_b   6.52125435
_cell_length_c   6.35528320
_cell_angle_alpha   90.40755731
_cell_angle_beta   90.40756670
_cell_angle_gamma   106.31525598
_symmetry_Int_Tables_number   1
_chemical_formula_structural   Rb4AgP2Au
_chemical_formula_sum   'Rb4 Ag1 P2 Au1'
_cell_volume   259.36775460
_cell_formula_units_Z   1
loop_
 _symmetry_equiv_pos_site_id
 _symmetry_equiv_pos_as_xyz
  1  'x, y, z'
loop_
 _atom_site_type_symbol
 _atom_site_label
 _atom_site_symmetry_multiplicity
 _atom_site_fract_x
 _atom_site_fract_y
 _atom_site_fract_z
 _atom_site_occupancy
  Rb  Rb0  1  0.972629  0.315455  0.747718  1
  Rb  Rb1  1  0.315455  0.972629  0.747718  1
  Rb  Rb2  1  0.027371  0.684545  0.252282  1
  Rb  Rb3  1  0.684545  0.027371  0.252282  1
  Ag  Ag4  1  0.500000  0.500000  0.000000  1
  P  P5  1  0.738634  0.738634  0.749322  1
  P  P6  1  0.261366  0.261366  0.250678  1
  Au  Au7  1  0.500000  0.500000  0.500000  1
