# generated using pymatgen
data_Dy4Y(NiTe)2
_symmetry_space_group_name_H-M   'P 1'
_cell_length_a   7.74815316
_cell_length_b   7.74815343
_cell_length_c   14.86942843
_cell_angle_alpha   90.02663595
_cell_angle_beta   89.97336366
_cell_angle_gamma   149.91227818
_symmetry_Int_Tables_number   1
_chemical_formula_structural   Dy4Y(NiTe)2
_chemical_formula_sum   'Dy8 Y2 Ni4 Te4'
_cell_volume   447.51776536
_cell_formula_units_Z   2
loop_
 _symmetry_equiv_pos_site_id
 _symmetry_equiv_pos_as_xyz
  1  'x, y, z'
loop_
 _atom_site_type_symbol
 _atom_site_label
 _atom_site_symmetry_multiplicity
 _atom_site_fract_x
 _atom_site_fract_y
 _atom_site_fract_z
 _atom_site_occupancy
  Dy  Dy0  1  0.959131  0.040869  0.125654  1
  Dy  Dy1  1  0.040869  0.959131  0.874346  1
  Dy  Dy2  1  0.040467  0.959533  0.625138  1
  Dy  Dy3  1  0.959533  0.040467  0.374862  1
  Dy  Dy4  1  0.740511  0.259489  0.628526  1
  Dy  Dy5  1  0.259489  0.740511  0.371474  1
  Dy  Dy6  1  0.605305  0.394695  0.250119  1
  Dy  Dy7  1  0.394695  0.605305  0.749881  1
  Y  Y8  1  0.258042  0.741958  0.126070  1
  Y  Y9  1  0.741958  0.258042  0.873930  1
  Ni  Ni10  1  0.412721  0.587279  0.250360  1
  Ni  Ni11  1  0.587279  0.412721  0.749640  1
  Ni  Ni12  1  0.814463  0.185537  0.250500  1
  Ni  Ni13  1  0.185537  0.814463  0.749500  1
  Te  Te14  1  0.614550  0.385450  0.040481  1
  Te  Te15  1  0.385450  0.614550  0.959519  1
  Te  Te16  1  0.384642  0.615358  0.540544  1
  Te  Te17  1  0.615358  0.384642  0.459456  1
