# generated using pymatgen
data_Lu2Fe9P7Os3
_symmetry_space_group_name_H-M   'P 1'
_cell_length_a   8.96580500
_cell_length_b   8.96580534
_cell_length_c   3.70865500
_cell_angle_alpha   90.00000000
_cell_angle_beta   90.00000000
_cell_angle_gamma   120.00000243
_symmetry_Int_Tables_number   1
_chemical_formula_structural   Lu2Fe9P7Os3
_chemical_formula_sum   'Lu2 Fe9 P7 Os3'
_cell_volume   258.18181545
_cell_formula_units_Z   1
loop_
 _symmetry_equiv_pos_site_id
 _symmetry_equiv_pos_as_xyz
  1  'x, y, z'
loop_
 _atom_site_type_symbol
 _atom_site_label
 _atom_site_symmetry_multiplicity
 _atom_site_fract_x
 _atom_site_fract_y
 _atom_site_fract_z
 _atom_site_occupancy
  Lu  Lu0  1  0.666667  0.333333  0.000000  1
  Lu  Lu1  1  0.000000  0.000000  0.500000  1
  Fe  Fe2  1  0.761337  0.725802  0.000000  1
  Fe  Fe3  1  0.274198  0.035536  0.000000  1
  Fe  Fe4  1  0.964464  0.238663  0.000000  1
  Fe  Fe5  1  0.489966  0.941662  0.000000  1
  Fe  Fe6  1  0.058338  0.548303  0.000000  1
  Fe  Fe7  1  0.451697  0.510034  0.000000  1
  Fe  Fe8  1  0.718886  0.103760  0.500000  1
  Fe  Fe9  1  0.896240  0.615127  0.500000  1
  Fe  Fe10  1  0.384873  0.281114  0.500000  1
  P  P11  1  0.453457  0.078014  0.500000  1
  P  P12  1  0.921986  0.375443  0.500000  1
  P  P13  1  0.624557  0.546543  0.500000  1
  P  P14  1  0.750370  0.970868  0.000000  1
  P  P15  1  0.029132  0.779503  0.000000  1
  P  P16  1  0.220497  0.249630  0.000000  1
  P  P17  1  0.333333  0.666667  0.000000  1
  Os  Os18  1  0.551785  0.763820  0.500000  1
  Os  Os19  1  0.236180  0.787966  0.500000  1
  Os  Os20  1  0.212034  0.448215  0.500000  1
