# generated using pymatgen
data_Er5Tm5Ru4
_symmetry_space_group_name_H-M   'P 1'
_cell_length_a   6.26075289
_cell_length_b   7.25069935
_cell_length_c   8.36774924
_cell_angle_alpha   96.84122285
_cell_angle_beta   112.01020609
_cell_angle_gamma   89.96206858
_symmetry_Int_Tables_number   1
_chemical_formula_structural   Er5Tm5Ru4
_chemical_formula_sum   'Er5 Tm5 Ru4'
_cell_volume   349.26112845
_cell_formula_units_Z   1
loop_
 _symmetry_equiv_pos_site_id
 _symmetry_equiv_pos_as_xyz
  1  'x, y, z'
loop_
 _atom_site_type_symbol
 _atom_site_label
 _atom_site_symmetry_multiplicity
 _atom_site_fract_x
 _atom_site_fract_y
 _atom_site_fract_z
 _atom_site_occupancy
  Er  Er0  1  0.790922  0.083991  0.813332  1
  Er  Er1  1  0.977320  0.415947  0.186491  1
  Er  Er2  1  0.209313  0.915832  0.186638  1
  Er  Er3  1  0.022497  0.584182  0.813477  1
  Er  Er4  1  0.205820  0.184544  0.565265  1
  Tm  Tm5  1  0.640429  0.315657  0.434678  1
  Tm  Tm6  1  0.794074  0.815584  0.434586  1
  Tm  Tm7  1  0.359619  0.684383  0.565219  1
  Tm  Tm8  1  0.418832  0.249851  0.000112  1
  Tm  Tm9  1  0.581285  0.750228  0.000094  1
  Ru  Ru10  1  0.602385  0.424085  0.779869  1
  Ru  Ru11  1  0.822037  0.076382  0.219889  1
  Ru  Ru12  1  0.397878  0.576078  0.220290  1
  Ru  Ru13  1  0.177589  0.923258  0.780060  1
