# generated using pymatgen
data_Dy2Ho7ThRu4
_symmetry_space_group_name_H-M   'P 1'
_cell_length_a   6.35700287
_cell_length_b   7.25518930
_cell_length_c   8.53383482
_cell_angle_alpha   96.35770658
_cell_angle_beta   112.22825345
_cell_angle_gamma   90.64178020
_symmetry_Int_Tables_number   1
_chemical_formula_structural   Dy2Ho7ThRu4
_chemical_formula_sum   'Dy2 Ho7 Th1 Ru4'
_cell_volume   361.49695894
_cell_formula_units_Z   1
loop_
 _symmetry_equiv_pos_site_id
 _symmetry_equiv_pos_as_xyz
  1  'x, y, z'
loop_
 _atom_site_type_symbol
 _atom_site_label
 _atom_site_symmetry_multiplicity
 _atom_site_fract_x
 _atom_site_fract_y
 _atom_site_fract_z
 _atom_site_occupancy
  Dy  Dy0  1  0.790026  0.582749  0.809423  1
  Dy  Dy1  1  0.022358  0.085418  0.812114  1
  Ho  Ho2  1  0.208981  0.415849  0.185429  1
  Ho  Ho3  1  0.639670  0.815649  0.436202  1
  Ho  Ho4  1  0.208722  0.684475  0.568000  1
  Ho  Ho5  1  0.358394  0.187030  0.568280  1
  Ho  Ho6  1  0.792781  0.314247  0.435112  1
  Ho  Ho7  1  0.420197  0.747626  0.997602  1
  Ho  Ho8  1  0.578746  0.250522  0.000053  1
  Th  Th9  1  0.986664  0.907988  0.188151  1
  Ru  Ru10  1  0.829248  0.587472  0.220641  1
  Ru  Ru11  1  0.607188  0.925460  0.782697  1
  Ru  Ru12  1  0.176506  0.424130  0.777232  1
  Ru  Ru13  1  0.380521  0.071383  0.219064  1
