# generated using pymatgen
data_Ce6YTm(AlRu)8
_symmetry_space_group_name_H-M   'P 1'
_cell_length_a   4.01853400
_cell_length_b   7.26442039
_cell_length_c   15.91271802
_cell_angle_alpha   90.06730117
_cell_angle_beta   90.00000000
_cell_angle_gamma   90.00000000
_symmetry_Int_Tables_number   1
_chemical_formula_structural   Ce6YTm(AlRu)8
_chemical_formula_sum   'Ce6 Y1 Tm1 Al8 Ru8'
_cell_volume   464.52884141
_cell_formula_units_Z   1
loop_
 _symmetry_equiv_pos_site_id
 _symmetry_equiv_pos_as_xyz
  1  'x, y, z'
loop_
 _atom_site_type_symbol
 _atom_site_label
 _atom_site_symmetry_multiplicity
 _atom_site_fract_x
 _atom_site_fract_y
 _atom_site_fract_z
 _atom_site_occupancy
  Ce  Ce0  1  0.750000  0.823617  0.438256  1
  Ce  Ce1  1  0.750000  0.455279  0.282532  1
  Ce  Ce2  1  0.750000  0.329753  0.063013  1
  Ce  Ce3  1  0.250000  0.675121  0.938563  1
  Ce  Ce4  1  0.250000  0.048189  0.778823  1
  Ce  Ce5  1  0.250000  0.542249  0.718060  1
  Y  Y6  1  0.750000  0.957697  0.218729  1
  Tm  Tm7  1  0.250000  0.158434  0.559637  1
  Al  Al8  1  0.750000  0.487463  0.562605  1
  Al  Al9  1  0.750000  0.371422  0.850550  1
  Al  Al10  1  0.750000  0.007314  0.936703  1
  Al  Al11  1  0.750000  0.872362  0.647992  1
  Al  Al12  1  0.250000  0.485520  0.438486  1
  Al  Al13  1  0.250000  0.997230  0.066423  1
  Al  Al14  1  0.250000  0.638508  0.153035  1
  Al  Al15  1  0.250000  0.124431  0.345080  1
  Ru  Ru16  1  0.750000  0.752062  0.816094  1
  Ru  Ru17  1  0.250000  0.241088  0.938392  1
  Ru  Ru18  1  0.750000  0.261859  0.427920  1
  Ru  Ru19  1  0.250000  0.751534  0.325131  1
  Ru  Ru20  1  0.750000  0.763130  0.061815  1
  Ru  Ru21  1  0.750000  0.247946  0.688911  1
  Ru  Ru22  1  0.250000  0.274065  0.179000  1
  Ru  Ru23  1  0.250000  0.733724  0.564248  1
