# generated using pymatgen
data_K4Rb8Li3Si16Ag
_symmetry_space_group_name_H-M   'P 1'
_cell_length_a   7.83604908
_cell_length_b   9.93079480
_cell_length_c   12.67309150
_cell_angle_alpha   89.55249268
_cell_angle_beta   89.58997807
_cell_angle_gamma   90.46546872
_symmetry_Int_Tables_number   1
_chemical_formula_structural   K4Rb8Li3Si16Ag
_chemical_formula_sum   'K4 Rb8 Li3 Si16 Ag1'
_cell_volume   986.10878498
_cell_formula_units_Z   1
loop_
 _symmetry_equiv_pos_site_id
 _symmetry_equiv_pos_as_xyz
  1  'x, y, z'
loop_
 _atom_site_type_symbol
 _atom_site_label
 _atom_site_symmetry_multiplicity
 _atom_site_fract_x
 _atom_site_fract_y
 _atom_site_fract_z
 _atom_site_occupancy
  K  K0  1  0.338355  0.562002  0.309457  1
  K  K1  1  0.843959  0.932889  0.189481  1
  K  K2  1  0.657254  0.056861  0.685902  1
  K  K3  1  0.150744  0.435199  0.812245  1
  Rb  Rb4  1  0.654623  0.254527  0.400296  1
  Rb  Rb5  1  0.151507  0.248437  0.105046  1
  Rb  Rb6  1  0.348008  0.751433  0.600298  1
  Rb  Rb7  1  0.851010  0.750086  0.896727  1
  Rb  Rb8  1  0.656089  0.445338  0.700324  1
  Rb  Rb9  1  0.158513  0.050386  0.805158  1
  Rb  Rb10  1  0.351100  0.955291  0.304171  1
  Rb  Rb11  1  0.837412  0.550329  0.195141  1
  Li  Li12  1  0.002942  0.007390  0.499049  1
  Li  Li13  1  0.501399  0.990595  0.999946  1
  Li  Li14  1  0.998839  0.507326  0.501631  1
  Si  Si15  1  0.360639  0.745597  0.902147  1
  Si  Si16  1  0.863025  0.759157  0.594055  1
  Si  Si17  1  0.648100  0.215996  0.099668  1
  Si  Si18  1  0.139921  0.263139  0.407162  1
  Si  Si19  1  0.720310  0.637102  0.452187  1
  Si  Si20  1  0.219722  0.856993  0.048700  1
  Si  Si21  1  0.280670  0.141161  0.549648  1
  Si  Si22  1  0.778628  0.366318  0.969759  1
  Si  Si23  1  0.011728  0.255212  0.584359  1
  Si  Si24  1  0.501707  0.247547  0.931530  1
  Si  Si25  1  0.989674  0.755717  0.416271  1
  Si  Si26  1  0.488048  0.743881  0.082503  1
  Si  Si27  1  0.220072  0.617123  0.050048  1
  Si  Si28  1  0.724877  0.876930  0.447776  1
  Si  Si29  1  0.773038  0.129901  0.934846  1
  Si  Si30  1  0.277080  0.380898  0.553744  1
  Ag  Ag31  1  0.501008  0.509240  0.970723  1
