# generated using pymatgen
data_Tb4BBr5
_symmetry_space_group_name_H-M   'P 1'
_cell_length_a   9.21147941
_cell_length_b   9.21147923
_cell_length_c   8.19428193
_cell_angle_alpha   102.84459875
_cell_angle_beta   102.84459824
_cell_angle_gamma   24.91839025
_symmetry_Int_Tables_number   1
_chemical_formula_structural   Tb4BBr5
_chemical_formula_sum   'Tb4 B1 Br5'
_cell_volume   285.25367426
_cell_formula_units_Z   1
loop_
 _symmetry_equiv_pos_site_id
 _symmetry_equiv_pos_as_xyz
  1  'x, y, z'
loop_
 _atom_site_type_symbol
 _atom_site_label
 _atom_site_symmetry_multiplicity
 _atom_site_fract_x
 _atom_site_fract_y
 _atom_site_fract_z
 _atom_site_occupancy
  Tb  Tb0  1  0.642612  0.642612  0.077278  1
  Tb  Tb1  1  0.999404  0.999404  0.205984  1
  Tb  Tb2  1  0.000596  0.000596  0.794016  1
  Tb  Tb3  1  0.357388  0.357388  0.922723  1
  B  B4  1  0.500000  0.500000  0.000000  1
  Br  Br5  1  0.828600  0.828600  0.164924  1
  Br  Br6  1  0.165409  0.165409  0.340308  1
  Br  Br7  1  0.500000  0.500000  0.500000  1
  Br  Br8  1  0.834590  0.834590  0.659691  1
  Br  Br9  1  0.171400  0.171400  0.835075  1
