# generated using pymatgen
data_Er8Tm2Os3Ru
_symmetry_space_group_name_H-M   'P 1'
_cell_length_a   6.28137536
_cell_length_b   7.30246375
_cell_length_c   8.34027122
_cell_angle_alpha   96.86437001
_cell_angle_beta   112.19815929
_cell_angle_gamma   90.05496861
_symmetry_Int_Tables_number   1
_chemical_formula_structural   Er8Tm2Os3Ru
_chemical_formula_sum   'Er8 Tm2 Os3 Ru1'
_cell_volume   351.22776604
_cell_formula_units_Z   1
loop_
 _symmetry_equiv_pos_site_id
 _symmetry_equiv_pos_as_xyz
  1  'x, y, z'
loop_
 _atom_site_type_symbol
 _atom_site_label
 _atom_site_symmetry_multiplicity
 _atom_site_fract_x
 _atom_site_fract_y
 _atom_site_fract_z
 _atom_site_occupancy
  Er  Er0  1  0.793698  0.083803  0.816957  1
  Er  Er1  1  0.975102  0.416337  0.182892  1
  Er  Er2  1  0.208200  0.916576  0.185492  1
  Er  Er3  1  0.024785  0.584720  0.817294  1
  Er  Er4  1  0.203600  0.183148  0.564732  1
  Er  Er5  1  0.640479  0.317015  0.436022  1
  Er  Er6  1  0.794798  0.816190  0.434571  1
  Er  Er7  1  0.360349  0.682350  0.563625  1
  Tm  Tm8  1  0.420920  0.249871  0.000083  1
  Tm  Tm9  1  0.580048  0.750061  0.000495  1
  Os  Os10  1  0.602817  0.422391  0.781177  1
  Os  Os11  1  0.821377  0.077423  0.218983  1
  Os  Os12  1  0.396932  0.577687  0.218087  1
  Ru  Ru13  1  0.176895  0.922431  0.779591  1
