# generated using pymatgen
data_Ti3BeCo2
_symmetry_space_group_name_H-M   'P 1'
_cell_length_a   7.61194411
_cell_length_b   7.61194462
_cell_length_c   7.61194500
_cell_angle_alpha   60.00000271
_cell_angle_beta   60.00000047
_cell_angle_gamma   60.00000256
_symmetry_Int_Tables_number   1
_chemical_formula_structural   Ti3BeCo2
_chemical_formula_sum   'Ti12 Be4 Co8'
_cell_volume   311.86876001
_cell_formula_units_Z   4
loop_
 _symmetry_equiv_pos_site_id
 _symmetry_equiv_pos_as_xyz
  1  'x, y, z'
loop_
 _atom_site_type_symbol
 _atom_site_label
 _atom_site_symmetry_multiplicity
 _atom_site_fract_x
 _atom_site_fract_y
 _atom_site_fract_z
 _atom_site_occupancy
  Ti  Ti0  1  0.803528  0.803528  0.196472  1
  Ti  Ti1  1  0.196472  0.196472  0.803528  1
  Ti  Ti2  1  0.803528  0.196472  0.803528  1
  Ti  Ti3  1  0.196472  0.803528  0.196472  1
  Ti  Ti4  1  0.196472  0.803528  0.803528  1
  Ti  Ti5  1  0.803528  0.196472  0.196472  1
  Ti  Ti6  1  0.446472  0.446472  0.053528  1
  Ti  Ti7  1  0.053528  0.053528  0.446472  1
  Ti  Ti8  1  0.446472  0.053528  0.446472  1
  Ti  Ti9  1  0.053528  0.446472  0.053528  1
  Ti  Ti10  1  0.053528  0.446472  0.446472  1
  Ti  Ti11  1  0.446472  0.053528  0.053528  1
  Be  Be12  1  0.125000  0.625000  0.625000  1
  Be  Be13  1  0.625000  0.125000  0.625000  1
  Be  Be14  1  0.625000  0.625000  0.125000  1
  Be  Be15  1  0.625000  0.625000  0.625000  1
  Co  Co16  1  0.753630  0.415456  0.415456  1
  Co  Co17  1  0.415456  0.753630  0.415456  1
  Co  Co18  1  0.415456  0.415456  0.753630  1
  Co  Co19  1  0.415456  0.415456  0.415456  1
  Co  Co20  1  0.496370  0.834544  0.834544  1
  Co  Co21  1  0.834544  0.496370  0.834544  1
  Co  Co22  1  0.834544  0.834544  0.496370  1
  Co  Co23  1  0.834544  0.834544  0.834544  1
