# generated using pymatgen
data_RbGaTe3O8
_symmetry_space_group_name_H-M   'P 1'
_cell_length_a   5.57111767
_cell_length_b   7.71577757
_cell_length_c   10.98544623
_cell_angle_alpha   99.68769722
_cell_angle_beta   89.63326098
_cell_angle_gamma   108.40868401
_symmetry_Int_Tables_number   1
_chemical_formula_structural   RbGaTe3O8
_chemical_formula_sum   'Rb2 Ga2 Te6 O16'
_cell_volume   441.10963250
_cell_formula_units_Z   2
loop_
 _symmetry_equiv_pos_site_id
 _symmetry_equiv_pos_as_xyz
  1  'x, y, z'
loop_
 _atom_site_type_symbol
 _atom_site_label
 _atom_site_symmetry_multiplicity
 _atom_site_fract_x
 _atom_site_fract_y
 _atom_site_fract_z
 _atom_site_occupancy
  Rb  Rb0  1  0.831578  0.111741  0.164972  1
  Rb  Rb1  1  0.168422  0.888259  0.835028  1
  Ga  Ga2  1  0.500000  0.500000  0.000000  1
  Ga  Ga3  1  0.000000  0.500000  0.500000  1
  Te  Te4  1  0.221813  0.975101  0.413289  1
  Te  Te5  1  0.778187  0.024899  0.586711  1
  Te  Te6  1  0.050725  0.654159  0.143702  1
  Te  Te7  1  0.949275  0.345841  0.856298  1
  Te  Te8  1  0.522292  0.532710  0.339378  1
  Te  Te9  1  0.477708  0.467290  0.660622  1
  O  O10  1  0.169246  0.721047  0.416382  1
  O  O11  1  0.830754  0.278953  0.583618  1
  O  O12  1  0.232217  0.910992  0.220452  1
  O  O13  1  0.767783  0.089008  0.779548  1
  O  O14  1  0.876751  0.969360  0.394696  1
  O  O15  1  0.123249  0.030640  0.605304  1
  O  O16  1  0.260819  0.654047  0.005446  1
  O  O17  1  0.739181  0.345953  0.994554  1
  O  O18  1  0.794603  0.721411  0.068069  1
  O  O19  1  0.205397  0.278589  0.931931  1
  O  O20  1  0.394267  0.437454  0.172044  1
  O  O21  1  0.605733  0.562546  0.827956  1
  O  O22  1  0.241994  0.377773  0.414864  1
  O  O23  1  0.758006  0.622227  0.585136  1
  O  O24  1  0.744645  0.391777  0.353054  1
  O  O25  1  0.255355  0.608223  0.646946  1
