# generated using pymatgen
data_Mn6Al6IrRu11
_symmetry_space_group_name_H-M   'P 1'
_cell_length_a   4.23612103
_cell_length_b   5.98683001
_cell_length_c   12.68261711
_cell_angle_alpha   89.99323790
_cell_angle_beta   90.01331814
_cell_angle_gamma   90.00099849
_symmetry_Int_Tables_number   1
_chemical_formula_structural   Mn6Al6IrRu11
_chemical_formula_sum   'Mn6 Al6 Ir1 Ru11'
_cell_volume   321.64303619
_cell_formula_units_Z   1
loop_
 _symmetry_equiv_pos_site_id
 _symmetry_equiv_pos_as_xyz
  1  'x, y, z'
loop_
 _atom_site_type_symbol
 _atom_site_label
 _atom_site_symmetry_multiplicity
 _atom_site_fract_x
 _atom_site_fract_y
 _atom_site_fract_z
 _atom_site_occupancy
  Mn  Mn0  1  0.999998  0.996527  0.999999  1
  Mn  Mn1  1  0.499844  0.501758  0.168180  1
  Mn  Mn2  1  0.999839  0.000062  0.333602  1
  Mn  Mn3  1  0.499997  0.499915  0.499998  1
  Mn  Mn4  1  0.000160  0.000050  0.666397  1
  Mn  Mn5  1  0.500151  0.501741  0.831820  1
  Al  Al6  1  0.999998  0.500559  0.999995  1
  Al  Al7  1  0.499893  0.999840  0.167050  1
  Al  Al8  1  0.999877  0.499724  0.333503  1
  Al  Al9  1  0.499997  0.000266  0.499999  1
  Al  Al10  1  0.000121  0.499719  0.666501  1
  Al  Al11  1  0.500100  0.999836  0.832954  1
  Ir  Ir12  1  0.499997  0.251465  0.000001  1
  Ru  Ru13  1  0.499999  0.749194  0.000003  1
  Ru  Ru14  1  0.999920  0.249988  0.166391  1
  Ru  Ru15  1  0.999896  0.749902  0.166693  1
  Ru  Ru16  1  0.499896  0.250384  0.333121  1
  Ru  Ru17  1  0.499908  0.749358  0.333260  1
  Ru  Ru18  1  0.000004  0.249735  0.500014  1
  Ru  Ru19  1  0.999999  0.750336  0.500008  1
  Ru  Ru20  1  0.500089  0.250369  0.666873  1
  Ru  Ru21  1  0.500112  0.749372  0.666744  1
  Ru  Ru22  1  0.000079  0.249968  0.833604  1
  Ru  Ru23  1  0.000113  0.749935  0.833288  1
