# generated using pymatgen
data_Th8VSe17
_symmetry_space_group_name_H-M   'P 1'
_cell_length_a   8.46877083
_cell_length_b   8.46877080
_cell_length_c   11.21259044
_cell_angle_alpha   80.43423322
_cell_angle_beta   80.43423351
_cell_angle_gamma   64.49719598
_symmetry_Int_Tables_number   1
_chemical_formula_structural   Th8VSe17
_chemical_formula_sum   'Th8 V1 Se17'
_cell_volume   711.66402375
_cell_formula_units_Z   1
loop_
 _symmetry_equiv_pos_site_id
 _symmetry_equiv_pos_as_xyz
  1  'x, y, z'
loop_
 _atom_site_type_symbol
 _atom_site_label
 _atom_site_symmetry_multiplicity
 _atom_site_fract_x
 _atom_site_fract_y
 _atom_site_fract_z
 _atom_site_occupancy
  Th  Th0  1  0.815393  0.300727  0.294065  1
  Th  Th1  1  0.300727  0.815393  0.294065  1
  Th  Th2  1  0.184607  0.699273  0.705935  1
  Th  Th3  1  0.699273  0.184607  0.705935  1
  Th  Th4  1  0.203262  0.203262  0.544990  1
  Th  Th5  1  0.796738  0.796738  0.455010  1
  Th  Th6  1  0.683476  0.683476  0.979991  1
  Th  Th7  1  0.316524  0.316524  0.020009  1
  V  V8  1  0.000000  0.000000  0.000000  1
  Se  Se9  1  0.821584  0.432139  0.530670  1
  Se  Se10  1  0.432139  0.821584  0.530670  1
  Se  Se11  1  0.178416  0.567861  0.469330  1
  Se  Se12  1  0.567861  0.178416  0.469330  1
  Se  Se13  1  0.944784  0.323135  0.028270  1
  Se  Se14  1  0.323135  0.944784  0.028270  1
  Se  Se15  1  0.055216  0.676865  0.971730  1
  Se  Se16  1  0.676865  0.055216  0.971730  1
  Se  Se17  1  0.209777  0.209777  0.278720  1
  Se  Se18  1  0.790223  0.790223  0.721280  1
  Se  Se19  1  0.059517  0.059517  0.773261  1
  Se  Se20  1  0.940483  0.940483  0.226739  1
  Se  Se21  1  0.302978  0.302978  0.755052  1
  Se  Se22  1  0.697022  0.697022  0.244948  1
  Se  Se23  1  0.520388  0.520388  0.832741  1
  Se  Se24  1  0.479612  0.479612  0.167259  1
  Se  Se25  1  0.000000  0.000000  0.500000  1
