# generated using pymatgen
data_YbSm3Pd3RuO14
_symmetry_space_group_name_H-M   'P 1'
_cell_length_a   7.28744173
_cell_length_b   7.32991226
_cell_length_c   7.28744260
_cell_angle_alpha   60.48464544
_cell_angle_beta   60.32893995
_cell_angle_gamma   60.48463958
_symmetry_Int_Tables_number   1
_chemical_formula_structural   YbSm3Pd3RuO14
_chemical_formula_sum   'Yb1 Sm3 Pd3 Ru1 O14'
_cell_volume   277.94603590
_cell_formula_units_Z   1
loop_
 _symmetry_equiv_pos_site_id
 _symmetry_equiv_pos_as_xyz
  1  'x, y, z'
loop_
 _atom_site_type_symbol
 _atom_site_label
 _atom_site_symmetry_multiplicity
 _atom_site_fract_x
 _atom_site_fract_y
 _atom_site_fract_z
 _atom_site_occupancy
  Yb  Yb0  1  0.625000  0.625000  0.625000  1
  Sm  Sm1  1  0.125000  0.625000  0.625000  1
  Sm  Sm2  1  0.625000  0.625000  0.125000  1
  Sm  Sm3  1  0.625000  0.125000  0.625000  1
  Pd  Pd4  1  0.125000  0.125000  0.125000  1
  Pd  Pd5  1  0.625000  0.125000  0.125000  1
  Pd  Pd6  1  0.125000  0.125000  0.625000  1
  Ru  Ru7  1  0.125000  0.625000  0.125000  1
  O  O8  1  0.499659  0.501805  0.499659  1
  O  O9  1  0.750341  0.748195  0.750341  1
  O  O10  1  0.040025  0.033494  0.462684  1
  O  O11  1  0.803117  0.792357  0.200958  1
  O  O12  1  0.462386  0.034258  0.462386  1
  O  O13  1  0.462684  0.033494  0.040025  1
  O  O14  1  0.049042  0.457643  0.446883  1
  O  O15  1  0.044546  0.458219  0.044546  1
  O  O16  1  0.446883  0.457643  0.049042  1
  O  O17  1  0.200958  0.792357  0.803117  1
  O  O18  1  0.787316  0.216506  0.209975  1
  O  O19  1  0.209975  0.216506  0.787316  1
  O  O20  1  0.205454  0.791781  0.205454  1
  O  O21  1  0.787614  0.215742  0.787614  1
