# generated using pymatgen
data_LaEr2Pa(ReB6)2
_symmetry_space_group_name_H-M   'P 1'
_cell_length_a   3.73101400
_cell_length_b   9.22259309
_cell_length_c   11.63971546
_cell_angle_alpha   90.29621442
_cell_angle_beta   90.00000000
_cell_angle_gamma   90.00000000
_symmetry_Int_Tables_number   1
_chemical_formula_structural   LaEr2Pa(ReB6)2
_chemical_formula_sum   'La2 Er4 Pa2 Re4 B24'
_cell_volume   400.51287920
_cell_formula_units_Z   2
loop_
 _symmetry_equiv_pos_site_id
 _symmetry_equiv_pos_as_xyz
  1  'x, y, z'
loop_
 _atom_site_type_symbol
 _atom_site_label
 _atom_site_symmetry_multiplicity
 _atom_site_fract_x
 _atom_site_fract_y
 _atom_site_fract_z
 _atom_site_occupancy
  La  La0  1  0.000000  0.823358  0.086201  1
  La  La1  1  0.000000  0.176642  0.913799  1
  Er  Er2  1  0.000000  0.944884  0.374022  1
  Er  Er3  1  0.000000  0.055116  0.625978  1
  Er  Er4  1  0.000000  0.444315  0.128575  1
  Er  Er5  1  0.000000  0.555685  0.871425  1
  Pa  Pa6  1  0.000000  0.321749  0.413832  1
  Pa  Pa7  1  0.000000  0.678251  0.586168  1
  Re  Re8  1  0.000000  0.634279  0.326495  1
  Re  Re9  1  0.000000  0.365721  0.673505  1
  Re  Re10  1  0.000000  0.144228  0.186576  1
  Re  Re11  1  0.000000  0.855772  0.813424  1
  B  B12  1  0.500000  0.553379  0.433587  1
  B  B13  1  0.500000  0.446621  0.566413  1
  B  B14  1  0.500000  0.057551  0.072939  1
  B  B15  1  0.500000  0.942449  0.927061  1
  B  B16  1  0.500000  0.747709  0.420721  1
  B  B17  1  0.500000  0.252291  0.579279  1
  B  B18  1  0.500000  0.250685  0.085504  1
  B  B19  1  0.500000  0.749315  0.914496  1
  B  B20  1  0.500000  0.789326  0.269642  1
  B  B21  1  0.500000  0.210674  0.730358  1
  B  B22  1  0.500000  0.293549  0.236933  1
  B  B23  1  0.500000  0.706451  0.763067  1
  B  B24  1  0.500000  0.628626  0.188886  1
  B  B25  1  0.500000  0.371374  0.811114  1
  B  B26  1  0.500000  0.133678  0.316892  1
  B  B27  1  0.500000  0.866322  0.683108  1
  B  B28  1  0.500000  0.986246  0.216497  1
  B  B29  1  0.500000  0.013754  0.783503  1
  B  B30  1  0.500000  0.482573  0.288914  1
  B  B31  1  0.500000  0.517427  0.711086  1
  B  B32  1  0.500000  0.597387  0.027254  1
  B  B33  1  0.500000  0.402613  0.972746  1
  B  B34  1  0.500000  0.111036  0.470023  1
  B  B35  1  0.500000  0.888964  0.529977  1
