# generated using pymatgen
data_Er3Th5(As3Rh4)4
_symmetry_space_group_name_H-M   'P 1'
_cell_length_a   13.39186900
_cell_length_b   13.39186859
_cell_length_c   4.10182700
_cell_angle_alpha   90.00000000
_cell_angle_beta   90.00000000
_cell_angle_gamma   120.00000347
_symmetry_Int_Tables_number   1
_chemical_formula_structural   Er3Th5(As3Rh4)4
_chemical_formula_sum   'Er3 Th5 As12 Rh16'
_cell_volume   637.07465474
_cell_formula_units_Z   1
loop_
 _symmetry_equiv_pos_site_id
 _symmetry_equiv_pos_as_xyz
  1  'x, y, z'
loop_
 _atom_site_type_symbol
 _atom_site_label
 _atom_site_symmetry_multiplicity
 _atom_site_fract_x
 _atom_site_fract_y
 _atom_site_fract_z
 _atom_site_occupancy
  Er  Er0  1  0.559055  0.559055  0.000000  1
  Er  Er1  1  0.440945  0.000000  0.000000  1
  Er  Er2  1  0.000000  0.440945  0.000000  1
  Th  Th3  1  0.185677  0.185677  0.500000  1
  Th  Th4  1  0.814323  0.000000  0.500000  1
  Th  Th5  1  0.000000  0.814323  0.500000  1
  Th  Th6  1  0.333333  0.666667  0.000000  1
  Th  Th7  1  0.666667  0.333333  0.000000  1
  As  As8  1  0.823676  0.823676  0.000000  1
  As  As9  1  0.176324  0.000000  0.000000  1
  As  As10  1  0.000000  0.176324  0.000000  1
  As  As11  1  0.169001  0.483085  0.500000  1
  As  As12  1  0.516915  0.685917  0.500000  1
  As  As13  1  0.314083  0.830999  0.500000  1
  As  As14  1  0.685917  0.516915  0.500000  1
  As  As15  1  0.830999  0.314083  0.500000  1
  As  As16  1  0.483085  0.169001  0.500000  1
  As  As17  1  0.355039  0.355039  0.000000  1
  As  As18  1  0.644961  0.000000  0.000000  1
  As  As19  1  0.000000  0.644961  0.000000  1
  Rh  Rh20  1  0.720968  0.720968  0.500000  1
  Rh  Rh21  1  0.279032  0.000000  0.500000  1
  Rh  Rh22  1  0.000000  0.279032  0.500000  1
  Rh  Rh23  1  0.177227  0.372831  0.000000  1
  Rh  Rh24  1  0.627169  0.804395  0.000000  1
  Rh  Rh25  1  0.195605  0.822773  0.000000  1
  Rh  Rh26  1  0.804395  0.627169  0.000000  1
  Rh  Rh27  1  0.822773  0.195605  0.000000  1
  Rh  Rh28  1  0.372831  0.177227  0.000000  1
  Rh  Rh29  1  0.352411  0.480998  0.500000  1
  Rh  Rh30  1  0.519002  0.871414  0.500000  1
  Rh  Rh31  1  0.128586  0.647589  0.500000  1
  Rh  Rh32  1  0.871414  0.519002  0.500000  1
  Rh  Rh33  1  0.647589  0.128586  0.500000  1
  Rh  Rh34  1  0.480998  0.352411  0.500000  1
  Rh  Rh35  1  0.000000  0.000000  0.000000  1
