# generated using pymatgen
data_Tm6Al24Fe3Rh5
_symmetry_space_group_name_H-M   'P 1'
_cell_length_a   8.72191100
_cell_length_b   8.72867725
_cell_length_c   9.40855495
_cell_angle_alpha   90.03011196
_cell_angle_beta   90.00000000
_cell_angle_gamma   119.97436453
_symmetry_Int_Tables_number   1
_chemical_formula_structural   Tm6Al24Fe3Rh5
_chemical_formula_sum   'Tm6 Al24 Fe3 Rh5'
_cell_volume   620.47700710
_cell_formula_units_Z   1
loop_
 _symmetry_equiv_pos_site_id
 _symmetry_equiv_pos_as_xyz
  1  'x, y, z'
loop_
 _atom_site_type_symbol
 _atom_site_label
 _atom_site_symmetry_multiplicity
 _atom_site_fract_x
 _atom_site_fract_y
 _atom_site_fract_z
 _atom_site_occupancy
  Tm  Tm0  1  0.804013  0.191886  0.748501  1
  Tm  Tm1  1  0.195987  0.808114  0.251499  1
  Tm  Tm2  1  0.387873  0.191886  0.748501  1
  Tm  Tm3  1  0.612127  0.808114  0.251499  1
  Tm  Tm4  1  0.806324  0.612648  0.747514  1
  Tm  Tm5  1  0.193676  0.387352  0.252486  1
  Al  Al6  1  0.666892  0.333783  0.975085  1
  Al  Al7  1  0.333108  0.666217  0.024915  1
  Al  Al8  1  0.337540  0.675082  0.476707  1
  Al  Al9  1  0.662460  0.324918  0.523293  1
  Al  Al10  1  0.835364  0.156912  0.424181  1
  Al  Al11  1  0.164636  0.843088  0.575819  1
  Al  Al12  1  0.321547  0.156912  0.424181  1
  Al  Al13  1  0.159770  0.839964  0.922763  1
  Al  Al14  1  0.678453  0.843088  0.575819  1
  Al  Al15  1  0.840230  0.160036  0.077237  1
  Al  Al16  1  0.840353  0.680707  0.422975  1
  Al  Al17  1  0.680194  0.839964  0.922763  1
  Al  Al18  1  0.159647  0.319293  0.577025  1
  Al  Al19  1  0.319806  0.160036  0.077237  1
  Al  Al20  1  0.159344  0.318687  0.922761  1
  Al  Al21  1  0.840656  0.681313  0.077239  1
  Al  Al22  1  0.437608  0.561915  0.749992  1
  Al  Al23  1  0.562392  0.438085  0.250008  1
  Al  Al24  1  0.124305  0.561915  0.749992  1
  Al  Al25  1  0.875695  0.438085  0.250008  1
  Al  Al26  1  0.439127  0.878254  0.744291  1
  Al  Al27  1  0.560873  0.121746  0.255709  1
  Al  Al28  1  0.999671  0.999341  0.749729  1
  Al  Al29  1  0.000329  0.000659  0.250271  1
  Fe  Fe30  1  0.500000  0.000000  0.500000  1
  Fe  Fe31  1  0.000000  0.000000  0.000000  1
  Fe  Fe32  1  0.000000  0.000000  0.500000  1
  Rh  Rh33  1  0.500000  0.500000  0.000000  1
  Rh  Rh34  1  0.000000  0.500000  0.000000  1
  Rh  Rh35  1  0.500000  0.500000  0.500000  1
  Rh  Rh36  1  0.500000  0.000000  0.000000  1
  Rh  Rh37  1  0.000000  0.500000  0.500000  1
