# generated using pymatgen
data_Li2Hf6ReOs3
_symmetry_space_group_name_H-M   'P 1'
_cell_length_a   4.61866200
_cell_length_b   6.54804200
_cell_length_c   13.87016200
_cell_angle_alpha   90.00000000
_cell_angle_beta   89.99985123
_cell_angle_gamma   90.00000000
_symmetry_Int_Tables_number   1
_chemical_formula_structural   Li2Hf6ReOs3
_chemical_formula_sum   'Li4 Hf12 Re2 Os6'
_cell_volume   419.47798298
_cell_formula_units_Z   2
loop_
 _symmetry_equiv_pos_site_id
 _symmetry_equiv_pos_as_xyz
  1  'x, y, z'
loop_
 _atom_site_type_symbol
 _atom_site_label
 _atom_site_symmetry_multiplicity
 _atom_site_fract_x
 _atom_site_fract_y
 _atom_site_fract_z
 _atom_site_occupancy
  Li  Li0  1  0.000004  0.500000  0.999407  1
  Li  Li1  1  0.499988  0.000000  0.165961  1
  Li  Li2  1  0.999994  0.500000  0.334038  1
  Li  Li3  1  0.499994  0.000000  0.500592  1
  Hf  Hf4  1  0.500005  0.247742  0.998030  1
  Hf  Hf5  1  0.500005  0.752257  0.998030  1
  Hf  Hf6  1  0.999989  0.249283  0.166770  1
  Hf  Hf7  1  0.999989  0.750717  0.166770  1
  Hf  Hf8  1  0.499996  0.250710  0.333232  1
  Hf  Hf9  1  0.499996  0.749290  0.333232  1
  Hf  Hf10  1  0.999995  0.252255  0.501969  1
  Hf  Hf11  1  0.999995  0.747746  0.501969  1
  Hf  Hf12  1  0.499997  0.250861  0.667931  1
  Hf  Hf13  1  0.499997  0.749139  0.667931  1
  Hf  Hf14  1  0.000009  0.249139  0.832063  1
  Hf  Hf15  1  0.000009  0.750861  0.832063  1
  Re  Re16  1  0.000017  0.500000  0.666023  1
  Re  Re17  1  0.500025  0.000000  0.833989  1
  Os  Os18  1  0.999997  0.000000  0.004449  1
  Os  Os19  1  0.499982  0.500000  0.168815  1
  Os  Os20  1  0.999996  0.000000  0.331189  1
  Os  Os21  1  0.500000  0.500000  0.495548  1
  Os  Os22  1  0.000012  0.000000  0.662892  1
  Os  Os23  1  0.500007  0.500000  0.837107  1
