# generated using pymatgen
data_CaFeSb12Os2Pd
_symmetry_space_group_name_H-M   'P 1'
_cell_length_a   8.13252760
_cell_length_b   8.10552325
_cell_length_c   8.15856184
_cell_angle_alpha   109.52701326
_cell_angle_beta   109.58031935
_cell_angle_gamma   109.42797644
_symmetry_Int_Tables_number   1
_chemical_formula_structural   CaFeSb12Os2Pd
_chemical_formula_sum   'Ca1 Fe1 Sb12 Os2 Pd1'
_cell_volume   413.37481092
_cell_formula_units_Z   1
loop_
 _symmetry_equiv_pos_site_id
 _symmetry_equiv_pos_as_xyz
  1  'x, y, z'
loop_
 _atom_site_type_symbol
 _atom_site_label
 _atom_site_symmetry_multiplicity
 _atom_site_fract_x
 _atom_site_fract_y
 _atom_site_fract_z
 _atom_site_occupancy
  Ca  Ca0  1  0.000000  0.000000  0.000000  1
  Fe  Fe1  1  0.000000  0.000000  0.500000  1
  Sb  Sb2  1  0.328473  0.181275  0.832243  1
  Sb  Sb3  1  0.671527  0.818725  0.167757  1
  Sb  Sb4  1  0.660596  0.503407  0.843249  1
  Sb  Sb5  1  0.339404  0.496593  0.156751  1
  Sb  Sb6  1  0.174187  0.845272  0.340930  1
  Sb  Sb7  1  0.825813  0.154728  0.659070  1
  Sb  Sb8  1  0.502589  0.843205  0.653070  1
  Sb  Sb9  1  0.497411  0.156795  0.346930  1
  Sb  Sb10  1  0.850027  0.347261  0.190040  1
  Sb  Sb11  1  0.149973  0.652739  0.809960  1
  Sb  Sb12  1  0.844832  0.671082  0.505412  1
  Sb  Sb13  1  0.155168  0.328918  0.494588  1
  Os  Os14  1  0.000000  0.500000  0.000000  1
  Os  Os15  1  0.500000  0.500000  0.500000  1
  Pd  Pd16  1  0.500000  0.000000  0.000000  1
