# generated using pymatgen
data_SmTh2(GeRh)3
_symmetry_space_group_name_H-M   'P 1'
_cell_length_a   7.29647630
_cell_length_b   7.32339290
_cell_length_c   3.95711700
_cell_angle_alpha   90.00000000
_cell_angle_beta   90.00000000
_cell_angle_gamma   120.12210983
_symmetry_Int_Tables_number   1
_chemical_formula_structural   SmTh2(GeRh)3
_chemical_formula_sum   'Sm1 Th2 Ge3 Rh3'
_cell_volume   182.89394841
_cell_formula_units_Z   1
loop_
 _symmetry_equiv_pos_site_id
 _symmetry_equiv_pos_as_xyz
  1  'x, y, z'
loop_
 _atom_site_type_symbol
 _atom_site_label
 _atom_site_symmetry_multiplicity
 _atom_site_fract_x
 _atom_site_fract_y
 _atom_site_fract_z
 _atom_site_occupancy
  Sm  Sm0  1  0.000000  0.592208  0.500000  1
  Th  Th1  1  0.412585  0.412242  0.500000  1
  Th  Th2  1  0.587415  0.999656  0.500000  1
  Ge  Ge3  1  0.759478  0.751309  0.000000  1
  Ge  Ge4  1  0.240522  0.991830  0.000000  1
  Ge  Ge5  1  0.000000  0.256346  0.000000  1
  Rh  Rh6  1  0.653965  0.321624  0.000000  1
  Rh  Rh7  1  0.346035  0.667659  0.000000  1
  Rh  Rh8  1  0.000000  0.007126  0.500000  1
