# generated using pymatgen
data_Pr5CrSi2PbS14
_symmetry_space_group_name_H-M   'P 1'
_cell_length_a   10.20322863
_cell_length_b   10.19743985
_cell_length_c   5.78482100
_cell_angle_alpha   89.73514182
_cell_angle_beta   90.15352113
_cell_angle_gamma   120.22464335
_symmetry_Int_Tables_number   1
_chemical_formula_structural   Pr5CrSi2PbS14
_chemical_formula_sum   'Pr5 Cr1 Si2 Pb1 S14'
_cell_volume   520.06436914
_cell_formula_units_Z   1
loop_
 _symmetry_equiv_pos_site_id
 _symmetry_equiv_pos_as_xyz
  1  'x, y, z'
loop_
 _atom_site_type_symbol
 _atom_site_label
 _atom_site_symmetry_multiplicity
 _atom_site_fract_x
 _atom_site_fract_y
 _atom_site_fract_z
 _atom_site_occupancy
  Pr  Pr0  1  0.028661  0.567518  0.746971  1
  Pr  Pr1  1  0.539543  0.970763  0.746143  1
  Pr  Pr2  1  0.899207  0.206644  0.246044  1
  Pr  Pr3  1  0.309427  0.103094  0.242740  1
  Pr  Pr4  1  0.791082  0.689856  0.246773  1
  Cr  Cr5  1  0.667266  0.332683  0.517497  1
  Si  Si6  1  0.332106  0.668654  0.168156  1
  Si  Si7  1  0.999039  0.998708  0.656667  1
  Pb  Pb8  1  0.432888  0.461536  0.746335  1
  S  S9  1  0.329880  0.672250  0.531011  1
  S  S10  1  0.999683  0.999084  0.021517  1
  S  S11  1  0.520527  0.414469  0.286425  1
  S  S12  1  0.900815  0.483027  0.284721  1
  S  S13  1  0.583650  0.099596  0.282481  1
  S  S14  1  0.823179  0.251796  0.740990  1
  S  S15  1  0.432353  0.173521  0.735452  1
  S  S16  1  0.751600  0.568559  0.740567  1
  S  S17  1  0.555555  0.749289  0.036391  1
  S  S18  1  0.184022  0.447547  0.032326  1
  S  S19  1  0.256593  0.813778  0.023016  1
  S  S20  1  0.776678  0.918690  0.519206  1
  S  S21  1  0.141331  0.218609  0.514697  1
  S  S22  1  0.078251  0.856999  0.517145  1
