# generated using pymatgen
data_PrNd(Cd2Pt)2
_symmetry_space_group_name_H-M   'P 1'
_cell_length_a   5.51807955
_cell_length_b   5.51807952
_cell_length_c   8.49580700
_cell_angle_alpha   90.00000000
_cell_angle_beta   90.00000000
_cell_angle_gamma   133.45343891
_symmetry_Int_Tables_number   1
_chemical_formula_structural   PrNd(Cd2Pt)2
_chemical_formula_sum   'Pr1 Nd1 Cd4 Pt2'
_cell_volume   187.79213514
_cell_formula_units_Z   1
loop_
 _symmetry_equiv_pos_site_id
 _symmetry_equiv_pos_as_xyz
  1  'x, y, z'
loop_
 _atom_site_type_symbol
 _atom_site_label
 _atom_site_symmetry_multiplicity
 _atom_site_fract_x
 _atom_site_fract_y
 _atom_site_fract_z
 _atom_site_occupancy
  Pr  Pr0  1  0.932293  0.067707  0.250000  1
  Nd  Nd1  1  0.067707  0.932293  0.750000  1
  Cd  Cd2  1  0.642358  0.357642  0.449646  1
  Cd  Cd3  1  0.357632  0.642368  0.551567  1
  Cd  Cd4  1  0.642358  0.357642  0.050354  1
  Cd  Cd5  1  0.357632  0.642368  0.948433  1
  Pt  Pt6  1  0.226475  0.773525  0.250000  1
  Pt  Pt7  1  0.773545  0.226455  0.750000  1
