# generated using pymatgen
data_Y9Ho(BiPb)3
_symmetry_space_group_name_H-M   'P 1'
_cell_length_a   9.13654400
_cell_length_b   9.13654382
_cell_length_c   6.49773300
_cell_angle_alpha   90.00000000
_cell_angle_beta   90.00000000
_cell_angle_gamma   120.00000065
_symmetry_Int_Tables_number   1
_chemical_formula_structural   Y9Ho(BiPb)3
_chemical_formula_sum   'Y9 Ho1 Bi3 Pb3'
_cell_volume   469.73874388
_cell_formula_units_Z   1
loop_
 _symmetry_equiv_pos_site_id
 _symmetry_equiv_pos_as_xyz
  1  'x, y, z'
loop_
 _atom_site_type_symbol
 _atom_site_label
 _atom_site_symmetry_multiplicity
 _atom_site_fract_x
 _atom_site_fract_y
 _atom_site_fract_z
 _atom_site_occupancy
  Y  Y0  1  0.333333  0.666667  0.002484  1
  Y  Y1  1  0.333333  0.666667  0.497349  1
  Y  Y2  1  0.666667  0.333333  0.497411  1
  Y  Y3  1  0.760999  0.761069  0.750142  1
  Y  Y4  1  0.238931  0.999931  0.750142  1
  Y  Y5  1  0.000069  0.239001  0.750142  1
  Y  Y6  1  0.239518  0.239542  0.249817  1
  Y  Y7  1  0.760458  0.999976  0.249817  1
  Y  Y8  1  0.000024  0.760482  0.249817  1
  Ho  Ho9  1  0.666667  0.333333  0.003043  1
  Bi  Bi10  1  0.393081  0.392650  0.750583  1
  Bi  Bi11  1  0.607350  0.000431  0.750583  1
  Bi  Bi12  1  0.999569  0.606919  0.750583  1
  Pb  Pb13  1  0.607793  0.607271  0.249361  1
  Pb  Pb14  1  0.392729  0.000522  0.249361  1
  Pb  Pb15  1  0.999478  0.392207  0.249361  1
