# generated using pymatgen
data_TbEuCu10
_symmetry_space_group_name_H-M   'P 1'
_cell_length_a   4.12422800
_cell_length_b   5.09185900
_cell_length_c   8.78504800
_cell_angle_alpha   90.00000000
_cell_angle_beta   90.00000000
_cell_angle_gamma   90.00000000
_symmetry_Int_Tables_number   1
_chemical_formula_structural   TbEuCu10
_chemical_formula_sum   'Tb1 Eu1 Cu10'
_cell_volume   184.48589783
_cell_formula_units_Z   1
loop_
 _symmetry_equiv_pos_site_id
 _symmetry_equiv_pos_as_xyz
  1  'x, y, z'
loop_
 _atom_site_type_symbol
 _atom_site_label
 _atom_site_symmetry_multiplicity
 _atom_site_fract_x
 _atom_site_fract_y
 _atom_site_fract_z
 _atom_site_occupancy
  Tb  Tb0  1  0.000000  0.000000  0.500000  1
  Eu  Eu1  1  0.000000  0.500000  0.000000  1
  Cu  Cu2  1  0.000000  0.500000  0.337562  1
  Cu  Cu3  1  0.000000  0.000000  0.828669  1
  Cu  Cu4  1  0.000000  0.000000  0.171331  1
  Cu  Cu5  1  0.000000  0.500000  0.662438  1
  Cu  Cu6  1  0.500000  0.500000  0.500000  1
  Cu  Cu7  1  0.500000  0.000000  0.000000  1
  Cu  Cu8  1  0.500000  0.753964  0.256434  1
  Cu  Cu9  1  0.500000  0.246036  0.743566  1
  Cu  Cu10  1  0.500000  0.246036  0.256434  1
  Cu  Cu11  1  0.500000  0.753964  0.743566  1
