# generated using pymatgen
data_Mn4Si2W6C
_symmetry_space_group_name_H-M   'P 1'
_cell_length_a   7.79725979
_cell_length_b   7.79725987
_cell_length_c   7.79726000
_cell_angle_alpha   59.99999945
_cell_angle_beta   59.99999912
_cell_angle_gamma   59.99999974
_symmetry_Int_Tables_number   1
_chemical_formula_structural   Mn4Si2W6C
_chemical_formula_sum   'Mn8 Si4 W12 C2'
_cell_volume   335.20541515
_cell_formula_units_Z   2
loop_
 _symmetry_equiv_pos_site_id
 _symmetry_equiv_pos_as_xyz
  1  'x, y, z'
loop_
 _atom_site_type_symbol
 _atom_site_label
 _atom_site_symmetry_multiplicity
 _atom_site_fract_x
 _atom_site_fract_y
 _atom_site_fract_z
 _atom_site_occupancy
  Mn  Mn0  1  0.418316  0.418316  0.745051  1
  Mn  Mn1  1  0.418316  0.745051  0.418316  1
  Mn  Mn2  1  0.745051  0.418316  0.418316  1
  Mn  Mn3  1  0.418316  0.418316  0.418316  1
  Mn  Mn4  1  0.831684  0.831684  0.504949  1
  Mn  Mn5  1  0.831684  0.504949  0.831684  1
  Mn  Mn6  1  0.504949  0.831684  0.831684  1
  Mn  Mn7  1  0.831684  0.831684  0.831684  1
  Si  Si8  1  0.625000  0.625000  0.125000  1
  Si  Si9  1  0.625000  0.125000  0.625000  1
  Si  Si10  1  0.125000  0.625000  0.625000  1
  Si  Si11  1  0.625000  0.625000  0.625000  1
  W  W12  1  0.053039  0.053039  0.446961  1
  W  W13  1  0.446961  0.053039  0.446961  1
  W  W14  1  0.053039  0.446961  0.446961  1
  W  W15  1  0.446961  0.446961  0.053039  1
  W  W16  1  0.053039  0.446961  0.053039  1
  W  W17  1  0.446961  0.053039  0.053039  1
  W  W18  1  0.196961  0.196961  0.803039  1
  W  W19  1  0.803039  0.196961  0.803039  1
  W  W20  1  0.196961  0.803039  0.803039  1
  W  W21  1  0.803039  0.803039  0.196961  1
  W  W22  1  0.196961  0.803039  0.196961  1
  W  W23  1  0.803039  0.196961  0.196961  1
  C  C24  1  0.250000  0.250000  0.250000  1
  C  C25  1  0.000000  0.000000  0.000000  1
