# generated using pymatgen
data_DyCr3FeTc8
_symmetry_space_group_name_H-M   'P 1'
_cell_length_a   6.74323607
_cell_length_b   6.74147059
_cell_length_c   6.72743406
_cell_angle_alpha   97.01059539
_cell_angle_beta   97.00024183
_cell_angle_gamma   138.11805077
_symmetry_Int_Tables_number   1
_chemical_formula_structural   DyCr3FeTc8
_chemical_formula_sum   'Dy1 Cr3 Fe1 Tc8'
_cell_volume   191.91257284
_cell_formula_units_Z   1
loop_
 _symmetry_equiv_pos_site_id
 _symmetry_equiv_pos_as_xyz
  1  'x, y, z'
loop_
 _atom_site_type_symbol
 _atom_site_label
 _atom_site_symmetry_multiplicity
 _atom_site_fract_x
 _atom_site_fract_y
 _atom_site_fract_z
 _atom_site_occupancy
  Dy  Dy0  1  0.000000  0.000000  0.000000  1
  Cr  Cr1  1  0.500000  0.000000  0.000000  1
  Cr  Cr2  1  0.500000  0.500000  0.500000  1
  Cr  Cr3  1  0.000000  0.500000  0.000000  1
  Fe  Fe4  1  0.000000  0.000000  0.500000  1
  Tc  Tc5  1  0.999667  0.645691  0.641475  1
  Tc  Tc6  1  0.354334  0.000345  0.358523  1
  Tc  Tc7  1  0.645666  0.999655  0.641477  1
  Tc  Tc8  1  0.000333  0.354309  0.358525  1
  Tc  Tc9  1  0.501807  0.719691  0.219744  1
  Tc  Tc10  1  0.498193  0.280309  0.780256  1
  Tc  Tc11  1  0.719686  0.501785  0.219756  1
  Tc  Tc12  1  0.280314  0.498215  0.780244  1
