# generated using pymatgen
data_LiPr2TaS6
_symmetry_space_group_name_H-M   'P 1'
_cell_length_a   6.43157107
_cell_length_b   7.20975000
_cell_length_c   11.23406375
_cell_angle_alpha   90.00000000
_cell_angle_beta   123.95962523
_cell_angle_gamma   90.00000000
_symmetry_Int_Tables_number   1
_chemical_formula_structural   LiPr2TaS6
_chemical_formula_sum   'Li2 Pr4 Ta2 S12'
_cell_volume   432.07052715
_cell_formula_units_Z   2
loop_
 _symmetry_equiv_pos_site_id
 _symmetry_equiv_pos_as_xyz
  1  'x, y, z'
loop_
 _atom_site_type_symbol
 _atom_site_label
 _atom_site_symmetry_multiplicity
 _atom_site_fract_x
 _atom_site_fract_y
 _atom_site_fract_z
 _atom_site_occupancy
  Li  Li0  1  0.000000  0.500000  0.000000  1
  Li  Li1  1  0.000000  0.000000  0.500000  1
  Pr  Pr2  1  0.210690  0.104192  0.248352  1
  Pr  Pr3  1  0.789309  0.604192  0.251647  1
  Pr  Pr4  1  0.210691  0.395807  0.748353  1
  Pr  Pr5  1  0.789309  0.895808  0.751647  1
  Ta  Ta6  1  0.500000  0.000000  0.000000  1
  Ta  Ta7  1  0.500000  0.500000  0.500000  1
  S  S8  1  0.127426  0.175163  0.944462  1
  S  S9  1  0.277637  0.698772  0.942311  1
  S  S10  1  0.630029  0.970960  0.249400  1
  S  S11  1  0.369970  0.470960  0.250600  1
  S  S12  1  0.722364  0.198773  0.557689  1
  S  S13  1  0.872574  0.675163  0.555538  1
  S  S14  1  0.127427  0.324836  0.444462  1
  S  S15  1  0.277637  0.801227  0.442311  1
  S  S16  1  0.630029  0.529039  0.749400  1
  S  S17  1  0.369970  0.029039  0.750600  1
  S  S18  1  0.722364  0.301227  0.057689  1
  S  S19  1  0.872574  0.824836  0.055538  1
