# generated using pymatgen
data_Zr8Sc(In2Ru)7
_symmetry_space_group_name_H-M   'P 1'
_cell_length_a   9.70471772
_cell_length_b   9.70471772
_cell_length_c   9.70471800
_cell_angle_alpha   59.99999905
_cell_angle_beta   59.99999904
_cell_angle_gamma   60.00000331
_symmetry_Int_Tables_number   1
_chemical_formula_structural   Zr8Sc(In2Ru)7
_chemical_formula_sum   'Zr8 Sc1 In14 Ru7'
_cell_volume   646.29938444
_cell_formula_units_Z   1
loop_
 _symmetry_equiv_pos_site_id
 _symmetry_equiv_pos_as_xyz
  1  'x, y, z'
loop_
 _atom_site_type_symbol
 _atom_site_label
 _atom_site_symmetry_multiplicity
 _atom_site_fract_x
 _atom_site_fract_y
 _atom_site_fract_z
 _atom_site_occupancy
  Zr  Zr0  1  0.121345  0.635967  0.121345  1
  Zr  Zr1  1  0.364033  0.878655  0.878655  1
  Zr  Zr2  1  0.878655  0.878655  0.878655  1
  Zr  Zr3  1  0.635967  0.121345  0.121345  1
  Zr  Zr4  1  0.878655  0.878655  0.364033  1
  Zr  Zr5  1  0.121345  0.121345  0.121345  1
  Zr  Zr6  1  0.878655  0.364033  0.878655  1
  Zr  Zr7  1  0.121345  0.121345  0.635967  1
  Sc  Sc8  1  0.500000  0.500000  0.500000  1
  In  In9  1  0.500000  0.842917  0.157083  1
  In  In10  1  0.500000  0.842917  0.500000  1
  In  In11  1  0.500000  0.157083  0.500000  1
  In  In12  1  0.500000  0.500000  0.842917  1
  In  In13  1  0.157083  0.500000  0.500000  1
  In  In14  1  0.842917  0.157083  0.500000  1
  In  In15  1  0.157083  0.842917  0.500000  1
  In  In16  1  0.500000  0.157083  0.842917  1
  In  In17  1  0.157083  0.500000  0.842917  1
  In  In18  1  0.500000  0.500000  0.157083  1
  In  In19  1  0.842917  0.500000  0.500000  1
  In  In20  1  0.842917  0.500000  0.157083  1
  In  In21  1  0.250000  0.250000  0.250000  1
  In  In22  1  0.750000  0.750000  0.750000  1
  Ru  Ru23  1  0.777279  0.777279  0.222721  1
  Ru  Ru24  1  0.000000  0.000000  0.000000  1
  Ru  Ru25  1  0.222721  0.777279  0.222721  1
  Ru  Ru26  1  0.222721  0.777279  0.777279  1
  Ru  Ru27  1  0.222721  0.222721  0.777279  1
  Ru  Ru28  1  0.777279  0.222721  0.777279  1
  Ru  Ru29  1  0.777279  0.222721  0.222721  1
