# generated using pymatgen
data_KThInCl6
_symmetry_space_group_name_H-M   'P 1'
_cell_length_a   8.03376400
_cell_length_b   7.44526953
_cell_length_c   12.86434300
_cell_angle_alpha   55.18454768
_cell_angle_beta   90.00000000
_cell_angle_gamma   90.00000000
_symmetry_Int_Tables_number   1
_chemical_formula_structural   KThInCl6
_chemical_formula_sum   'K2 Th2 In2 Cl12'
_cell_volume   631.72455115
_cell_formula_units_Z   2
loop_
 _symmetry_equiv_pos_site_id
 _symmetry_equiv_pos_as_xyz
  1  'x, y, z'
loop_
 _atom_site_type_symbol
 _atom_site_label
 _atom_site_symmetry_multiplicity
 _atom_site_fract_x
 _atom_site_fract_y
 _atom_site_fract_z
 _atom_site_occupancy
  K  K0  1  0.410068  0.277713  0.748682  1
  K  K1  1  0.910068  0.722287  0.751318  1
  Th  Th2  1  0.000084  0.998116  0.001607  1
  Th  Th3  1  0.500084  0.001884  0.498393  1
  In  In4  1  0.592921  0.724017  0.254109  1
  In  In5  1  0.092921  0.275983  0.245891  1
  Cl  Cl6  1  0.966600  0.875627  0.243064  1
  Cl  Cl7  1  0.466600  0.124373  0.256936  1
  Cl  Cl8  1  0.027863  0.132632  0.758801  1
  Cl  Cl9  1  0.527863  0.867368  0.741199  1
  Cl  Cl10  1  0.673832  0.646329  0.556351  1
  Cl  Cl11  1  0.173832  0.353671  0.943649  1
  Cl  Cl12  1  0.328592  0.360660  0.438372  1
  Cl  Cl13  1  0.828592  0.639340  0.061628  1
  Cl  Cl14  1  0.712512  0.220960  0.946314  1
  Cl  Cl15  1  0.212512  0.779040  0.553686  1
  Cl  Cl16  1  0.287528  0.775087  0.057274  1
  Cl  Cl17  1  0.787528  0.224913  0.442726  1
