# generated using pymatgen
data_Sc12Hg(PdI8)2
_symmetry_space_group_name_H-M   'P 1'
_cell_length_a   9.55285231
_cell_length_b   11.96758296
_cell_length_c   12.59466900
_cell_angle_alpha   117.01328896
_cell_angle_beta   101.69470139
_cell_angle_gamma   101.14893833
_symmetry_Int_Tables_number   1
_chemical_formula_structural   Sc12Hg(PdI8)2
_chemical_formula_sum   'Sc12 Hg1 Pd2 I16'
_cell_volume   1187.03035839
_cell_formula_units_Z   1
loop_
 _symmetry_equiv_pos_site_id
 _symmetry_equiv_pos_as_xyz
  1  'x, y, z'
loop_
 _atom_site_type_symbol
 _atom_site_label
 _atom_site_symmetry_multiplicity
 _atom_site_fract_x
 _atom_site_fract_y
 _atom_site_fract_z
 _atom_site_occupancy
  Sc  Sc0  1  0.095561  0.267523  0.356819  1
  Sc  Sc1  1  0.904439  0.732477  0.643181  1
  Sc  Sc2  1  0.770619  0.535544  0.327164  1
  Sc  Sc3  1  0.229381  0.464456  0.672836  1
  Sc  Sc4  1  0.285805  0.733237  0.642627  1
  Sc  Sc5  1  0.714195  0.266763  0.357373  1
  Sc  Sc6  1  0.152008  0.535670  0.327538  1
  Sc  Sc7  1  0.847992  0.464330  0.672462  1
  Sc  Sc8  1  0.406956  0.360433  0.276558  1
  Sc  Sc9  1  0.593044  0.639567  0.723442  1
  Sc  Sc10  1  0.459141  0.310613  0.521010  1
  Sc  Sc11  1  0.540859  0.689387  0.478990  1
  Hg  Hg12  1  0.000000  0.500000  0.500000  1
  Pd  Pd13  1  0.349401  0.500137  0.499319  1
  Pd  Pd14  1  0.650600  0.499863  0.500681  1
  I  I15  1  0.397830  0.740396  0.883257  1
  I  I16  1  0.602170  0.259604  0.116743  1
  I  I17  1  0.185296  0.956820  0.778573  1
  I  I18  1  0.814704  0.043180  0.221427  1
  I  I19  1  0.337901  0.094419  0.250577  1
  I  I20  1  0.662099  0.905581  0.749423  1
  I  I21  1  0.556767  0.438407  0.801101  1
  I  I22  1  0.443233  0.561593  0.198899  1
  I  I23  1  0.309407  0.825042  0.461589  1
  I  I24  1  0.690593  0.174958  0.538411  1
  I  I25  1  0.169360  0.173421  0.534410  1
  I  I26  1  0.830640  0.826579  0.465590  1
  I  I27  1  0.926171  0.572573  0.163882  1
  I  I28  1  0.073829  0.427427  0.836118  1
  I  I29  1  0.921189  0.738476  0.883576  1
  I  I30  1  0.078811  0.261524  0.116424  1
