# generated using pymatgen
data_NaLi2(TbPt2)3
_symmetry_space_group_name_H-M   'P 1'
_cell_length_a   5.54758900
_cell_length_b   5.54758838
_cell_length_c   8.16696300
_cell_angle_alpha   90.00000000
_cell_angle_beta   90.00000000
_cell_angle_gamma   120.00000966
_symmetry_Int_Tables_number   1
_chemical_formula_structural   NaLi2(TbPt2)3
_chemical_formula_sum   'Na1 Li2 Tb3 Pt6'
_cell_volume   217.67055555
_cell_formula_units_Z   1
loop_
 _symmetry_equiv_pos_site_id
 _symmetry_equiv_pos_as_xyz
  1  'x, y, z'
loop_
 _atom_site_type_symbol
 _atom_site_label
 _atom_site_symmetry_multiplicity
 _atom_site_fract_x
 _atom_site_fract_y
 _atom_site_fract_z
 _atom_site_occupancy
  Na  Na0  1  0.666667  0.333333  0.949353  1
  Li  Li1  1  0.000000  0.000000  0.998369  1
  Li  Li2  1  0.000000  0.000000  0.493633  1
  Tb  Tb3  1  0.333333  0.666666  0.049044  1
  Tb  Tb4  1  0.333333  0.666666  0.435032  1
  Tb  Tb5  1  0.666667  0.333333  0.583677  1
  Pt  Pt6  1  0.335351  0.167675  0.256411  1
  Pt  Pt7  1  0.832323  0.167675  0.256411  1
  Pt  Pt8  1  0.832326  0.664650  0.256411  1
  Pt  Pt9  1  0.165674  0.331347  0.740554  1
  Pt  Pt10  1  0.165673  0.834327  0.740554  1
  Pt  Pt11  1  0.668653  0.834327  0.740554  1
