# generated using pymatgen
data_Al6Cd4SO16
_symmetry_space_group_name_H-M   'P 1'
_cell_length_a   8.02172393
_cell_length_b   8.02172322
_cell_length_c   8.02172320
_cell_angle_alpha   109.60376821
_cell_angle_beta   109.60376824
_cell_angle_gamma   109.20644593
_symmetry_Int_Tables_number   1
_chemical_formula_structural   Al6Cd4SO16
_chemical_formula_sum   'Al6 Cd4 S1 O16'
_cell_volume   397.35092893
_cell_formula_units_Z   1
loop_
 _symmetry_equiv_pos_site_id
 _symmetry_equiv_pos_as_xyz
  1  'x, y, z'
loop_
 _atom_site_type_symbol
 _atom_site_label
 _atom_site_symmetry_multiplicity
 _atom_site_fract_x
 _atom_site_fract_y
 _atom_site_fract_z
 _atom_site_occupancy
  Al  Al0  1  0.502679  0.749070  0.254381  1
  Al  Al1  1  0.250000  0.750000  0.500000  1
  Al  Al2  1  0.751702  0.497321  0.246391  1
  Al  Al3  1  0.750000  0.250000  0.500000  1
  Al  Al4  1  0.494689  0.248298  0.745619  1
  Al  Al5  1  0.250930  0.505311  0.753609  1
  Cd  Cd6  1  0.424833  0.004405  0.008730  1
  Cd  Cd7  1  0.995595  0.004325  0.420428  1
  Cd  Cd8  1  0.995675  0.416103  0.991270  1
  Cd  Cd9  1  0.583897  0.575167  0.579572  1
  S  S10  1  0.000000  0.000000  0.000000  1
  O  O11  1  0.584925  0.997984  0.292099  1
  O  O12  1  0.294837  0.720184  0.718181  1
  O  O13  1  0.579317  0.284479  0.995781  1
  O  O14  1  0.279816  0.997998  0.574654  1
  O  O15  1  0.002016  0.294115  0.586941  1
  O  O16  1  0.715521  0.711303  0.294840  1
  O  O17  1  0.705885  0.292827  0.707901  1
  O  O18  1  0.002002  0.576655  0.281819  1
  O  O19  1  0.288697  0.583537  0.004219  1
  O  O20  1  0.423345  0.705163  0.425346  1
  O  O21  1  0.707173  0.415075  0.413059  1
  O  O22  1  0.416463  0.420683  0.705160  1
  O  O23  1  0.916988  0.041798  0.140873  1
  O  O24  1  0.958202  0.099075  0.875189  1
  O  O25  1  0.900925  0.776114  0.859127  1
  O  O26  1  0.223886  0.083012  0.124811  1
