# generated using pymatgen
data_NaY(AgO2)4
_symmetry_space_group_name_H-M   'P 1'
_cell_length_a   6.49412067
_cell_length_b   6.49412154
_cell_length_c   6.49412143
_cell_angle_alpha   126.08172035
_cell_angle_beta   126.08173628
_cell_angle_gamma   79.75385120
_symmetry_Int_Tables_number   1
_chemical_formula_structural   NaY(AgO2)4
_chemical_formula_sum   'Na1 Y1 Ag4 O8'
_cell_volume   172.79566772
_cell_formula_units_Z   1
loop_
 _symmetry_equiv_pos_site_id
 _symmetry_equiv_pos_as_xyz
  1  'x, y, z'
loop_
 _atom_site_type_symbol
 _atom_site_label
 _atom_site_symmetry_multiplicity
 _atom_site_fract_x
 _atom_site_fract_y
 _atom_site_fract_z
 _atom_site_occupancy
  Na  Na0  1  0.000000  0.000000  0.000000  1
  Y  Y1  1  0.750000  0.250000  0.500000  1
  Ag  Ag2  1  0.367784  0.124865  0.740455  1
  Ag  Ag3  1  0.384411  0.627330  0.259545  1
  Ag  Ag4  1  0.875135  0.615589  0.242918  1
  Ag  Ag5  1  0.372670  0.632216  0.757082  1
  O  O6  1  0.037386  0.996647  0.639271  1
  O  O7  1  0.601885  0.962614  0.959260  1
  O  O8  1  0.003353  0.642623  0.040740  1
  O  O9  1  0.417799  0.865285  0.170291  1
  O  O10  1  0.752495  0.582201  0.447486  1
  O  O11  1  0.134715  0.305008  0.552514  1
  O  O12  1  0.357377  0.398115  0.360729  1
  O  O13  1  0.694992  0.247505  0.829709  1
