# generated using pymatgen
data_Sc10Si3GeAs2
_symmetry_space_group_name_H-M   'P 1'
_cell_length_a   7.93507700
_cell_length_b   7.92576547
_cell_length_c   5.81439100
_cell_angle_alpha   90.00000000
_cell_angle_beta   90.00000000
_cell_angle_gamma   120.03885857
_symmetry_Int_Tables_number   1
_chemical_formula_structural   Sc10Si3GeAs2
_chemical_formula_sum   'Sc10 Si3 Ge1 As2'
_cell_volume   316.56073102
_cell_formula_units_Z   1
loop_
 _symmetry_equiv_pos_site_id
 _symmetry_equiv_pos_as_xyz
  1  'x, y, z'
loop_
 _atom_site_type_symbol
 _atom_site_label
 _atom_site_symmetry_multiplicity
 _atom_site_fract_x
 _atom_site_fract_y
 _atom_site_fract_z
 _atom_site_occupancy
  Sc  Sc0  1  0.997465  0.754114  0.750000  1
  Sc  Sc1  1  0.996284  0.240994  0.250000  1
  Sc  Sc2  1  0.755289  0.759006  0.250000  1
  Sc  Sc3  1  0.758164  0.000000  0.750000  1
  Sc  Sc4  1  0.243352  0.245886  0.750000  1
  Sc  Sc5  1  0.246168  0.000000  0.250000  1
  Sc  Sc6  1  0.334763  0.666865  0.500735  1
  Sc  Sc7  1  0.667899  0.333135  0.999265  1
  Sc  Sc8  1  0.667899  0.333135  0.500735  1
  Sc  Sc9  1  0.334763  0.666865  0.999265  1
  Si  Si10  1  0.000645  0.392017  0.750000  1
  Si  Si11  1  0.608628  0.607983  0.750000  1
  Si  Si12  1  0.606790  0.000000  0.250000  1
  Ge  Ge13  1  0.390832  0.000000  0.750000  1
  As  As14  1  0.390563  0.390070  0.250000  1
  As  As15  1  0.000493  0.609930  0.250000  1
