# generated using pymatgen
data_Pa3Al2GeIr3
_symmetry_space_group_name_H-M   'P 1'
_cell_length_a   7.11865100
_cell_length_b   7.07468790
_cell_length_c   3.99322200
_cell_angle_alpha   90.00000000
_cell_angle_beta   90.00000000
_cell_angle_gamma   120.20577118
_symmetry_Int_Tables_number   1
_chemical_formula_structural   Pa3Al2GeIr3
_chemical_formula_sum   'Pa3 Al2 Ge1 Ir3'
_cell_volume   173.80202449
_cell_formula_units_Z   1
loop_
 _symmetry_equiv_pos_site_id
 _symmetry_equiv_pos_as_xyz
  1  'x, y, z'
loop_
 _atom_site_type_symbol
 _atom_site_label
 _atom_site_symmetry_multiplicity
 _atom_site_fract_x
 _atom_site_fract_y
 _atom_site_fract_z
 _atom_site_occupancy
  Pa  Pa0  1  0.418179  0.000000  0.500000  1
  Pa  Pa1  1  0.001219  0.417006  0.500000  1
  Pa  Pa2  1  0.584212  0.582994  0.500000  1
  Al  Al3  1  0.003214  0.761505  0.000000  1
  Al  Al4  1  0.241710  0.238495  0.000000  1
  Ge  Ge5  1  0.757240  0.000000  0.000000  1
  Ir  Ir6  1  0.322252  0.659642  0.000000  1
  Ir  Ir7  1  0.662611  0.340358  0.000000  1
  Ir  Ir8  1  0.009361  0.000000  0.500000  1
