# generated using pymatgen
data_Dy3Y9InCo4Ag
_symmetry_space_group_name_H-M   'P 1'
_cell_length_a   8.38124648
_cell_length_b   8.38750929
_cell_length_c   8.38124696
_cell_angle_alpha   111.19409118
_cell_angle_beta   110.52849570
_cell_angle_gamma   106.69719678
_symmetry_Int_Tables_number   1
_chemical_formula_structural   Dy3Y9InCo4Ag
_chemical_formula_sum   'Dy3 Y9 In1 Co4 Ag1'
_cell_volume   452.91515049
_cell_formula_units_Z   1
loop_
 _symmetry_equiv_pos_site_id
 _symmetry_equiv_pos_as_xyz
  1  'x, y, z'
loop_
 _atom_site_type_symbol
 _atom_site_label
 _atom_site_symmetry_multiplicity
 _atom_site_fract_x
 _atom_site_fract_y
 _atom_site_fract_z
 _atom_site_occupancy
  Dy  Dy0  1  0.685115  0.379158  0.694043  1
  Dy  Dy1  1  0.314966  0.008254  0.693288  1
  Dy  Dy2  1  0.685024  0.991135  0.306110  1
  Y  Y3  1  0.427239  0.223242  0.202763  1
  Y  Y4  1  0.573163  0.776363  0.797038  1
  Y  Y5  1  0.020480  0.223242  0.796000  1
  Y  Y6  1  0.979323  0.776363  0.203200  1
  Y  Y7  1  0.187203  0.290804  0.478086  1
  Y  Y8  1  0.813065  0.708984  0.522000  1
  Y  Y9  1  0.186985  0.708984  0.895920  1
  Y  Y10  1  0.812717  0.290804  0.103601  1
  Y  Y11  1  0.314898  0.619374  0.304476  1
  In  In12  1  0.499906  0.500101  0.000195  1
  Co  Co13  1  0.380519  0.001631  0.381088  1
  Co  Co14  1  0.620542  0.001631  0.621111  1
  Co  Co15  1  0.110438  0.611147  0.500708  1
  Co  Co16  1  0.888146  0.387911  0.499765  1
  Ag  Ag17  1  0.000269  0.000875  0.000606  1
