# generated using pymatgen
data_Pr3Th5(Si3Ni)4
_symmetry_space_group_name_H-M   'P 1'
_cell_length_a   8.05913600
_cell_length_b   8.06388754
_cell_length_c   8.32788200
_cell_angle_alpha   90.00000000
_cell_angle_beta   90.00000000
_cell_angle_gamma   119.98051831
_symmetry_Int_Tables_number   1
_chemical_formula_structural   Pr3Th5(Si3Ni)4
_chemical_formula_sum   'Pr3 Th5 Si12 Ni4'
_cell_volume   468.79542508
_cell_formula_units_Z   1
loop_
 _symmetry_equiv_pos_site_id
 _symmetry_equiv_pos_as_xyz
  1  'x, y, z'
loop_
 _atom_site_type_symbol
 _atom_site_label
 _atom_site_symmetry_multiplicity
 _atom_site_fract_x
 _atom_site_fract_y
 _atom_site_fract_z
 _atom_site_occupancy
  Pr  Pr0  1  0.500338  0.000677  0.250000  1
  Pr  Pr1  1  0.000038  0.000076  0.750000  1
  Pr  Pr2  1  0.000076  0.000152  0.250000  1
  Th  Th3  1  0.499540  0.500029  0.750000  1
  Th  Th4  1  0.499873  0.499641  0.250000  1
  Th  Th5  1  0.000490  0.500030  0.750000  1
  Th  Th6  1  0.999768  0.499641  0.250000  1
  Th  Th7  1  0.499742  0.999484  0.750000  1
  Si  Si8  1  0.829452  0.171170  0.999241  1
  Si  Si9  1  0.170576  0.828854  0.999777  1
  Si  Si10  1  0.341716  0.171175  0.999240  1
  Si  Si11  1  0.170576  0.828854  0.500223  1
  Si  Si12  1  0.658279  0.828848  0.999777  1
  Si  Si13  1  0.829452  0.171170  0.500759  1
  Si  Si14  1  0.829767  0.659547  0.999687  1
  Si  Si15  1  0.658279  0.828848  0.500223  1
  Si  Si16  1  0.170237  0.340461  0.000027  1
  Si  Si17  1  0.341716  0.171175  0.500760  1
  Si  Si18  1  0.170237  0.340461  0.499973  1
  Si  Si19  1  0.829767  0.659547  0.500313  1
  Ni  Ni20  1  0.667504  0.335010  0.996133  1
  Ni  Ni21  1  0.332536  0.665071  0.999019  1
  Ni  Ni22  1  0.332536  0.665071  0.500981  1
  Ni  Ni23  1  0.667504  0.335010  0.503867  1
