# generated using pymatgen
data_Hf12Zn9Cu3C4
_symmetry_space_group_name_H-M   'P 1'
_cell_length_a   8.54805630
_cell_length_b   8.54805553
_cell_length_c   8.53363210
_cell_angle_alpha   59.94407019
_cell_angle_beta   59.94407377
_cell_angle_gamma   60.00000003
_symmetry_Int_Tables_number   1
_chemical_formula_structural   Hf12Zn9Cu3C4
_chemical_formula_sum   'Hf12 Zn9 Cu3 C4'
_cell_volume   440.54063919
_cell_formula_units_Z   1
loop_
 _symmetry_equiv_pos_site_id
 _symmetry_equiv_pos_as_xyz
  1  'x, y, z'
loop_
 _atom_site_type_symbol
 _atom_site_label
 _atom_site_symmetry_multiplicity
 _atom_site_fract_x
 _atom_site_fract_y
 _atom_site_fract_z
 _atom_site_occupancy
  Hf  Hf0  1  0.438949  0.438949  0.059661  1
  Hf  Hf1  1  0.062442  0.438949  0.059661  1
  Hf  Hf2  1  0.438949  0.062442  0.059661  1
  Hf  Hf3  1  0.060752  0.060752  0.439315  1
  Hf  Hf4  1  0.439181  0.060752  0.439315  1
  Hf  Hf5  1  0.060752  0.439181  0.439315  1
  Hf  Hf6  1  0.811051  0.811051  0.190339  1
  Hf  Hf7  1  0.187558  0.811051  0.190339  1
  Hf  Hf8  1  0.811051  0.187558  0.190339  1
  Hf  Hf9  1  0.189248  0.189248  0.810685  1
  Hf  Hf10  1  0.810819  0.189248  0.810685  1
  Hf  Hf11  1  0.189248  0.810819  0.810685  1
  Zn  Zn12  1  0.830478  0.830478  0.508565  1
  Zn  Zn13  1  0.832862  0.506934  0.827341  1
  Zn  Zn14  1  0.506934  0.832862  0.827341  1
  Zn  Zn15  1  0.832862  0.832862  0.827341  1
  Zn  Zn16  1  0.419522  0.419522  0.741435  1
  Zn  Zn17  1  0.417138  0.743066  0.422659  1
  Zn  Zn18  1  0.743066  0.417138  0.422659  1
  Zn  Zn19  1  0.417138  0.417138  0.422659  1
  Zn  Zn20  1  0.625000  0.625000  0.125000  1
  Cu  Cu21  1  0.625000  0.125000  0.625000  1
  Cu  Cu22  1  0.125000  0.625000  0.625000  1
  Cu  Cu23  1  0.625000  0.625000  0.625000  1
  C  C24  1  0.125000  0.125000  0.625000  1
  C  C25  1  0.125000  0.625000  0.125000  1
  C  C26  1  0.625000  0.125000  0.125000  1
  C  C27  1  0.125000  0.125000  0.125000  1
