# generated using pymatgen
data_CeDyP7Ru12
_symmetry_space_group_name_H-M   'P 1'
_cell_length_a   9.44813500
_cell_length_b   9.44813481
_cell_length_c   3.94888500
_cell_angle_alpha   90.00000000
_cell_angle_beta   90.00000000
_cell_angle_gamma   119.99999716
_symmetry_Int_Tables_number   1
_chemical_formula_structural   CeDyP7Ru12
_chemical_formula_sum   'Ce1 Dy1 P7 Ru12'
_cell_volume   305.27926120
_cell_formula_units_Z   1
loop_
 _symmetry_equiv_pos_site_id
 _symmetry_equiv_pos_as_xyz
  1  'x, y, z'
loop_
 _atom_site_type_symbol
 _atom_site_label
 _atom_site_symmetry_multiplicity
 _atom_site_fract_x
 _atom_site_fract_y
 _atom_site_fract_z
 _atom_site_occupancy
  Ce  Ce0  1  0.333333  0.666667  0.000000  1
  Dy  Dy1  1  0.666667  0.333333  0.500000  1
  P  P2  1  0.604153  0.717077  0.500000  1
  P  P3  1  0.000000  0.000000  0.000000  1
  P  P4  1  0.282923  0.887076  0.500000  1
  P  P5  1  0.112924  0.395847  0.500000  1
  P  P6  1  0.886376  0.573460  0.000000  1
  P  P7  1  0.426540  0.312915  0.000000  1
  P  P8  1  0.687085  0.113624  0.000000  1
  Ru  Ru9  1  0.556100  0.948282  0.500000  1
  Ru  Ru10  1  0.392183  0.443900  0.500000  1
  Ru  Ru11  1  0.913099  0.120320  0.500000  1
  Ru  Ru12  1  0.207221  0.086901  0.500000  1
  Ru  Ru13  1  0.879680  0.792779  0.500000  1
  Ru  Ru14  1  0.727414  0.891406  0.000000  1
  Ru  Ru15  1  0.108594  0.836008  0.000000  1
  Ru  Ru16  1  0.163992  0.272586  0.000000  1
  Ru  Ru17  1  0.424123  0.068580  0.000000  1
  Ru  Ru18  1  0.931420  0.355544  0.000000  1
  Ru  Ru19  1  0.644456  0.575877  0.000000  1
  Ru  Ru20  1  0.051718  0.607817  0.500000  1
