# generated using pymatgen
data_LiTb6Al17(Tc3Os4)2
_symmetry_space_group_name_H-M   'P 1'
_cell_length_a   8.83348500
_cell_length_b   8.83348526
_cell_length_c   9.59253900
_cell_angle_alpha   90.00000000
_cell_angle_beta   90.00000000
_cell_angle_gamma   119.99999529
_symmetry_Int_Tables_number   1
_chemical_formula_structural   LiTb6Al17(Tc3Os4)2
_chemical_formula_sum   'Li1 Tb6 Al17 Tc6 Os8'
_cell_volume   648.22890159
_cell_formula_units_Z   1
loop_
 _symmetry_equiv_pos_site_id
 _symmetry_equiv_pos_as_xyz
  1  'x, y, z'
loop_
 _atom_site_type_symbol
 _atom_site_label
 _atom_site_symmetry_multiplicity
 _atom_site_fract_x
 _atom_site_fract_y
 _atom_site_fract_z
 _atom_site_occupancy
  Li  Li0  1  0.000000  0.000000  0.250000  1
  Tb  Tb1  1  0.190785  0.381569  0.250000  1
  Tb  Tb2  1  0.803399  0.606797  0.750000  1
  Tb  Tb3  1  0.618431  0.809215  0.250000  1
  Tb  Tb4  1  0.393203  0.196601  0.750000  1
  Tb  Tb5  1  0.190785  0.809215  0.250000  1
  Tb  Tb6  1  0.803399  0.196601  0.750000  1
  Al  Al7  1  0.333333  0.666667  0.009136  1
  Al  Al8  1  0.666667  0.333333  0.991459  1
  Al  Al9  1  0.666667  0.333333  0.508541  1
  Al  Al10  1  0.333333  0.666667  0.490864  1
  Al  Al11  1  0.164384  0.328765  0.577378  1
  Al  Al12  1  0.837091  0.674184  0.421858  1
  Al  Al13  1  0.671235  0.835616  0.577378  1
  Al  Al14  1  0.837091  0.674184  0.078142  1
  Al  Al15  1  0.325816  0.162909  0.421858  1
  Al  Al16  1  0.164384  0.328765  0.922622  1
  Al  Al17  1  0.164384  0.835616  0.577378  1
  Al  Al18  1  0.325816  0.162909  0.078142  1
  Al  Al19  1  0.837091  0.162909  0.421858  1
  Al  Al20  1  0.671235  0.835616  0.922622  1
  Al  Al21  1  0.837091  0.162909  0.078142  1
  Al  Al22  1  0.164384  0.835616  0.922622  1
  Al  Al23  1  0.000000  0.000000  0.750000  1
  Tc  Tc24  1  0.572904  0.145807  0.250000  1
  Tc  Tc25  1  0.427175  0.854350  0.750000  1
  Tc  Tc26  1  0.854193  0.427096  0.250000  1
  Tc  Tc27  1  0.145650  0.572825  0.750000  1
  Tc  Tc28  1  0.572904  0.427096  0.250000  1
  Tc  Tc29  1  0.427175  0.572825  0.750000  1
  Os  Os30  1  0.499775  0.999551  0.000511  1
  Os  Os31  1  0.000449  0.500225  0.000511  1
  Os  Os32  1  0.499775  0.999551  0.499489  1
  Os  Os33  1  0.499775  0.500225  0.000511  1
  Os  Os34  1  0.000449  0.500225  0.499489  1
  Os  Os35  1  0.499775  0.500225  0.499489  1
  Os  Os36  1  0.000000  0.000000  0.996860  1
  Os  Os37  1  0.000000  0.000000  0.503140  1
