# generated using pymatgen
data_Ce12As15Br
_symmetry_space_group_name_H-M   'P 1'
_cell_length_a   8.76928695
_cell_length_b   8.76928695
_cell_length_c   8.76928695
_cell_angle_alpha   89.96228135
_cell_angle_beta   89.96228135
_cell_angle_gamma   89.96228135
_symmetry_Int_Tables_number   1
_chemical_formula_structural   Ce12As15Br
_chemical_formula_sum   'Ce12 As15 Br1'
_cell_volume   674.36117991
_cell_formula_units_Z   1
loop_
 _symmetry_equiv_pos_site_id
 _symmetry_equiv_pos_as_xyz
  1  'x, y, z'
loop_
 _atom_site_type_symbol
 _atom_site_label
 _atom_site_symmetry_multiplicity
 _atom_site_fract_x
 _atom_site_fract_y
 _atom_site_fract_z
 _atom_site_occupancy
  Ce  Ce0  1  0.631112  0.504406  0.248071  1
  Ce  Ce1  1  0.248514  0.375644  0.991414  1
  Ce  Ce2  1  0.991414  0.248514  0.375644  1
  Ce  Ce3  1  0.375644  0.991414  0.248514  1
  Ce  Ce4  1  0.750261  0.124894  0.001056  1
  Ce  Ce5  1  0.124894  0.001056  0.750261  1
  Ce  Ce6  1  0.504406  0.248071  0.631112  1
  Ce  Ce7  1  0.750590  0.873911  0.500431  1
  Ce  Ce8  1  0.500431  0.750590  0.873911  1
  Ce  Ce9  1  0.873911  0.500431  0.750590  1
  Ce  Ce10  1  0.248071  0.631112  0.504406  1
  Ce  Ce11  1  0.001056  0.750261  0.124894  1
  As  As12  1  0.829182  0.170340  0.672812  1
  As  As13  1  0.672812  0.829182  0.170340  1
  As  As14  1  0.170340  0.672812  0.829182  1
  As  As15  1  0.579112  0.421200  0.922338  1
  As  As16  1  0.170827  0.328983  0.670243  1
  As  As17  1  0.922625  0.421262  0.078993  1
  As  As18  1  0.080150  0.080150  0.080150  1
  As  As19  1  0.421262  0.078993  0.922625  1
  As  As20  1  0.078993  0.922625  0.421262  1
  As  As21  1  0.670243  0.170827  0.328983  1
  As  As22  1  0.421200  0.922338  0.579112  1
  As  As23  1  0.577056  0.577056  0.577056  1
  As  As24  1  0.922338  0.579112  0.421200  1
  As  As25  1  0.328983  0.670243  0.170827  1
  As  As26  1  0.829135  0.829135  0.829135  1
  Br  Br27  1  0.325438  0.325438  0.325438  1
