# generated using pymatgen
data_YbTh2(SnRh)3
_symmetry_space_group_name_H-M   'P 1'
_cell_length_a   7.54610790
_cell_length_b   7.54610749
_cell_length_c   4.12668200
_cell_angle_alpha   90.00000000
_cell_angle_beta   90.00000000
_cell_angle_gamma   121.16788351
_symmetry_Int_Tables_number   1
_chemical_formula_structural   YbTh2(SnRh)3
_chemical_formula_sum   'Yb1 Th2 Sn3 Rh3'
_cell_volume   201.06914929
_cell_formula_units_Z   1
loop_
 _symmetry_equiv_pos_site_id
 _symmetry_equiv_pos_as_xyz
  1  'x, y, z'
loop_
 _atom_site_type_symbol
 _atom_site_label
 _atom_site_symmetry_multiplicity
 _atom_site_fract_x
 _atom_site_fract_y
 _atom_site_fract_z
 _atom_site_occupancy
  Yb  Yb0  1  0.408531  0.408531  0.500000  1
  Th  Th1  1  0.585053  0.998003  0.500000  1
  Th  Th2  1  0.998003  0.585053  0.500000  1
  Sn  Sn3  1  0.736096  0.736096  0.000000  1
  Sn  Sn4  1  0.252141  0.013672  0.000000  1
  Sn  Sn5  1  0.013672  0.252141  0.000000  1
  Rh  Rh6  1  0.685637  0.331434  0.000000  1
  Rh  Rh7  1  0.331434  0.685637  0.000000  1
  Rh  Rh8  1  0.989432  0.989432  0.500000  1
