# generated using pymatgen
data_La7PtAu2
_symmetry_space_group_name_H-M   'P 1'
_cell_length_a   10.53041500
_cell_length_b   10.62297224
_cell_length_c   6.57426214
_cell_angle_alpha   90.28263000
_cell_angle_beta   90.00000000
_cell_angle_gamma   119.71219154
_symmetry_Int_Tables_number   1
_chemical_formula_structural   La7PtAu2
_chemical_formula_sum   'La14 Pt2 Au4'
_cell_volume   638.72572005
_cell_formula_units_Z   2
loop_
 _symmetry_equiv_pos_site_id
 _symmetry_equiv_pos_as_xyz
  1  'x, y, z'
loop_
 _atom_site_type_symbol
 _atom_site_label
 _atom_site_symmetry_multiplicity
 _atom_site_fract_x
 _atom_site_fract_y
 _atom_site_fract_z
 _atom_site_occupancy
  La  La0  1  0.333620  0.667240  0.687660  1
  La  La1  1  0.663059  0.326117  0.207509  1
  La  La2  1  0.134604  0.881069  0.502506  1
  La  La3  1  0.746464  0.881069  0.502506  1
  La  La4  1  0.125520  0.251041  0.501187  1
  La  La5  1  0.869460  0.129808  0.014724  1
  La  La6  1  0.260349  0.129808  0.014724  1
  La  La7  1  0.871589  0.743177  0.002384  1
  La  La8  1  0.532910  0.455010  0.703679  1
  La  La9  1  0.922098  0.455010  0.703679  1
  La  La10  1  0.541863  0.083727  0.698738  1
  La  La11  1  0.462614  0.535402  0.210510  1
  La  La12  1  0.072790  0.535402  0.210510  1
  La  La13  1  0.462581  0.925160  0.207268  1
  Pt  Pt14  1  0.812323  0.189701  0.442156  1
  Pt  Pt15  1  0.377379  0.189701  0.442156  1
  Au  Au16  1  0.811662  0.623324  0.440854  1
  Au  Au17  1  0.188883  0.810133  0.941512  1
  Au  Au18  1  0.621249  0.810133  0.941512  1
  Au  Au19  1  0.188982  0.377965  0.940390  1
