# generated using pymatgen
data_Ti11Ga(TcIr)6
_symmetry_space_group_name_H-M   'P 1'
_cell_length_a   4.37884103
_cell_length_b   6.21206304
_cell_length_c   13.14542400
_cell_angle_alpha   90.00010757
_cell_angle_beta   89.99873994
_cell_angle_gamma   89.98686449
_symmetry_Int_Tables_number   1
_chemical_formula_structural   Ti11Ga(TcIr)6
_chemical_formula_sum   'Ti11 Ga1 Tc6 Ir6'
_cell_volume   357.57703606
_cell_formula_units_Z   1
loop_
 _symmetry_equiv_pos_site_id
 _symmetry_equiv_pos_as_xyz
  1  'x, y, z'
loop_
 _atom_site_type_symbol
 _atom_site_label
 _atom_site_symmetry_multiplicity
 _atom_site_fract_x
 _atom_site_fract_y
 _atom_site_fract_z
 _atom_site_occupancy
  Ti  Ti0  1  0.500041  0.748302  0.000000  1
  Ti  Ti1  1  0.000123  0.249529  0.162703  1
  Ti  Ti2  1  0.000064  0.750604  0.165850  1
  Ti  Ti3  1  0.500017  0.252079  0.332488  1
  Ti  Ti4  1  0.500144  0.751309  0.332871  1
  Ti  Ti5  1  0.000029  0.249147  0.500000  1
  Ti  Ti6  1  0.999945  0.749700  0.500000  1
  Ti  Ti7  1  0.499872  0.252079  0.667512  1
  Ti  Ti8  1  0.500003  0.751311  0.667129  1
  Ti  Ti9  1  0.999968  0.249529  0.837296  1
  Ti  Ti10  1  0.999921  0.750604  0.834149  1
  Ga  Ga11  1  0.499926  0.249404  0.000000  1
  Tc  Tc12  1  0.999985  0.993855  0.000001  1
  Tc  Tc13  1  0.500134  0.501460  0.168762  1
  Tc  Tc14  1  0.000088  0.000831  0.333288  1
  Tc  Tc15  1  0.499990  0.498949  0.500000  1
  Tc  Tc16  1  0.999946  0.000833  0.666711  1
  Tc  Tc17  1  0.499981  0.501459  0.831238  1
  Ir  Ir18  1  0.999995  0.500527  0.000000  1
  Ir  Ir19  1  0.500005  0.999151  0.167618  1
  Ir  Ir20  1  0.000049  0.500102  0.333446  1
  Ir  Ir21  1  0.500019  0.999986  0.500000  1
  Ir  Ir22  1  0.999902  0.500101  0.666553  1
  Ir  Ir23  1  0.499850  0.999151  0.832382  1
