# generated using pymatgen
data_La6Al24Os5Rh3
_symmetry_space_group_name_H-M   'P 1'
_cell_length_a   8.94921291
_cell_length_b   8.96336142
_cell_length_c   9.72238054
_cell_angle_alpha   90.05559931
_cell_angle_beta   89.88344785
_cell_angle_gamma   119.38203071
_symmetry_Int_Tables_number   1
_chemical_formula_structural   La6Al24Os5Rh3
_chemical_formula_sum   'La6 Al24 Os5 Rh3'
_cell_volume   679.56176658
_cell_formula_units_Z   1
loop_
 _symmetry_equiv_pos_site_id
 _symmetry_equiv_pos_as_xyz
  1  'x, y, z'
loop_
 _atom_site_type_symbol
 _atom_site_label
 _atom_site_symmetry_multiplicity
 _atom_site_fract_x
 _atom_site_fract_y
 _atom_site_fract_z
 _atom_site_occupancy
  La  La0  1  0.186043  0.379477  0.251133  1
  La  La1  1  0.813957  0.620523  0.748867  1
  La  La2  1  0.617221  0.814859  0.251227  1
  La  La3  1  0.382779  0.185141  0.748773  1
  La  La4  1  0.194713  0.809635  0.250838  1
  La  La5  1  0.805287  0.190365  0.749162  1
  Al  Al6  1  0.333978  0.667861  0.006118  1
  Al  Al7  1  0.666022  0.332139  0.993882  1
  Al  Al8  1  0.668101  0.332754  0.506379  1
  Al  Al9  1  0.331899  0.667246  0.493621  1
  Al  Al10  1  0.160547  0.324463  0.575948  1
  Al  Al11  1  0.839453  0.675537  0.424052  1
  Al  Al12  1  0.674381  0.838462  0.575957  1
  Al  Al13  1  0.837353  0.676013  0.076747  1
  Al  Al14  1  0.325619  0.161538  0.424043  1
  Al  Al15  1  0.162647  0.323987  0.923253  1
  Al  Al16  1  0.162980  0.836027  0.574634  1
  Al  Al17  1  0.325038  0.161263  0.075285  1
  Al  Al18  1  0.837020  0.163973  0.425366  1
  Al  Al19  1  0.674962  0.838737  0.924715  1
  Al  Al20  1  0.835063  0.161437  0.075686  1
  Al  Al21  1  0.164937  0.838563  0.924314  1
  Al  Al22  1  0.562237  0.127657  0.249566  1
  Al  Al23  1  0.437763  0.872343  0.750434  1
  Al  Al24  1  0.874258  0.438796  0.250693  1
  Al  Al25  1  0.125742  0.561204  0.749307  1
  Al  Al26  1  0.562348  0.438179  0.249482  1
  Al  Al27  1  0.437652  0.561821  0.750518  1
  Al  Al28  1  0.999194  0.000044  0.250057  1
  Al  Al29  1  0.000806  0.999956  0.749943  1
  Os  Os30  1  0.500000  0.000000  0.000000  1
  Os  Os31  1  0.500000  0.000000  0.500000  1
  Os  Os32  1  0.000000  0.500000  0.500000  1
  Os  Os33  1  0.000000  0.000000  0.000000  1
  Os  Os34  1  0.000000  0.000000  0.500000  1
  Rh  Rh35  1  0.000000  0.500000  0.000000  1
  Rh  Rh36  1  0.500000  0.500000  0.000000  1
  Rh  Rh37  1  0.500000  0.500000  0.500000  1
