# generated using pymatgen
data_ThHg3(SCl3)2
_symmetry_space_group_name_H-M   'P 1'
_cell_length_a   7.48009800
_cell_length_b   7.20962214
_cell_length_c   13.40580400
_cell_angle_alpha   90.20719793
_cell_angle_beta   90.00000000
_cell_angle_gamma   90.00000000
_symmetry_Int_Tables_number   1
_chemical_formula_structural   ThHg3(SCl3)2
_chemical_formula_sum   'Th2 Hg6 S4 Cl12'
_cell_volume   722.95258903
_cell_formula_units_Z   2
loop_
 _symmetry_equiv_pos_site_id
 _symmetry_equiv_pos_as_xyz
  1  'x, y, z'
loop_
 _atom_site_type_symbol
 _atom_site_label
 _atom_site_symmetry_multiplicity
 _atom_site_fract_x
 _atom_site_fract_y
 _atom_site_fract_z
 _atom_site_occupancy
  Th  Th0  1  0.000000  0.000000  0.000000  1
  Th  Th1  1  0.500000  0.000000  0.500000  1
  Hg  Hg2  1  0.716230  0.492044  0.253894  1
  Hg  Hg3  1  0.283770  0.507956  0.746106  1
  Hg  Hg4  1  0.216230  0.507956  0.246106  1
  Hg  Hg5  1  0.783770  0.492044  0.753894  1
  Hg  Hg6  1  0.000000  0.500000  0.500000  1
  Hg  Hg7  1  0.500000  0.500000  0.000000  1
  S  S8  1  0.966051  0.646872  0.334705  1
  S  S9  1  0.033949  0.353128  0.665295  1
  S  S10  1  0.466051  0.353128  0.165295  1
  S  S11  1  0.533949  0.646872  0.834705  1
  Cl  Cl12  1  0.462730  0.834109  0.321340  1
  Cl  Cl13  1  0.537270  0.165891  0.678660  1
  Cl  Cl14  1  0.962730  0.165891  0.178660  1
  Cl  Cl15  1  0.037270  0.834109  0.821340  1
  Cl  Cl16  1  0.308270  0.853727  0.062913  1
  Cl  Cl17  1  0.691730  0.146273  0.937087  1
  Cl  Cl18  1  0.808270  0.146273  0.437087  1
  Cl  Cl19  1  0.191730  0.853727  0.562913  1
  Cl  Cl20  1  0.840301  0.685401  0.064858  1
  Cl  Cl21  1  0.159699  0.314599  0.935142  1
  Cl  Cl22  1  0.340301  0.314599  0.435142  1
  Cl  Cl23  1  0.659699  0.685401  0.564858  1
