# generated using pymatgen
data_YbDyHo2Ni13C4
_symmetry_space_group_name_H-M   'P 1'
_cell_length_a   8.35793600
_cell_length_b   8.35787016
_cell_length_c   3.84815200
_cell_angle_alpha   90.00000000
_cell_angle_beta   90.00000000
_cell_angle_gamma   91.08580174
_symmetry_Int_Tables_number   1
_chemical_formula_structural   YbDyHo2Ni13C4
_chemical_formula_sum   'Yb1 Dy1 Ho2 Ni13 C4'
_cell_volume   268.76263464
_cell_formula_units_Z   1
loop_
 _symmetry_equiv_pos_site_id
 _symmetry_equiv_pos_as_xyz
  1  'x, y, z'
loop_
 _atom_site_type_symbol
 _atom_site_label
 _atom_site_symmetry_multiplicity
 _atom_site_fract_x
 _atom_site_fract_y
 _atom_site_fract_z
 _atom_site_occupancy
  Yb  Yb0  1  0.191492  0.808501  0.500000  1
  Dy  Dy1  1  0.651396  0.653858  0.500000  1
  Ho  Ho2  1  0.812848  0.187148  0.500000  1
  Ho  Ho3  1  0.346136  0.348601  0.500000  1
  Ni  Ni4  1  0.000357  0.999637  0.000000  1
  Ni  Ni5  1  0.215681  0.570891  0.000000  1
  Ni  Ni6  1  0.784592  0.431238  0.000000  1
  Ni  Ni7  1  0.429091  0.784332  0.000000  1
  Ni  Ni8  1  0.568744  0.215422  0.000000  1
  Ni  Ni9  1  0.998422  0.500836  0.500000  1
  Ni  Ni10  1  0.499160  0.001597  0.500000  1
  Ni  Ni11  1  0.073045  0.290823  0.000000  1
  Ni  Ni12  1  0.925092  0.710212  0.000000  1
  Ni  Ni13  1  0.709186  0.926977  0.000000  1
  Ni  Ni14  1  0.289798  0.074929  0.000000  1
  Ni  Ni15  1  0.124459  0.117453  0.500000  1
  Ni  Ni16  1  0.882565  0.875559  0.500000  1
  C  C17  1  0.000671  0.501934  0.000000  1
  C  C18  1  0.498067  0.999322  0.000000  1
  C  C19  1  0.442520  0.557443  0.000000  1
  C  C20  1  0.556678  0.443288  0.000000  1
