# generated using pymatgen
data_Nd7Dy(Si3Au)4
_symmetry_space_group_name_H-M   'P 1'
_cell_length_a   8.28391800
_cell_length_b   8.28391840
_cell_length_c   8.64379000
_cell_angle_alpha   90.00000000
_cell_angle_beta   90.00000000
_cell_angle_gamma   119.95807017
_symmetry_Int_Tables_number   1
_chemical_formula_structural   Nd7Dy(Si3Au)4
_chemical_formula_sum   'Nd7 Dy1 Si12 Au4'
_cell_volume   513.91321151
_cell_formula_units_Z   1
loop_
 _symmetry_equiv_pos_site_id
 _symmetry_equiv_pos_as_xyz
  1  'x, y, z'
loop_
 _atom_site_type_symbol
 _atom_site_label
 _atom_site_symmetry_multiplicity
 _atom_site_fract_x
 _atom_site_fract_y
 _atom_site_fract_z
 _atom_site_occupancy
  Nd  Nd0  1  0.500142  0.499858  0.250000  1
  Nd  Nd1  1  0.000305  0.500149  0.750000  1
  Nd  Nd2  1  0.999702  0.499865  0.250000  1
  Nd  Nd3  1  0.499851  0.999695  0.750000  1
  Nd  Nd4  1  0.500135  0.000298  0.250000  1
  Nd  Nd5  1  0.999986  0.000014  0.750000  1
  Nd  Nd6  1  0.999994  0.000006  0.250000  1
  Dy  Dy7  1  0.499922  0.500078  0.750000  1
  Si  Si8  1  0.835793  0.164207  0.999562  1
  Si  Si9  1  0.164202  0.835798  0.000630  1
  Si  Si10  1  0.328104  0.164346  0.998316  1
  Si  Si11  1  0.164202  0.835798  0.499370  1
  Si  Si12  1  0.671897  0.835682  0.999422  1
  Si  Si13  1  0.835793  0.164207  0.500438  1
  Si  Si14  1  0.835654  0.671896  0.998316  1
  Si  Si15  1  0.671897  0.835682  0.500578  1
  Si  Si16  1  0.164318  0.328103  0.999422  1
  Si  Si17  1  0.328104  0.164346  0.501684  1
  Si  Si18  1  0.164318  0.328103  0.500578  1
  Si  Si19  1  0.835654  0.671896  0.501684  1
  Au  Au20  1  0.665650  0.334350  0.996814  1
  Au  Au21  1  0.334364  0.665636  0.996996  1
  Au  Au22  1  0.334364  0.665636  0.503004  1
  Au  Au23  1  0.665650  0.334350  0.503186  1
