# generated using pymatgen
data_Hf6Ti4Si5Ge
_symmetry_space_group_name_H-M   'P 1'
_cell_length_a   7.76393600
_cell_length_b   7.76923821
_cell_length_c   5.27942900
_cell_angle_alpha   90.00000000
_cell_angle_beta   90.00000000
_cell_angle_gamma   119.97743542
_symmetry_Int_Tables_number   1
_chemical_formula_structural   Hf6Ti4Si5Ge
_chemical_formula_sum   'Hf6 Ti4 Si5 Ge1'
_cell_volume   275.85234014
_cell_formula_units_Z   1
loop_
 _symmetry_equiv_pos_site_id
 _symmetry_equiv_pos_as_xyz
  1  'x, y, z'
loop_
 _atom_site_type_symbol
 _atom_site_label
 _atom_site_symmetry_multiplicity
 _atom_site_fract_x
 _atom_site_fract_y
 _atom_site_fract_z
 _atom_site_occupancy
  Hf  Hf0  1  0.246973  0.000000  0.250000  1
  Hf  Hf1  1  0.750955  0.000000  0.750000  1
  Hf  Hf2  1  0.003441  0.253174  0.250000  1
  Hf  Hf3  1  0.999736  0.748919  0.750000  1
  Hf  Hf4  1  0.750266  0.746826  0.250000  1
  Hf  Hf5  1  0.250819  0.251081  0.750000  1
  Ti  Ti6  1  0.331636  0.664115  0.998579  1
  Ti  Ti7  1  0.667522  0.335885  0.998579  1
  Ti  Ti8  1  0.667522  0.335885  0.501421  1
  Ti  Ti9  1  0.331636  0.664115  0.501421  1
  Si  Si10  1  0.396578  0.000000  0.750000  1
  Si  Si11  1  0.000604  0.602184  0.250000  1
  Si  Si12  1  0.999223  0.396925  0.750000  1
  Si  Si13  1  0.398421  0.397816  0.250000  1
  Si  Si14  1  0.602299  0.603075  0.750000  1
  Ge  Ge15  1  0.602367  0.000000  0.250000  1
