# generated using pymatgen
data_Pr5TmCo14(P3Rh)4
_symmetry_space_group_name_H-M   'P 1'
_cell_length_a   3.79743000
_cell_length_b   10.75511812
_cell_length_c   12.55498715
_cell_angle_alpha   90.01747523
_cell_angle_beta   90.00000000
_cell_angle_gamma   90.00000000
_symmetry_Int_Tables_number   1
_chemical_formula_structural   Pr5TmCo14(P3Rh)4
_chemical_formula_sum   'Pr5 Tm1 Co14 P12 Rh4'
_cell_volume   512.76835339
_cell_formula_units_Z   1
loop_
 _symmetry_equiv_pos_site_id
 _symmetry_equiv_pos_as_xyz
  1  'x, y, z'
loop_
 _atom_site_type_symbol
 _atom_site_label
 _atom_site_symmetry_multiplicity
 _atom_site_fract_x
 _atom_site_fract_y
 _atom_site_fract_z
 _atom_site_occupancy
  Pr  Pr0  1  0.000000  0.499891  0.521663  1
  Pr  Pr1  1  0.500000  0.000255  0.479357  1
  Pr  Pr2  1  0.500000  0.814793  0.204742  1
  Pr  Pr3  1  0.500000  0.186254  0.206946  1
  Pr  Pr4  1  0.000000  0.684634  0.793440  1
  Tm  Tm5  1  0.000000  0.313124  0.794451  1
  Co  Co6  1  0.000000  0.497991  0.986748  1
  Co  Co7  1  0.500000  0.002680  0.008306  1
  Co  Co8  1  0.500000  0.332142  0.992040  1
  Co  Co9  1  0.500000  0.666009  0.993567  1
  Co  Co10  1  0.000000  0.170445  0.002681  1
  Co  Co11  1  0.000000  0.832691  0.003951  1
  Co  Co12  1  0.500000  0.300692  0.432164  1
  Co  Co13  1  0.500000  0.698682  0.428395  1
  Co  Co14  1  0.000000  0.199406  0.576475  1
  Co  Co15  1  0.000000  0.800378  0.571417  1
  Co  Co16  1  0.500000  0.883868  0.711387  1
  Co  Co17  1  0.500000  0.120024  0.715102  1
  Co  Co18  1  0.000000  0.616736  0.287526  1
  Co  Co19  1  0.000000  0.383485  0.289884  1
  P  P20  1  0.500000  0.496931  0.891365  1
  P  P21  1  0.000000  0.001721  0.104246  1
  P  P22  1  0.500000  0.500092  0.345030  1
  P  P23  1  0.000000  0.999042  0.655603  1
  P  P24  1  0.500000  0.297414  0.616812  1
  P  P25  1  0.500000  0.701594  0.611141  1
  P  P26  1  0.000000  0.203566  0.391652  1
  P  P27  1  0.000000  0.797116  0.388586  1
  P  P28  1  0.500000  0.846270  0.897353  1
  P  P29  1  0.500000  0.158156  0.894175  1
  P  P30  1  0.000000  0.652981  0.100454  1
  P  P31  1  0.000000  0.346922  0.102442  1
  Rh  Rh32  1  0.500000  0.498622  0.157431  1
  Rh  Rh33  1  0.000000  0.001221  0.841505  1
  Rh  Rh34  1  0.500000  0.493471  0.707257  1
  Rh  Rh35  1  0.000000  0.000701  0.294706  1
