# generated using pymatgen
data_DyY16(HoIr4)3
_symmetry_space_group_name_H-M   'P 1'
_cell_length_a   10.92610500
_cell_length_b   10.92610500
_cell_length_c   6.38415800
_cell_angle_alpha   90.00000000
_cell_angle_beta   90.00000000
_cell_angle_gamma   90.00000000
_symmetry_Int_Tables_number   1
_chemical_formula_structural   DyY16(HoIr4)3
_chemical_formula_sum   'Dy1 Y16 Ho3 Ir12'
_cell_volume   762.13931669
_cell_formula_units_Z   1
loop_
 _symmetry_equiv_pos_site_id
 _symmetry_equiv_pos_as_xyz
  1  'x, y, z'
loop_
 _atom_site_type_symbol
 _atom_site_label
 _atom_site_symmetry_multiplicity
 _atom_site_fract_x
 _atom_site_fract_y
 _atom_site_fract_z
 _atom_site_occupancy
  Dy  Dy0  1  0.000000  0.000000  0.500000  1
  Y  Y1  1  0.291098  0.087961  0.377884  1
  Y  Y2  1  0.291038  0.912055  0.877927  1
  Y  Y3  1  0.708962  0.087945  0.877927  1
  Y  Y4  1  0.708902  0.912039  0.377884  1
  Y  Y5  1  0.587940  0.791000  0.877907  1
  Y  Y6  1  0.587920  0.209000  0.377919  1
  Y  Y7  1  0.412080  0.791000  0.377919  1
  Y  Y8  1  0.412060  0.209000  0.877907  1
  Y  Y9  1  0.209000  0.412080  0.622081  1
  Y  Y10  1  0.209000  0.587940  0.122093  1
  Y  Y11  1  0.791000  0.412060  0.122093  1
  Y  Y12  1  0.791000  0.587920  0.622081  1
  Y  Y13  1  0.912055  0.708962  0.122073  1
  Y  Y14  1  0.912039  0.291098  0.622116  1
  Y  Y15  1  0.087961  0.708902  0.622116  1
  Y  Y16  1  0.087945  0.291038  0.122073  1
  Ho  Ho17  1  0.000000  0.000000  0.000000  1
  Ho  Ho18  1  0.500000  0.500000  0.000000  1
  Ho  Ho19  1  0.500000  0.500000  0.500000  1
  Ir  Ir20  1  0.847390  0.152603  0.249816  1
  Ir  Ir21  1  0.847397  0.847390  0.750184  1
  Ir  Ir22  1  0.152603  0.152610  0.750184  1
  Ir  Ir23  1  0.152610  0.847397  0.249816  1
  Ir  Ir24  1  0.652476  0.347526  0.749995  1
  Ir  Ir25  1  0.652474  0.652476  0.250005  1
  Ir  Ir26  1  0.347526  0.347524  0.250005  1
  Ir  Ir27  1  0.347524  0.652474  0.749995  1
  Ir  Ir28  1  0.500000  0.000000  0.122131  1
  Ir  Ir29  1  0.500000  0.000000  0.622134  1
  Ir  Ir30  1  0.000000  0.500000  0.877869  1
  Ir  Ir31  1  0.000000  0.500000  0.377866  1
