# generated using pymatgen
data_LiTb3ThIr
_symmetry_space_group_name_H-M   'P 1'
_cell_length_a   9.79408712
_cell_length_b   9.79408780
_cell_length_c   9.79408700
_cell_angle_alpha   59.99999931
_cell_angle_beta   59.99999703
_cell_angle_gamma   59.99999640
_symmetry_Int_Tables_number   1
_chemical_formula_structural   LiTb3ThIr
_chemical_formula_sum   'Li4 Tb12 Th4 Ir4'
_cell_volume   664.31933314
_cell_formula_units_Z   4
loop_
 _symmetry_equiv_pos_site_id
 _symmetry_equiv_pos_as_xyz
  1  'x, y, z'
loop_
 _atom_site_type_symbol
 _atom_site_label
 _atom_site_symmetry_multiplicity
 _atom_site_fract_x
 _atom_site_fract_y
 _atom_site_fract_z
 _atom_site_occupancy
  Li  Li0  1  0.830573  0.830573  0.830573  1
  Li  Li1  1  0.830573  0.830573  0.508281  1
  Li  Li2  1  0.830573  0.508281  0.830573  1
  Li  Li3  1  0.508281  0.830573  0.830573  1
  Tb  Tb4  1  0.064253  0.435747  0.435747  1
  Tb  Tb5  1  0.435747  0.064253  0.064253  1
  Tb  Tb6  1  0.435747  0.064253  0.435747  1
  Tb  Tb7  1  0.064253  0.435747  0.064253  1
  Tb  Tb8  1  0.435747  0.435747  0.064253  1
  Tb  Tb9  1  0.064253  0.064253  0.435747  1
  Tb  Tb10  1  0.184974  0.815026  0.815026  1
  Tb  Tb11  1  0.815026  0.184974  0.184974  1
  Tb  Tb12  1  0.815026  0.184974  0.815026  1
  Tb  Tb13  1  0.184974  0.815026  0.184974  1
  Tb  Tb14  1  0.815026  0.815026  0.184974  1
  Tb  Tb15  1  0.184974  0.184974  0.815026  1
  Th  Th16  1  0.598284  0.598284  0.598284  1
  Th  Th17  1  0.598284  0.598284  0.205149  1
  Th  Th18  1  0.598284  0.205149  0.598284  1
  Th  Th19  1  0.205149  0.598284  0.598284  1
  Ir  Ir20  1  0.393927  0.393927  0.393927  1
  Ir  Ir21  1  0.393927  0.393927  0.818219  1
  Ir  Ir22  1  0.393927  0.818219  0.393927  1
  Ir  Ir23  1  0.818219  0.393927  0.393927  1
