# generated using pymatgen
data_CoCu3TeO8
_symmetry_space_group_name_H-M   'P 1'
_cell_length_a   5.78597240
_cell_length_b   6.50895493
_cell_length_c   5.47360356
_cell_angle_alpha   62.82956895
_cell_angle_beta   74.23512002
_cell_angle_gamma   62.30822922
_symmetry_Int_Tables_number   1
_chemical_formula_structural   CoCu3TeO8
_chemical_formula_sum   'Co1 Cu3 Te1 O8'
_cell_volume   161.92303972
_cell_formula_units_Z   1
loop_
 _symmetry_equiv_pos_site_id
 _symmetry_equiv_pos_as_xyz
  1  'x, y, z'
loop_
 _atom_site_type_symbol
 _atom_site_label
 _atom_site_symmetry_multiplicity
 _atom_site_fract_x
 _atom_site_fract_y
 _atom_site_fract_z
 _atom_site_occupancy
  Co  Co0  1  0.500000  0.500000  0.000000  1
  Cu  Cu1  1  0.500000  0.500000  0.500000  1
  Cu  Cu2  1  0.000000  0.000000  0.000000  1
  Cu  Cu3  1  0.500000  0.000000  0.000000  1
  Te  Te4  1  0.000000  0.500000  0.000000  1
  O  O5  1  0.727584  0.662662  0.758200  1
  O  O6  1  0.655521  0.245620  0.844638  1
  O  O7  1  0.242200  0.663531  0.737040  1
  O  O8  1  0.171802  0.221242  0.862716  1
  O  O9  1  0.828198  0.778758  0.137284  1
  O  O10  1  0.757800  0.336469  0.262960  1
  O  O11  1  0.344479  0.754380  0.155362  1
  O  O12  1  0.272416  0.337338  0.241800  1
