# generated using pymatgen
data_DyLu3(B4W)4
_symmetry_space_group_name_H-M   'P 1'
_cell_length_a   5.99970413
_cell_length_b   11.59270919
_cell_length_c   3.60203900
_cell_angle_alpha   90.00000000
_cell_angle_beta   90.00000000
_cell_angle_gamma   90.07037222
_symmetry_Int_Tables_number   1
_chemical_formula_structural   DyLu3(B4W)4
_chemical_formula_sum   'Dy1 Lu3 B16 W4'
_cell_volume   250.53179995
_cell_formula_units_Z   1
loop_
 _symmetry_equiv_pos_site_id
 _symmetry_equiv_pos_as_xyz
  1  'x, y, z'
loop_
 _atom_site_type_symbol
 _atom_site_label
 _atom_site_symmetry_multiplicity
 _atom_site_fract_x
 _atom_site_fract_y
 _atom_site_fract_z
 _atom_site_occupancy
  Dy  Dy0  1  0.872649  0.850331  0.000000  1
  Lu  Lu1  1  0.627156  0.350894  0.000000  1
  Lu  Lu2  1  0.372646  0.648852  0.000000  1
  Lu  Lu3  1  0.127286  0.149330  0.000000  1
  B  B4  1  0.788518  0.187522  0.500000  1
  B  B5  1  0.213212  0.812607  0.500000  1
  B  B6  1  0.288558  0.313009  0.500000  1
  B  B7  1  0.711031  0.686004  0.500000  1
  B  B8  1  0.867454  0.033061  0.500000  1
  B  B9  1  0.132778  0.968904  0.500000  1
  B  B10  1  0.367789  0.467754  0.500000  1
  B  B11  1  0.631960  0.531514  0.500000  1
  B  B12  1  0.885016  0.451635  0.500000  1
  B  B13  1  0.115437  0.547487  0.500000  1
  B  B14  1  0.384519  0.048766  0.500000  1
  B  B15  1  0.613373  0.953082  0.500000  1
  B  B16  1  0.976864  0.305597  0.500000  1
  B  B17  1  0.024615  0.693055  0.500000  1
  B  B18  1  0.476704  0.194822  0.500000  1
  B  B19  1  0.522488  0.805704  0.500000  1
  W  W20  1  0.631211  0.086006  0.000000  1
  W  W21  1  0.368410  0.915459  0.000000  1
  W  W22  1  0.131889  0.414504  0.000000  1
  W  W23  1  0.868439  0.584101  0.000000  1
