# generated using pymatgen
data_HfFe2TcP2
_symmetry_space_group_name_H-M   'P 1'
_cell_length_a   3.72813600
_cell_length_b   5.98698752
_cell_length_c   6.82747637
_cell_angle_alpha   90.89762521
_cell_angle_beta   90.00000000
_cell_angle_gamma   90.00000000
_symmetry_Int_Tables_number   1
_chemical_formula_structural   HfFe2TcP2
_chemical_formula_sum   'Hf2 Fe4 Tc2 P4'
_cell_volume   152.37264522
_cell_formula_units_Z   2
loop_
 _symmetry_equiv_pos_site_id
 _symmetry_equiv_pos_as_xyz
  1  'x, y, z'
loop_
 _atom_site_type_symbol
 _atom_site_label
 _atom_site_symmetry_multiplicity
 _atom_site_fract_x
 _atom_site_fract_y
 _atom_site_fract_z
 _atom_site_occupancy
  Hf  Hf0  1  0.250000  0.025378  0.814916  1
  Hf  Hf1  1  0.750000  0.974622  0.185084  1
  Fe  Fe2  1  0.750000  0.854096  0.561870  1
  Fe  Fe3  1  0.250000  0.145904  0.438130  1
  Fe  Fe4  1  0.750000  0.358044  0.940520  1
  Fe  Fe5  1  0.250000  0.641956  0.059480  1
  Tc  Tc6  1  0.250000  0.524694  0.669042  1
  Tc  Tc7  1  0.750000  0.475306  0.330958  1
  P  P8  1  0.250000  0.286952  0.129677  1
  P  P9  1  0.750000  0.713048  0.870323  1
  P  P10  1  0.250000  0.761043  0.391694  1
  P  P11  1  0.750000  0.238957  0.608306  1
