# generated using pymatgen
data_LuHfNi3BIr3
_symmetry_space_group_name_H-M   'P 1'
_cell_length_a   5.65208179
_cell_length_b   5.65208199
_cell_length_c   5.55559369
_cell_angle_alpha   59.42380986
_cell_angle_beta   59.42381221
_cell_angle_gamma   60.00000248
_symmetry_Int_Tables_number   1
_chemical_formula_structural   LuHfNi3BIr3
_chemical_formula_sum   'Lu1 Hf1 Ni3 B1 Ir3'
_cell_volume   124.39262920
_cell_formula_units_Z   1
loop_
 _symmetry_equiv_pos_site_id
 _symmetry_equiv_pos_as_xyz
  1  'x, y, z'
loop_
 _atom_site_type_symbol
 _atom_site_label
 _atom_site_symmetry_multiplicity
 _atom_site_fract_x
 _atom_site_fract_y
 _atom_site_fract_z
 _atom_site_occupancy
  Lu  Lu0  1  0.249196  0.249196  0.252411  1
  Hf  Hf1  1  0.755358  0.755358  0.733927  1
  Ni  Ni2  1  0.738509  0.738509  0.250080  1
  Ni  Ni3  1  0.272904  0.738509  0.250080  1
  Ni  Ni4  1  0.738509  0.272904  0.250080  1
  B  B5  1  0.989037  0.989037  0.032888  1
  Ir  Ir6  1  0.256685  0.256685  0.743512  1
  Ir  Ir7  1  0.743118  0.256685  0.743512  1
  Ir  Ir8  1  0.256685  0.743118  0.743512  1
