# generated using pymatgen
data_Sm4GaOs4Ru3
_symmetry_space_group_name_H-M   'P 1'
_cell_length_a   5.35735636
_cell_length_b   5.31237538
_cell_length_c   9.09751900
_cell_angle_alpha   90.00000000
_cell_angle_beta   90.00000000
_cell_angle_gamma   119.70930933
_symmetry_Int_Tables_number   1
_chemical_formula_structural   Sm4GaOs4Ru3
_chemical_formula_sum   'Sm4 Ga1 Os4 Ru3'
_cell_volume   224.88349775
_cell_formula_units_Z   1
loop_
 _symmetry_equiv_pos_site_id
 _symmetry_equiv_pos_as_xyz
  1  'x, y, z'
loop_
 _atom_site_type_symbol
 _atom_site_label
 _atom_site_symmetry_multiplicity
 _atom_site_fract_x
 _atom_site_fract_y
 _atom_site_fract_z
 _atom_site_occupancy
  Sm  Sm0  1  0.335660  0.661967  0.432650  1
  Sm  Sm1  1  0.665489  0.327375  0.563842  1
  Sm  Sm2  1  0.665489  0.327375  0.936158  1
  Sm  Sm3  1  0.335660  0.661967  0.067350  1
  Ga  Ga4  1  0.161316  0.334752  0.750000  1
  Os  Os5  1  0.825076  0.184777  0.250000  1
  Os  Os6  1  0.852322  0.696337  0.250000  1
  Os  Os7  1  0.350914  0.177903  0.250000  1
  Os  Os8  1  0.161647  0.833807  0.750000  1
  Ru  Ru9  1  0.999193  0.978192  0.499410  1
  Ru  Ru10  1  0.999193  0.978192  0.000590  1
  Ru  Ru11  1  0.648044  0.837355  0.750000  1
