# generated using pymatgen
data_Dy16Cd3HgRu4
_symmetry_space_group_name_H-M   'P 1'
_cell_length_a   9.62783415
_cell_length_b   9.61511206
_cell_length_c   9.62783500
_cell_angle_alpha   59.95622191
_cell_angle_beta   60.00000051
_cell_angle_gamma   59.95621777
_symmetry_Int_Tables_number   1
_chemical_formula_structural   Dy16Cd3HgRu4
_chemical_formula_sum   'Dy16 Cd3 Hg1 Ru4'
_cell_volume   629.80903625
_cell_formula_units_Z   1
loop_
 _symmetry_equiv_pos_site_id
 _symmetry_equiv_pos_as_xyz
  1  'x, y, z'
loop_
 _atom_site_type_symbol
 _atom_site_label
 _atom_site_symmetry_multiplicity
 _atom_site_fract_x
 _atom_site_fract_y
 _atom_site_fract_z
 _atom_site_occupancy
  Dy  Dy0  1  0.154096  0.537710  0.154096  1
  Dy  Dy1  1  0.689888  0.310009  0.689888  1
  Dy  Dy2  1  0.689888  0.310009  0.310215  1
  Dy  Dy3  1  0.938063  0.561093  0.562782  1
  Dy  Dy4  1  0.540181  0.153405  0.153206  1
  Dy  Dy5  1  0.153206  0.153405  0.540181  1
  Dy  Dy6  1  0.938167  0.937795  0.562019  1
  Dy  Dy7  1  0.310859  0.688929  0.310859  1
  Dy  Dy8  1  0.562019  0.937795  0.938167  1
  Dy  Dy9  1  0.562019  0.937795  0.562019  1
  Dy  Dy10  1  0.689353  0.688929  0.310859  1
  Dy  Dy11  1  0.562782  0.561093  0.938063  1
  Dy  Dy12  1  0.938063  0.561093  0.938063  1
  Dy  Dy13  1  0.310859  0.688929  0.689353  1
  Dy  Dy14  1  0.153206  0.153405  0.153206  1
  Dy  Dy15  1  0.310215  0.310009  0.689888  1
  Cd  Cd16  1  0.920301  0.919902  0.920301  1
  Cd  Cd17  1  0.920301  0.919902  0.239496  1
  Cd  Cd18  1  0.239496  0.919902  0.920301  1
  Hg  Hg19  1  0.916317  0.251050  0.916317  1
  Ru  Ru20  1  0.361404  0.360300  0.916891  1
  Ru  Ru21  1  0.361021  0.916938  0.361021  1
  Ru  Ru22  1  0.916891  0.360300  0.361404  1
  Ru  Ru23  1  0.361404  0.360300  0.361404  1
