# generated using pymatgen
data_Tm2Al2IrPd
_symmetry_space_group_name_H-M   'P 1'
_cell_length_a   4.30498600
_cell_length_b   6.77578500
_cell_length_c   7.83671800
_cell_angle_alpha   90.00000000
_cell_angle_beta   90.00000000
_cell_angle_gamma   90.00000000
_symmetry_Int_Tables_number   1
_chemical_formula_structural   Tm2Al2IrPd
_chemical_formula_sum   'Tm4 Al4 Ir2 Pd2'
_cell_volume   228.59439616
_cell_formula_units_Z   2
loop_
 _symmetry_equiv_pos_site_id
 _symmetry_equiv_pos_as_xyz
  1  'x, y, z'
loop_
 _atom_site_type_symbol
 _atom_site_label
 _atom_site_symmetry_multiplicity
 _atom_site_fract_x
 _atom_site_fract_y
 _atom_site_fract_z
 _atom_site_occupancy
  Tm  Tm0  1  0.250000  0.033957  0.323387  1
  Tm  Tm1  1  0.250000  0.533957  0.176613  1
  Tm  Tm2  1  0.750000  0.973726  0.681474  1
  Tm  Tm3  1  0.750000  0.473726  0.818526  1
  Al  Al4  1  0.250000  0.139628  0.935547  1
  Al  Al5  1  0.250000  0.639628  0.564453  1
  Al  Al6  1  0.750000  0.856043  0.057200  1
  Al  Al7  1  0.750000  0.356043  0.442800  1
  Ir  Ir8  1  0.250000  0.265653  0.620088  1
  Ir  Ir9  1  0.250000  0.765653  0.879912  1
  Pd  Pd10  1  0.750000  0.730994  0.376481  1
  Pd  Pd11  1  0.750000  0.230994  0.123519  1
