# generated using pymatgen
data_Tc3Pd8W3
_symmetry_space_group_name_H-M   'P 1'
_cell_length_a   7.46610148
_cell_length_b   7.46319234
_cell_length_c   4.43378600
_cell_angle_alpha   90.00000000
_cell_angle_beta   90.00000000
_cell_angle_gamma   60.02646836
_symmetry_Int_Tables_number   1
_chemical_formula_structural   Tc3Pd8W3
_chemical_formula_sum   'Tc3 Pd8 W3'
_cell_volume   214.01275256
_cell_formula_units_Z   1
loop_
 _symmetry_equiv_pos_site_id
 _symmetry_equiv_pos_as_xyz
  1  'x, y, z'
loop_
 _atom_site_type_symbol
 _atom_site_label
 _atom_site_symmetry_multiplicity
 _atom_site_fract_x
 _atom_site_fract_y
 _atom_site_fract_z
 _atom_site_occupancy
  Tc  Tc0  1  0.526120  0.391772  0.500000  1
  Tc  Tc1  1  0.653589  0.669111  0.500000  1
  Tc  Tc2  1  0.248726  0.796333  0.500000  1
  Pd  Pd3  1  0.572744  0.142415  0.000000  1
  Pd  Pd4  1  0.142846  0.285630  0.000000  1
  Pd  Pd5  1  0.856373  0.715567  0.000000  1
  Pd  Pd6  1  0.999662  0.999143  0.000000  1
  Pd  Pd7  1  0.380561  0.095546  0.500000  1
  Pd  Pd8  1  0.952445  0.238259  0.500000  1
  Pd  Pd9  1  0.095249  0.523439  0.500000  1
  Pd  Pd10  1  0.809528  0.952454  0.500000  1
  W  W11  1  0.705932  0.440751  0.000000  1
  W  W12  1  0.297841  0.567633  0.000000  1
  W  W13  1  0.424945  0.848512  0.000000  1
