# generated using pymatgen
data_CeTm15(CdRu)4
_symmetry_space_group_name_H-M   'P 1'
_cell_length_a   9.56059647
_cell_length_b   9.56066613
_cell_length_c   9.56061137
_cell_angle_alpha   59.27578786
_cell_angle_beta   59.27724233
_cell_angle_gamma   59.27803152
_symmetry_Int_Tables_number   1
_chemical_formula_structural   CeTm15(CdRu)4
_chemical_formula_sum   'Ce1 Tm15 Cd4 Ru4'
_cell_volume   607.76238770
_cell_formula_units_Z   1
loop_
 _symmetry_equiv_pos_site_id
 _symmetry_equiv_pos_as_xyz
  1  'x, y, z'
loop_
 _atom_site_type_symbol
 _atom_site_label
 _atom_site_symmetry_multiplicity
 _atom_site_fract_x
 _atom_site_fract_y
 _atom_site_fract_z
 _atom_site_occupancy
  Ce  Ce0  1  0.342943  0.342943  0.342947  1
  Tm  Tm1  1  0.563038  0.563038  0.937730  1
  Tm  Tm2  1  0.939066  0.560210  0.939065  1
  Tm  Tm3  1  0.560211  0.939066  0.939065  1
  Tm  Tm4  1  0.939067  0.939067  0.560211  1
  Tm  Tm5  1  0.563032  0.937735  0.563036  1
  Tm  Tm6  1  0.937730  0.563036  0.563038  1
  Tm  Tm7  1  0.188623  0.188624  0.812926  1
  Tm  Tm8  1  0.811131  0.187200  0.811117  1
  Tm  Tm9  1  0.187200  0.811129  0.811121  1
  Tm  Tm10  1  0.811129  0.811120  0.187201  1
  Tm  Tm11  1  0.188624  0.812932  0.188623  1
  Tm  Tm12  1  0.812930  0.188625  0.188625  1
  Tm  Tm13  1  0.347082  0.347077  0.956744  1
  Tm  Tm14  1  0.347077  0.956748  0.347082  1
  Tm  Tm15  1  0.956747  0.347075  0.347086  1
  Cd  Cd16  1  0.579842  0.579843  0.257123  1
  Cd  Cd17  1  0.579842  0.257123  0.579842  1
  Cd  Cd18  1  0.257123  0.579843  0.579842  1
  Cd  Cd19  1  0.580135  0.580135  0.580136  1
  Ru  Ru20  1  0.145806  0.145815  0.575956  1
  Ru  Ru21  1  0.145815  0.575946  0.145814  1
  Ru  Ru22  1  0.575944  0.145810  0.145815  1
  Ru  Ru23  1  0.139860  0.139862  0.139853  1
