# generated using pymatgen
data_SBr5Cl
_symmetry_space_group_name_H-M   'P 1'
_cell_length_a   6.28453631
_cell_length_b   6.20186713
_cell_length_c   12.21028447
_cell_angle_alpha   53.73724402
_cell_angle_beta   90.42638231
_cell_angle_gamma   83.18288550
_symmetry_Int_Tables_number   1
_chemical_formula_structural   SBr5Cl
_chemical_formula_sum   'S1 Br5 Cl1'
_cell_volume   379.22012309
_cell_formula_units_Z   1
loop_
 _symmetry_equiv_pos_site_id
 _symmetry_equiv_pos_as_xyz
  1  'x, y, z'
loop_
 _atom_site_type_symbol
 _atom_site_label
 _atom_site_symmetry_multiplicity
 _atom_site_fract_x
 _atom_site_fract_y
 _atom_site_fract_z
 _atom_site_occupancy
  S  S0  1  0.967329  0.708240  0.431240  1
  Br  Br1  1  0.218603  0.337574  0.601544  1
  Br  Br2  1  0.519226  0.902387  0.776799  1
  Br  Br3  1  0.133516  0.080671  0.353882  1
  Br  Br4  1  0.422047  0.710731  0.018999  1
  Br  Br5  1  0.344456  0.518900  0.263060  1
  Cl  Cl6  1  0.726882  0.732568  0.533585  1
