# generated using pymatgen
data_Pr6Co2P12Ru13Rh3
_symmetry_space_group_name_H-M   'P 1'
_cell_length_a   3.97368300
_cell_length_b   11.20441824
_cell_length_c   12.82637560
_cell_angle_alpha   89.75084170
_cell_angle_beta   90.00000000
_cell_angle_gamma   90.00000000
_symmetry_Int_Tables_number   1
_chemical_formula_structural   Pr6Co2P12Ru13Rh3
_chemical_formula_sum   'Pr6 Co2 P12 Ru13 Rh3'
_cell_volume   571.06083665
_cell_formula_units_Z   1
loop_
 _symmetry_equiv_pos_site_id
 _symmetry_equiv_pos_as_xyz
  1  'x, y, z'
loop_
 _atom_site_type_symbol
 _atom_site_label
 _atom_site_symmetry_multiplicity
 _atom_site_fract_x
 _atom_site_fract_y
 _atom_site_fract_z
 _atom_site_occupancy
  Pr  Pr0  1  0.000000  0.498887  0.524773  1
  Pr  Pr1  1  0.500000  0.000226  0.475342  1
  Pr  Pr2  1  0.500000  0.819158  0.203772  1
  Pr  Pr3  1  0.500000  0.179585  0.203601  1
  Pr  Pr4  1  0.000000  0.681342  0.796461  1
  Pr  Pr5  1  0.000000  0.319553  0.795759  1
  Co  Co6  1  0.000000  0.500243  0.990788  1
  Co  Co7  1  0.500000  0.999776  0.009255  1
  P  P8  1  0.500000  0.500664  0.890602  1
  P  P9  1  0.000000  0.999345  0.109344  1
  P  P10  1  0.500000  0.506511  0.338351  1
  P  P11  1  0.000000  0.999895  0.664000  1
  P  P12  1  0.500000  0.299598  0.613616  1
  P  P13  1  0.500000  0.701504  0.614848  1
  P  P14  1  0.000000  0.198415  0.386813  1
  P  P15  1  0.000000  0.799354  0.385423  1
  P  P16  1  0.500000  0.849638  0.899090  1
  P  P17  1  0.500000  0.150310  0.898415  1
  P  P18  1  0.000000  0.649669  0.101645  1
  P  P19  1  0.000000  0.348251  0.098368  1
  Ru  Ru20  1  0.500000  0.499100  0.156521  1
  Ru  Ru21  1  0.000000  0.999720  0.845100  1
  Ru  Ru22  1  0.500000  0.334098  0.993074  1
  Ru  Ru23  1  0.500000  0.665739  0.993511  1
  Ru  Ru24  1  0.000000  0.165471  0.006537  1
  Ru  Ru25  1  0.000000  0.833403  0.007596  1
  Ru  Ru26  1  0.500000  0.301028  0.426754  1
  Ru  Ru27  1  0.500000  0.701526  0.429454  1
  Ru  Ru28  1  0.000000  0.199752  0.570712  1
  Ru  Ru29  1  0.000000  0.800720  0.571318  1
  Ru  Ru30  1  0.500000  0.879384  0.716423  1
  Ru  Ru31  1  0.500000  0.121435  0.716086  1
  Ru  Ru32  1  0.000000  0.619927  0.284994  1
  Rh  Rh33  1  0.500000  0.500527  0.699876  1
  Rh  Rh34  1  0.000000  0.999928  0.300159  1
  Rh  Rh35  1  0.000000  0.376320  0.281615  1
