# generated using pymatgen
data_Mg4Fe3Ni17P12
_symmetry_space_group_name_H-M   'P 1'
_cell_length_a   3.61388300
_cell_length_b   10.31098500
_cell_length_c   11.72770601
_cell_angle_alpha   90.00276474
_cell_angle_beta   90.00000000
_cell_angle_gamma   90.00000000
_symmetry_Int_Tables_number   1
_chemical_formula_structural   Mg4Fe3Ni17P12
_chemical_formula_sum   'Mg4 Fe3 Ni17 P12'
_cell_volume   437.00591279
_cell_formula_units_Z   1
loop_
 _symmetry_equiv_pos_site_id
 _symmetry_equiv_pos_as_xyz
  1  'x, y, z'
loop_
 _atom_site_type_symbol
 _atom_site_label
 _atom_site_symmetry_multiplicity
 _atom_site_fract_x
 _atom_site_fract_y
 _atom_site_fract_z
 _atom_site_occupancy
  Mg  Mg0  1  0.250000  0.576858  0.703896  1
  Mg  Mg1  1  0.250000  0.921752  0.206270  1
  Mg  Mg2  1  0.750000  0.422839  0.297178  1
  Mg  Mg3  1  0.750000  0.076951  0.792813  1
  Fe  Fe4  1  0.250000  0.035093  0.426441  1
  Fe  Fe5  1  0.750000  0.534385  0.069916  1
  Fe  Fe6  1  0.750000  0.964825  0.571680  1
  Ni  Ni7  1  0.250000  0.712199  0.993097  1
  Ni  Ni8  1  0.250000  0.786287  0.496218  1
  Ni  Ni9  1  0.750000  0.285201  0.002417  1
  Ni  Ni10  1  0.750000  0.213893  0.503799  1
  Ni  Ni11  1  0.250000  0.407145  0.481592  1
  Ni  Ni12  1  0.250000  0.092015  0.979398  1
  Ni  Ni13  1  0.750000  0.592166  0.520282  1
  Ni  Ni14  1  0.750000  0.905886  0.021846  1
  Ni  Ni15  1  0.250000  0.223282  0.173604  1
  Ni  Ni16  1  0.250000  0.275132  0.674061  1
  Ni  Ni17  1  0.750000  0.779835  0.825945  1
  Ni  Ni18  1  0.750000  0.722848  0.326881  1
  Ni  Ni19  1  0.250000  0.880420  0.704595  1
  Ni  Ni20  1  0.250000  0.618740  0.205073  1
  Ni  Ni21  1  0.750000  0.120608  0.294399  1
  Ni  Ni22  1  0.750000  0.384822  0.797206  1
  Ni  Ni23  1  0.250000  0.466066  0.928546  1
  P  P24  1  0.250000  0.423017  0.116220  1
  P  P25  1  0.250000  0.077126  0.610471  1
  P  P26  1  0.750000  0.582513  0.887283  1
  P  P27  1  0.750000  0.922589  0.387994  1
  P  P28  1  0.250000  0.261628  0.863871  1
  P  P29  1  0.250000  0.235329  0.366294  1
  P  P30  1  0.750000  0.733602  0.135074  1
  P  P31  1  0.750000  0.764990  0.633460  1
  P  P32  1  0.250000  0.600505  0.394509  1
  P  P33  1  0.250000  0.899809  0.894029  1
  P  P34  1  0.750000  0.399124  0.607917  1
  P  P35  1  0.750000  0.100519  0.105728  1
