# generated using pymatgen
data_Yb7ThAsPd24
_symmetry_space_group_name_H-M   'P 1'
_cell_length_a   8.32971611
_cell_length_b   8.32971622
_cell_length_c   8.32971600
_cell_angle_alpha   90.05694006
_cell_angle_beta   90.05694006
_cell_angle_gamma   89.94305841
_symmetry_Int_Tables_number   1
_chemical_formula_structural   Yb7ThAsPd24
_chemical_formula_sum   'Yb7 Th1 As1 Pd24'
_cell_volume   577.94958706
_cell_formula_units_Z   1
loop_
 _symmetry_equiv_pos_site_id
 _symmetry_equiv_pos_as_xyz
  1  'x, y, z'
loop_
 _atom_site_type_symbol
 _atom_site_label
 _atom_site_symmetry_multiplicity
 _atom_site_fract_x
 _atom_site_fract_y
 _atom_site_fract_z
 _atom_site_occupancy
  Yb  Yb0  1  0.252278  0.748305  0.251695  1
  Yb  Yb1  1  0.748305  0.252278  0.251695  1
  Yb  Yb2  1  0.748305  0.748305  0.747722  1
  Yb  Yb3  1  0.747416  0.747416  0.252584  1
  Yb  Yb4  1  0.747963  0.252012  0.747988  1
  Yb  Yb5  1  0.252012  0.747963  0.747988  1
  Yb  Yb6  1  0.252012  0.252012  0.252037  1
  Th  Th7  1  0.255980  0.255980  0.744020  1
  As  As8  1  0.998171  0.998171  0.001829  1
  Pd  Pd9  1  0.502013  0.502013  0.746571  1
  Pd  Pd10  1  0.502013  0.253429  0.497987  1
  Pd  Pd11  1  0.253429  0.502013  0.497987  1
  Pd  Pd12  1  0.500082  0.500082  0.253131  1
  Pd  Pd13  1  0.500082  0.746869  0.499918  1
  Pd  Pd14  1  0.746869  0.500082  0.499918  1
  Pd  Pd15  1  0.998332  0.998332  0.710394  1
  Pd  Pd16  1  0.998332  0.289606  0.001668  1
  Pd  Pd17  1  0.289606  0.998332  0.001668  1
  Pd  Pd18  1  0.999779  0.999779  0.290797  1
  Pd  Pd19  1  0.999779  0.709203  0.000221  1
  Pd  Pd20  1  0.709203  0.999779  0.000221  1
  Pd  Pd21  1  0.999091  0.500203  0.740333  1
  Pd  Pd22  1  0.500203  0.259667  0.000909  1
  Pd  Pd23  1  0.259667  0.999091  0.499797  1
  Pd  Pd24  1  0.999091  0.259667  0.499797  1
  Pd  Pd25  1  0.500203  0.999091  0.740333  1
  Pd  Pd26  1  0.259667  0.500203  0.000909  1
  Pd  Pd27  1  0.000072  0.500419  0.260431  1
  Pd  Pd28  1  0.500419  0.739569  0.999928  1
  Pd  Pd29  1  0.000072  0.739569  0.499581  1
  Pd  Pd30  1  0.500419  0.000072  0.260431  1
  Pd  Pd31  1  0.739569  0.000072  0.499581  1
  Pd  Pd32  1  0.739569  0.500419  0.999928  1
