# generated using pymatgen
data_SmEr3(Si5Os3)2
_symmetry_space_group_name_H-M   'P 1'
_cell_length_a   8.13995520
_cell_length_b   8.12997134
_cell_length_c   5.79751471
_cell_angle_alpha   70.53531424
_cell_angle_beta   70.48178285
_cell_angle_gamma   93.97803668
_symmetry_Int_Tables_number   1
_chemical_formula_structural   SmEr3(Si5Os3)2
_chemical_formula_sum   'Sm1 Er3 Si10 Os6'
_cell_volume   333.82732039
_cell_formula_units_Z   1
loop_
 _symmetry_equiv_pos_site_id
 _symmetry_equiv_pos_as_xyz
  1  'x, y, z'
loop_
 _atom_site_type_symbol
 _atom_site_label
 _atom_site_symmetry_multiplicity
 _atom_site_fract_x
 _atom_site_fract_y
 _atom_site_fract_z
 _atom_site_occupancy
  Sm  Sm0  1  0.867046  0.602875  0.753360  1
  Er  Er1  1  0.400325  0.129120  0.746450  1
  Er  Er2  1  0.130151  0.399620  0.246299  1
  Er  Er3  1  0.601600  0.867325  0.255657  1
  Si  Si4  1  0.071057  0.261702  0.833295  1
  Si  Si5  1  0.737383  0.935887  0.666185  1
  Si  Si6  1  0.932594  0.739132  0.165255  1
  Si  Si7  1  0.260867  0.068604  0.334193  1
  Si  Si8  1  0.206963  0.794054  0.751506  1
  Si  Si9  1  0.793900  0.206660  0.248899  1
  Si  Si10  1  0.510023  0.484355  0.752098  1
  Si  Si11  1  0.486180  0.511445  0.249815  1
  Si  Si12  1  0.774218  0.224350  0.750476  1
  Si  Si13  1  0.226421  0.774318  0.247836  1
  Os  Os14  1  0.257044  0.544590  0.630314  1
  Os  Os15  1  0.456675  0.744016  0.867558  1
  Os  Os16  1  0.743186  0.455335  0.369823  1
  Os  Os17  1  0.543072  0.253347  0.132377  1
  Os  Os18  1  0.002889  0.999695  0.749265  1
  Os  Os19  1  0.998407  0.003572  0.249338  1
