# generated using pymatgen
data_YHoTa2(Co4P3)2
_symmetry_space_group_name_H-M   'P 1'
_cell_length_a   3.69539300
_cell_length_b   10.55574604
_cell_length_c   12.01578804
_cell_angle_alpha   90.00937227
_cell_angle_beta   90.00000000
_cell_angle_gamma   90.00000000
_symmetry_Int_Tables_number   1
_chemical_formula_structural   YHoTa2(Co4P3)2
_chemical_formula_sum   'Y2 Ho2 Ta4 Co16 P12'
_cell_volume   468.70740786
_cell_formula_units_Z   2
loop_
 _symmetry_equiv_pos_site_id
 _symmetry_equiv_pos_as_xyz
  1  'x, y, z'
loop_
 _atom_site_type_symbol
 _atom_site_label
 _atom_site_symmetry_multiplicity
 _atom_site_fract_x
 _atom_site_fract_y
 _atom_site_fract_z
 _atom_site_occupancy
  Y  Y0  1  0.750000  0.417323  0.294666  1
  Y  Y1  1  0.250000  0.582677  0.705334  1
  Ho  Ho2  1  0.250000  0.917494  0.205289  1
  Ho  Ho3  1  0.750000  0.082506  0.794711  1
  Ta  Ta4  1  0.250000  0.793743  0.489068  1
  Ta  Ta5  1  0.750000  0.206257  0.510932  1
  Ta  Ta6  1  0.750000  0.293518  0.010881  1
  Ta  Ta7  1  0.250000  0.706482  0.989119  1
  Co  Co8  1  0.250000  0.093584  0.989784  1
  Co  Co9  1  0.750000  0.906416  0.010216  1
  Co  Co10  1  0.750000  0.593697  0.509963  1
  Co  Co11  1  0.250000  0.406303  0.490037  1
  Co  Co12  1  0.250000  0.277115  0.676985  1
  Co  Co13  1  0.750000  0.722885  0.323015  1
  Co  Co14  1  0.750000  0.777460  0.823134  1
  Co  Co15  1  0.250000  0.222540  0.176866  1
  Co  Co16  1  0.250000  0.611992  0.200990  1
  Co  Co17  1  0.750000  0.388008  0.799010  1
  Co  Co18  1  0.750000  0.111552  0.298826  1
  Co  Co19  1  0.250000  0.888448  0.701174  1
  Co  Co20  1  0.250000  0.034836  0.432998  1
  Co  Co21  1  0.750000  0.965164  0.567002  1
  Co  Co22  1  0.750000  0.534946  0.066880  1
  Co  Co23  1  0.250000  0.465054  0.933120  1
  P  P24  1  0.250000  0.077715  0.616680  1
  P  P25  1  0.750000  0.922285  0.383320  1
  P  P26  1  0.750000  0.577684  0.883726  1
  P  P27  1  0.250000  0.422316  0.116274  1
  P  P28  1  0.250000  0.230544  0.361557  1
  P  P29  1  0.750000  0.769456  0.638443  1
  P  P30  1  0.750000  0.730984  0.138611  1
  P  P31  1  0.250000  0.269016  0.861389  1
  P  P32  1  0.250000  0.908833  0.889757  1
  P  P33  1  0.750000  0.091167  0.110243  1
  P  P34  1  0.750000  0.408472  0.610017  1
  P  P35  1  0.250000  0.591528  0.389983  1
