# generated using pymatgen
data_Ho7Er(Sc3Pt4)4
_symmetry_space_group_name_H-M   'P 1'
_cell_length_a   7.23627101
_cell_length_b   7.28925801
_cell_length_c   14.17373303
_cell_angle_alpha   89.99430868
_cell_angle_beta   89.99553166
_cell_angle_gamma   89.99761744
_symmetry_Int_Tables_number   1
_chemical_formula_structural   Ho7Er(Sc3Pt4)4
_chemical_formula_sum   'Ho7 Er1 Sc12 Pt16'
_cell_volume   747.62254716
_cell_formula_units_Z   1
loop_
 _symmetry_equiv_pos_site_id
 _symmetry_equiv_pos_as_xyz
  1  'x, y, z'
loop_
 _atom_site_type_symbol
 _atom_site_label
 _atom_site_symmetry_multiplicity
 _atom_site_fract_x
 _atom_site_fract_y
 _atom_site_fract_z
 _atom_site_occupancy
  Ho  Ho0  1  0.997143  0.822589  0.907451  1
  Ho  Ho1  1  0.502823  0.322625  0.092540  1
  Ho  Ho2  1  0.002836  0.177395  0.407460  1
  Ho  Ho3  1  0.502854  0.322691  0.407507  1
  Ho  Ho4  1  0.002817  0.177374  0.092539  1
  Ho  Ho5  1  0.497136  0.677400  0.907444  1
  Ho  Ho6  1  0.997200  0.822591  0.592530  1
  Er  Er7  1  0.497259  0.677475  0.592605  1
  Sc  Sc8  1  0.655576  0.168254  0.624426  1
  Sc  Sc9  1  0.155631  0.331775  0.875547  1
  Sc  Sc10  1  0.344373  0.831742  0.124446  1
  Sc  Sc11  1  0.844323  0.668234  0.375582  1
  Sc  Sc12  1  0.344451  0.831706  0.375618  1
  Sc  Sc13  1  0.844386  0.668263  0.124450  1
  Sc  Sc14  1  0.655621  0.168269  0.875548  1
  Sc  Sc15  1  0.155724  0.331805  0.624429  1
  Sc  Sc16  1  0.821213  0.504057  0.749966  1
  Sc  Sc17  1  0.321324  0.995943  0.749952  1
  Sc  Sc18  1  0.178731  0.495980  0.250010  1
  Sc  Sc19  1  0.678717  0.004014  0.250004  1
  Pt  Pt20  1  0.680778  0.959572  0.458872  1
  Pt  Pt21  1  0.180830  0.540266  0.041199  1
  Pt  Pt22  1  0.319185  0.040297  0.958814  1
  Pt  Pt23  1  0.818917  0.459888  0.541223  1
  Pt  Pt24  1  0.319228  0.040052  0.541230  1
  Pt  Pt25  1  0.819191  0.459688  0.958802  1
  Pt  Pt26  1  0.680841  0.959702  0.041192  1
  Pt  Pt27  1  0.180924  0.540385  0.458888  1
  Pt  Pt28  1  0.457789  0.380688  0.749917  1
  Pt  Pt29  1  0.957739  0.119376  0.749983  1
  Pt  Pt30  1  0.542229  0.619431  0.250015  1
  Pt  Pt31  1  0.042255  0.880586  0.250013  1
  Pt  Pt32  1  0.683291  0.855652  0.749865  1
  Pt  Pt33  1  0.183552  0.644216  0.749920  1
  Pt  Pt34  1  0.316570  0.144222  0.250007  1
  Pt  Pt35  1  0.816544  0.355797  0.250005  1
