# generated using pymatgen
data_LaSn6PdRu3
_symmetry_space_group_name_H-M   'P 1'
_cell_length_a   7.01639720
_cell_length_b   7.01736104
_cell_length_c   6.98636692
_cell_angle_alpha   119.68938304
_cell_angle_beta   119.68476806
_cell_angle_gamma   90.78966603
_symmetry_Int_Tables_number   1
_chemical_formula_structural   LaSn6PdRu3
_chemical_formula_sum   'La1 Sn6 Pd1 Ru3'
_cell_volume   243.83623505
_cell_formula_units_Z   1
loop_
 _symmetry_equiv_pos_site_id
 _symmetry_equiv_pos_as_xyz
  1  'x, y, z'
loop_
 _atom_site_type_symbol
 _atom_site_label
 _atom_site_symmetry_multiplicity
 _atom_site_fract_x
 _atom_site_fract_y
 _atom_site_fract_z
 _atom_site_occupancy
  La  La0  1  0.993775  0.005883  0.000000  1
  Sn  Sn1  1  0.471688  0.129610  0.000000  1
  Sn  Sn2  1  0.122740  0.467948  0.000000  1
  Sn  Sn3  1  0.888388  0.874653  0.356836  1
  Sn  Sn4  1  0.531552  0.517817  0.643164  1
  Sn  Sn5  1  0.989588  0.488528  0.492235  1
  Sn  Sn6  1  0.497353  0.996293  0.507765  1
  Pd  Pd7  1  0.403673  0.761735  0.000000  1
  Ru  Ru8  1  0.757439  0.404320  0.000000  1
  Ru  Ru9  1  0.249105  0.253810  0.654406  1
  Ru  Ru10  1  0.594699  0.599404  0.345594  1
