# generated using pymatgen
data_Ta3(Nb2Co3)2
_symmetry_space_group_name_H-M   'P 1'
_cell_length_a   4.96059348
_cell_length_b   4.96059239
_cell_length_c   9.16605409
_cell_angle_alpha   74.30025916
_cell_angle_beta   74.30026380
_cell_angle_gamma   59.99999415
_symmetry_Int_Tables_number   1
_chemical_formula_structural   Ta3(Nb2Co3)2
_chemical_formula_sum   'Ta3 Nb4 Co6'
_cell_volume   185.55498120
_cell_formula_units_Z   1
loop_
 _symmetry_equiv_pos_site_id
 _symmetry_equiv_pos_as_xyz
  1  'x, y, z'
loop_
 _atom_site_type_symbol
 _atom_site_label
 _atom_site_symmetry_multiplicity
 _atom_site_fract_x
 _atom_site_fract_y
 _atom_site_fract_z
 _atom_site_occupancy
  Ta  Ta0  1  0.000000  0.000000  0.000000  1
  Ta  Ta1  1  0.166740  0.166740  0.499779  1
  Ta  Ta2  1  0.833260  0.833260  0.500221  1
  Nb  Nb3  1  0.346725  0.346725  0.959825  1
  Nb  Nb4  1  0.653275  0.653275  0.040175  1
  Nb  Nb5  1  0.450441  0.450441  0.648678  1
  Nb  Nb6  1  0.549559  0.549559  0.351322  1
  Co  Co7  1  0.580629  0.091404  0.236564  1
  Co  Co8  1  0.091404  0.091404  0.236564  1
  Co  Co9  1  0.091404  0.580629  0.236564  1
  Co  Co10  1  0.419371  0.908596  0.763436  1
  Co  Co11  1  0.908596  0.908596  0.763436  1
  Co  Co12  1  0.908596  0.419371  0.763436  1
