# generated using pymatgen
data_Dy4ErIrRu
_symmetry_space_group_name_H-M   'P 1'
_cell_length_a   6.39023733
_cell_length_b   7.26085074
_cell_length_c   8.51220960
_cell_angle_alpha   96.64543466
_cell_angle_beta   112.04637769
_cell_angle_gamma   90.00000159
_symmetry_Int_Tables_number   1
_chemical_formula_structural   Dy4ErIrRu
_chemical_formula_sum   'Dy8 Er2 Ir2 Ru2'
_cell_volume   363.21083620
_cell_formula_units_Z   2
loop_
 _symmetry_equiv_pos_site_id
 _symmetry_equiv_pos_as_xyz
  1  'x, y, z'
loop_
 _atom_site_type_symbol
 _atom_site_label
 _atom_site_symmetry_multiplicity
 _atom_site_fract_x
 _atom_site_fract_y
 _atom_site_fract_z
 _atom_site_occupancy
  Dy  Dy0  1  0.792522  0.582411  0.814718  1
  Dy  Dy1  1  0.977805  0.917589  0.185282  1
  Dy  Dy2  1  0.208636  0.414959  0.184197  1
  Dy  Dy3  1  0.024438  0.085041  0.815803  1
  Dy  Dy4  1  0.208574  0.683667  0.565092  1
  Dy  Dy5  1  0.643481  0.816333  0.434908  1
  Dy  Dy6  1  0.791317  0.314742  0.436625  1
  Dy  Dy7  1  0.354693  0.185258  0.563375  1
  Er  Er8  1  0.424840  0.750000  0.000000  1
  Er  Er9  1  0.574662  0.250000  0.000000  1
  Ir  Ir10  1  0.602658  0.924337  0.780486  1
  Ir  Ir11  1  0.822171  0.575663  0.219514  1
  Ru  Ru12  1  0.396884  0.074054  0.219565  1
  Ru  Ru13  1  0.177320  0.425946  0.780435  1
