# generated using pymatgen
data_La2Eu4TcSbO14
_symmetry_space_group_name_H-M   'P 1'
_cell_length_a   6.62529034
_cell_length_b   6.62529018
_cell_length_c   7.75686668
_cell_angle_alpha   90.12048580
_cell_angle_beta   89.87951295
_cell_angle_gamma   110.41241612
_symmetry_Int_Tables_number   1
_chemical_formula_structural   La2Eu4TcSbO14
_chemical_formula_sum   'La2 Eu4 Tc1 Sb1 O14'
_cell_volume   319.10233546
_cell_formula_units_Z   1
loop_
 _symmetry_equiv_pos_site_id
 _symmetry_equiv_pos_as_xyz
  1  'x, y, z'
loop_
 _atom_site_type_symbol
 _atom_site_label
 _atom_site_symmetry_multiplicity
 _atom_site_fract_x
 _atom_site_fract_y
 _atom_site_fract_z
 _atom_site_occupancy
  La  La0  1  0.500000  0.500000  0.500000  1
  La  La1  1  0.500000  0.500000  0.000000  1
  Eu  Eu2  1  0.529673  0.999462  0.753206  1
  Eu  Eu3  1  0.999462  0.529673  0.246794  1
  Eu  Eu4  1  0.470327  0.000538  0.246794  1
  Eu  Eu5  1  0.000538  0.470327  0.753206  1
  Tc  Tc6  1  0.000000  0.000000  0.500000  1
  Sb  Sb7  1  0.000000  0.000000  0.000000  1
  O  O8  1  0.696297  0.936404  0.469628  1
  O  O9  1  0.936404  0.696297  0.530372  1
  O  O10  1  0.682586  0.929848  0.025804  1
  O  O11  1  0.929848  0.682586  0.974196  1
  O  O12  1  0.303703  0.063596  0.530372  1
  O  O13  1  0.063596  0.303703  0.469628  1
  O  O14  1  0.317414  0.070152  0.974196  1
  O  O15  1  0.070152  0.317414  0.025804  1
  O  O16  1  0.942387  0.057613  0.747345  1
  O  O17  1  0.057613  0.942387  0.252655  1
  O  O18  1  0.366950  0.633050  0.748002  1
  O  O19  1  0.633050  0.366950  0.251998  1
  O  O20  1  0.636834  0.363166  0.744776  1
  O  O21  1  0.363166  0.636834  0.255224  1
