# generated using pymatgen
data_Tm5Lu7In2Fe2Tc
_symmetry_space_group_name_H-M   'P 1'
_cell_length_a   8.23024637
_cell_length_b   8.22887366
_cell_length_c   8.23024730
_cell_angle_alpha   108.79755030
_cell_angle_beta   108.87132160
_cell_angle_gamma   110.75936012
_symmetry_Int_Tables_number   1
_chemical_formula_structural   Tm5Lu7In2Fe2Tc
_chemical_formula_sum   'Tm5 Lu7 In2 Fe2 Tc1'
_cell_volume   428.88688591
_cell_formula_units_Z   1
loop_
 _symmetry_equiv_pos_site_id
 _symmetry_equiv_pos_as_xyz
  1  'x, y, z'
loop_
 _atom_site_type_symbol
 _atom_site_label
 _atom_site_symmetry_multiplicity
 _atom_site_fract_x
 _atom_site_fract_y
 _atom_site_fract_z
 _atom_site_occupancy
  Tm  Tm0  1  0.307762  0.307049  0.615068  1
  Tm  Tm1  1  0.693355  0.692640  0.385137  1
  Tm  Tm2  1  0.691982  0.307049  0.999287  1
  Tm  Tm3  1  0.307502  0.692640  0.999285  1
  Tm  Tm4  1  0.192915  0.431971  0.239056  1
  Lu  Lu5  1  0.807497  0.569903  0.762407  1
  Lu  Lu6  1  0.192464  0.954239  0.761776  1
  Lu  Lu7  1  0.954436  0.192110  0.761701  1
  Lu  Lu8  1  0.807060  0.045244  0.238184  1
  Lu  Lu9  1  0.045485  0.808205  0.237602  1
  Lu  Lu10  1  0.430408  0.192110  0.237673  1
  Lu  Lu11  1  0.570602  0.808205  0.762720  1
  In  In12  1  0.998856  0.499458  0.500601  1
  In  In13  1  0.500162  0.000277  0.500115  1
  Fe  Fe14  1  0.382586  0.381753  0.999167  1
  Fe  Fe15  1  0.616993  0.617281  0.000288  1
  Tc  Tc16  1  0.999934  0.999867  0.999933  1
