# generated using pymatgen
data_TbPr9CdSi4Ge
_symmetry_space_group_name_H-M   'P 1'
_cell_length_a   7.80112100
_cell_length_b   9.25495814
_cell_length_c   7.80112100
_cell_angle_alpha   114.92656799
_cell_angle_beta   90.00000000
_cell_angle_gamma   114.92656799
_symmetry_Int_Tables_number   1
_chemical_formula_structural   TbPr9CdSi4Ge
_chemical_formula_sum   'Tb1 Pr9 Cd1 Si4 Ge1'
_cell_volume   452.25549068
_cell_formula_units_Z   1
loop_
 _symmetry_equiv_pos_site_id
 _symmetry_equiv_pos_as_xyz
  1  'x, y, z'
loop_
 _atom_site_type_symbol
 _atom_site_label
 _atom_site_symmetry_multiplicity
 _atom_site_fract_x
 _atom_site_fract_y
 _atom_site_fract_z
 _atom_site_occupancy
  Tb  Tb0  1  0.983622  0.967245  0.983622  1
  Pr  Pr1  1  0.525085  0.050171  0.525085  1
  Pr  Pr2  1  0.524679  0.719026  0.671745  1
  Pr  Pr3  1  0.194348  0.719026  0.047281  1
  Pr  Pr4  1  0.671745  0.719026  0.194348  1
  Pr  Pr5  1  0.047281  0.719026  0.524679  1
  Pr  Pr6  1  0.453522  0.279645  0.303254  1
  Pr  Pr7  1  0.826122  0.279645  0.976390  1
  Pr  Pr8  1  0.303254  0.279645  0.826122  1
  Pr  Pr9  1  0.976390  0.279645  0.453522  1
  Cd  Cd10  1  0.754408  0.508816  0.754408  1
  Si  Si11  1  0.884586  0.997042  0.617265  1
  Si  Si12  1  0.112456  0.997042  0.379777  1
  Si  Si13  1  0.617265  0.997042  0.112456  1
  Si  Si14  1  0.379777  0.997042  0.884586  1
  Ge  Ge15  1  0.245458  0.490916  0.245458  1
