# generated using pymatgen
data_ThAl5Cu6
_symmetry_space_group_name_H-M   'P 1'
_cell_length_a   10.38883487
_cell_length_b   8.21060923
_cell_length_c   7.90286897
_cell_angle_alpha   80.26599823
_cell_angle_beta   51.16472933
_cell_angle_gamma   48.56926976
_symmetry_Int_Tables_number   1
_chemical_formula_structural   ThAl5Cu6
_chemical_formula_sum   'Th2 Al10 Cu12'
_cell_volume   357.10310728
_cell_formula_units_Z   2
loop_
 _symmetry_equiv_pos_site_id
 _symmetry_equiv_pos_as_xyz
  1  'x, y, z'
loop_
 _atom_site_type_symbol
 _atom_site_label
 _atom_site_symmetry_multiplicity
 _atom_site_fract_x
 _atom_site_fract_y
 _atom_site_fract_z
 _atom_site_occupancy
  Th  Th0  1  0.000000  0.000000  0.000000  1
  Th  Th1  1  0.250000  0.250000  0.250000  1
  Al  Al2  1  0.500000  0.500000  0.500000  1
  Al  Al3  1  0.750000  0.750000  0.750000  1
  Al  Al4  1  0.758427  0.069298  0.829334  1
  Al  Al5  1  0.829334  0.342941  0.758427  1
  Al  Al6  1  0.069298  0.758427  0.342941  1
  Al  Al7  1  0.342941  0.829334  0.069298  1
  Al  Al8  1  0.491573  0.180702  0.420666  1
  Al  Al9  1  0.420666  0.907059  0.491573  1
  Al  Al10  1  0.180702  0.491573  0.907059  1
  Al  Al11  1  0.907059  0.420666  0.180702  1
  Cu  Cu12  1  0.625000  0.125000  0.625000  1
  Cu  Cu13  1  0.625000  0.625000  0.625000  1
  Cu  Cu14  1  0.125000  0.625000  0.625000  1
  Cu  Cu15  1  0.625000  0.625000  0.125000  1
  Cu  Cu16  1  0.489989  0.434647  0.183269  1
  Cu  Cu17  1  0.183269  0.892095  0.489989  1
  Cu  Cu18  1  0.434647  0.489989  0.892095  1
  Cu  Cu19  1  0.892095  0.183269  0.434647  1
  Cu  Cu20  1  0.760011  0.815353  0.066731  1
  Cu  Cu21  1  0.066731  0.357905  0.760011  1
  Cu  Cu22  1  0.815353  0.760011  0.357905  1
  Cu  Cu23  1  0.357905  0.066731  0.815353  1
