# generated using pymatgen
data_Tb12Th4MgZn3Rh4
_symmetry_space_group_name_H-M   'P 1'
_cell_length_a   9.69626690
_cell_length_b   9.68835118
_cell_length_c   9.68835200
_cell_angle_alpha   60.00000402
_cell_angle_beta   60.02700557
_cell_angle_gamma   60.02700582
_symmetry_Int_Tables_number   1
_chemical_formula_structural   Tb12Th4MgZn3Rh4
_chemical_formula_sum   'Tb12 Th4 Mg1 Zn3 Rh4'
_cell_volume   643.82303783
_cell_formula_units_Z   1
loop_
 _symmetry_equiv_pos_site_id
 _symmetry_equiv_pos_as_xyz
  1  'x, y, z'
loop_
 _atom_site_type_symbol
 _atom_site_label
 _atom_site_symmetry_multiplicity
 _atom_site_fract_x
 _atom_site_fract_y
 _atom_site_fract_z
 _atom_site_occupancy
  Tb  Tb0  1  0.808931  0.190842  0.190842  1
  Tb  Tb1  1  0.186823  0.812026  0.812026  1
  Tb  Tb2  1  0.186823  0.812026  0.189125  1
  Tb  Tb3  1  0.808931  0.190842  0.809385  1
  Tb  Tb4  1  0.186823  0.189125  0.812026  1
  Tb  Tb5  1  0.808931  0.809385  0.190842  1
  Tb  Tb6  1  0.928160  0.566935  0.566935  1
  Tb  Tb7  1  0.563818  0.934835  0.934835  1
  Tb  Tb8  1  0.563818  0.934835  0.566511  1
  Tb  Tb9  1  0.928160  0.566935  0.937970  1
  Tb  Tb10  1  0.563818  0.566511  0.934835  1
  Tb  Tb11  1  0.928160  0.937970  0.566935  1
  Th  Th12  1  0.352906  0.349976  0.349976  1
  Th  Th13  1  0.352906  0.349976  0.947143  1
  Th  Th14  1  0.352906  0.947143  0.349976  1
  Th  Th15  1  0.942727  0.352425  0.352425  1
  Mg  Mg16  1  0.277059  0.574314  0.574314  1
  Zn  Zn17  1  0.585331  0.583171  0.583171  1
  Zn  Zn18  1  0.585331  0.583171  0.248327  1
  Zn  Zn19  1  0.585331  0.248327  0.583171  1
  Rh  Rh20  1  0.144523  0.143989  0.143989  1
  Rh  Rh21  1  0.144523  0.143989  0.567498  1
  Rh  Rh22  1  0.144523  0.567498  0.143989  1
  Rh  Rh23  1  0.568735  0.143754  0.143754  1
