# generated using pymatgen
data_Tb2Bi2Ru2O11
_symmetry_space_group_name_H-M   'P 1'
_cell_length_a   6.51539622
_cell_length_b   7.53117520
_cell_length_c   9.70092578
_cell_angle_alpha   101.22132095
_cell_angle_beta   90.70138281
_cell_angle_gamma   90.03675509
_symmetry_Int_Tables_number   1
_chemical_formula_structural   Tb2Bi2Ru2O11
_chemical_formula_sum   'Tb4 Bi4 Ru4 O22'
_cell_volume   466.87356310
_cell_formula_units_Z   2
loop_
 _symmetry_equiv_pos_site_id
 _symmetry_equiv_pos_as_xyz
  1  'x, y, z'
loop_
 _atom_site_type_symbol
 _atom_site_label
 _atom_site_symmetry_multiplicity
 _atom_site_fract_x
 _atom_site_fract_y
 _atom_site_fract_z
 _atom_site_occupancy
  Tb  Tb0  1  0.747330  0.368922  0.482071  1
  Tb  Tb1  1  0.252670  0.631078  0.517929  1
  Tb  Tb2  1  0.758069  0.872849  0.489046  1
  Tb  Tb3  1  0.241931  0.127151  0.510954  1
  Bi  Bi4  1  0.461354  0.955547  0.819409  1
  Bi  Bi5  1  0.538646  0.044453  0.180591  1
  Bi  Bi6  1  0.389945  0.455467  0.826212  1
  Bi  Bi7  1  0.610055  0.544533  0.173788  1
  Ru  Ru8  1  0.925922  0.702673  0.809130  1
  Ru  Ru9  1  0.074078  0.297327  0.190870  1
  Ru  Ru10  1  0.927082  0.201117  0.808884  1
  Ru  Ru11  1  0.072918  0.798883  0.191116  1
  O  O12  1  0.223977  0.720026  0.760041  1
  O  O13  1  0.776023  0.279974  0.239959  1
  O  O14  1  0.631699  0.676300  0.840202  1
  O  O15  1  0.368301  0.323700  0.159798  1
  O  O16  1  0.632576  0.243313  0.839259  1
  O  O17  1  0.367424  0.756687  0.160741  1
  O  O18  1  0.893823  0.159370  0.593170  1
  O  O19  1  0.106177  0.840630  0.406830  1
  O  O20  1  0.222543  0.157950  0.756380  1
  O  O21  1  0.777457  0.842050  0.243620  1
  O  O22  1  0.895612  0.636860  0.597913  1
  O  O23  1  0.104388  0.363140  0.402087  1
  O  O24  1  0.014773  0.546425  0.184044  1
  O  O25  1  0.985227  0.453575  0.815956  1
  O  O26  1  0.998509  0.780922  0.001058  1
  O  O27  1  0.001491  0.219078  0.998942  1
  O  O28  1  0.572358  0.599826  0.395575  1
  O  O29  1  0.427642  0.400174  0.604425  1
  O  O30  1  0.160528  0.055220  0.220831  1
  O  O31  1  0.839472  0.944780  0.779169  1
  O  O32  1  0.547108  0.101165  0.402019  1
  O  O33  1  0.452892  0.898835  0.597981  1
