# generated using pymatgen
data_Rb3NaCdBr6
_symmetry_space_group_name_H-M   'P 1'
_cell_length_a   9.26727470
_cell_length_b   9.26727515
_cell_length_c   9.26727437
_cell_angle_alpha   92.89745960
_cell_angle_beta   92.89746486
_cell_angle_gamma   92.89745723
_symmetry_Int_Tables_number   1
_chemical_formula_structural   Rb3NaCdBr6
_chemical_formula_sum   'Rb6 Na2 Cd2 Br12'
_cell_volume   792.73608006
_cell_formula_units_Z   2
loop_
 _symmetry_equiv_pos_site_id
 _symmetry_equiv_pos_as_xyz
  1  'x, y, z'
loop_
 _atom_site_type_symbol
 _atom_site_label
 _atom_site_symmetry_multiplicity
 _atom_site_fract_x
 _atom_site_fract_y
 _atom_site_fract_z
 _atom_site_occupancy
  Rb  Rb0  1  0.370935  0.129065  0.750000  1
  Rb  Rb1  1  0.129065  0.750000  0.370935  1
  Rb  Rb2  1  0.750000  0.370935  0.129065  1
  Rb  Rb3  1  0.629065  0.870935  0.250000  1
  Rb  Rb4  1  0.250000  0.629065  0.870935  1
  Rb  Rb5  1  0.870935  0.250000  0.629065  1
  Na  Na6  1  0.250000  0.250000  0.250000  1
  Na  Na7  1  0.750000  0.750000  0.750000  1
  Cd  Cd8  1  0.000000  0.000000  0.000000  1
  Cd  Cd9  1  0.500000  0.500000  0.500000  1
  Br  Br10  1  0.961769  0.085090  0.292786  1
  Br  Br11  1  0.085090  0.292786  0.961769  1
  Br  Br12  1  0.292786  0.961769  0.085090  1
  Br  Br13  1  0.585090  0.461769  0.792786  1
  Br  Br14  1  0.792786  0.585090  0.461769  1
  Br  Br15  1  0.461769  0.792786  0.585090  1
  Br  Br16  1  0.207214  0.414910  0.538231  1
  Br  Br17  1  0.414910  0.538231  0.207214  1
  Br  Br18  1  0.538231  0.207214  0.414910  1
  Br  Br19  1  0.914910  0.707214  0.038231  1
  Br  Br20  1  0.038231  0.914910  0.707214  1
  Br  Br21  1  0.707214  0.038231  0.914910  1
