# generated using pymatgen
data_Er6Al24FePd3Ru4
_symmetry_space_group_name_H-M   'P 1'
_cell_length_a   8.80593090
_cell_length_b   8.78817856
_cell_length_c   9.49254322
_cell_angle_alpha   90.20546653
_cell_angle_beta   89.88138112
_cell_angle_gamma   119.46796985
_symmetry_Int_Tables_number   1
_chemical_formula_structural   Er6Al24FePd3Ru4
_chemical_formula_sum   'Er6 Al24 Fe1 Pd3 Ru4'
_cell_volume   639.56981149
_cell_formula_units_Z   1
loop_
 _symmetry_equiv_pos_site_id
 _symmetry_equiv_pos_as_xyz
  1  'x, y, z'
loop_
 _atom_site_type_symbol
 _atom_site_label
 _atom_site_symmetry_multiplicity
 _atom_site_fract_x
 _atom_site_fract_y
 _atom_site_fract_z
 _atom_site_occupancy
  Er  Er0  1  0.189049  0.387740  0.251874  1
  Er  Er1  1  0.810951  0.612260  0.748126  1
  Er  Er2  1  0.614620  0.809944  0.250537  1
  Er  Er3  1  0.385380  0.190056  0.749463  1
  Er  Er4  1  0.192459  0.805289  0.250645  1
  Er  Er5  1  0.807541  0.194711  0.749355  1
  Al  Al6  1  0.327867  0.664527  0.027702  1
  Al  Al7  1  0.672133  0.335473  0.972298  1
  Al  Al8  1  0.669311  0.330151  0.525511  1
  Al  Al9  1  0.330689  0.669849  0.474489  1
  Al  Al10  1  0.154770  0.318837  0.575863  1
  Al  Al11  1  0.845230  0.681163  0.424137  1
  Al  Al12  1  0.681956  0.846012  0.575082  1
  Al  Al13  1  0.842475  0.676531  0.078106  1
  Al  Al14  1  0.318044  0.153988  0.424918  1
  Al  Al15  1  0.157525  0.323469  0.921894  1
  Al  Al16  1  0.161138  0.839805  0.576437  1
  Al  Al17  1  0.321638  0.162063  0.079779  1
  Al  Al18  1  0.838862  0.160195  0.423563  1
  Al  Al19  1  0.678362  0.837937  0.920221  1
  Al  Al20  1  0.842453  0.167661  0.079910  1
  Al  Al21  1  0.157547  0.832339  0.920090  1
  Al  Al22  1  0.561852  0.124994  0.253763  1
  Al  Al23  1  0.438148  0.875006  0.746237  1
  Al  Al24  1  0.876821  0.439791  0.250531  1
  Al  Al25  1  0.123179  0.560209  0.749469  1
  Al  Al26  1  0.563405  0.437317  0.250212  1
  Al  Al27  1  0.436595  0.562683  0.749788  1
  Al  Al28  1  0.997487  0.001010  0.255964  1
  Al  Al29  1  0.002513  0.998990  0.744036  1
  Fe  Fe30  1  0.000000  0.000000  0.500000  1
  Pd  Pd31  1  0.500000  0.000000  0.000000  1
  Pd  Pd32  1  0.500000  0.500000  0.000000  1
  Pd  Pd33  1  0.500000  0.500000  0.500000  1
  Ru  Ru34  1  0.000000  0.500000  0.000000  1
  Ru  Ru35  1  0.500000  0.000000  0.500000  1
  Ru  Ru36  1  0.000000  0.500000  0.500000  1
  Ru  Ru37  1  0.000000  0.000000  0.000000  1
