# generated using pymatgen
data_Ca11Ho7(TmSn8)2
_symmetry_space_group_name_H-M   'P 1'
_cell_length_a   7.81928127
_cell_length_b   8.41551348
_cell_length_c   15.94495500
_cell_angle_alpha   90.01523709
_cell_angle_beta   90.01507999
_cell_angle_gamma   89.91087463
_symmetry_Int_Tables_number   1
_chemical_formula_structural   Ca11Ho7(TmSn8)2
_chemical_formula_sum   'Ca11 Ho7 Tm2 Sn16'
_cell_volume   1049.22878722
_cell_formula_units_Z   1
loop_
 _symmetry_equiv_pos_site_id
 _symmetry_equiv_pos_as_xyz
  1  'x, y, z'
loop_
 _atom_site_type_symbol
 _atom_site_label
 _atom_site_symmetry_multiplicity
 _atom_site_fract_x
 _atom_site_fract_y
 _atom_site_fract_z
 _atom_site_occupancy
  Ca  Ca0  1  0.504466  0.687344  0.593642  1
  Ca  Ca1  1  0.004021  0.814994  0.908113  1
  Ca  Ca2  1  0.494039  0.311765  0.092022  1
  Ca  Ca3  1  0.995493  0.187176  0.408354  1
  Ca  Ca4  1  0.494285  0.311802  0.408132  1
  Ca  Ca5  1  0.995480  0.187176  0.091622  1
  Ca  Ca6  1  0.504527  0.687329  0.906318  1
  Ca  Ca7  1  0.004055  0.815068  0.591830  1
  Ca  Ca8  1  0.336983  0.989769  0.749919  1
  Ca  Ca9  1  0.162745  0.488239  0.249993  1
  Ca  Ca10  1  0.662527  0.009858  0.250093  1
  Ho  Ho11  1  0.175759  0.335259  0.876817  1
  Ho  Ho12  1  0.325673  0.833513  0.122004  1
  Ho  Ho13  1  0.825881  0.664113  0.378574  1
  Ho  Ho14  1  0.325832  0.833552  0.378167  1
  Ho  Ho15  1  0.825877  0.664057  0.121640  1
  Ho  Ho16  1  0.674486  0.163771  0.877437  1
  Ho  Ho17  1  0.175810  0.335172  0.622954  1
  Tm  Tm18  1  0.674632  0.163569  0.622607  1
  Tm  Tm19  1  0.838872  0.509343  0.749816  1
  Sn  Sn20  1  0.672173  0.962929  0.459906  1
  Sn  Sn21  1  0.171396  0.536617  0.040213  1
  Sn  Sn22  1  0.328716  0.037733  0.959149  1
  Sn  Sn23  1  0.828107  0.464601  0.544470  1
  Sn  Sn24  1  0.330036  0.037867  0.541130  1
  Sn  Sn25  1  0.829065  0.465296  0.955573  1
  Sn  Sn26  1  0.671780  0.962383  0.040630  1
  Sn  Sn27  1  0.171198  0.536521  0.459869  1
  Sn  Sn28  1  0.477438  0.379472  0.749641  1
  Sn  Sn29  1  0.971671  0.133420  0.749509  1
  Sn  Sn30  1  0.527284  0.625382  0.250071  1
  Sn  Sn31  1  0.026599  0.871918  0.250082  1
  Sn  Sn32  1  0.722617  0.865067  0.749690  1
  Sn  Sn33  1  0.209542  0.630471  0.749904  1
  Sn  Sn34  1  0.279889  0.125911  0.250053  1
  Sn  Sn35  1  0.781050  0.371546  0.250051  1
