# generated using pymatgen
data_Sm3In4AgIr
_symmetry_space_group_name_H-M   'P 1'
_cell_length_a   8.02809800
_cell_length_b   8.02809830
_cell_length_c   3.94146100
_cell_angle_alpha   90.00000000
_cell_angle_beta   90.00000000
_cell_angle_gamma   120.00001526
_symmetry_Int_Tables_number   1
_chemical_formula_structural   Sm3In4AgIr
_chemical_formula_sum   'Sm3 In4 Ag1 Ir1'
_cell_volume   219.99516966
_cell_formula_units_Z   1
loop_
 _symmetry_equiv_pos_site_id
 _symmetry_equiv_pos_as_xyz
  1  'x, y, z'
loop_
 _atom_site_type_symbol
 _atom_site_label
 _atom_site_symmetry_multiplicity
 _atom_site_fract_x
 _atom_site_fract_y
 _atom_site_fract_z
 _atom_site_occupancy
  Sm  Sm0  1  0.055630  0.298614  0.500000  1
  Sm  Sm1  1  0.701386  0.757015  0.500000  1
  Sm  Sm2  1  0.242985  0.944370  0.500000  1
  In  In3  1  0.668631  0.073142  0.000000  1
  In  In4  1  0.926858  0.595490  0.000000  1
  In  In5  1  0.404510  0.331369  0.000000  1
  In  In6  1  0.333333  0.666667  0.000000  1
  Ag  Ag7  1  0.666667  0.333333  0.500000  1
  Ir  Ir8  1  0.000000  0.000000  0.000000  1
