# generated using pymatgen
data_Tm8LuTi3Pb10
_symmetry_space_group_name_H-M   'P 1'
_cell_length_a   6.24218906
_cell_length_b   9.29590650
_cell_length_c   11.36124862
_cell_angle_alpha   114.08748776
_cell_angle_beta   105.84866140
_cell_angle_gamma   90.26059625
_symmetry_Int_Tables_number   1
_chemical_formula_structural   Tm8LuTi3Pb10
_chemical_formula_sum   'Tm8 Lu1 Ti3 Pb10'
_cell_volume   573.89909584
_cell_formula_units_Z   1
loop_
 _symmetry_equiv_pos_site_id
 _symmetry_equiv_pos_as_xyz
  1  'x, y, z'
loop_
 _atom_site_type_symbol
 _atom_site_label
 _atom_site_symmetry_multiplicity
 _atom_site_fract_x
 _atom_site_fract_y
 _atom_site_fract_z
 _atom_site_occupancy
  Tm  Tm0  1  0.052506  0.302259  0.604624  1
  Tm  Tm1  1  0.438909  0.670466  0.880890  1
  Tm  Tm2  1  0.561830  0.329885  0.121122  1
  Tm  Tm3  1  0.941958  0.209646  0.880559  1
  Tm  Tm4  1  0.059564  0.791389  0.120968  1
  Tm  Tm5  1  0.147831  0.252739  0.288815  1
  Tm  Tm6  1  0.851796  0.744505  0.707888  1
  Tm  Tm7  1  0.640429  0.036234  0.287696  1
  Lu  Lu8  1  0.356027  0.963402  0.708076  1
  Ti  Ti9  1  0.556247  0.306426  0.612410  1
  Ti  Ti10  1  0.444384  0.694356  0.388974  1
  Ti  Ti11  1  0.945291  0.695399  0.390753  1
  Pb  Pb12  1  0.293124  0.595528  0.577457  1
  Pb  Pb13  1  0.696145  0.415416  0.419576  1
  Pb  Pb14  1  0.783575  0.982612  0.576949  1
  Pb  Pb15  1  0.223587  0.003710  0.419530  1
  Pb  Pb16  1  0.249234  0.999212  0.998703  1
  Pb  Pb17  1  0.750135  0.000462  0.000332  1
  Pb  Pb18  1  0.079583  0.482260  0.163017  1
  Pb  Pb19  1  0.913354  0.524486  0.844374  1
  Pb  Pb20  1  0.583692  0.680878  0.163547  1
  Pb  Pb21  1  0.430798  0.318731  0.843743  1
