# generated using pymatgen
data_Nd5Ho11Cd4Pd3Ru
_symmetry_space_group_name_H-M   'P 1'
_cell_length_a   9.77857011
_cell_length_b   9.76979542
_cell_length_c   9.76979619
_cell_angle_alpha   59.74139129
_cell_angle_beta   59.68269447
_cell_angle_gamma   59.68269487
_symmetry_Int_Tables_number   1
_chemical_formula_structural   Nd5Ho11Cd4Pd3Ru
_chemical_formula_sum   'Nd5 Ho11 Cd4 Pd3 Ru1'
_cell_volume   655.51690710
_cell_formula_units_Z   1
loop_
 _symmetry_equiv_pos_site_id
 _symmetry_equiv_pos_as_xyz
  1  'x, y, z'
loop_
 _atom_site_type_symbol
 _atom_site_label
 _atom_site_symmetry_multiplicity
 _atom_site_fract_x
 _atom_site_fract_y
 _atom_site_fract_z
 _atom_site_occupancy
  Nd  Nd0  1  0.557406  0.938986  0.938986  1
  Nd  Nd1  1  0.566311  0.934235  0.563730  1
  Nd  Nd2  1  0.938425  0.558346  0.935816  1
  Nd  Nd3  1  0.566311  0.563730  0.934235  1
  Nd  Nd4  1  0.938425  0.935816  0.558346  1
  Ho  Ho5  1  0.353207  0.352667  0.352667  1
  Ho  Ho6  1  0.347686  0.350167  0.949776  1
  Ho  Ho7  1  0.347686  0.949776  0.350167  1
  Ho  Ho8  1  0.947839  0.349580  0.349580  1
  Ho  Ho9  1  0.818399  0.186601  0.186601  1
  Ho  Ho10  1  0.185446  0.812317  0.812317  1
  Ho  Ho11  1  0.185353  0.817677  0.188543  1
  Ho  Ho12  1  0.812595  0.185985  0.811726  1
  Ho  Ho13  1  0.185353  0.188543  0.817677  1
  Ho  Ho14  1  0.812595  0.811726  0.185985  1
  Ho  Ho15  1  0.939395  0.560419  0.560419  1
  Cd  Cd16  1  0.582247  0.578410  0.578410  1
  Cd  Cd17  1  0.579017  0.580270  0.259621  1
  Cd  Cd18  1  0.579017  0.259621  0.580270  1
  Cd  Cd19  1  0.256885  0.579470  0.579470  1
  Pd  Pd20  1  0.143733  0.147280  0.569953  1
  Pd  Pd21  1  0.143733  0.569953  0.147280  1
  Pd  Pd22  1  0.570062  0.144714  0.144714  1
  Ru  Ru23  1  0.142871  0.143711  0.143711  1
