# generated using pymatgen
data_Sm2B4RuRh4
_symmetry_space_group_name_H-M   'P 1'
_cell_length_a   7.51793103
_cell_length_b   6.34477763
_cell_length_c   5.61659961
_cell_angle_alpha   77.61772757
_cell_angle_beta   55.51972783
_cell_angle_gamma   46.86255233
_symmetry_Int_Tables_number   1
_chemical_formula_structural   Sm2B4RuRh4
_chemical_formula_sum   'Sm2 B4 Ru1 Rh4'
_cell_volume   154.37194533
_cell_formula_units_Z   1
loop_
 _symmetry_equiv_pos_site_id
 _symmetry_equiv_pos_as_xyz
  1  'x, y, z'
loop_
 _atom_site_type_symbol
 _atom_site_label
 _atom_site_symmetry_multiplicity
 _atom_site_fract_x
 _atom_site_fract_y
 _atom_site_fract_z
 _atom_site_occupancy
  Sm  Sm0  1  0.856725  0.856725  0.143275  1
  Sm  Sm1  1  0.143275  0.143275  0.856725  1
  B  B2  1  0.785567  0.478779  0.534177  1
  B  B3  1  0.201477  0.534177  0.478779  1
  B  B4  1  0.534177  0.201477  0.785567  1
  B  B5  1  0.478779  0.785567  0.201477  1
  Ru  Ru6  1  0.750000  0.750000  0.750000  1
  Rh  Rh7  1  0.500000  0.500000  0.500000  1
  Rh  Rh8  1  0.498820  0.498820  0.001180  1
  Rh  Rh9  1  0.001180  0.001180  0.498820  1
  Rh  Rh10  1  0.250000  0.250000  0.250000  1
