# generated using pymatgen
data_CaZrNi12As7
_symmetry_space_group_name_H-M   'P 1'
_cell_length_a   9.32119641
_cell_length_b   9.31957674
_cell_length_c   3.79037500
_cell_angle_alpha   90.00000000
_cell_angle_beta   90.00000000
_cell_angle_gamma   120.02014977
_symmetry_Int_Tables_number   1
_chemical_formula_structural   CaZrNi12As7
_chemical_formula_sum   'Ca1 Zr1 Ni12 As7'
_cell_volume   285.09686577
_cell_formula_units_Z   1
loop_
 _symmetry_equiv_pos_site_id
 _symmetry_equiv_pos_as_xyz
  1  'x, y, z'
loop_
 _atom_site_type_symbol
 _atom_site_label
 _atom_site_symmetry_multiplicity
 _atom_site_fract_x
 _atom_site_fract_y
 _atom_site_fract_z
 _atom_site_occupancy
  Ca  Ca0  1  0.666624  0.333319  0.500001  1
  Zr  Zr1  1  0.333286  0.666692  0.000000  1
  Ni  Ni2  1  0.151608  0.282259  0.000000  1
  Ni  Ni3  1  0.717780  0.869584  0.000000  1
  Ni  Ni4  1  0.130461  0.848225  0.000000  1
  Ni  Ni5  1  0.373235  0.425558  0.500001  1
  Ni  Ni6  1  0.574863  0.948294  0.500001  1
  Ni  Ni7  1  0.052052  0.626612  0.500001  1
  Ni  Ni8  1  0.438620  0.051250  0.000000  1
  Ni  Ni9  1  0.948904  0.387713  0.000000  1
  Ni  Ni10  1  0.612302  0.561432  0.000000  1
  Ni  Ni11  1  0.210588  0.093155  0.500001  1
  Ni  Ni12  1  0.907497  0.116501  0.500001  1
  Ni  Ni13  1  0.882492  0.789223  0.500001  1
  As  As14  1  0.000093  0.999931  0.000000  1
  As  As15  1  0.113819  0.414206  0.500001  1
  As  As16  1  0.585515  0.699874  0.500001  1
  As  As17  1  0.300230  0.885879  0.500001  1
  As  As18  1  0.401984  0.283066  0.000000  1
  As  As19  1  0.717186  0.119143  0.000000  1
  As  As20  1  0.880861  0.598082  0.000000  1
