# generated using pymatgen
data_K2Er4Cu4S9
_symmetry_space_group_name_H-M   'P 1'
_cell_length_a   3.92670657
_cell_length_b   7.12754326
_cell_length_c   15.07990899
_cell_angle_alpha   93.46126870
_cell_angle_beta   97.48095485
_cell_angle_gamma   105.98942119
_symmetry_Int_Tables_number   1
_chemical_formula_structural   K2Er4Cu4S9
_chemical_formula_sum   'K2 Er4 Cu4 S9'
_cell_volume   400.21561151
_cell_formula_units_Z   1
loop_
 _symmetry_equiv_pos_site_id
 _symmetry_equiv_pos_as_xyz
  1  'x, y, z'
loop_
 _atom_site_type_symbol
 _atom_site_label
 _atom_site_symmetry_multiplicity
 _atom_site_fract_x
 _atom_site_fract_y
 _atom_site_fract_z
 _atom_site_occupancy
  K  K0  1  0.258509  0.286807  0.230210  1
  K  K1  1  0.741490  0.713192  0.769790  1
  Er  Er2  1  0.399631  0.744611  0.054651  1
  Er  Er3  1  0.628371  0.861418  0.395324  1
  Er  Er4  1  0.371628  0.138582  0.604676  1
  Er  Er5  1  0.600370  0.255390  0.945348  1
  Cu  Cu6  1  0.982850  0.737222  0.228476  1
  Cu  Cu7  1  0.890926  0.321443  0.460408  1
  Cu  Cu8  1  0.109074  0.678557  0.539592  1
  Cu  Cu9  1  0.017150  0.262777  0.771524  1
  S  S10  1  0.000000  0.000000  0.000000  1
  S  S11  1  0.803055  0.503684  0.102425  1
  S  S12  1  0.571238  0.921091  0.221386  1
  S  S13  1  0.983225  0.593257  0.373192  1
  S  S14  1  0.286005  0.147529  0.424480  1
  S  S15  1  0.713994  0.852470  0.575520  1
  S  S16  1  0.016774  0.406742  0.626807  1
  S  S17  1  0.428761  0.078908  0.778615  1
  S  S18  1  0.196944  0.496315  0.897575  1
