# generated using pymatgen
data_YTa3(SnRh5)2
_symmetry_space_group_name_H-M   'P 1'
_cell_length_a   4.09511800
_cell_length_b   5.61857305
_cell_length_c   11.06511100
_cell_angle_alpha   90.00752581
_cell_angle_beta   90.00000000
_cell_angle_gamma   90.00000000
_symmetry_Int_Tables_number   1
_chemical_formula_structural   YTa3(SnRh5)2
_chemical_formula_sum   'Y1 Ta3 Sn2 Rh10'
_cell_volume   254.59403442
_cell_formula_units_Z   1
loop_
 _symmetry_equiv_pos_site_id
 _symmetry_equiv_pos_as_xyz
  1  'x, y, z'
loop_
 _atom_site_type_symbol
 _atom_site_label
 _atom_site_symmetry_multiplicity
 _atom_site_fract_x
 _atom_site_fract_y
 _atom_site_fract_z
 _atom_site_occupancy
  Y  Y0  1  0.500000  0.314415  0.141005  1
  Ta  Ta1  1  0.500000  0.174307  0.639946  1
  Ta  Ta2  1  0.500000  0.818240  0.352692  1
  Ta  Ta3  1  0.500000  0.676134  0.856132  1
  Sn  Sn4  1  0.000000  0.503126  0.502002  1
  Sn  Sn5  1  0.000000  0.002601  0.996597  1
  Rh  Rh6  1  0.500000  0.206344  0.874950  1
  Rh  Rh7  1  0.500000  0.800941  0.115086  1
  Rh  Rh8  1  0.500000  0.709003  0.617697  1
  Rh  Rh9  1  0.500000  0.284909  0.397733  1
  Rh  Rh10  1  0.000000  0.439253  0.744566  1
  Rh  Rh11  1  0.000000  0.567130  0.260900  1
  Rh  Rh12  1  0.000000  0.998632  0.503670  1
  Rh  Rh13  1  0.000000  0.516245  0.988719  1
  Rh  Rh14  1  0.000000  0.048571  0.257765  1
  Rh  Rh15  1  0.000000  0.940149  0.750543  1
