# generated using pymatgen
data_Yb12GaSi7Pt8
_symmetry_space_group_name_H-M   'P 1'
_cell_length_a   5.61335000
_cell_length_b   8.03390408
_cell_length_c   13.15157447
_cell_angle_alpha   89.88120557
_cell_angle_beta   90.00000000
_cell_angle_gamma   90.00000000
_symmetry_Int_Tables_number   1
_chemical_formula_structural   Yb12GaSi7Pt8
_chemical_formula_sum   'Yb12 Ga1 Si7 Pt8'
_cell_volume   593.09679746
_cell_formula_units_Z   1
loop_
 _symmetry_equiv_pos_site_id
 _symmetry_equiv_pos_as_xyz
  1  'x, y, z'
loop_
 _atom_site_type_symbol
 _atom_site_label
 _atom_site_symmetry_multiplicity
 _atom_site_fract_x
 _atom_site_fract_y
 _atom_site_fract_z
 _atom_site_occupancy
  Yb  Yb0  1  0.138189  0.610619  0.101240  1
  Yb  Yb1  1  0.138189  0.889381  0.898760  1
  Yb  Yb2  1  0.854239  0.107906  0.398455  1
  Yb  Yb3  1  0.854239  0.392094  0.601545  1
  Yb  Yb4  1  0.861564  0.388586  0.898440  1
  Yb  Yb5  1  0.861564  0.111414  0.101560  1
  Yb  Yb6  1  0.141147  0.889908  0.601523  1
  Yb  Yb7  1  0.141147  0.610092  0.398477  1
  Yb  Yb8  1  0.356173  0.253739  0.249193  1
  Yb  Yb9  1  0.356173  0.246261  0.750807  1
  Yb  Yb10  1  0.644200  0.753689  0.248111  1
  Yb  Yb11  1  0.644200  0.746311  0.751889  1
  Ga  Ga12  1  0.369566  0.250000  0.500000  1
  Si  Si13  1  0.387364  0.250000  0.000000  1
  Si  Si14  1  0.621890  0.750000  0.500000  1
  Si  Si15  1  0.613087  0.750000  0.000000  1
  Si  Si16  1  0.847348  0.404361  0.249525  1
  Si  Si17  1  0.847348  0.095639  0.750475  1
  Si  Si18  1  0.152520  0.905468  0.248683  1
  Si  Si19  1  0.152520  0.594532  0.751317  1
  Pt  Pt20  1  0.629586  0.467704  0.091507  1
  Pt  Pt21  1  0.629586  0.032296  0.908493  1
  Pt  Pt22  1  0.370741  0.958304  0.406039  1
  Pt  Pt23  1  0.370741  0.541696  0.593961  1
  Pt  Pt24  1  0.371293  0.532419  0.908659  1
  Pt  Pt25  1  0.371293  0.967581  0.091341  1
  Pt  Pt26  1  0.637046  0.025056  0.593598  1
  Pt  Pt27  1  0.637046  0.474944  0.406402  1
