# generated using pymatgen
data_La3Dy2Mo3(P3Ir4)4
_symmetry_space_group_name_H-M   'P 1'
_cell_length_a   12.78248100
_cell_length_b   12.78248102
_cell_length_c   4.02688300
_cell_angle_alpha   90.00000000
_cell_angle_beta   90.00000000
_cell_angle_gamma   120.00000254
_symmetry_Int_Tables_number   1
_chemical_formula_structural   La3Dy2Mo3(P3Ir4)4
_chemical_formula_sum   'La3 Dy2 Mo3 P12 Ir16'
_cell_volume   569.80983943
_cell_formula_units_Z   1
loop_
 _symmetry_equiv_pos_site_id
 _symmetry_equiv_pos_as_xyz
  1  'x, y, z'
loop_
 _atom_site_type_symbol
 _atom_site_label
 _atom_site_symmetry_multiplicity
 _atom_site_fract_x
 _atom_site_fract_y
 _atom_site_fract_z
 _atom_site_occupancy
  La  La0  1  0.000000  0.812812  0.000000  1
  La  La1  1  0.187188  0.187188  0.000000  1
  La  La2  1  0.812812  0.000000  0.000000  1
  Dy  Dy3  1  0.333333  0.666667  0.500000  1
  Dy  Dy4  1  0.666667  0.333333  0.500000  1
  Mo  Mo5  1  0.000000  0.452793  0.500000  1
  Mo  Mo6  1  0.547207  0.547207  0.500000  1
  Mo  Mo7  1  0.452793  0.000000  0.500000  1
  P  P8  1  0.000000  0.634819  0.500000  1
  P  P9  1  0.365181  0.365181  0.500000  1
  P  P10  1  0.634819  0.000000  0.500000  1
  P  P11  1  0.515591  0.685395  0.000000  1
  P  P12  1  0.314605  0.830195  0.000000  1
  P  P13  1  0.169805  0.484409  0.000000  1
  P  P14  1  0.484409  0.169805  0.000000  1
  P  P15  1  0.685395  0.515591  0.000000  1
  P  P16  1  0.830195  0.314605  0.000000  1
  P  P17  1  0.000000  0.180893  0.500000  1
  P  P18  1  0.819107  0.819107  0.500000  1
  P  P19  1  0.180893  0.000000  0.500000  1
  Ir  Ir20  1  0.507633  0.866640  0.000000  1
  Ir  Ir21  1  0.133360  0.640993  0.000000  1
  Ir  Ir22  1  0.359007  0.492367  0.000000  1
  Ir  Ir23  1  0.492367  0.359007  0.000000  1
  Ir  Ir24  1  0.866640  0.507633  0.000000  1
  Ir  Ir25  1  0.640993  0.133360  0.000000  1
  Ir  Ir26  1  0.000000  0.289551  0.000000  1
  Ir  Ir27  1  0.710449  0.710449  0.000000  1
  Ir  Ir28  1  0.289551  0.000000  0.000000  1
  Ir  Ir29  1  0.620281  0.799358  0.500000  1
  Ir  Ir30  1  0.200642  0.820923  0.500000  1
  Ir  Ir31  1  0.179077  0.379719  0.500000  1
  Ir  Ir32  1  0.379719  0.179077  0.500000  1
  Ir  Ir33  1  0.799358  0.620281  0.500000  1
  Ir  Ir34  1  0.820923  0.200642  0.500000  1
  Ir  Ir35  1  0.000000  0.000000  0.500000  1
