# generated using pymatgen
data_Th10AgSn6Ge
_symmetry_space_group_name_H-M   'P 1'
_cell_length_a   9.60507200
_cell_length_b   9.60507119
_cell_length_c   6.57115000
_cell_angle_alpha   90.00000000
_cell_angle_beta   90.00000000
_cell_angle_gamma   119.99999590
_symmetry_Int_Tables_number   1
_chemical_formula_structural   Th10AgSn6Ge
_chemical_formula_sum   'Th10 Ag1 Sn6 Ge1'
_cell_volume   525.01685175
_cell_formula_units_Z   1
loop_
 _symmetry_equiv_pos_site_id
 _symmetry_equiv_pos_as_xyz
  1  'x, y, z'
loop_
 _atom_site_type_symbol
 _atom_site_label
 _atom_site_symmetry_multiplicity
 _atom_site_fract_x
 _atom_site_fract_y
 _atom_site_fract_z
 _atom_site_occupancy
  Th  Th0  1  0.000000  0.730022  0.739323  1
  Th  Th1  1  0.269978  0.269978  0.739323  1
  Th  Th2  1  0.333333  0.666667  0.500000  1
  Th  Th3  1  0.666667  0.333333  0.500000  1
  Th  Th4  1  0.730022  0.730022  0.260677  1
  Th  Th5  1  0.730022  0.000000  0.739323  1
  Th  Th6  1  0.000000  0.269978  0.260677  1
  Th  Th7  1  0.269978  0.000000  0.260677  1
  Th  Th8  1  0.333333  0.666667  0.000000  1
  Th  Th9  1  0.666667  0.333333  0.000000  1
  Ag  Ag10  1  0.000000  0.000000  0.000000  1
  Sn  Sn11  1  0.618690  0.618690  0.753983  1
  Sn  Sn12  1  0.000000  0.381310  0.753983  1
  Sn  Sn13  1  0.381310  0.000000  0.753983  1
  Sn  Sn14  1  0.618690  0.000000  0.246017  1
  Sn  Sn15  1  0.381310  0.381310  0.246017  1
  Sn  Sn16  1  0.000000  0.618690  0.246017  1
  Ge  Ge17  1  0.000000  0.000000  0.500000  1
