# generated using pymatgen
data_Sr4In5Pd9
_symmetry_space_group_name_H-M   'P 1'
_cell_length_a   5.86206283
_cell_length_b   5.86206323
_cell_length_c   13.62267346
_cell_angle_alpha   77.57517368
_cell_angle_beta   77.57518257
_cell_angle_gamma   60.00000067
_symmetry_Int_Tables_number   1
_chemical_formula_structural   Sr4In5Pd9
_chemical_formula_sum   'Sr4 In5 Pd9'
_cell_volume   392.69846779
_cell_formula_units_Z   1
loop_
 _symmetry_equiv_pos_site_id
 _symmetry_equiv_pos_as_xyz
  1  'x, y, z'
loop_
 _atom_site_type_symbol
 _atom_site_label
 _atom_site_symmetry_multiplicity
 _atom_site_fract_x
 _atom_site_fract_y
 _atom_site_fract_z
 _atom_site_occupancy
  Sr  Sr0  1  0.952641  0.952641  0.142076  1
  Sr  Sr1  1  0.047359  0.047359  0.857924  1
  Sr  Sr2  1  0.855435  0.855435  0.433696  1
  Sr  Sr3  1  0.144565  0.144565  0.566304  1
  In  In4  1  0.500000  0.500000  0.500000  1
  In  In5  1  0.722702  0.722702  0.831894  1
  In  In6  1  0.277298  0.277298  0.168106  1
  In  In7  1  0.610210  0.610210  0.169370  1
  In  In8  1  0.389790  0.389790  0.830630  1
  Pd  Pd9  1  0.000000  0.500000  0.000000  1
  Pd  Pd10  1  0.500000  0.000000  0.000000  1
  Pd  Pd11  1  0.500000  0.500000  0.000000  1
  Pd  Pd12  1  0.385328  0.385328  0.335535  1
  Pd  Pd13  1  0.893810  0.385328  0.335535  1
  Pd  Pd14  1  0.385328  0.893810  0.335535  1
  Pd  Pd15  1  0.614672  0.614672  0.664465  1
  Pd  Pd16  1  0.106190  0.614672  0.664465  1
  Pd  Pd17  1  0.614672  0.106190  0.664465  1
