# generated using pymatgen
data_Hf6MnSi6OsRu4
_symmetry_space_group_name_H-M   'P 1'
_cell_length_a   7.61066373
_cell_length_b   7.60258100
_cell_length_c   7.60258219
_cell_angle_alpha   127.94255075
_cell_angle_beta   122.45320079
_cell_angle_gamma   81.26349033
_symmetry_Int_Tables_number   1
_chemical_formula_structural   Hf6MnSi6OsRu4
_chemical_formula_sum   'Hf6 Mn1 Si6 Os1 Ru4'
_cell_volume   282.05994221
_cell_formula_units_Z   1
loop_
 _symmetry_equiv_pos_site_id
 _symmetry_equiv_pos_as_xyz
  1  'x, y, z'
loop_
 _atom_site_type_symbol
 _atom_site_label
 _atom_site_symmetry_multiplicity
 _atom_site_fract_x
 _atom_site_fract_y
 _atom_site_fract_z
 _atom_site_occupancy
  Hf  Hf0  1  0.470629  0.693517  0.728127  1
  Hf  Hf1  1  0.529371  0.257497  0.222887  1
  Hf  Hf2  1  0.747822  0.831155  0.585054  1
  Hf  Hf3  1  0.252178  0.837230  0.083332  1
  Hf  Hf4  1  0.053892  0.255958  0.704778  1
  Hf  Hf5  1  0.946108  0.650887  0.202065  1
  Mn  Mn6  1  0.000000  0.500034  0.500034  1
  Si  Si7  1  0.271417  0.269153  0.494853  1
  Si  Si8  1  0.728583  0.223436  0.997736  1
  Si  Si9  1  0.327041  0.589010  0.251580  1
  Si  Si10  1  0.672959  0.924539  0.261970  1
  Si  Si11  1  0.159613  0.916405  0.745227  1
  Si  Si12  1  0.840387  0.585613  0.756791  1
  Os  Os13  1  0.500000  0.501375  0.001375  1
  Ru  Ru14  1  0.097135  0.255611  0.105159  1
  Ru  Ru15  1  0.902865  0.008024  0.158478  1
  Ru  Ru16  1  0.350823  0.006116  0.604865  1
  Ru  Ru17  1  0.649177  0.254040  0.655293  1
