# generated using pymatgen
data_BaAc2In2O7
_symmetry_space_group_name_H-M   'P 1'
_cell_length_a   6.07881800
_cell_length_b   6.07881800
_cell_length_c   21.18982400
_cell_angle_alpha   90.00000000
_cell_angle_beta   90.00000000
_cell_angle_gamma   90.00000000
_symmetry_Int_Tables_number   1
_chemical_formula_structural   BaAc2In2O7
_chemical_formula_sum   'Ba4 Ac8 In8 O28'
_cell_volume   783.00697564
_cell_formula_units_Z   4
loop_
 _symmetry_equiv_pos_site_id
 _symmetry_equiv_pos_as_xyz
  1  'x, y, z'
loop_
 _atom_site_type_symbol
 _atom_site_label
 _atom_site_symmetry_multiplicity
 _atom_site_fract_x
 _atom_site_fract_y
 _atom_site_fract_z
 _atom_site_occupancy
  Ba  Ba0  1  0.256934  0.256934  0.000000  1
  Ba  Ba1  1  0.743067  0.743067  0.000000  1
  Ba  Ba2  1  0.756933  0.243066  0.500000  1
  Ba  Ba3  1  0.243066  0.756933  0.500000  1
  Ac  Ac4  1  0.272542  0.272542  0.182883  1
  Ac  Ac5  1  0.727457  0.727457  0.182883  1
  Ac  Ac6  1  0.772542  0.227459  0.317117  1
  Ac  Ac7  1  0.227459  0.772542  0.317117  1
  Ac  Ac8  1  0.772542  0.227459  0.682883  1
  Ac  Ac9  1  0.227459  0.772542  0.682883  1
  Ac  Ac10  1  0.272542  0.272542  0.817117  1
  Ac  Ac11  1  0.727457  0.727457  0.817117  1
  In  In12  1  0.757331  0.242670  0.099173  1
  In  In13  1  0.242670  0.757331  0.099173  1
  In  In14  1  0.257332  0.257332  0.400827  1
  In  In15  1  0.742669  0.742669  0.400827  1
  In  In16  1  0.257332  0.257332  0.599173  1
  In  In17  1  0.742669  0.742669  0.599173  1
  In  In18  1  0.757331  0.242670  0.900827  1
  In  In19  1  0.242670  0.757331  0.900827  1
  O  O20  1  0.801144  0.198857  0.000000  1
  O  O21  1  0.198857  0.801144  0.000000  1
  O  O22  1  0.499999  0.499999  0.089204  1
  O  O23  1  0.499999  0.000000  0.109963  1
  O  O24  1  0.000000  0.499999  0.109963  1
  O  O25  1  0.000000  0.000000  0.129502  1
  O  O26  1  0.690372  0.309629  0.207067  1
  O  O27  1  0.309629  0.690372  0.207067  1
  O  O28  1  0.190372  0.190372  0.292933  1
  O  O29  1  0.809629  0.809629  0.292933  1
  O  O30  1  0.499999  0.499999  0.370499  1
  O  O31  1  0.499999  0.000000  0.390036  1
  O  O32  1  0.000000  0.499999  0.390036  1
  O  O33  1  0.000000  0.000000  0.410795  1
  O  O34  1  0.301145  0.301145  0.500000  1
  O  O35  1  0.698856  0.698856  0.500000  1
  O  O36  1  0.000000  0.000000  0.589204  1
  O  O37  1  0.499999  0.000000  0.609963  1
  O  O38  1  0.000000  0.499999  0.609963  1
  O  O39  1  0.499999  0.499999  0.629502  1
  O  O40  1  0.190372  0.190372  0.707067  1
  O  O41  1  0.809629  0.809629  0.707067  1
  O  O42  1  0.690372  0.309629  0.792933  1
  O  O43  1  0.309629  0.690372  0.792933  1
  O  O44  1  0.000000  0.000000  0.870499  1
  O  O45  1  0.499999  0.000000  0.890036  1
  O  O46  1  0.000000  0.499999  0.890036  1
  O  O47  1  0.499999  0.499999  0.910796  1
