# generated using pymatgen
data_Ca2YbLuBi3
_symmetry_space_group_name_H-M   'P 1'
_cell_length_a   8.13891631
_cell_length_b   8.35253787
_cell_length_c   8.35448233
_cell_angle_alpha   109.98610221
_cell_angle_beta   108.96312562
_cell_angle_gamma   108.94707023
_symmetry_Int_Tables_number   1
_chemical_formula_structural   Ca2YbLuBi3
_chemical_formula_sum   'Ca4 Yb2 Lu2 Bi6'
_cell_volume   439.93613525
_cell_formula_units_Z   2
loop_
 _symmetry_equiv_pos_site_id
 _symmetry_equiv_pos_as_xyz
  1  'x, y, z'
loop_
 _atom_site_type_symbol
 _atom_site_label
 _atom_site_symmetry_multiplicity
 _atom_site_fract_x
 _atom_site_fract_y
 _atom_site_fract_z
 _atom_site_occupancy
  Ca  Ca0  1  0.501329  0.000021  0.646892  1
  Ca  Ca1  1  0.354136  0.353294  0.353532  1
  Ca  Ca2  1  0.501308  0.999979  0.146871  1
  Ca  Ca3  1  0.000843  0.646706  0.500239  1
  Yb  Yb4  1  0.854207  0.853334  0.853226  1
  Yb  Yb5  1  0.000873  0.146666  0.499892  1
  Lu  Lu6  1  0.142527  0.499751  0.999559  1
  Lu  Lu7  1  0.642776  0.500249  0.999808  1
  Bi  Bi8  1  0.377245  0.621184  0.759010  1
  Bi  Bi9  1  0.877260  0.258615  0.121462  1
  Bi  Bi10  1  0.618644  0.741385  0.362847  1
  Bi  Bi11  1  0.117677  0.862563  0.240700  1
  Bi  Bi12  1  0.255115  0.137437  0.878137  1
  Bi  Bi13  1  0.756061  0.378816  0.637826  1
