# generated using pymatgen
data_Ce6Al24Tc4Os3Au
_symmetry_space_group_name_H-M   'P 1'
_cell_length_a   8.96357974
_cell_length_b   8.94557754
_cell_length_c   9.63720264
_cell_angle_alpha   89.33274888
_cell_angle_beta   90.38644449
_cell_angle_gamma   119.73093151
_symmetry_Int_Tables_number   1
_chemical_formula_structural   Ce6Al24Tc4Os3Au
_chemical_formula_sum   'Ce6 Al24 Tc4 Os3 Au1'
_cell_volume   670.98514635
_cell_formula_units_Z   1
loop_
 _symmetry_equiv_pos_site_id
 _symmetry_equiv_pos_as_xyz
  1  'x, y, z'
loop_
 _atom_site_type_symbol
 _atom_site_label
 _atom_site_symmetry_multiplicity
 _atom_site_fract_x
 _atom_site_fract_y
 _atom_site_fract_z
 _atom_site_occupancy
  Ce  Ce0  1  0.188747  0.384687  0.255312  1
  Ce  Ce1  1  0.811253  0.615313  0.744688  1
  Ce  Ce2  1  0.614430  0.811618  0.252624  1
  Ce  Ce3  1  0.385570  0.188382  0.747376  1
  Ce  Ce4  1  0.195045  0.805479  0.253577  1
  Ce  Ce5  1  0.804955  0.194521  0.746423  1
  Al  Al6  1  0.327101  0.669448  0.014262  1
  Al  Al7  1  0.672899  0.330552  0.985738  1
  Al  Al8  1  0.667373  0.332747  0.508015  1
  Al  Al9  1  0.332627  0.667253  0.491985  1
  Al  Al10  1  0.160011  0.323035  0.579353  1
  Al  Al11  1  0.839989  0.676965  0.420647  1
  Al  Al12  1  0.677280  0.840614  0.577758  1
  Al  Al13  1  0.849677  0.679198  0.078240  1
  Al  Al14  1  0.322720  0.159386  0.422242  1
  Al  Al15  1  0.150323  0.320802  0.921760  1
  Al  Al16  1  0.163371  0.837096  0.577090  1
  Al  Al17  1  0.319189  0.150939  0.079564  1
  Al  Al18  1  0.836629  0.162904  0.422910  1
  Al  Al19  1  0.680811  0.849061  0.920436  1
  Al  Al20  1  0.839702  0.163878  0.078279  1
  Al  Al21  1  0.160298  0.836122  0.921721  1
  Al  Al22  1  0.562665  0.126054  0.248874  1
  Al  Al23  1  0.437335  0.873946  0.751126  1
  Al  Al24  1  0.875996  0.438646  0.248674  1
  Al  Al25  1  0.124004  0.561354  0.751326  1
  Al  Al26  1  0.564699  0.436866  0.255830  1
  Al  Al27  1  0.435301  0.563134  0.744170  1
  Al  Al28  1  0.999685  0.999737  0.250174  1
  Al  Al29  1  0.000315  0.000263  0.749826  1
  Tc  Tc30  1  0.500000  0.000000  0.000000  1
  Tc  Tc31  1  0.500000  0.500000  0.500000  1
  Tc  Tc32  1  0.000000  0.000000  0.000000  1
  Tc  Tc33  1  0.000000  0.000000  0.500000  1
  Os  Os34  1  0.000000  0.500000  0.000000  1
  Os  Os35  1  0.500000  0.000000  0.500000  1
  Os  Os36  1  0.000000  0.500000  0.500000  1
  Au  Au37  1  0.500000  0.500000  0.000000  1
