# generated using pymatgen
data_Dy6Ho10In3AgIr4
_symmetry_space_group_name_H-M   'P 1'
_cell_length_a   9.60926517
_cell_length_b   9.60926446
_cell_length_c   9.60926525
_cell_angle_alpha   59.89845110
_cell_angle_beta   59.89845438
_cell_angle_gamma   59.89845119
_symmetry_Int_Tables_number   1
_chemical_formula_structural   Dy6Ho10In3AgIr4
_chemical_formula_sum   'Dy6 Ho10 In3 Ag1 Ir4'
_cell_volume   625.97043555
_cell_formula_units_Z   1
loop_
 _symmetry_equiv_pos_site_id
 _symmetry_equiv_pos_as_xyz
  1  'x, y, z'
loop_
 _atom_site_type_symbol
 _atom_site_label
 _atom_site_symmetry_multiplicity
 _atom_site_fract_x
 _atom_site_fract_y
 _atom_site_fract_z
 _atom_site_occupancy
  Dy  Dy0  1  0.186316  0.810592  0.810592  1
  Dy  Dy1  1  0.809123  0.190026  0.190026  1
  Dy  Dy2  1  0.810592  0.186316  0.810592  1
  Dy  Dy3  1  0.190026  0.809123  0.190026  1
  Dy  Dy4  1  0.810592  0.810592  0.186316  1
  Dy  Dy5  1  0.190026  0.190026  0.809123  1
  Ho  Ho6  1  0.599422  0.599422  0.599422  1
  Ho  Ho7  1  0.600416  0.600416  0.201008  1
  Ho  Ho8  1  0.600416  0.201008  0.600416  1
  Ho  Ho9  1  0.201008  0.600416  0.600416  1
  Ho  Ho10  1  0.058586  0.441280  0.441280  1
  Ho  Ho11  1  0.437180  0.059983  0.059983  1
  Ho  Ho12  1  0.441280  0.058586  0.441280  1
  Ho  Ho13  1  0.059983  0.437180  0.059983  1
  Ho  Ho14  1  0.441280  0.441280  0.058586  1
  Ho  Ho15  1  0.059983  0.059983  0.437180  1
  In  In16  1  0.832489  0.832489  0.503925  1
  In  In17  1  0.832489  0.503925  0.832489  1
  In  In18  1  0.503925  0.832489  0.832489  1
  Ag  Ag19  1  0.832710  0.832710  0.832710  1
  Ir  Ir20  1  0.392494  0.392494  0.392494  1
  Ir  Ir21  1  0.392042  0.392042  0.825579  1
  Ir  Ir22  1  0.392042  0.825579  0.392042  1
  Ir  Ir23  1  0.825579  0.392042  0.392042  1
