# generated using pymatgen
data_YU5(Co3P2)6
_symmetry_space_group_name_H-M   'P 1'
_cell_length_a   3.68761900
_cell_length_b   10.39640700
_cell_length_c   12.22421900
_cell_angle_alpha   90.00000000
_cell_angle_beta   90.00000000
_cell_angle_gamma   90.00000000
_symmetry_Int_Tables_number   1
_chemical_formula_structural   YU5(Co3P2)6
_chemical_formula_sum   'Y1 U5 Co18 P12'
_cell_volume   468.65196115
_cell_formula_units_Z   1
loop_
 _symmetry_equiv_pos_site_id
 _symmetry_equiv_pos_as_xyz
  1  'x, y, z'
loop_
 _atom_site_type_symbol
 _atom_site_label
 _atom_site_symmetry_multiplicity
 _atom_site_fract_x
 _atom_site_fract_y
 _atom_site_fract_z
 _atom_site_occupancy
  Y  Y0  1  0.500000  0.000000  0.479058  1
  U  U1  1  0.000000  0.500000  0.524969  1
  U  U2  1  0.500000  0.820160  0.207299  1
  U  U3  1  0.500000  0.179840  0.207299  1
  U  U4  1  0.000000  0.680910  0.793262  1
  U  U5  1  0.000000  0.319090  0.793262  1
  Co  Co6  1  0.500000  0.500000  0.161766  1
  Co  Co7  1  0.000000  0.000000  0.839290  1
  Co  Co8  1  0.500000  0.500000  0.700372  1
  Co  Co9  1  0.000000  0.000000  0.290171  1
  Co  Co10  1  0.000000  0.500000  0.985970  1
  Co  Co11  1  0.500000  0.000000  0.013473  1
  Co  Co12  1  0.500000  0.333119  0.996297  1
  Co  Co13  1  0.500000  0.666881  0.996297  1
  Co  Co14  1  0.000000  0.168771  0.003788  1
  Co  Co15  1  0.000000  0.831229  0.003788  1
  Co  Co16  1  0.500000  0.301156  0.429899  1
  Co  Co17  1  0.500000  0.698844  0.429899  1
  Co  Co18  1  0.000000  0.200772  0.570542  1
  Co  Co19  1  0.000000  0.799228  0.570542  1
  Co  Co20  1  0.500000  0.877735  0.711542  1
  Co  Co21  1  0.500000  0.122265  0.711542  1
  Co  Co22  1  0.000000  0.621795  0.290785  1
  Co  Co23  1  0.000000  0.378205  0.290785  1
  P  P24  1  0.500000  0.500000  0.884297  1
  P  P25  1  0.000000  0.000000  0.111647  1
  P  P26  1  0.500000  0.500000  0.345694  1
  P  P27  1  0.000000  0.000000  0.656014  1
  P  P28  1  0.500000  0.308030  0.612933  1
  P  P29  1  0.500000  0.691970  0.612933  1
  P  P30  1  0.000000  0.188627  0.386349  1
  P  P31  1  0.000000  0.811373  0.386349  1
  P  P32  1  0.500000  0.846021  0.892948  1
  P  P33  1  0.500000  0.153979  0.892948  1
  P  P34  1  0.000000  0.653371  0.107995  1
  P  P35  1  0.000000  0.346629  0.107995  1
