# generated using pymatgen
data_La3NdPI5
_symmetry_space_group_name_H-M   'P 1'
_cell_length_a   10.08782201
_cell_length_b   10.08782188
_cell_length_c   9.22975738
_cell_angle_alpha   77.34452857
_cell_angle_beta   77.34452928
_cell_angle_gamma   24.36472267
_symmetry_Int_Tables_number   1
_chemical_formula_structural   La3NdPI5
_chemical_formula_sum   'La3 Nd1 P1 I5'
_cell_volume   377.62670830
_cell_formula_units_Z   1
loop_
 _symmetry_equiv_pos_site_id
 _symmetry_equiv_pos_as_xyz
  1  'x, y, z'
loop_
 _atom_site_type_symbol
 _atom_site_label
 _atom_site_symmetry_multiplicity
 _atom_site_fract_x
 _atom_site_fract_y
 _atom_site_fract_z
 _atom_site_occupancy
  La  La0  1  0.147455  0.147455  0.924756  1
  La  La1  1  0.500695  0.500695  0.212673  1
  La  La2  1  0.498200  0.498200  0.787742  1
  Nd  Nd3  1  0.853962  0.853962  0.074765  1
  P  P4  1  0.999475  0.999475  0.000286  1
  I  I5  1  0.672636  0.672636  0.178856  1
  I  I6  1  0.328110  0.328110  0.827677  1
  I  I7  1  0.665813  0.665813  0.654054  1
  I  I8  1  0.333838  0.333838  0.339117  1
  I  I9  1  0.999816  0.999816  0.500073  1
