# generated using pymatgen
data_KI28
_symmetry_space_group_name_H-M   'P 1'
_cell_length_a   10.67681728
_cell_length_b   14.33344921
_cell_length_c   12.98270343
_cell_angle_alpha   108.44914225
_cell_angle_beta   105.43469088
_cell_angle_gamma   86.57346696
_symmetry_Int_Tables_number   1
_chemical_formula_structural   KI28
_chemical_formula_sum   'K1 I28'
_cell_volume   1816.08078883
_cell_formula_units_Z   1
loop_
 _symmetry_equiv_pos_site_id
 _symmetry_equiv_pos_as_xyz
  1  'x, y, z'
loop_
 _atom_site_type_symbol
 _atom_site_label
 _atom_site_symmetry_multiplicity
 _atom_site_fract_x
 _atom_site_fract_y
 _atom_site_fract_z
 _atom_site_occupancy
  K  K0  1  0.500000  0.000000  0.000000  1
  I  I1  1  0.133029  0.144461  0.440919  1
  I  I2  1  0.612683  0.149401  0.456374  1
  I  I3  1  0.301611  0.290318  0.849234  1
  I  I4  1  0.781054  0.305948  0.856621  1
  I  I5  1  0.219557  0.516709  0.672900  1
  I  I6  1  0.723786  0.515997  0.693947  1
  I  I7  1  0.387317  0.850599  0.543626  1
  I  I8  1  0.866971  0.855539  0.559081  1
  I  I9  1  0.218946  0.694052  0.143379  1
  I  I10  1  0.698389  0.709682  0.150766  1
  I  I11  1  0.276214  0.484003  0.306053  1
  I  I12  1  0.780443  0.483291  0.327100  1
  I  I13  1  0.832912  0.030169  0.719545  1
  I  I14  1  0.318470  0.996261  0.728369  1
  I  I15  1  0.012723  0.664102  0.951320  1
  I  I16  1  0.485633  0.739170  0.980598  1
  I  I17  1  0.649386  0.308887  0.299728  1
  I  I18  1  0.207058  0.322019  0.353966  1
  I  I19  1  0.681530  0.003739  0.271631  1
  I  I20  1  0.167088  0.969831  0.280455  1
  I  I21  1  0.514367  0.260830  0.019402  1
  I  I22  1  0.987277  0.335898  0.048680  1
  I  I23  1  0.792942  0.677981  0.646034  1
  I  I24  1  0.350614  0.691113  0.700272  1
  I  I25  1  0.087720  0.327159  0.653166  1
  I  I26  1  0.545135  0.297026  0.650935  1
  I  I27  1  0.454865  0.702974  0.349065  1
  I  I28  1  0.912280  0.672841  0.346834  1
