# generated using pymatgen
data_TbHo7Tm2(In2Ni)4
_symmetry_space_group_name_H-M   'P 1'
_cell_length_a   3.56453300
_cell_length_b   8.04721088
_cell_length_c   17.93981148
_cell_angle_alpha   89.97405903
_cell_angle_beta   90.00000000
_cell_angle_gamma   90.00000000
_symmetry_Int_Tables_number   1
_chemical_formula_structural   TbHo7Tm2(In2Ni)4
_chemical_formula_sum   'Tb1 Ho7 Tm2 In8 Ni4'
_cell_volume   514.59534370
_cell_formula_units_Z   1
loop_
 _symmetry_equiv_pos_site_id
 _symmetry_equiv_pos_as_xyz
  1  'x, y, z'
loop_
 _atom_site_type_symbol
 _atom_site_label
 _atom_site_symmetry_multiplicity
 _atom_site_fract_x
 _atom_site_fract_y
 _atom_site_fract_z
 _atom_site_occupancy
  Tb  Tb0  1  0.000000  0.500000  0.500000  1
  Ho  Ho1  1  0.000000  0.000000  0.000000  1
  Ho  Ho2  1  0.000000  0.743954  0.280022  1
  Ho  Ho3  1  0.000000  0.256046  0.719978  1
  Ho  Ho4  1  0.000000  0.756409  0.779216  1
  Ho  Ho5  1  0.000000  0.243591  0.220784  1
  Ho  Ho6  1  0.000000  0.616766  0.088330  1
  Ho  Ho7  1  0.000000  0.383234  0.911670  1
  Tm  Tm8  1  0.000000  0.882322  0.588731  1
  Tm  Tm9  1  0.000000  0.117678  0.411269  1
  In  In10  1  0.500000  0.705067  0.931777  1
  In  In11  1  0.500000  0.294933  0.068223  1
  In  In12  1  0.500000  0.799181  0.432842  1
  In  In13  1  0.500000  0.200819  0.567158  1
  In  In14  1  0.500000  0.575741  0.652397  1
  In  In15  1  0.500000  0.424259  0.347603  1
  In  In16  1  0.500000  0.925478  0.152620  1
  In  In17  1  0.500000  0.074522  0.847380  1
  Ni  Ni18  1  0.500000  0.523812  0.196513  1
  Ni  Ni19  1  0.500000  0.476188  0.803487  1
  Ni  Ni20  1  0.500000  0.976289  0.695480  1
  Ni  Ni21  1  0.500000  0.023711  0.304520  1
