# generated using pymatgen
data_Ce3PrTm4(B6Os)4
_symmetry_space_group_name_H-M   'P 1'
_cell_length_a   3.68403200
_cell_length_b   9.18201461
_cell_length_c   11.58359676
_cell_angle_alpha   89.95838917
_cell_angle_beta   90.00000000
_cell_angle_gamma   90.00000000
_symmetry_Int_Tables_number   1
_chemical_formula_structural   Ce3PrTm4(B6Os)4
_chemical_formula_sum   'Ce3 Pr1 Tm4 B24 Os4'
_cell_volume   391.83632040
_cell_formula_units_Z   1
loop_
 _symmetry_equiv_pos_site_id
 _symmetry_equiv_pos_as_xyz
  1  'x, y, z'
loop_
 _atom_site_type_symbol
 _atom_site_label
 _atom_site_symmetry_multiplicity
 _atom_site_fract_x
 _atom_site_fract_y
 _atom_site_fract_z
 _atom_site_occupancy
  Ce  Ce0  1  0.000000  0.677355  0.586106  1
  Ce  Ce1  1  0.000000  0.822801  0.086190  1
  Ce  Ce2  1  0.000000  0.177530  0.913899  1
  Pr  Pr3  1  0.000000  0.321779  0.413485  1
  Tm  Tm4  1  0.000000  0.944793  0.373787  1
  Tm  Tm5  1  0.000000  0.055310  0.626239  1
  Tm  Tm6  1  0.000000  0.444827  0.125794  1
  Tm  Tm7  1  0.000000  0.555078  0.874267  1
  B  B8  1  0.500000  0.557140  0.431348  1
  B  B9  1  0.500000  0.445376  0.570368  1
  B  B10  1  0.500000  0.054458  0.067716  1
  B  B11  1  0.500000  0.945012  0.931550  1
  B  B12  1  0.500000  0.750286  0.419002  1
  B  B13  1  0.500000  0.249403  0.582992  1
  B  B14  1  0.500000  0.249799  0.080834  1
  B  B15  1  0.500000  0.750024  0.918873  1
  B  B16  1  0.500000  0.792699  0.266178  1
  B  B17  1  0.500000  0.207585  0.733926  1
  B  B18  1  0.500000  0.291250  0.231946  1
  B  B19  1  0.500000  0.707940  0.766605  1
  B  B20  1  0.500000  0.632568  0.184366  1
  B  B21  1  0.500000  0.368233  0.815850  1
  B  B22  1  0.500000  0.130278  0.314266  1
  B  B23  1  0.500000  0.868088  0.684601  1
  B  B24  1  0.500000  0.984028  0.214057  1
  B  B25  1  0.500000  0.015369  0.785845  1
  B  B26  1  0.500000  0.486018  0.284719  1
  B  B27  1  0.500000  0.516010  0.714620  1
  B  B28  1  0.500000  0.606058  0.028783  1
  B  B29  1  0.500000  0.394327  0.971259  1
  B  B30  1  0.500000  0.102895  0.471949  1
  B  B31  1  0.500000  0.895217  0.528859  1
  Os  Os32  1  0.000000  0.641423  0.319162  1
  Os  Os33  1  0.000000  0.360645  0.682520  1
  Os  Os34  1  0.000000  0.138073  0.177820  1
  Os  Os35  1  0.000000  0.860324  0.820215  1
