# generated using pymatgen
data_Ti3Ge2BOs3
_symmetry_space_group_name_H-M   'P 1'
_cell_length_a   6.65068900
_cell_length_b   6.65068871
_cell_length_c   3.24735200
_cell_angle_alpha   90.00000000
_cell_angle_beta   90.00000000
_cell_angle_gamma   120.00000643
_symmetry_Int_Tables_number   1
_chemical_formula_structural   Ti3Ge2BOs3
_chemical_formula_sum   'Ti3 Ge2 B1 Os3'
_cell_volume   124.39222354
_cell_formula_units_Z   1
loop_
 _symmetry_equiv_pos_site_id
 _symmetry_equiv_pos_as_xyz
  1  'x, y, z'
loop_
 _atom_site_type_symbol
 _atom_site_label
 _atom_site_symmetry_multiplicity
 _atom_site_fract_x
 _atom_site_fract_y
 _atom_site_fract_z
 _atom_site_occupancy
  Ti  Ti0  1  0.000000  0.391062  0.500000  1
  Ti  Ti1  1  0.608938  0.608938  0.500000  1
  Ti  Ti2  1  0.391062  0.000000  0.500000  1
  Ge  Ge3  1  0.333333  0.666667  0.000000  1
  Ge  Ge4  1  0.666667  0.333333  0.000000  1
  B  B5  1  0.000000  0.000000  0.500000  1
  Os  Os6  1  0.000000  0.763172  0.000000  1
  Os  Os7  1  0.236828  0.236828  0.000000  1
  Os  Os8  1  0.763172  0.000000  0.000000  1
