# generated using pymatgen
data_Eu12Ni3Rh
_symmetry_space_group_name_H-M   'P 1'
_cell_length_a   6.64040435
_cell_length_b   7.64483846
_cell_length_c   9.91365400
_cell_angle_alpha   90.00000000
_cell_angle_beta   90.00000000
_cell_angle_gamma   89.92802509
_symmetry_Int_Tables_number   1
_chemical_formula_structural   Eu12Ni3Rh
_chemical_formula_sum   'Eu12 Ni3 Rh1'
_cell_volume   503.26444970
_cell_formula_units_Z   1
loop_
 _symmetry_equiv_pos_site_id
 _symmetry_equiv_pos_as_xyz
  1  'x, y, z'
loop_
 _atom_site_type_symbol
 _atom_site_label
 _atom_site_symmetry_multiplicity
 _atom_site_fract_x
 _atom_site_fract_y
 _atom_site_fract_z
 _atom_site_occupancy
  Eu  Eu0  1  0.334303  0.672600  0.066489  1
  Eu  Eu1  1  0.167012  0.172315  0.431677  1
  Eu  Eu2  1  0.667728  0.327138  0.567844  1
  Eu  Eu3  1  0.832143  0.826951  0.931903  1
  Eu  Eu4  1  0.667728  0.327138  0.932156  1
  Eu  Eu5  1  0.832143  0.826951  0.568097  1
  Eu  Eu6  1  0.334303  0.672600  0.433511  1
  Eu  Eu7  1  0.167012  0.172315  0.068323  1
  Eu  Eu8  1  0.852559  0.542623  0.250000  1
  Eu  Eu9  1  0.648633  0.042786  0.250000  1
  Eu  Eu10  1  0.145795  0.458579  0.750000  1
  Eu  Eu11  1  0.352333  0.958976  0.750000  1
  Ni  Ni12  1  0.050999  0.880695  0.250000  1
  Ni  Ni13  1  0.448936  0.380069  0.250000  1
  Ni  Ni14  1  0.949765  0.119309  0.750000  1
  Rh  Rh15  1  0.548610  0.618955  0.750000  1
