# generated using pymatgen
data_Tb5(Hg2Ir)2
_symmetry_space_group_name_H-M   'P 1'
_cell_length_a   3.71606700
_cell_length_b   7.95849900
_cell_length_c   17.99935800
_cell_angle_alpha   90.00000000
_cell_angle_beta   90.00000000
_cell_angle_gamma   90.00000000
_symmetry_Int_Tables_number   1
_chemical_formula_structural   Tb5(Hg2Ir)2
_chemical_formula_sum   'Tb10 Hg8 Ir4'
_cell_volume   532.31869235
_cell_formula_units_Z   2
loop_
 _symmetry_equiv_pos_site_id
 _symmetry_equiv_pos_as_xyz
  1  'x, y, z'
loop_
 _atom_site_type_symbol
 _atom_site_label
 _atom_site_symmetry_multiplicity
 _atom_site_fract_x
 _atom_site_fract_y
 _atom_site_fract_z
 _atom_site_occupancy
  Tb  Tb0  1  0.000000  0.110595  0.410624  1
  Tb  Tb1  1  0.000000  0.889405  0.589376  1
  Tb  Tb2  1  0.000000  0.389405  0.910624  1
  Tb  Tb3  1  0.000000  0.610595  0.089376  1
  Tb  Tb4  1  0.000000  0.240929  0.218269  1
  Tb  Tb5  1  0.000000  0.759071  0.781731  1
  Tb  Tb6  1  0.000000  0.259071  0.718269  1
  Tb  Tb7  1  0.000000  0.740929  0.281731  1
  Tb  Tb8  1  0.000000  0.000000  0.000000  1
  Tb  Tb9  1  0.000000  0.500000  0.500000  1
  Hg  Hg10  1  0.500000  0.420222  0.355526  1
  Hg  Hg11  1  0.500000  0.579778  0.644474  1
  Hg  Hg12  1  0.500000  0.079778  0.855526  1
  Hg  Hg13  1  0.500000  0.920222  0.144474  1
  Hg  Hg14  1  0.500000  0.290521  0.061624  1
  Hg  Hg15  1  0.500000  0.709479  0.938376  1
  Hg  Hg16  1  0.500000  0.209479  0.561624  1
  Hg  Hg17  1  0.500000  0.790521  0.438376  1
  Ir  Ir18  1  0.500000  0.022277  0.301762  1
  Ir  Ir19  1  0.500000  0.977723  0.698238  1
  Ir  Ir20  1  0.500000  0.477723  0.801762  1
  Ir  Ir21  1  0.500000  0.522277  0.198238  1
