# generated using pymatgen
data_Tb5RuRh
_symmetry_space_group_name_H-M   'P 1'
_cell_length_a   6.39666635
_cell_length_b   7.25235843
_cell_length_c   8.61873179
_cell_angle_alpha   96.57087111
_cell_angle_beta   111.78291843
_cell_angle_gamma   89.99999920
_symmetry_Int_Tables_number   1
_chemical_formula_structural   Tb5RuRh
_chemical_formula_sum   'Tb10 Ru2 Rh2'
_cell_volume   368.45163481
_cell_formula_units_Z   2
loop_
 _symmetry_equiv_pos_site_id
 _symmetry_equiv_pos_as_xyz
  1  'x, y, z'
loop_
 _atom_site_type_symbol
 _atom_site_label
 _atom_site_symmetry_multiplicity
 _atom_site_fract_x
 _atom_site_fract_y
 _atom_site_fract_z
 _atom_site_occupancy
  Tb  Tb0  1  0.982392  0.917849  0.188245  1
  Tb  Tb1  1  0.794147  0.582151  0.811755  1
  Tb  Tb2  1  0.022409  0.085595  0.814278  1
  Tb  Tb3  1  0.208132  0.414405  0.185722  1
  Tb  Tb4  1  0.641862  0.815384  0.433794  1
  Tb  Tb5  1  0.208068  0.684616  0.566206  1
  Tb  Tb6  1  0.355257  0.187635  0.562950  1
  Tb  Tb7  1  0.792307  0.312365  0.437050  1
  Tb  Tb8  1  0.421711  0.750000  0.000000  1
  Tb  Tb9  1  0.576001  0.250000  0.000000  1
  Ru  Ru10  1  0.176720  0.426265  0.778778  1
  Ru  Ru11  1  0.397942  0.073735  0.221222  1
  Rh  Rh12  1  0.822488  0.575613  0.221923  1
  Rh  Rh13  1  0.600564  0.924387  0.778077  1
