# generated using pymatgen
data_Er4CuPt3
_symmetry_space_group_name_H-M   'P 1'
_cell_length_a   4.50327400
_cell_length_b   5.53374416
_cell_length_c   6.92069531
_cell_angle_alpha   89.55507328
_cell_angle_beta   90.00000000
_cell_angle_gamma   90.00000000
_symmetry_Int_Tables_number   1
_chemical_formula_structural   Er4CuPt3
_chemical_formula_sum   'Er4 Cu1 Pt3'
_cell_volume   172.45829349
_cell_formula_units_Z   1
loop_
 _symmetry_equiv_pos_site_id
 _symmetry_equiv_pos_as_xyz
  1  'x, y, z'
loop_
 _atom_site_type_symbol
 _atom_site_label
 _atom_site_symmetry_multiplicity
 _atom_site_fract_x
 _atom_site_fract_y
 _atom_site_fract_z
 _atom_site_occupancy
  Er  Er0  1  0.000000  0.640663  0.317258  1
  Er  Er1  1  0.000000  0.856464  0.819389  1
  Er  Er2  1  0.500000  0.364736  0.687175  1
  Er  Er3  1  0.500000  0.139288  0.176550  1
  Cu  Cu4  1  0.000000  0.136991  0.463325  1
  Pt  Pt5  1  0.000000  0.339523  0.956043  1
  Pt  Pt6  1  0.500000  0.866488  0.534449  1
  Pt  Pt7  1  0.500000  0.655849  0.045811  1
