# generated using pymatgen
data_LiSm6Cd22Sb
_symmetry_space_group_name_H-M   'P 1'
_cell_length_a   10.04654372
_cell_length_b   10.04654320
_cell_length_c   10.04654300
_cell_angle_alpha   59.99999736
_cell_angle_beta   59.99999908
_cell_angle_gamma   59.99999957
_symmetry_Int_Tables_number   1
_chemical_formula_structural   LiSm6Cd22Sb
_chemical_formula_sum   'Li1 Sm6 Cd22 Sb1'
_cell_volume   717.02611068
_cell_formula_units_Z   1
loop_
 _symmetry_equiv_pos_site_id
 _symmetry_equiv_pos_as_xyz
  1  'x, y, z'
loop_
 _atom_site_type_symbol
 _atom_site_label
 _atom_site_symmetry_multiplicity
 _atom_site_fract_x
 _atom_site_fract_y
 _atom_site_fract_z
 _atom_site_occupancy
  Li  Li0  1  0.500000  0.500000  0.500000  1
  Sm  Sm1  1  0.784530  0.784530  0.215470  1
  Sm  Sm2  1  0.215470  0.784530  0.215470  1
  Sm  Sm3  1  0.784530  0.215470  0.215470  1
  Sm  Sm4  1  0.215470  0.215470  0.784530  1
  Sm  Sm5  1  0.784530  0.215470  0.784530  1
  Sm  Sm6  1  0.215470  0.784530  0.784530  1
  Cd  Cd7  1  0.836631  0.836631  0.490108  1
  Cd  Cd8  1  0.836631  0.490108  0.836631  1
  Cd  Cd9  1  0.490108  0.836631  0.836631  1
  Cd  Cd10  1  0.836631  0.836631  0.836631  1
  Cd  Cd11  1  0.163369  0.163369  0.509892  1
  Cd  Cd12  1  0.163369  0.509892  0.163369  1
  Cd  Cd13  1  0.509892  0.163369  0.163369  1
  Cd  Cd14  1  0.163369  0.163369  0.163369  1
  Cd  Cd15  1  0.618800  0.618800  0.143603  1
  Cd  Cd16  1  0.618800  0.143603  0.618800  1
  Cd  Cd17  1  0.143603  0.618800  0.618800  1
  Cd  Cd18  1  0.618800  0.618800  0.618800  1
  Cd  Cd19  1  0.381200  0.381200  0.856397  1
  Cd  Cd20  1  0.381200  0.856397  0.381200  1
  Cd  Cd21  1  0.856397  0.381200  0.381200  1
  Cd  Cd22  1  0.381200  0.381200  0.381200  1
  Cd  Cd23  1  0.000000  0.000000  0.500000  1
  Cd  Cd24  1  0.500000  0.000000  0.500000  1
  Cd  Cd25  1  0.000000  0.500000  0.500000  1
  Cd  Cd26  1  0.500000  0.500000  0.000000  1
  Cd  Cd27  1  0.000000  0.500000  0.000000  1
  Cd  Cd28  1  0.500000  0.000000  0.000000  1
  Sb  Sb29  1  0.000000  0.000000  0.000000  1
