# generated using pymatgen
data_Dy5Er(Co3P2)6
_symmetry_space_group_name_H-M   'P 1'
_cell_length_a   3.69973100
_cell_length_b   10.51991300
_cell_length_c   12.17300100
_cell_angle_alpha   90.00273451
_cell_angle_beta   90.00000000
_cell_angle_gamma   90.00000000
_symmetry_Int_Tables_number   1
_chemical_formula_structural   Dy5Er(Co3P2)6
_chemical_formula_sum   'Dy5 Er1 Co18 P12'
_cell_volume   473.78352432
_cell_formula_units_Z   1
loop_
 _symmetry_equiv_pos_site_id
 _symmetry_equiv_pos_as_xyz
  1  'x, y, z'
loop_
 _atom_site_type_symbol
 _atom_site_label
 _atom_site_symmetry_multiplicity
 _atom_site_fract_x
 _atom_site_fract_y
 _atom_site_fract_z
 _atom_site_occupancy
  Dy  Dy0  1  0.000000  0.499920  0.522056  1
  Dy  Dy1  1  0.500000  0.999988  0.477707  1
  Dy  Dy2  1  0.500000  0.182602  0.205867  1
  Dy  Dy3  1  0.000000  0.682803  0.794126  1
  Dy  Dy4  1  0.000000  0.317246  0.794272  1
  Er  Er5  1  0.500000  0.817273  0.205874  1
  Co  Co6  1  0.500000  0.500116  0.158871  1
  Co  Co7  1  0.000000  0.999844  0.841221  1
  Co  Co8  1  0.500000  0.500133  0.703291  1
  Co  Co9  1  0.000000  0.999363  0.296504  1
  Co  Co10  1  0.000000  0.500340  0.986447  1
  Co  Co11  1  0.500000  0.999634  0.014246  1
  Co  Co12  1  0.500000  0.333413  0.994811  1
  Co  Co13  1  0.500000  0.666930  0.995116  1
  Co  Co14  1  0.000000  0.166314  0.005483  1
  Co  Co15  1  0.000000  0.833330  0.005766  1
  Co  Co16  1  0.500000  0.297330  0.430543  1
  Co  Co17  1  0.500000  0.702743  0.430017  1
  Co  Co18  1  0.000000  0.202542  0.569391  1
  Co  Co19  1  0.000000  0.797373  0.568991  1
  Co  Co20  1  0.500000  0.879398  0.709511  1
  Co  Co21  1  0.500000  0.120586  0.709706  1
  Co  Co22  1  0.000000  0.621166  0.289911  1
  Co  Co23  1  0.000000  0.379529  0.290346  1
  P  P24  1  0.500000  0.500193  0.882888  1
  P  P25  1  0.000000  0.999393  0.117660  1
  P  P26  1  0.500000  0.499984  0.343718  1
  P  P27  1  0.000000  0.999984  0.656127  1
  P  P28  1  0.500000  0.310291  0.615880  1
  P  P29  1  0.500000  0.689808  0.615592  1
  P  P30  1  0.000000  0.189573  0.384079  1
  P  P31  1  0.000000  0.810347  0.383313  1
  P  P32  1  0.500000  0.847596  0.893260  1
  P  P33  1  0.500000  0.152272  0.893461  1
  P  P34  1  0.000000  0.653150  0.107188  1
  P  P35  1  0.000000  0.347492  0.106759  1
