# generated using pymatgen
data_Tb3Y2(ZnB4)2
_symmetry_space_group_name_H-M   'P 1'
_cell_length_a   7.21644734
_cell_length_b   7.21644734
_cell_length_c   8.43384100
_cell_angle_alpha   90.00000000
_cell_angle_beta   90.00000000
_cell_angle_gamma   90.03529951
_symmetry_Int_Tables_number   1
_chemical_formula_structural   Tb3Y2(ZnB4)2
_chemical_formula_sum   'Tb6 Y4 Zn4 B16'
_cell_volume   439.21000106
_cell_formula_units_Z   2
loop_
 _symmetry_equiv_pos_site_id
 _symmetry_equiv_pos_as_xyz
  1  'x, y, z'
loop_
 _atom_site_type_symbol
 _atom_site_label
 _atom_site_symmetry_multiplicity
 _atom_site_fract_x
 _atom_site_fract_y
 _atom_site_fract_z
 _atom_site_occupancy
  Tb  Tb0  1  0.681971  0.182002  0.212868  1
  Tb  Tb1  1  0.317998  0.818029  0.787132  1
  Tb  Tb2  1  0.317998  0.818029  0.212868  1
  Tb  Tb3  1  0.818136  0.681864  0.212874  1
  Tb  Tb4  1  0.818136  0.681864  0.787126  1
  Tb  Tb5  1  0.681971  0.182002  0.787132  1
  Y  Y6  1  0.181999  0.318001  0.787965  1
  Y  Y7  1  0.181999  0.318001  0.212035  1
  Y  Y8  1  0.000105  0.000227  0.500000  1
  Y  Y9  1  0.499773  0.499895  0.500000  1
  Zn  Zn10  1  0.117388  0.617244  0.500000  1
  Zn  Zn11  1  0.882756  0.382612  0.500000  1
  Zn  Zn12  1  0.382468  0.117532  0.500000  1
  Zn  Zn13  1  0.617343  0.882657  0.500000  1
  B  B14  1  0.171797  0.040419  0.000000  1
  B  B15  1  0.828361  0.959698  0.000000  1
  B  B16  1  0.959613  0.171721  0.000000  1
  B  B17  1  0.328279  0.540387  0.000000  1
  B  B18  1  0.040444  0.828372  0.000000  1
  B  B19  1  0.671628  0.459556  0.000000  1
  B  B20  1  0.540302  0.671639  0.000000  1
  B  B21  1  0.459581  0.328203  0.000000  1
  B  B22  1  0.090864  0.590901  0.000000  1
  B  B23  1  0.909099  0.409136  0.000000  1
  B  B24  1  0.409281  0.090719  0.000000  1
  B  B25  1  0.590842  0.909158  0.000000  1
  B  B26  1  0.000093  0.000158  0.156698  1
  B  B27  1  0.000093  0.000158  0.843302  1
  B  B28  1  0.499842  0.499907  0.843302  1
  B  B29  1  0.499842  0.499907  0.156698  1
