# generated using pymatgen
data_Ca20InGa8Bi3
_symmetry_space_group_name_H-M   'P 1'
_cell_length_a   8.18538400
_cell_length_b   8.18538400
_cell_length_c   14.58637700
_cell_angle_alpha   90.00000000
_cell_angle_beta   90.00000000
_cell_angle_gamma   90.00000000
_symmetry_Int_Tables_number   1
_chemical_formula_structural   Ca20InGa8Bi3
_chemical_formula_sum   'Ca20 In1 Ga8 Bi3'
_cell_volume   977.29471596
_cell_formula_units_Z   1
loop_
 _symmetry_equiv_pos_site_id
 _symmetry_equiv_pos_as_xyz
  1  'x, y, z'
loop_
 _atom_site_type_symbol
 _atom_site_label
 _atom_site_symmetry_multiplicity
 _atom_site_fract_x
 _atom_site_fract_y
 _atom_site_fract_z
 _atom_site_occupancy
  Ca  Ca0  1  0.674368  0.171617  0.111321  1
  Ca  Ca1  1  0.173773  0.673127  0.613220  1
  Ca  Ca2  1  0.325632  0.828383  0.111321  1
  Ca  Ca3  1  0.826227  0.326873  0.613220  1
  Ca  Ca4  1  0.828383  0.674368  0.111321  1
  Ca  Ca5  1  0.326873  0.173773  0.613220  1
  Ca  Ca6  1  0.171617  0.325632  0.111321  1
  Ca  Ca7  1  0.673127  0.826227  0.613220  1
  Ca  Ca8  1  0.828383  0.325632  0.888679  1
  Ca  Ca9  1  0.326873  0.826227  0.386780  1
  Ca  Ca10  1  0.171617  0.674368  0.888679  1
  Ca  Ca11  1  0.673127  0.173773  0.386780  1
  Ca  Ca12  1  0.674368  0.828383  0.888679  1
  Ca  Ca13  1  0.173773  0.326873  0.386780  1
  Ca  Ca14  1  0.325632  0.171617  0.888679  1
  Ca  Ca15  1  0.826227  0.673127  0.386780  1
  Ca  Ca16  1  0.500000  0.500000  0.754020  1
  Ca  Ca17  1  0.000000  0.000000  0.247587  1
  Ca  Ca18  1  0.000000  0.000000  0.752413  1
  Ca  Ca19  1  0.500000  0.500000  0.245980  1
  In  In20  1  0.000000  0.000000  0.000000  1
  Ga  Ga21  1  0.614336  0.114598  0.750231  1
  Ga  Ga22  1  0.114598  0.614336  0.249769  1
  Ga  Ga23  1  0.885402  0.385664  0.249769  1
  Ga  Ga24  1  0.385664  0.885402  0.750231  1
  Ga  Ga25  1  0.885402  0.614336  0.750231  1
  Ga  Ga26  1  0.385664  0.114598  0.249769  1
  Ga  Ga27  1  0.114598  0.385664  0.750231  1
  Ga  Ga28  1  0.614336  0.885402  0.249769  1
  Bi  Bi29  1  0.500000  0.500000  0.500000  1
  Bi  Bi30  1  0.500000  0.500000  0.000000  1
  Bi  Bi31  1  0.000000  0.000000  0.500000  1
