# generated using pymatgen
data_Y3Lu(Al3Rh)6
_symmetry_space_group_name_H-M   'P 1'
_cell_length_a   7.54426640
_cell_length_b   7.54897489
_cell_length_c   9.47651400
_cell_angle_alpha   90.00000000
_cell_angle_beta   90.00000000
_cell_angle_gamma   119.36355752
_symmetry_Int_Tables_number   1
_chemical_formula_structural   Y3Lu(Al3Rh)6
_chemical_formula_sum   'Y3 Lu1 Al18 Rh6'
_cell_volume   470.36379739
_cell_formula_units_Z   1
loop_
 _symmetry_equiv_pos_site_id
 _symmetry_equiv_pos_as_xyz
  1  'x, y, z'
loop_
 _atom_site_type_symbol
 _atom_site_label
 _atom_site_symmetry_multiplicity
 _atom_site_fract_x
 _atom_site_fract_y
 _atom_site_fract_z
 _atom_site_occupancy
  Y  Y0  1  0.994620  0.671704  0.250000  1
  Y  Y1  1  0.005748  0.328254  0.750000  1
  Y  Y2  1  0.671375  0.994191  0.250000  1
  Lu  Lu3  1  0.327878  0.005501  0.750000  1
  Al  Al4  1  0.129181  0.128519  0.250000  1
  Al  Al5  1  0.872672  0.871729  0.750000  1
  Al  Al6  1  0.001392  0.335320  0.074298  1
  Al  Al7  1  0.999893  0.665608  0.924384  1
  Al  Al8  1  0.999893  0.665608  0.575616  1
  Al  Al9  1  0.335210  0.001108  0.427498  1
  Al  Al10  1  0.001392  0.335320  0.425702  1
  Al  Al11  1  0.663365  0.998904  0.575819  1
  Al  Al12  1  0.663365  0.998904  0.924181  1
  Al  Al13  1  0.335210  0.001108  0.072502  1
  Al  Al14  1  0.333220  0.332288  0.551462  1
  Al  Al15  1  0.666853  0.666867  0.451376  1
  Al  Al16  1  0.666853  0.666867  0.048624  1
  Al  Al17  1  0.333220  0.332288  0.948538  1
  Al  Al18  1  0.339628  0.549323  0.250000  1
  Al  Al19  1  0.659045  0.449058  0.750000  1
  Al  Al20  1  0.549098  0.338936  0.250000  1
  Al  Al21  1  0.450330  0.661715  0.750000  1
  Rh  Rh22  1  0.672078  0.327772  0.999457  1
  Rh  Rh23  1  0.327672  0.672083  0.999530  1
  Rh  Rh24  1  0.327672  0.672083  0.500470  1
  Rh  Rh25  1  0.672078  0.327772  0.500543  1
  Rh  Rh26  1  0.000529  0.000585  0.999148  1
  Rh  Rh27  1  0.000529  0.000585  0.500852  1
