# generated using pymatgen
data_Zr13Sc5(Re4Ni)2
_symmetry_space_group_name_H-M   'P 1'
_cell_length_a   8.73269600
_cell_length_b   8.71451540
_cell_length_c   8.43024400
_cell_angle_alpha   90.00000000
_cell_angle_beta   90.00000000
_cell_angle_gamma   119.93115270
_symmetry_Int_Tables_number   1
_chemical_formula_structural   Zr13Sc5(Re4Ni)2
_chemical_formula_sum   'Zr13 Sc5 Re8 Ni2'
_cell_volume   555.98520422
_cell_formula_units_Z   1
loop_
 _symmetry_equiv_pos_site_id
 _symmetry_equiv_pos_as_xyz
  1  'x, y, z'
loop_
 _atom_site_type_symbol
 _atom_site_label
 _atom_site_symmetry_multiplicity
 _atom_site_fract_x
 _atom_site_fract_y
 _atom_site_fract_z
 _atom_site_occupancy
  Zr  Zr0  1  0.198562  0.802097  0.443555  1
  Zr  Zr1  1  0.198562  0.396465  0.443555  1
  Zr  Zr2  1  0.603500  0.801750  0.443917  1
  Zr  Zr3  1  0.800959  0.197212  0.556171  1
  Zr  Zr4  1  0.800959  0.603748  0.556171  1
  Zr  Zr5  1  0.396872  0.198436  0.557045  1
  Zr  Zr6  1  0.800959  0.197212  0.943829  1
  Zr  Zr7  1  0.800959  0.603748  0.943829  1
  Zr  Zr8  1  0.396872  0.198436  0.942955  1
  Zr  Zr9  1  0.198562  0.802097  0.056445  1
  Zr  Zr10  1  0.198562  0.396465  0.056445  1
  Zr  Zr11  1  0.603500  0.801750  0.056083  1
  Zr  Zr12  1  0.084826  0.542413  0.750000  1
  Sc  Sc13  1  0.542202  0.457688  0.250000  1
  Sc  Sc14  1  0.542202  0.084515  0.250000  1
  Sc  Sc15  1  0.915818  0.457910  0.250000  1
  Sc  Sc16  1  0.457854  0.542196  0.750000  1
  Sc  Sc17  1  0.457854  0.915656  0.750000  1
  Re  Re18  1  0.891679  0.108467  0.250000  1
  Re  Re19  1  0.891679  0.783212  0.250000  1
  Re  Re20  1  0.216690  0.108345  0.250000  1
  Re  Re21  1  0.108145  0.891833  0.750000  1
  Re  Re22  1  0.108145  0.216313  0.750000  1
  Re  Re23  1  0.783766  0.891882  0.750000  1
  Re  Re24  1  0.999804  0.999902  0.498922  1
  Re  Re25  1  0.999804  0.999902  0.001078  1
  Ni  Ni26  1  0.332809  0.666404  0.250000  1
  Ni  Ni27  1  0.667887  0.333943  0.750000  1
