# generated using pymatgen
data_Cs11K6Rb(GaAs4)2
_symmetry_space_group_name_H-M   'P 1'
_cell_length_a   10.57400100
_cell_length_b   10.59052617
_cell_length_c   11.27708289
_cell_angle_alpha   89.90383756
_cell_angle_beta   90.00000000
_cell_angle_gamma   119.94839980
_symmetry_Int_Tables_number   1
_chemical_formula_structural   Cs11K6Rb(GaAs4)2
_chemical_formula_sum   'Cs11 K6 Rb1 Ga2 As8'
_cell_volume   1094.23110210
_cell_formula_units_Z   1
loop_
 _symmetry_equiv_pos_site_id
 _symmetry_equiv_pos_as_xyz
  1  'x, y, z'
loop_
 _atom_site_type_symbol
 _atom_site_label
 _atom_site_symmetry_multiplicity
 _atom_site_fract_x
 _atom_site_fract_y
 _atom_site_fract_z
 _atom_site_occupancy
  Cs  Cs0  1  0.791110  0.208645  0.042840  1
  Cs  Cs1  1  0.417533  0.208645  0.042840  1
  Cs  Cs2  1  0.581407  0.790278  0.542870  1
  Cs  Cs3  1  0.208873  0.790278  0.542870  1
  Cs  Cs4  1  0.791137  0.582276  0.457366  1
  Cs  Cs5  1  0.791539  0.208955  0.457218  1
  Cs  Cs6  1  0.791061  0.582124  0.042908  1
  Cs  Cs7  1  0.417414  0.208955  0.457218  1
  Cs  Cs8  1  0.582169  0.791182  0.957199  1
  Cs  Cs9  1  0.208842  0.417683  0.956777  1
  Cs  Cs10  1  0.209015  0.791182  0.957199  1
  K  K11  1  0.119935  0.239869  0.250860  1
  K  K12  1  0.880994  0.120161  0.749690  1
  K  K13  1  0.239166  0.120161  0.749690  1
  K  K14  1  0.760761  0.880466  0.250028  1
  K  K15  1  0.119707  0.880466  0.250028  1
  K  K16  1  0.880495  0.760991  0.749884  1
  Rb  Rb17  1  0.208420  0.416838  0.541239  1
  Ga  Ga18  1  0.333197  0.666395  0.250782  1
  Ga  Ga19  1  0.666413  0.332827  0.749158  1
  As  As20  1  0.469681  0.529722  0.251117  1
  As  As21  1  0.940760  0.470460  0.749460  1
  As  As22  1  0.530157  0.060316  0.750072  1
  As  As23  1  0.469753  0.939504  0.249856  1
  As  As24  1  0.060043  0.529722  0.251117  1
  As  As25  1  0.529698  0.470460  0.749460  1
  As  As26  1  0.999838  0.999676  0.000062  1
  As  As27  1  0.000881  0.001761  0.500191  1
