# generated using pymatgen
data_La5Pr5Sn20(IrPd)4
_symmetry_space_group_name_H-M   'P 1'
_cell_length_a   14.30921801
_cell_length_b   14.28616601
_cell_length_c   4.72429500
_cell_angle_alpha   90.00000000
_cell_angle_beta   90.00000000
_cell_angle_gamma   89.99644148
_symmetry_Int_Tables_number   1
_chemical_formula_structural   La5Pr5Sn20(IrPd)4
_chemical_formula_sum   'La5 Pr5 Sn20 Ir4 Pd4'
_cell_volume   965.75863612
_cell_formula_units_Z   1
loop_
 _symmetry_equiv_pos_site_id
 _symmetry_equiv_pos_as_xyz
  1  'x, y, z'
loop_
 _atom_site_type_symbol
 _atom_site_label
 _atom_site_symmetry_multiplicity
 _atom_site_fract_x
 _atom_site_fract_y
 _atom_site_fract_z
 _atom_site_occupancy
  La  La0  1  0.500028  0.499948  0.000000  1
  La  La1  1  0.999984  0.999994  0.000000  1
  La  La2  1  0.107506  0.610197  0.500000  1
  La  La3  1  0.392538  0.110220  0.500000  1
  La  La4  1  0.607411  0.889788  0.500000  1
  Pr  Pr5  1  0.675833  0.180911  0.500000  1
  Pr  Pr6  1  0.324169  0.819193  0.500000  1
  Pr  Pr7  1  0.175827  0.319056  0.500000  1
  Pr  Pr8  1  0.824171  0.680854  0.500000  1
  Pr  Pr9  1  0.892520  0.389816  0.500000  1
  Sn  Sn10  1  0.568320  0.070398  0.000000  1
  Sn  Sn11  1  0.431706  0.929556  0.000000  1
  Sn  Sn12  1  0.067945  0.429441  0.000000  1
  Sn  Sn13  1  0.931630  0.570137  0.000000  1
  Sn  Sn14  1  0.652200  0.703567  0.000000  1
  Sn  Sn15  1  0.347831  0.296452  0.000000  1
  Sn  Sn16  1  0.152129  0.796426  0.000000  1
  Sn  Sn17  1  0.848030  0.203945  0.000000  1
  Sn  Sn18  1  0.301394  0.652757  0.000000  1
  Sn  Sn19  1  0.698810  0.347381  0.000000  1
  Sn  Sn20  1  0.198528  0.152824  0.000000  1
  Sn  Sn21  1  0.801461  0.847199  0.000000  1
  Sn  Sn22  1  0.663924  0.502766  0.500000  1
  Sn  Sn23  1  0.336197  0.497170  0.500000  1
  Sn  Sn24  1  0.163867  0.997177  0.500000  1
  Sn  Sn25  1  0.836164  0.002829  0.500000  1
  Sn  Sn26  1  0.496814  0.663047  0.500000  1
  Sn  Sn27  1  0.503138  0.336942  0.500000  1
  Sn  Sn28  1  0.003071  0.163189  0.500000  1
  Sn  Sn29  1  0.996784  0.836984  0.500000  1
  Ir  Ir30  1  0.468098  0.744035  0.000000  1
  Ir  Ir31  1  0.531982  0.255937  0.000000  1
  Ir  Ir32  1  0.031944  0.244150  0.000000  1
  Ir  Ir33  1  0.968029  0.755834  0.000000  1
  Pd  Pd34  1  0.744732  0.531712  0.000000  1
  Pd  Pd35  1  0.255287  0.468181  0.000000  1
  Pd  Pd36  1  0.244611  0.968189  0.000000  1
  Pd  Pd37  1  0.755384  0.031797  0.000000  1
