# generated using pymatgen
data_Y3U5Nb11ZnSi16
_symmetry_space_group_name_H-M   'P 1'
_cell_length_a   7.07580797
_cell_length_b   7.07984091
_cell_length_c   12.95969424
_cell_angle_alpha   90.02576392
_cell_angle_beta   90.08387151
_cell_angle_gamma   90.05615278
_symmetry_Int_Tables_number   1
_chemical_formula_structural   Y3U5Nb11ZnSi16
_chemical_formula_sum   'Y3 U5 Nb11 Zn1 Si16'
_cell_volume   649.22251793
_cell_formula_units_Z   1
loop_
 _symmetry_equiv_pos_site_id
 _symmetry_equiv_pos_as_xyz
  1  'x, y, z'
loop_
 _atom_site_type_symbol
 _atom_site_label
 _atom_site_symmetry_multiplicity
 _atom_site_fract_x
 _atom_site_fract_y
 _atom_site_fract_z
 _atom_site_occupancy
  Y  Y0  1  0.998810  0.338993  0.216180  1
  Y  Y1  1  0.001586  0.661543  0.716414  1
  Y  Y2  1  0.160652  0.499642  0.466278  1
  U  U3  1  0.504051  0.835812  0.030529  1
  U  U4  1  0.833553  0.502854  0.968736  1
  U  U5  1  0.502523  0.157919  0.532648  1
  U  U6  1  0.341713  0.998542  0.783581  1
  U  U7  1  0.657814  0.999549  0.282018  1
  Nb  Nb8  1  0.825399  0.834712  0.498132  1
  Nb  Nb9  1  0.334903  0.674501  0.248413  1
  Nb  Nb10  1  0.669142  0.329170  0.749822  1
  Nb  Nb11  1  0.155839  0.995659  0.376003  1
  Nb  Nb12  1  0.848351  0.004033  0.878125  1
  Nb  Nb13  1  0.504894  0.656814  0.627357  1
  Nb  Nb14  1  0.347306  0.494290  0.877536  1
  Nb  Nb15  1  0.495530  0.345517  0.124071  1
  Nb  Nb16  1  0.652382  0.502089  0.374939  1
  Nb  Nb17  1  0.999383  0.153186  0.625821  1
  Nb  Nb18  1  0.000152  0.846414  0.124335  1
  Zn  Zn19  1  0.168791  0.169927  0.002509  1
  Si  Si20  1  0.294667  0.041351  0.186784  1
  Si  Si21  1  0.708617  0.958135  0.687390  1
  Si  Si22  1  0.456872  0.793900  0.436309  1
  Si  Si23  1  0.206648  0.553123  0.063603  1
  Si  Si24  1  0.550251  0.205780  0.935507  1
  Si  Si25  1  0.792960  0.456157  0.562452  1
  Si  Si26  1  0.041962  0.297241  0.812838  1
  Si  Si27  1  0.955727  0.708129  0.312587  1
  Si  Si28  1  0.369473  0.292906  0.317517  1
  Si  Si29  1  0.630891  0.707676  0.818075  1
  Si  Si30  1  0.207770  0.870245  0.568083  1
  Si  Si31  1  0.126702  0.784101  0.929578  1
  Si  Si32  1  0.783034  0.127487  0.069527  1
  Si  Si33  1  0.868856  0.204500  0.431648  1
  Si  Si34  1  0.296903  0.368201  0.682366  1
  Si  Si35  1  0.705891  0.629900  0.182287  1
