# generated using pymatgen
data_Li2Ca2NdGa9
_symmetry_space_group_name_H-M   'P 1'
_cell_length_a   8.40839168
_cell_length_b   8.40839072
_cell_length_c   8.40839100
_cell_angle_alpha   149.14049418
_cell_angle_beta   110.55510333
_cell_angle_gamma   77.90486090
_symmetry_Int_Tables_number   1
_chemical_formula_structural   Li2Ca2NdGa9
_chemical_formula_sum   'Li2 Ca2 Nd1 Ga9'
_cell_volume   280.24538714
_cell_formula_units_Z   1
loop_
 _symmetry_equiv_pos_site_id
 _symmetry_equiv_pos_as_xyz
  1  'x, y, z'
loop_
 _atom_site_type_symbol
 _atom_site_label
 _atom_site_symmetry_multiplicity
 _atom_site_fract_x
 _atom_site_fract_y
 _atom_site_fract_z
 _atom_site_occupancy
  Li  Li0  1  0.692176  0.500000  0.192176  1
  Li  Li1  1  0.307824  0.500000  0.807824  1
  Ca  Ca2  1  0.301812  0.301812  0.000000  1
  Ca  Ca3  1  0.698188  0.698188  0.000000  1
  Nd  Nd4  1  0.000000  0.000000  0.000000  1
  Ga  Ga5  1  0.706201  0.341166  0.365035  1
  Ga  Ga6  1  0.293799  0.658834  0.634965  1
  Ga  Ga7  1  0.976130  0.341166  0.634965  1
  Ga  Ga8  1  0.023870  0.658834  0.365035  1
  Ga  Ga9  1  0.425493  0.144904  0.280587  1
  Ga  Ga10  1  0.574507  0.855096  0.719413  1
  Ga  Ga11  1  0.864316  0.144904  0.719413  1
  Ga  Ga12  1  0.135684  0.855096  0.280587  1
  Ga  Ga13  1  0.500000  0.000000  0.500000  1
