# generated using pymatgen
data_LaNdHg2(Pt2O7)2
_symmetry_space_group_name_H-M   'P 1'
_cell_length_a   7.54907948
_cell_length_b   7.40368934
_cell_length_c   7.40368945
_cell_angle_alpha   59.46549841
_cell_angle_beta   59.24761058
_cell_angle_gamma   59.24760666
_symmetry_Int_Tables_number   1
_chemical_formula_structural   LaNdHg2(Pt2O7)2
_chemical_formula_sum   'La1 Nd1 Hg2 Pt4 O14'
_cell_volume   288.06948193
_cell_formula_units_Z   1
loop_
 _symmetry_equiv_pos_site_id
 _symmetry_equiv_pos_as_xyz
  1  'x, y, z'
loop_
 _atom_site_type_symbol
 _atom_site_label
 _atom_site_symmetry_multiplicity
 _atom_site_fract_x
 _atom_site_fract_y
 _atom_site_fract_z
 _atom_site_occupancy
  La  La0  1  0.625000  0.125000  0.125000  1
  Nd  Nd1  1  0.125000  0.125000  0.125000  1
  Hg  Hg2  1  0.125000  0.625000  0.125000  1
  Hg  Hg3  1  0.125000  0.125000  0.625000  1
  Pt  Pt4  1  0.625000  0.625000  0.125000  1
  Pt  Pt5  1  0.625000  0.625000  0.625000  1
  Pt  Pt6  1  0.625000  0.125000  0.625000  1
  Pt  Pt7  1  0.125000  0.625000  0.625000  1
  O  O8  1  0.714101  0.288488  0.288488  1
  O  O9  1  0.694579  0.295488  0.710613  1
  O  O10  1  0.016224  0.986270  0.986270  1
  O  O11  1  0.297682  0.714745  0.294272  1
  O  O12  1  0.694579  0.710613  0.295488  1
  O  O13  1  0.951389  0.548850  0.548850  1
  O  O14  1  0.298611  0.701150  0.701150  1
  O  O15  1  0.233776  0.263730  0.263730  1
  O  O16  1  0.952318  0.535255  0.955728  1
  O  O17  1  0.555421  0.954512  0.539387  1
  O  O18  1  0.555421  0.539387  0.954512  1
  O  O19  1  0.952318  0.955728  0.535255  1
  O  O20  1  0.535899  0.961512  0.961512  1
  O  O21  1  0.297682  0.294272  0.714745  1
