# generated using pymatgen
data_Ac2Zn19Pt3
_symmetry_space_group_name_H-M   'P 1'
_cell_length_a   8.43299952
_cell_length_b   8.41595559
_cell_length_c   8.43299482
_cell_angle_alpha   99.24376614
_cell_angle_beta   100.36458408
_cell_angle_gamma   131.38496760
_symmetry_Int_Tables_number   1
_chemical_formula_structural   Ac2Zn19Pt3
_chemical_formula_sum   'Ac2 Zn19 Pt3'
_cell_volume   408.80202901
_cell_formula_units_Z   1
loop_
 _symmetry_equiv_pos_site_id
 _symmetry_equiv_pos_as_xyz
  1  'x, y, z'
loop_
 _atom_site_type_symbol
 _atom_site_label
 _atom_site_symmetry_multiplicity
 _atom_site_fract_x
 _atom_site_fract_y
 _atom_site_fract_z
 _atom_site_occupancy
  Ac  Ac0  1  0.501413  0.499848  0.998435  1
  Ac  Ac1  1  0.748587  0.250152  0.501565  1
  Zn  Zn2  1  0.851314  0.433802  0.171677  1
  Zn  Zn3  1  0.125000  0.875000  0.750000  1
  Zn  Zn4  1  0.317753  0.146478  0.581353  1
  Zn  Zn5  1  0.262125  0.433802  0.582488  1
  Zn  Zn6  1  0.319537  0.737391  0.169334  1
  Zn  Zn7  1  0.987875  0.316198  0.917512  1
  Zn  Zn8  1  0.263757  0.679567  0.828774  1
  Zn  Zn9  1  0.255111  0.750953  0.495842  1
  Zn  Zn10  1  0.986243  0.070433  0.671226  1
  Zn  Zn11  1  0.994889  0.999047  0.004158  1
  Zn  Zn12  1  0.681942  0.012609  0.082146  1
  Zn  Zn13  1  0.398686  0.316198  0.328323  1
  Zn  Zn14  1  0.930463  0.012609  0.330666  1
  Zn  Zn15  1  0.850793  0.679567  0.415810  1
  Zn  Zn16  1  0.568058  0.737391  0.417854  1
  Zn  Zn17  1  0.684875  0.603522  0.671275  1
  Zn  Zn18  1  0.399207  0.070433  0.084190  1
  Zn  Zn19  1  0.932247  0.603522  0.918647  1
  Zn  Zn20  1  0.565125  0.146478  0.828725  1
  Pt  Pt21  1  0.625000  0.875000  0.750000  1
  Pt  Pt22  1  0.125000  0.875000  0.250000  1
  Pt  Pt23  1  0.125000  0.375000  0.250000  1
