# generated using pymatgen
data_NdCdGa3Ni
_symmetry_space_group_name_H-M   'P 1'
_cell_length_a   4.25862594
_cell_length_b   6.55941400
_cell_length_c   8.30327963
_cell_angle_alpha   90.00000000
_cell_angle_beta   104.85908320
_cell_angle_gamma   90.00000000
_symmetry_Int_Tables_number   1
_chemical_formula_structural   NdCdGa3Ni
_chemical_formula_sum   'Nd2 Cd2 Ga6 Ni2'
_cell_volume   224.18821396
_cell_formula_units_Z   2
loop_
 _symmetry_equiv_pos_site_id
 _symmetry_equiv_pos_as_xyz
  1  'x, y, z'
loop_
 _atom_site_type_symbol
 _atom_site_label
 _atom_site_symmetry_multiplicity
 _atom_site_fract_x
 _atom_site_fract_y
 _atom_site_fract_z
 _atom_site_occupancy
  Nd  Nd0  1  0.875756  0.750000  0.751511  1
  Nd  Nd1  1  0.124244  0.250000  0.248489  1
  Cd  Cd2  1  0.500000  0.500000  0.000000  1
  Cd  Cd3  1  0.500000  0.000000  0.000000  1
  Ga  Ga4  1  0.074664  0.750000  0.149329  1
  Ga  Ga5  1  0.925336  0.250000  0.850671  1
  Ga  Ga6  1  0.689093  0.551680  0.378186  1
  Ga  Ga7  1  0.310907  0.448320  0.621814  1
  Ga  Ga8  1  0.689093  0.948320  0.378186  1
  Ga  Ga9  1  0.310907  0.051680  0.621814  1
  Ni  Ni10  1  0.221681  0.750000  0.443362  1
  Ni  Ni11  1  0.778319  0.250000  0.556638  1
