# generated using pymatgen
data_Tm3Hf(Al3Ir)6
_symmetry_space_group_name_H-M   'P 1'
_cell_length_a   7.51972190
_cell_length_b   7.50973683
_cell_length_c   9.36953600
_cell_angle_alpha   90.00000000
_cell_angle_beta   90.00000000
_cell_angle_gamma   119.58436016
_symmetry_Int_Tables_number   1
_chemical_formula_structural   Tm3Hf(Al3Ir)6
_chemical_formula_sum   'Tm3 Hf1 Al18 Ir6'
_cell_volume   460.12831457
_cell_formula_units_Z   1
loop_
 _symmetry_equiv_pos_site_id
 _symmetry_equiv_pos_as_xyz
  1  'x, y, z'
loop_
 _atom_site_type_symbol
 _atom_site_label
 _atom_site_symmetry_multiplicity
 _atom_site_fract_x
 _atom_site_fract_y
 _atom_site_fract_z
 _atom_site_occupancy
  Tm  Tm0  1  0.006138  0.327263  0.750000  1
  Tm  Tm1  1  0.672098  0.996036  0.250000  1
  Tm  Tm2  1  0.328291  0.006444  0.750000  1
  Hf  Hf3  1  0.996761  0.672534  0.250000  1
  Al  Al4  1  0.125465  0.123173  0.250000  1
  Al  Al5  1  0.871246  0.870320  0.750000  1
  Al  Al6  1  0.999946  0.337900  0.079805  1
  Al  Al7  1  0.999651  0.664813  0.927137  1
  Al  Al8  1  0.999651  0.664813  0.572863  1
  Al  Al9  1  0.332829  0.997960  0.420031  1
  Al  Al10  1  0.999946  0.337900  0.420195  1
  Al  Al11  1  0.664413  0.998815  0.575827  1
  Al  Al12  1  0.664413  0.998815  0.924173  1
  Al  Al13  1  0.332829  0.997960  0.079969  1
  Al  Al14  1  0.333395  0.333386  0.550749  1
  Al  Al15  1  0.669142  0.667243  0.442627  1
  Al  Al16  1  0.669142  0.667243  0.057373  1
  Al  Al17  1  0.333395  0.333386  0.949251  1
  Al  Al18  1  0.336438  0.550506  0.250000  1
  Al  Al19  1  0.660499  0.451036  0.750000  1
  Al  Al20  1  0.555397  0.344066  0.250000  1
  Al  Al21  1  0.449843  0.659099  0.750000  1
  Ir  Ir22  1  0.672933  0.328066  0.001064  1
  Ir  Ir23  1  0.327379  0.672664  0.001694  1
  Ir  Ir24  1  0.327379  0.672664  0.498306  1
  Ir  Ir25  1  0.672933  0.328066  0.498936  1
  Ir  Ir26  1  0.999225  0.998910  0.001229  1
  Ir  Ir27  1  0.999225  0.998910  0.498771  1
