# generated using pymatgen
data_CrAg6Rh2F18
_symmetry_space_group_name_H-M   'P 1'
_cell_length_a   9.75121676
_cell_length_b   9.75373941
_cell_length_c   5.22154300
_cell_angle_alpha   89.97670865
_cell_angle_beta   89.96552693
_cell_angle_gamma   119.99133192
_symmetry_Int_Tables_number   1
_chemical_formula_structural   CrAg6Rh2F18
_chemical_formula_sum   'Cr1 Ag6 Rh2 F18'
_cell_volume   430.12744374
_cell_formula_units_Z   1
loop_
 _symmetry_equiv_pos_site_id
 _symmetry_equiv_pos_as_xyz
  1  'x, y, z'
loop_
 _atom_site_type_symbol
 _atom_site_label
 _atom_site_symmetry_multiplicity
 _atom_site_fract_x
 _atom_site_fract_y
 _atom_site_fract_z
 _atom_site_occupancy
  Cr  Cr0  1  0.666537  0.333198  0.507978  1
  Ag  Ag1  1  0.994950  0.618369  0.004051  1
  Ag  Ag2  1  0.991729  0.290165  0.504409  1
  Ag  Ag3  1  0.381692  0.376713  0.004319  1
  Ag  Ag4  1  0.298550  0.008392  0.504244  1
  Ag  Ag5  1  0.709805  0.701469  0.504519  1
  Ag  Ag6  1  0.623241  0.004772  0.003936  1
  Rh  Rh7  1  0.333298  0.666710  0.494651  1
  Rh  Rh8  1  0.000025  0.000038  0.991719  1
  F  F9  1  0.091484  0.895659  0.783176  1
  F  F10  1  0.216327  0.743614  0.284803  1
  F  F11  1  0.143064  0.544457  0.709213  1
  F  F12  1  0.401317  0.856957  0.708768  1
  F  F13  1  0.256512  0.472833  0.285079  1
  F  F14  1  0.104457  0.195809  0.782963  1
  F  F15  1  0.193187  0.106795  0.203409  1
  F  F16  1  0.455629  0.598807  0.709060  1
  F  F17  1  0.527303  0.783673  0.284639  1
  F  F18  1  0.475935  0.260999  0.716162  1
  F  F19  1  0.602216  0.458619  0.296951  1
  F  F20  1  0.804382  0.908699  0.782950  1
  F  F21  1  0.541530  0.143596  0.296983  1
  F  F22  1  0.784868  0.523780  0.716095  1
  F  F23  1  0.913465  0.806692  0.203424  1
  F  F24  1  0.738762  0.214820  0.716218  1
  F  F25  1  0.856609  0.397844  0.297069  1
  F  F26  1  0.893128  0.086523  0.203214  1
