# generated using pymatgen
data_Y2Sc(Si3Pt2)2
_symmetry_space_group_name_H-M   'P 1'
_cell_length_a   4.20825600
_cell_length_b   8.49595971
_cell_length_c   12.86400000
_cell_angle_alpha   80.31498284
_cell_angle_beta   90.00000000
_cell_angle_gamma   90.00000000
_symmetry_Int_Tables_number   1
_chemical_formula_structural   Y2Sc(Si3Pt2)2
_chemical_formula_sum   'Y4 Sc2 Si12 Pt8'
_cell_volume   453.37368500
_cell_formula_units_Z   2
loop_
 _symmetry_equiv_pos_site_id
 _symmetry_equiv_pos_as_xyz
  1  'x, y, z'
loop_
 _atom_site_type_symbol
 _atom_site_label
 _atom_site_symmetry_multiplicity
 _atom_site_fract_x
 _atom_site_fract_y
 _atom_site_fract_z
 _atom_site_occupancy
  Y  Y0  1  0.750000  0.234311  0.561872  1
  Y  Y1  1  0.750000  0.416736  0.809723  1
  Y  Y2  1  0.750000  0.926899  0.812539  1
  Y  Y3  1  0.250000  0.069366  0.186621  1
  Sc  Sc4  1  0.250000  0.765016  0.436157  1
  Sc  Sc5  1  0.250000  0.591124  0.188601  1
  Si  Si6  1  0.750000  0.590442  0.564320  1
  Si  Si7  1  0.750000  0.125484  0.009233  1
  Si  Si8  1  0.750000  0.871274  0.568565  1
  Si  Si9  1  0.250000  0.696888  0.713849  1
  Si  Si10  1  0.750000  0.302461  0.288512  1
  Si  Si11  1  0.750000  0.803211  0.279112  1
  Si  Si12  1  0.250000  0.872685  0.995981  1
  Si  Si13  1  0.250000  0.195139  0.724065  1
  Si  Si14  1  0.250000  0.380882  0.002800  1
  Si  Si15  1  0.250000  0.124361  0.427618  1
  Si  Si16  1  0.750000  0.619596  0.002018  1
  Si  Si17  1  0.250000  0.415277  0.427663  1
  Pt  Pt18  1  0.750000  0.353380  0.102662  1
  Pt  Pt19  1  0.250000  0.970017  0.621189  1
  Pt  Pt20  1  0.750000  0.845889  0.091349  1
  Pt  Pt21  1  0.750000  0.025022  0.376590  1
  Pt  Pt22  1  0.250000  0.648320  0.901280  1
  Pt  Pt23  1  0.250000  0.151133  0.913477  1
  Pt  Pt24  1  0.750000  0.534883  0.373452  1
  Pt  Pt25  1  0.250000  0.470203  0.620751  1
