# generated using pymatgen
data_Lu2Nb3GaGe3
_symmetry_space_group_name_H-M   'P 1'
_cell_length_a   7.02283900
_cell_length_b   7.17200300
_cell_length_c   13.47193800
_cell_angle_alpha   90.00000000
_cell_angle_beta   90.00000000
_cell_angle_gamma   90.00000000
_symmetry_Int_Tables_number   1
_chemical_formula_structural   Lu2Nb3GaGe3
_chemical_formula_sum   'Lu8 Nb12 Ga4 Ge12'
_cell_volume   678.55218025
_cell_formula_units_Z   4
loop_
 _symmetry_equiv_pos_site_id
 _symmetry_equiv_pos_as_xyz
  1  'x, y, z'
loop_
 _atom_site_type_symbol
 _atom_site_label
 _atom_site_symmetry_multiplicity
 _atom_site_fract_x
 _atom_site_fract_y
 _atom_site_fract_z
 _atom_site_occupancy
  Lu  Lu0  1  0.495231  0.324941  0.094209  1
  Lu  Lu1  1  0.995231  0.175059  0.405791  1
  Lu  Lu2  1  0.504769  0.675059  0.594209  1
  Lu  Lu3  1  0.004769  0.824941  0.905791  1
  Lu  Lu4  1  0.504769  0.675059  0.905791  1
  Lu  Lu5  1  0.004769  0.824941  0.594209  1
  Lu  Lu6  1  0.495231  0.324941  0.405791  1
  Lu  Lu7  1  0.995231  0.175059  0.094209  1
  Nb  Nb8  1  0.664663  0.016740  0.750000  1
  Nb  Nb9  1  0.164663  0.483260  0.750000  1
  Nb  Nb10  1  0.335337  0.983260  0.250000  1
  Nb  Nb11  1  0.835337  0.516740  0.250000  1
  Nb  Nb12  1  0.843557  0.325081  0.627186  1
  Nb  Nb13  1  0.343557  0.174919  0.872814  1
  Nb  Nb14  1  0.156443  0.674919  0.127186  1
  Nb  Nb15  1  0.656443  0.825081  0.372814  1
  Nb  Nb16  1  0.156443  0.674919  0.372814  1
  Nb  Nb17  1  0.656443  0.825081  0.127186  1
  Nb  Nb18  1  0.843557  0.325081  0.872814  1
  Nb  Nb19  1  0.343557  0.174919  0.627186  1
  Ga  Ga20  1  0.803156  0.644361  0.750000  1
  Ga  Ga21  1  0.303156  0.855639  0.750000  1
  Ga  Ga22  1  0.196844  0.355639  0.250000  1
  Ga  Ga23  1  0.696844  0.144361  0.250000  1
  Ge  Ge24  1  0.543928  0.386306  0.750000  1
  Ge  Ge25  1  0.043928  0.113694  0.750000  1
  Ge  Ge26  1  0.456072  0.613694  0.250000  1
  Ge  Ge27  1  0.956072  0.886306  0.250000  1
  Ge  Ge28  1  0.676719  0.035777  0.541231  1
  Ge  Ge29  1  0.176719  0.464223  0.958769  1
  Ge  Ge30  1  0.323281  0.964223  0.041231  1
  Ge  Ge31  1  0.823281  0.535777  0.458769  1
  Ge  Ge32  1  0.323281  0.964223  0.458769  1
  Ge  Ge33  1  0.823281  0.535777  0.041231  1
  Ge  Ge34  1  0.676719  0.035777  0.958769  1
  Ge  Ge35  1  0.176719  0.464223  0.541231  1
