# generated using pymatgen
data_PrCu4BiO8
_symmetry_space_group_name_H-M   'P 1'
_cell_length_a   6.41290429
_cell_length_b   6.41290422
_cell_length_c   6.41290360
_cell_angle_alpha   125.61220291
_cell_angle_beta   125.61219673
_cell_angle_gamma   80.52644981
_symmetry_Int_Tables_number   1
_chemical_formula_structural   PrCu4BiO8
_chemical_formula_sum   'Pr1 Cu4 Bi1 O8'
_cell_volume   168.12593699
_cell_formula_units_Z   1
loop_
 _symmetry_equiv_pos_site_id
 _symmetry_equiv_pos_as_xyz
  1  'x, y, z'
loop_
 _atom_site_type_symbol
 _atom_site_label
 _atom_site_symmetry_multiplicity
 _atom_site_fract_x
 _atom_site_fract_y
 _atom_site_fract_z
 _atom_site_occupancy
  Pr  Pr0  1  0.750000  0.250000  0.500000  1
  Cu  Cu1  1  0.875260  0.624402  0.249699  1
  Cu  Cu2  1  0.374439  0.124740  0.749142  1
  Cu  Cu3  1  0.375598  0.625297  0.250858  1
  Cu  Cu4  1  0.374703  0.625561  0.750301  1
  Bi  Bi5  1  0.000000  0.000000  0.000000  1
  O  O6  1  0.343250  0.979267  0.922637  1
  O  O7  1  0.695564  0.829922  0.426354  1
  O  O8  1  0.730790  0.304436  0.134357  1
  O  O9  1  0.579387  0.656750  0.636018  1
  O  O10  1  0.170078  0.596432  0.865643  1
  O  O11  1  0.020733  0.943370  0.363982  1
  O  O12  1  0.056630  0.420613  0.077363  1
  O  O13  1  0.403568  0.269210  0.573646  1
