# generated using pymatgen
data_Dy8Nb11Si16Tc
_symmetry_space_group_name_H-M   'P 1'
_cell_length_a   6.84968805
_cell_length_b   7.07734706
_cell_length_c   13.39618900
_cell_angle_alpha   90.00000000
_cell_angle_beta   90.00000000
_cell_angle_gamma   90.01438261
_symmetry_Int_Tables_number   1
_chemical_formula_structural   Dy8Nb11Si16Tc
_chemical_formula_sum   'Dy8 Nb11 Si16 Tc1'
_cell_volume   649.41533372
_cell_formula_units_Z   1
loop_
 _symmetry_equiv_pos_site_id
 _symmetry_equiv_pos_as_xyz
  1  'x, y, z'
loop_
 _atom_site_type_symbol
 _atom_site_label
 _atom_site_symmetry_multiplicity
 _atom_site_fract_x
 _atom_site_fract_y
 _atom_site_fract_z
 _atom_site_occupancy
  Dy  Dy0  1  0.502775  0.328374  0.095852  1
  Dy  Dy1  1  0.003357  0.171679  0.404324  1
  Dy  Dy2  1  0.497998  0.671559  0.595916  1
  Dy  Dy3  1  0.998017  0.828311  0.903947  1
  Dy  Dy4  1  0.497998  0.671559  0.904084  1
  Dy  Dy5  1  0.998017  0.828311  0.596053  1
  Dy  Dy6  1  0.502775  0.328374  0.404148  1
  Dy  Dy7  1  0.003357  0.171679  0.095676  1
  Nb  Nb8  1  0.163742  0.491736  0.750000  1
  Nb  Nb9  1  0.336900  0.991648  0.250000  1
  Nb  Nb10  1  0.836618  0.507827  0.250000  1
  Nb  Nb11  1  0.836268  0.326860  0.626350  1
  Nb  Nb12  1  0.335718  0.172548  0.873352  1
  Nb  Nb13  1  0.162545  0.674601  0.125446  1
  Nb  Nb14  1  0.662826  0.825579  0.375377  1
  Nb  Nb15  1  0.162545  0.674601  0.374554  1
  Nb  Nb16  1  0.662826  0.825579  0.124623  1
  Nb  Nb17  1  0.836268  0.326860  0.873650  1
  Nb  Nb18  1  0.335718  0.172548  0.626648  1
  Si  Si19  1  0.797792  0.628991  0.750000  1
  Si  Si20  1  0.303590  0.875912  0.750000  1
  Si  Si21  1  0.204069  0.373832  0.250000  1
  Si  Si22  1  0.704152  0.126101  0.250000  1
  Si  Si23  1  0.542657  0.373617  0.750000  1
  Si  Si24  1  0.034193  0.121417  0.750000  1
  Si  Si25  1  0.459640  0.622009  0.250000  1
  Si  Si26  1  0.958723  0.877511  0.250000  1
  Si  Si27  1  0.662400  0.038865  0.542860  1
  Si  Si28  1  0.163103  0.462814  0.958616  1
  Si  Si29  1  0.336297  0.962252  0.040541  1
  Si  Si30  1  0.836711  0.537271  0.459057  1
  Si  Si31  1  0.336297  0.962252  0.459459  1
  Si  Si32  1  0.836711  0.537271  0.040943  1
  Si  Si33  1  0.662400  0.038865  0.957140  1
  Si  Si34  1  0.163103  0.462814  0.541384  1
  Tc  Tc35  1  0.661895  0.007972  0.750000  1
