# generated using pymatgen
data_La20Co4Pd7Au
_symmetry_space_group_name_H-M   'P 1'
_cell_length_a   8.62134026
_cell_length_b   8.36721904
_cell_length_c   12.05203400
_cell_angle_alpha   89.97902565
_cell_angle_beta   90.05697453
_cell_angle_gamma   89.82852132
_symmetry_Int_Tables_number   1
_chemical_formula_structural   La20Co4Pd7Au
_chemical_formula_sum   'La20 Co4 Pd7 Au1'
_cell_volume   869.38888442
_cell_formula_units_Z   1
loop_
 _symmetry_equiv_pos_site_id
 _symmetry_equiv_pos_as_xyz
  1  'x, y, z'
loop_
 _atom_site_type_symbol
 _atom_site_label
 _atom_site_symmetry_multiplicity
 _atom_site_fract_x
 _atom_site_fract_y
 _atom_site_fract_z
 _atom_site_occupancy
  La  La0  1  0.835573  0.753290  0.793253  1
  La  La1  1  0.165662  0.249489  0.206403  1
  La  La2  1  0.331355  0.246803  0.704528  1
  La  La3  1  0.667264  0.749127  0.294916  1
  La  La4  1  0.376353  0.752280  0.695519  1
  La  La5  1  0.620883  0.248531  0.302843  1
  La  La6  1  0.881049  0.249939  0.802466  1
  La  La7  1  0.121160  0.749478  0.197202  1
  La  La8  1  0.963049  0.751373  0.497254  1
  La  La9  1  0.036677  0.250377  0.501979  1
  La  La10  1  0.459097  0.244209  0.005611  1
  La  La11  1  0.538596  0.755063  0.999282  1
  La  La12  1  0.672013  0.035760  0.580845  1
  La  La13  1  0.327191  0.964681  0.418556  1
  La  La14  1  0.171793  0.963482  0.920138  1
  La  La15  1  0.326841  0.534627  0.418513  1
  La  La16  1  0.828171  0.035700  0.080965  1
  La  La17  1  0.673980  0.465517  0.576319  1
  La  La18  1  0.826842  0.465152  0.080813  1
  La  La19  1  0.172033  0.534456  0.920352  1
  Co  Co20  1  0.561282  0.749909  0.509999  1
  Co  Co21  1  0.438234  0.249831  0.489306  1
  Co  Co22  1  0.062549  0.249683  0.989939  1
  Co  Co23  1  0.937759  0.750007  0.010615  1
  Pd  Pd24  1  0.434072  0.524750  0.174282  1
  Pd  Pd25  1  0.066598  0.524752  0.674221  1
  Pd  Pd26  1  0.433657  0.974862  0.175602  1
  Pd  Pd27  1  0.933378  0.475517  0.325565  1
  Pd  Pd28  1  0.565315  0.024302  0.825757  1
  Pd  Pd29  1  0.934231  0.024475  0.325618  1
  Pd  Pd30  1  0.066650  0.976060  0.674176  1
  Au  Au31  1  0.570692  0.476520  0.827163  1
