# generated using pymatgen
data_Tb4FeCo4
_symmetry_space_group_name_H-M   'P 1'
_cell_length_a   5.56329751
_cell_length_b   5.56329710
_cell_length_c   8.80469448
_cell_angle_alpha   71.97415288
_cell_angle_beta   71.97415584
_cell_angle_gamma   41.78838187
_symmetry_Int_Tables_number   1
_chemical_formula_structural   Tb4FeCo4
_chemical_formula_sum   'Tb4 Fe1 Co4'
_cell_volume   171.34325276
_cell_formula_units_Z   1
loop_
 _symmetry_equiv_pos_site_id
 _symmetry_equiv_pos_as_xyz
  1  'x, y, z'
loop_
 _atom_site_type_symbol
 _atom_site_label
 _atom_site_symmetry_multiplicity
 _atom_site_fract_x
 _atom_site_fract_y
 _atom_site_fract_z
 _atom_site_occupancy
  Tb  Tb0  1  0.741015  0.741015  0.660891  1
  Tb  Tb1  1  0.258985  0.258985  0.339109  1
  Tb  Tb2  1  0.391264  0.391264  0.881848  1
  Tb  Tb3  1  0.608736  0.608736  0.118152  1
  Fe  Fe4  1  0.500000  0.500000  0.500000  1
  Co  Co5  1  0.032624  0.032624  0.636560  1
  Co  Co6  1  0.967376  0.967376  0.363440  1
  Co  Co7  1  0.086399  0.086399  0.876530  1
  Co  Co8  1  0.913601  0.913601  0.123470  1
