# generated using pymatgen
data_Tb2Zr3Sn4
_symmetry_space_group_name_H-M   'P 1'
_cell_length_a   7.77569200
_cell_length_b   7.83195600
_cell_length_c   14.75858900
_cell_angle_alpha   90.00000000
_cell_angle_beta   90.00000000
_cell_angle_gamma   90.00000000
_symmetry_Int_Tables_number   1
_chemical_formula_structural   Tb2Zr3Sn4
_chemical_formula_sum   'Tb8 Zr12 Sn16'
_cell_volume   898.78150526
_cell_formula_units_Z   4
loop_
 _symmetry_equiv_pos_site_id
 _symmetry_equiv_pos_as_xyz
  1  'x, y, z'
loop_
 _atom_site_type_symbol
 _atom_site_label
 _atom_site_symmetry_multiplicity
 _atom_site_fract_x
 _atom_site_fract_y
 _atom_site_fract_z
 _atom_site_occupancy
  Tb  Tb0  1  0.512996  0.322424  0.907154  1
  Tb  Tb1  1  0.012996  0.177576  0.592846  1
  Tb  Tb2  1  0.487004  0.677576  0.407154  1
  Tb  Tb3  1  0.987004  0.822424  0.092846  1
  Tb  Tb4  1  0.487004  0.677576  0.092846  1
  Tb  Tb5  1  0.987004  0.822424  0.407154  1
  Tb  Tb6  1  0.512996  0.322424  0.592846  1
  Tb  Tb7  1  0.012996  0.177576  0.907154  1
  Zr  Zr8  1  0.349753  0.837091  0.870790  1
  Zr  Zr9  1  0.849753  0.662909  0.629210  1
  Zr  Zr10  1  0.650247  0.162909  0.370790  1
  Zr  Zr11  1  0.150247  0.337091  0.129210  1
  Zr  Zr12  1  0.650247  0.162909  0.129210  1
  Zr  Zr13  1  0.150247  0.337091  0.370790  1
  Zr  Zr14  1  0.349753  0.837091  0.629210  1
  Zr  Zr15  1  0.849753  0.662909  0.870790  1
  Zr  Zr16  1  0.171723  0.510000  0.750000  1
  Zr  Zr17  1  0.671723  0.990000  0.750000  1
  Zr  Zr18  1  0.828277  0.490000  0.250000  1
  Zr  Zr19  1  0.328277  0.010000  0.250000  1
  Sn  Sn20  1  0.311320  0.040550  0.042406  1
  Sn  Sn21  1  0.811320  0.459450  0.457594  1
  Sn  Sn22  1  0.688680  0.959450  0.542406  1
  Sn  Sn23  1  0.188680  0.540550  0.957594  1
  Sn  Sn24  1  0.688680  0.959450  0.957594  1
  Sn  Sn25  1  0.188680  0.540550  0.542406  1
  Sn  Sn26  1  0.311320  0.040550  0.457594  1
  Sn  Sn27  1  0.811320  0.459450  0.042406  1
  Sn  Sn28  1  0.544949  0.615762  0.750000  1
  Sn  Sn29  1  0.044949  0.884238  0.750000  1
  Sn  Sn30  1  0.455051  0.384238  0.250000  1
  Sn  Sn31  1  0.955051  0.115762  0.250000  1
  Sn  Sn32  1  0.318161  0.153939  0.750000  1
  Sn  Sn33  1  0.818161  0.346061  0.750000  1
  Sn  Sn34  1  0.681839  0.846061  0.250000  1
  Sn  Sn35  1  0.181839  0.653939  0.250000  1
