# generated using pymatgen
data_Tm4TiSi4Ge4Mo5
_symmetry_space_group_name_H-M   'P 1'
_cell_length_a   6.93603628
_cell_length_b   6.80136861
_cell_length_c   6.95624001
_cell_angle_alpha   70.58340679
_cell_angle_beta   90.64368753
_cell_angle_gamma   89.91961063
_symmetry_Int_Tables_number   1
_chemical_formula_structural   Tm4TiSi4Ge4Mo5
_chemical_formula_sum   'Tm4 Ti1 Si4 Ge4 Mo5'
_cell_volume   309.46980860
_cell_formula_units_Z   1
loop_
 _symmetry_equiv_pos_site_id
 _symmetry_equiv_pos_as_xyz
  1  'x, y, z'
loop_
 _atom_site_type_symbol
 _atom_site_label
 _atom_site_symmetry_multiplicity
 _atom_site_fract_x
 _atom_site_fract_y
 _atom_site_fract_z
 _atom_site_occupancy
  Tm  Tm0  1  0.324208  0.558068  0.806210  1
  Tm  Tm1  1  0.829526  0.939114  0.194869  1
  Tm  Tm2  1  0.675792  0.441932  0.193790  1
  Tm  Tm3  1  0.170474  0.060886  0.805131  1
  Ti  Ti4  1  0.500000  0.000000  0.500000  1
  Si  Si5  1  0.128787  0.868596  0.499357  1
  Si  Si6  1  0.632647  0.624484  0.502941  1
  Si  Si7  1  0.871213  0.131404  0.500643  1
  Si  Si8  1  0.367353  0.375516  0.497059  1
  Ge  Ge9  1  0.540835  0.856370  0.912031  1
  Ge  Ge10  1  0.045216  0.642808  0.089308  1
  Ge  Ge11  1  0.459165  0.143630  0.087969  1
  Ge  Ge12  1  0.954784  0.357192  0.910692  1
  Mo  Mo13  1  0.000000  0.500000  0.500000  1
  Mo  Mo14  1  0.833008  0.752869  0.739009  1
  Mo  Mo15  1  0.340032  0.753163  0.259431  1
  Mo  Mo16  1  0.166992  0.247131  0.260991  1
  Mo  Mo17  1  0.659968  0.246837  0.740569  1
