# generated using pymatgen
data_Pr5NdAl23VOs8
_symmetry_space_group_name_H-M   'P 1'
_cell_length_a   8.94653238
_cell_length_b   8.94653149
_cell_length_c   9.70405306
_cell_angle_alpha   90.01127977
_cell_angle_beta   89.98871834
_cell_angle_gamma   120.03163999
_symmetry_Int_Tables_number   1
_chemical_formula_structural   Pr5NdAl23VOs8
_chemical_formula_sum   'Pr5 Nd1 Al23 V1 Os8'
_cell_volume   672.44174070
_cell_formula_units_Z   1
loop_
 _symmetry_equiv_pos_site_id
 _symmetry_equiv_pos_as_xyz
  1  'x, y, z'
loop_
 _atom_site_type_symbol
 _atom_site_label
 _atom_site_symmetry_multiplicity
 _atom_site_fract_x
 _atom_site_fract_y
 _atom_site_fract_z
 _atom_site_occupancy
  Pr  Pr0  1  0.193705  0.387493  0.248099  1
  Pr  Pr1  1  0.807832  0.615624  0.750081  1
  Pr  Pr2  1  0.612507  0.806295  0.248099  1
  Pr  Pr3  1  0.384376  0.192168  0.750081  1
  Pr  Pr4  1  0.193742  0.806258  0.248168  1
  Nd  Nd5  1  0.807870  0.192130  0.749974  1
  Al  Al6  1  0.666791  0.333209  0.984334  1
  Al  Al7  1  0.666722  0.333278  0.514386  1
  Al  Al8  1  0.333404  0.666596  0.487423  1
  Al  Al9  1  0.162456  0.325290  0.573971  1
  Al  Al10  1  0.837191  0.674210  0.426681  1
  Al  Al11  1  0.674710  0.837544  0.573971  1
  Al  Al12  1  0.835895  0.671735  0.075348  1
  Al  Al13  1  0.325790  0.162809  0.426681  1
  Al  Al14  1  0.160389  0.321104  0.926557  1
  Al  Al15  1  0.162607  0.837393  0.573907  1
  Al  Al16  1  0.328265  0.164105  0.075348  1
  Al  Al17  1  0.837131  0.162869  0.426862  1
  Al  Al18  1  0.678896  0.839611  0.926557  1
  Al  Al19  1  0.835836  0.164164  0.075160  1
  Al  Al20  1  0.160599  0.839401  0.926621  1
  Al  Al21  1  0.563171  0.126278  0.253053  1
  Al  Al22  1  0.439914  0.879527  0.749568  1
  Al  Al23  1  0.873722  0.436829  0.253053  1
  Al  Al24  1  0.120473  0.560086  0.749568  1
  Al  Al25  1  0.563175  0.436825  0.253106  1
  Al  Al26  1  0.439595  0.560405  0.749497  1
  Al  Al27  1  0.000021  0.999979  0.251606  1
  Al  Al28  1  0.999818  0.000182  0.750313  1
  V  V29  1  0.333317  0.666683  0.976754  1
  Os  Os30  1  0.494907  0.989564  0.004931  1
  Os  Os31  1  0.010436  0.505093  0.004931  1
  Os  Os32  1  0.499486  0.998737  0.502753  1
  Os  Os33  1  0.494778  0.505222  0.005047  1
  Os  Os34  1  0.001263  0.500514  0.502753  1
  Os  Os35  1  0.499262  0.500738  0.502630  1
  Os  Os36  1  0.999985  0.000015  0.001882  1
  Os  Os37  1  0.999955  0.000045  0.500246  1
