# generated using pymatgen
data_Zr6TiIn(Ir2N)2
_symmetry_space_group_name_H-M   'P 1'
_cell_length_a   8.65131827
_cell_length_b   8.71368970
_cell_length_c   8.71369036
_cell_angle_alpha   60.25693244
_cell_angle_beta   60.23650755
_cell_angle_gamma   60.23650406
_symmetry_Int_Tables_number   1
_chemical_formula_structural   Zr6TiIn(Ir2N)2
_chemical_formula_sum   'Zr12 Ti2 In2 Ir8 N4'
_cell_volume   467.04315442
_cell_formula_units_Z   2
loop_
 _symmetry_equiv_pos_site_id
 _symmetry_equiv_pos_as_xyz
  1  'x, y, z'
loop_
 _atom_site_type_symbol
 _atom_site_label
 _atom_site_symmetry_multiplicity
 _atom_site_fract_x
 _atom_site_fract_y
 _atom_site_fract_z
 _atom_site_occupancy
  Zr  Zr0  1  0.809758  0.813667  0.189551  1
  Zr  Zr1  1  0.187024  0.189551  0.813667  1
  Zr  Zr2  1  0.809758  0.189551  0.813667  1
  Zr  Zr3  1  0.187024  0.813667  0.189551  1
  Zr  Zr4  1  0.182328  0.817672  0.817672  1
  Zr  Zr5  1  0.809132  0.190868  0.190868  1
  Zr  Zr6  1  0.440242  0.436333  0.060449  1
  Zr  Zr7  1  0.062976  0.060449  0.436333  1
  Zr  Zr8  1  0.440242  0.060449  0.436333  1
  Zr  Zr9  1  0.062976  0.436333  0.060449  1
  Zr  Zr10  1  0.067672  0.432328  0.432328  1
  Zr  Zr11  1  0.440868  0.059132  0.059132  1
  Ti  Ti12  1  0.625000  0.125000  0.625000  1
  Ti  Ti13  1  0.625000  0.625000  0.125000  1
  In  In14  1  0.125000  0.625000  0.625000  1
  In  In15  1  0.625000  0.625000  0.625000  1
  Ir  Ir16  1  0.757419  0.408574  0.408574  1
  Ir  Ir17  1  0.423500  0.761473  0.391530  1
  Ir  Ir18  1  0.423500  0.391530  0.761473  1
  Ir  Ir19  1  0.425435  0.408574  0.408574  1
  Ir  Ir20  1  0.492581  0.841426  0.841426  1
  Ir  Ir21  1  0.826500  0.488527  0.858470  1
  Ir  Ir22  1  0.826500  0.858470  0.488527  1
  Ir  Ir23  1  0.824565  0.841426  0.841426  1
  N  N24  1  0.625000  0.125000  0.125000  1
  N  N25  1  0.125000  0.625000  0.125000  1
  N  N26  1  0.125000  0.125000  0.625000  1
  N  N27  1  0.125000  0.125000  0.125000  1
