# generated using pymatgen
data_Yb2GaNiIr
_symmetry_space_group_name_H-M   'P 1'
_cell_length_a   4.05116503
_cell_length_b   5.46857675
_cell_length_c   5.50304779
_cell_angle_alpha   119.79299937
_cell_angle_beta   111.59748774
_cell_angle_gamma   90.00000132
_symmetry_Int_Tables_number   1
_chemical_formula_structural   Yb2GaNiIr
_chemical_formula_sum   'Yb2 Ga1 Ni1 Ir1'
_cell_volume   95.81291116
_cell_formula_units_Z   1
loop_
 _symmetry_equiv_pos_site_id
 _symmetry_equiv_pos_as_xyz
  1  'x, y, z'
loop_
 _atom_site_type_symbol
 _atom_site_label
 _atom_site_symmetry_multiplicity
 _atom_site_fract_x
 _atom_site_fract_y
 _atom_site_fract_z
 _atom_site_occupancy
  Yb  Yb0  1  0.798729  0.297318  0.597458  1
  Yb  Yb1  1  0.201271  0.699860  0.402542  1
  Ga  Ga2  1  0.000000  0.996380  0.000000  1
  Ni  Ni3  1  0.500000  0.734223  0.000000  1
  Ir  Ir4  1  0.500000  0.272219  0.000000  1
