# generated using pymatgen
data_Li2TbYB28
_symmetry_space_group_name_H-M   'P 1'
_cell_length_a   7.26320576
_cell_length_b   7.26320913
_cell_length_c   7.26320848
_cell_angle_alpha   132.28502358
_cell_angle_beta   110.88963362
_cell_angle_gamma   88.31594450
_symmetry_Int_Tables_number   1
_chemical_formula_structural   Li2TbYB28
_chemical_formula_sum   'Li2 Tb1 Y1 B28'
_cell_volume   252.25216644
_cell_formula_units_Z   1
loop_
 _symmetry_equiv_pos_site_id
 _symmetry_equiv_pos_as_xyz
  1  'x, y, z'
loop_
 _atom_site_type_symbol
 _atom_site_label
 _atom_site_symmetry_multiplicity
 _atom_site_fract_x
 _atom_site_fract_y
 _atom_site_fract_z
 _atom_site_occupancy
  Li  Li0  1  0.999977  0.999960  0.499937  1
  Li  Li1  1  0.999977  0.500041  0.000018  1
  Tb  Tb2  1  0.379914  0.750000  0.629914  1
  Y  Y3  1  0.620749  0.249999  0.370750  1
  B  B4  1  0.638485  0.665855  0.972630  1
  B  B5  1  0.361598  0.334112  0.027486  1
  B  B6  1  0.193374  0.165888  0.027487  1
  B  B7  1  0.806776  0.834146  0.972629  1
  B  B8  1  0.777991  0.149432  0.628559  1
  B  B9  1  0.221716  0.850599  0.371117  1
  B  B10  1  0.020519  0.649401  0.371119  1
  B  B11  1  0.979127  0.350568  0.628558  1
  B  B12  1  0.915844  0.089111  0.826735  1
  B  B13  1  0.084012  0.910922  0.173089  1
  B  B14  1  0.762165  0.589077  0.173088  1
  B  B15  1  0.237624  0.410889  0.826735  1
  B  B16  1  0.398517  0.400138  0.681481  1
  B  B17  1  0.601516  0.283013  0.001826  1
  B  B18  1  0.218812  0.900310  0.001827  1
  B  B19  1  0.781343  0.782965  0.681482  1
  B  B20  1  0.601516  0.599689  0.318501  1
  B  B21  1  0.398517  0.717037  0.998379  1
  B  B22  1  0.781343  0.099863  0.998379  1
  B  B23  1  0.218812  0.216986  0.318502  1
  B  B24  1  0.033396  0.829929  0.703268  1
  B  B25  1  0.966571  0.669906  0.796489  1
  B  B26  1  0.626582  0.329918  0.796488  1
  B  B27  1  0.373338  0.169873  0.703268  1
  B  B28  1  0.966571  0.170082  0.296664  1
  B  B29  1  0.033396  0.330127  0.203466  1
  B  B30  1  0.373338  0.670070  0.203466  1
  B  B31  1  0.626582  0.830094  0.296664  1
