# generated using pymatgen
data_Er6TmCo4Sn23Ir2
_symmetry_space_group_name_H-M   'P 1'
_cell_length_a   9.72665814
_cell_length_b   9.72665855
_cell_length_c   10.00356402
_cell_angle_alpha   90.21934260
_cell_angle_beta   89.78065160
_cell_angle_gamma   120.06907250
_symmetry_Int_Tables_number   1
_chemical_formula_structural   Er6TmCo4Sn23Ir2
_chemical_formula_sum   'Er6 Tm1 Co4 Sn23 Ir2'
_cell_volume   819.04124249
_cell_formula_units_Z   1
loop_
 _symmetry_equiv_pos_site_id
 _symmetry_equiv_pos_as_xyz
  1  'x, y, z'
loop_
 _atom_site_type_symbol
 _atom_site_label
 _atom_site_symmetry_multiplicity
 _atom_site_fract_x
 _atom_site_fract_y
 _atom_site_fract_z
 _atom_site_occupancy
  Er  Er0  1  0.520818  0.479182  0.693119  1
  Er  Er1  1  0.479781  0.958554  0.306268  1
  Er  Er2  1  0.520214  0.041479  0.693727  1
  Er  Er3  1  0.041446  0.520219  0.306268  1
  Er  Er4  1  0.958521  0.479786  0.693727  1
  Er  Er5  1  0.000008  0.999992  0.000007  1
  Tm  Tm6  1  0.479215  0.520785  0.306834  1
  Co  Co7  1  0.830495  0.663457  0.197780  1
  Co  Co8  1  0.169365  0.336484  0.802253  1
  Co  Co9  1  0.336543  0.169505  0.197780  1
  Co  Co10  1  0.663516  0.830635  0.802253  1
  Sn  Sn11  1  0.117795  0.882205  0.273975  1
  Sn  Sn12  1  0.882227  0.117773  0.726053  1
  Sn  Sn13  1  0.124967  0.238492  0.278466  1
  Sn  Sn14  1  0.875128  0.761631  0.721573  1
  Sn  Sn15  1  0.761508  0.875033  0.278466  1
  Sn  Sn16  1  0.238369  0.124872  0.721573  1
  Sn  Sn17  1  0.779081  0.220919  0.457995  1
  Sn  Sn18  1  0.220921  0.779079  0.542003  1
  Sn  Sn19  1  0.780506  0.560978  0.451474  1
  Sn  Sn20  1  0.219408  0.438996  0.548426  1
  Sn  Sn21  1  0.439022  0.219494  0.451474  1
  Sn  Sn22  1  0.561004  0.780592  0.548426  1
  Sn  Sn23  1  0.351382  0.004741  0.005757  1
  Sn  Sn24  1  0.648643  0.995230  0.994216  1
  Sn  Sn25  1  0.004770  0.351357  0.994216  1
  Sn  Sn26  1  0.995259  0.648618  0.005757  1
  Sn  Sn27  1  0.653995  0.654021  0.999996  1
  Sn  Sn28  1  0.345979  0.346005  0.999996  1
  Sn  Sn29  1  0.333821  0.666179  0.120054  1
  Sn  Sn30  1  0.666281  0.333719  0.880072  1
  Sn  Sn31  1  0.336054  0.663946  0.819800  1
  Sn  Sn32  1  0.663949  0.336051  0.180208  1
  Sn  Sn33  1  0.999995  0.000005  0.500001  1
  Ir  Ir34  1  0.831777  0.168223  0.197139  1
  Ir  Ir35  1  0.168238  0.831762  0.802870  1
