# generated using pymatgen
data_Ce4Pa(FeB3)2
_symmetry_space_group_name_H-M   'P 1'
_cell_length_a   5.40598626
_cell_length_b   5.40598491
_cell_length_c   7.68326022
_cell_angle_alpha   69.40237315
_cell_angle_beta   69.40237580
_cell_angle_gamma   59.99999093
_symmetry_Int_Tables_number   1
_chemical_formula_structural   Ce4Pa(FeB3)2
_chemical_formula_sum   'Ce4 Pa1 Fe2 B6'
_cell_volume   177.69035463
_cell_formula_units_Z   1
loop_
 _symmetry_equiv_pos_site_id
 _symmetry_equiv_pos_as_xyz
  1  'x, y, z'
loop_
 _atom_site_type_symbol
 _atom_site_label
 _atom_site_symmetry_multiplicity
 _atom_site_fract_x
 _atom_site_fract_y
 _atom_site_fract_z
 _atom_site_occupancy
  Ce  Ce0  1  0.266841  0.266841  0.199477  1
  Ce  Ce1  1  0.733159  0.733159  0.800523  1
  Ce  Ce2  1  0.400509  0.400509  0.798474  1
  Ce  Ce3  1  0.599491  0.599491  0.201527  1
  Pa  Pa4  1  0.000000  0.000000  0.000000  1
  Fe  Fe5  1  0.110659  0.110659  0.668024  1
  Fe  Fe6  1  0.889341  0.889341  0.331976  1
  B  B7  1  0.169320  0.830680  0.500000  1
  B  B8  1  0.830680  0.500000  0.500000  1
  B  B9  1  0.500000  0.169320  0.500000  1
  B  B10  1  0.169320  0.500000  0.500000  1
  B  B11  1  0.500000  0.830680  0.500000  1
  B  B12  1  0.830680  0.169320  0.500000  1
