# generated using pymatgen
data_Yb2Cd4Ni14BC3
_symmetry_space_group_name_H-M   'P 1'
_cell_length_a   5.02221700
_cell_length_b   5.02221681
_cell_length_c   13.49277000
_cell_angle_alpha   90.00000000
_cell_angle_beta   90.00000000
_cell_angle_gamma   120.00000782
_symmetry_Int_Tables_number   1
_chemical_formula_structural   Yb2Cd4Ni14BC3
_chemical_formula_sum   'Yb2 Cd4 Ni14 B1 C3'
_cell_volume   294.72884772
_cell_formula_units_Z   1
loop_
 _symmetry_equiv_pos_site_id
 _symmetry_equiv_pos_as_xyz
  1  'x, y, z'
loop_
 _atom_site_type_symbol
 _atom_site_label
 _atom_site_symmetry_multiplicity
 _atom_site_fract_x
 _atom_site_fract_y
 _atom_site_fract_z
 _atom_site_occupancy
  Yb  Yb0  1  0.666667  0.333333  0.750000  1
  Yb  Yb1  1  0.333333  0.666667  0.250000  1
  Cd  Cd2  1  0.666667  0.333333  0.528550  1
  Cd  Cd3  1  0.333333  0.666667  0.474202  1
  Cd  Cd4  1  0.333333  0.666667  0.025798  1
  Cd  Cd5  1  0.666667  0.333333  0.971450  1
  Ni  Ni6  1  0.165886  0.331771  0.654854  1
  Ni  Ni7  1  0.335244  0.167622  0.348861  1
  Ni  Ni8  1  0.335244  0.167622  0.151139  1
  Ni  Ni9  1  0.165886  0.834114  0.845146  1
  Ni  Ni10  1  0.832378  0.664756  0.348861  1
  Ni  Ni11  1  0.832378  0.167622  0.151139  1
  Ni  Ni12  1  0.668229  0.834114  0.654854  1
  Ni  Ni13  1  0.668229  0.834114  0.845146  1
  Ni  Ni14  1  0.165886  0.834114  0.654854  1
  Ni  Ni15  1  0.832378  0.664756  0.151139  1
  Ni  Ni16  1  0.000000  0.000000  0.999836  1
  Ni  Ni17  1  0.165886  0.331771  0.845146  1
  Ni  Ni18  1  0.832378  0.167622  0.348861  1
  Ni  Ni19  1  0.000000  0.000000  0.500164  1
  B  B20  1  0.000000  0.000000  0.250000  1
  C  C21  1  0.666667  0.333333  0.250000  1
  C  C22  1  0.000000  0.000000  0.750000  1
  C  C23  1  0.333333  0.666667  0.750000  1
