# generated using pymatgen
data_Ti12AlSn8Au
_symmetry_space_group_name_H-M   'P 1'
_cell_length_a   9.21432200
_cell_length_b   9.21432256
_cell_length_c   5.68728500
_cell_angle_alpha   90.00000000
_cell_angle_beta   90.00000000
_cell_angle_gamma   120.00000517
_symmetry_Int_Tables_number   1
_chemical_formula_structural   Ti12AlSn8Au
_chemical_formula_sum   'Ti12 Al1 Sn8 Au1'
_cell_volume   418.17917093
_cell_formula_units_Z   1
loop_
 _symmetry_equiv_pos_site_id
 _symmetry_equiv_pos_as_xyz
  1  'x, y, z'
loop_
 _atom_site_type_symbol
 _atom_site_label
 _atom_site_symmetry_multiplicity
 _atom_site_fract_x
 _atom_site_fract_y
 _atom_site_fract_z
 _atom_site_occupancy
  Ti  Ti0  1  0.846316  0.692633  0.755317  1
  Ti  Ti1  1  0.153684  0.846316  0.244683  1
  Ti  Ti2  1  0.692633  0.846316  0.244683  1
  Ti  Ti3  1  0.307367  0.153684  0.755317  1
  Ti  Ti4  1  0.846316  0.153684  0.755317  1
  Ti  Ti5  1  0.153684  0.307367  0.244683  1
  Ti  Ti6  1  0.500000  0.000000  0.500000  1
  Ti  Ti7  1  0.500000  0.500000  0.000000  1
  Ti  Ti8  1  0.000000  0.500000  0.000000  1
  Ti  Ti9  1  0.000000  0.500000  0.500000  1
  Ti  Ti10  1  0.500000  0.000000  0.000000  1
  Ti  Ti11  1  0.500000  0.500000  0.500000  1
  Al  Al12  1  0.000000  0.000000  0.000000  1
  Sn  Sn13  1  0.198516  0.397032  0.750523  1
  Sn  Sn14  1  0.801484  0.198516  0.249477  1
  Sn  Sn15  1  0.397032  0.198516  0.249477  1
  Sn  Sn16  1  0.602968  0.801484  0.750523  1
  Sn  Sn17  1  0.198516  0.801484  0.750523  1
  Sn  Sn18  1  0.801484  0.602968  0.249477  1
  Sn  Sn19  1  0.666667  0.333333  0.749572  1
  Sn  Sn20  1  0.333333  0.666667  0.250428  1
  Au  Au21  1  0.000000  0.000000  0.500000  1
