# generated using pymatgen
data_Tm5Zr3(Co4As3)4
_symmetry_space_group_name_H-M   'P 1'
_cell_length_a   12.72865800
_cell_length_b   12.72865834
_cell_length_c   3.82752300
_cell_angle_alpha   90.00000000
_cell_angle_beta   90.00000000
_cell_angle_gamma   120.00000431
_symmetry_Int_Tables_number   1
_chemical_formula_structural   Tm5Zr3(Co4As3)4
_chemical_formula_sum   'Tm5 Zr3 Co16 As12'
_cell_volume   537.04869937
_cell_formula_units_Z   1
loop_
 _symmetry_equiv_pos_site_id
 _symmetry_equiv_pos_as_xyz
  1  'x, y, z'
loop_
 _atom_site_type_symbol
 _atom_site_label
 _atom_site_symmetry_multiplicity
 _atom_site_fract_x
 _atom_site_fract_y
 _atom_site_fract_z
 _atom_site_occupancy
  Tm  Tm0  1  0.182319  0.182319  0.500000  1
  Tm  Tm1  1  0.817681  0.000000  0.500000  1
  Tm  Tm2  1  0.000000  0.817681  0.500000  1
  Tm  Tm3  1  0.333333  0.666667  0.000000  1
  Tm  Tm4  1  0.666667  0.333333  0.000000  1
  Zr  Zr5  1  0.560540  0.560540  0.000000  1
  Zr  Zr6  1  0.439460  0.000000  0.000000  1
  Zr  Zr7  1  0.000000  0.439460  0.000000  1
  Co  Co8  1  0.720378  0.720378  0.500000  1
  Co  Co9  1  0.279622  0.000000  0.500000  1
  Co  Co10  1  0.000000  0.279622  0.500000  1
  Co  Co11  1  0.177746  0.373207  0.000000  1
  Co  Co12  1  0.626793  0.804538  0.000000  1
  Co  Co13  1  0.195462  0.822254  0.000000  1
  Co  Co14  1  0.804538  0.626793  0.000000  1
  Co  Co15  1  0.822254  0.195462  0.000000  1
  Co  Co16  1  0.373207  0.177746  0.000000  1
  Co  Co17  1  0.357172  0.480137  0.500000  1
  Co  Co18  1  0.519863  0.877037  0.500000  1
  Co  Co19  1  0.122963  0.642828  0.500000  1
  Co  Co20  1  0.877037  0.519863  0.500000  1
  Co  Co21  1  0.642828  0.122963  0.500000  1
  Co  Co22  1  0.480137  0.357172  0.500000  1
  Co  Co23  1  0.000000  0.000000  0.000000  1
  As  As24  1  0.823446  0.823446  0.000000  1
  As  As25  1  0.176554  0.000000  0.000000  1
  As  As26  1  0.000000  0.176554  0.000000  1
  As  As27  1  0.174125  0.482511  0.500000  1
  As  As28  1  0.517489  0.691614  0.500000  1
  As  As29  1  0.308386  0.825875  0.500000  1
  As  As30  1  0.691614  0.517489  0.500000  1
  As  As31  1  0.825875  0.308386  0.500000  1
  As  As32  1  0.482511  0.174125  0.500000  1
  As  As33  1  0.350738  0.350738  0.000000  1
  As  As34  1  0.649262  0.000000  0.000000  1
  As  As35  1  0.000000  0.649262  0.000000  1
