# generated using pymatgen
data_Ga5Cu5Ni2(Mo3N)4
_symmetry_space_group_name_H-M   'P 1'
_cell_length_a   7.94199160
_cell_length_b   7.96823555
_cell_length_c   7.95781516
_cell_angle_alpha   59.98243243
_cell_angle_beta   59.92306165
_cell_angle_gamma   59.94916710
_symmetry_Int_Tables_number   1
_chemical_formula_structural   Ga5Cu5Ni2(Mo3N)4
_chemical_formula_sum   'Ga5 Cu5 Ni2 Mo12 N4'
_cell_volume   355.70729019
_cell_formula_units_Z   1
loop_
 _symmetry_equiv_pos_site_id
 _symmetry_equiv_pos_as_xyz
  1  'x, y, z'
loop_
 _atom_site_type_symbol
 _atom_site_label
 _atom_site_symmetry_multiplicity
 _atom_site_fract_x
 _atom_site_fract_y
 _atom_site_fract_z
 _atom_site_occupancy
  Ga  Ga0  1  0.002014  0.332404  0.333778  1
  Ga  Ga1  1  0.131180  0.121146  0.634311  1
  Ga  Ga2  1  0.127788  0.119555  0.114783  1
  Ga  Ga3  1  0.623976  0.129484  0.125585  1
  Ga  Ga4  1  0.135090  0.629243  0.119543  1
  Cu  Cu5  1  0.916458  0.916832  0.918402  1
  Cu  Cu6  1  0.330853  0.331713  0.002254  1
  Cu  Cu7  1  0.916012  0.915879  0.249073  1
  Cu  Cu8  1  0.253912  0.913966  0.915561  1
  Cu  Cu9  1  0.330207  0.002505  0.332739  1
  Ni  Ni10  1  0.914015  0.253737  0.915413  1
  Ni  Ni11  1  0.328689  0.333633  0.335346  1
  Mo  Mo12  1  0.309344  0.689197  0.689364  1
  Mo  Mo13  1  0.562965  0.557904  0.939803  1
  Mo  Mo14  1  0.309947  0.687053  0.312699  1
  Mo  Mo15  1  0.308722  0.312204  0.688075  1
  Mo  Mo16  1  0.686078  0.310372  0.309661  1
  Mo  Mo17  1  0.939516  0.940666  0.559848  1
  Mo  Mo18  1  0.939009  0.558581  0.940809  1
  Mo  Mo19  1  0.940390  0.557925  0.560591  1
  Mo  Mo20  1  0.562146  0.938660  0.939101  1
  Mo  Mo21  1  0.687498  0.691226  0.310398  1
  Mo  Mo22  1  0.688928  0.309582  0.692532  1
  Mo  Mo23  1  0.560924  0.940435  0.558570  1
  N  N24  1  0.623690  0.126735  0.625079  1
  N  N25  1  0.623936  0.626034  0.125015  1
  N  N26  1  0.122674  0.626617  0.625963  1
  N  N27  1  0.624038  0.626714  0.625708  1
