# generated using pymatgen
data_Er16Ga5HgIr2
_symmetry_space_group_name_H-M   'P 1'
_cell_length_a   10.01038879
_cell_length_b   10.01038924
_cell_length_c   6.98037012
_cell_angle_alpha   90.05630970
_cell_angle_beta   89.94369029
_cell_angle_gamma   120.03882952
_symmetry_Int_Tables_number   1
_chemical_formula_structural   Er16Ga5HgIr2
_chemical_formula_sum   'Er16 Ga5 Hg1 Ir2'
_cell_volume   605.53695478
_cell_formula_units_Z   1
loop_
 _symmetry_equiv_pos_site_id
 _symmetry_equiv_pos_as_xyz
  1  'x, y, z'
loop_
 _atom_site_type_symbol
 _atom_site_label
 _atom_site_symmetry_multiplicity
 _atom_site_fract_x
 _atom_site_fract_y
 _atom_site_fract_z
 _atom_site_occupancy
  Er  Er0  1  0.999077  0.000923  0.266003  1
  Er  Er1  1  0.998246  0.001754  0.767989  1
  Er  Er2  1  0.171259  0.828741  0.990116  1
  Er  Er3  1  0.828966  0.171034  0.490874  1
  Er  Er4  1  0.171340  0.341948  0.991259  1
  Er  Er5  1  0.658052  0.828660  0.991259  1
  Er  Er6  1  0.343014  0.173803  0.490325  1
  Er  Er7  1  0.826197  0.656986  0.490325  1
  Er  Er8  1  0.334269  0.665731  0.662924  1
  Er  Er9  1  0.666563  0.333437  0.161696  1
  Er  Er10  1  0.465860  0.534140  0.294575  1
  Er  Er11  1  0.534256  0.465744  0.795369  1
  Er  Er12  1  0.467025  0.932055  0.293953  1
  Er  Er13  1  0.067945  0.532975  0.293953  1
  Er  Er14  1  0.930867  0.464871  0.795197  1
  Er  Er15  1  0.535129  0.069133  0.795197  1
  Ga  Ga16  1  0.836471  0.163529  0.043598  1
  Ga  Ga17  1  0.163483  0.327420  0.543080  1
  Ga  Ga18  1  0.672580  0.836517  0.543080  1
  Ga  Ga19  1  0.327476  0.163939  0.042661  1
  Ga  Ga20  1  0.836061  0.672524  0.042661  1
  Hg  Hg21  1  0.165315  0.834685  0.545901  1
  Ir  Ir22  1  0.333795  0.666205  0.057168  1
  Ir  Ir23  1  0.666754  0.333246  0.556957  1
