# generated using pymatgen
data_CeTh(TcB2)3
_symmetry_space_group_name_H-M   'P 1'
_cell_length_a   6.30439867
_cell_length_b   6.30439794
_cell_length_c   7.58912552
_cell_angle_alpha   90.70586450
_cell_angle_beta   90.70584728
_cell_angle_gamma   114.73099795
_symmetry_Int_Tables_number   1
_chemical_formula_structural   CeTh(TcB2)3
_chemical_formula_sum   'Ce2 Th2 Tc6 B12'
_cell_volume   273.89642944
_cell_formula_units_Z   2
loop_
 _symmetry_equiv_pos_site_id
 _symmetry_equiv_pos_as_xyz
  1  'x, y, z'
loop_
 _atom_site_type_symbol
 _atom_site_label
 _atom_site_symmetry_multiplicity
 _atom_site_fract_x
 _atom_site_fract_y
 _atom_site_fract_z
 _atom_site_occupancy
  Ce  Ce0  1  0.899754  0.557120  0.673733  1
  Ce  Ce1  1  0.442880  0.100246  0.826267  1
  Th  Th2  1  0.093598  0.441292  0.330893  1
  Th  Th3  1  0.558708  0.906402  0.169107  1
  Tc  Tc4  1  0.588691  0.411309  0.250000  1
  Tc  Tc5  1  0.410224  0.589776  0.750000  1
  Tc  Tc6  1  0.990576  0.804442  0.087360  1
  Tc  Tc7  1  0.195558  0.009424  0.412640  1
  Tc  Tc8  1  0.010538  0.195359  0.911863  1
  Tc  Tc9  1  0.804641  0.989462  0.588137  1
  B  B10  1  0.246148  0.153441  0.131662  1
  B  B11  1  0.846559  0.753852  0.368338  1
  B  B12  1  0.756023  0.844965  0.863851  1
  B  B13  1  0.155035  0.243977  0.636149  1
  B  B14  1  0.582288  0.159860  0.485302  1
  B  B15  1  0.840140  0.417712  0.014698  1
  B  B16  1  0.418316  0.841416  0.518817  1
  B  B17  1  0.158584  0.581684  0.981183  1
  B  B18  1  0.444930  0.349821  0.535748  1
  B  B19  1  0.650179  0.555070  0.964252  1
  B  B20  1  0.556533  0.649904  0.466990  1
  B  B21  1  0.350096  0.443467  0.033010  1
