# generated using pymatgen
data_K3Li2NbP3
_symmetry_space_group_name_H-M   'P 1'
_cell_length_a   9.81155451
_cell_length_b   9.81155326
_cell_length_c   15.02066100
_cell_angle_alpha   90.00000000
_cell_angle_beta   90.00000000
_cell_angle_gamma   142.54637806
_symmetry_Int_Tables_number   1
_chemical_formula_structural   K3Li2NbP3
_chemical_formula_sum   'K12 Li8 Nb4 P12'
_cell_volume   879.33273188
_cell_formula_units_Z   4
loop_
 _symmetry_equiv_pos_site_id
 _symmetry_equiv_pos_as_xyz
  1  'x, y, z'
loop_
 _atom_site_type_symbol
 _atom_site_label
 _atom_site_symmetry_multiplicity
 _atom_site_fract_x
 _atom_site_fract_y
 _atom_site_fract_z
 _atom_site_occupancy
  K  K0  1  0.108258  0.447020  0.672302  1
  K  K1  1  0.714976  0.714976  0.682293  1
  K  K2  1  0.214976  0.214976  0.817707  1
  K  K3  1  0.785024  0.785024  0.182293  1
  K  K4  1  0.947020  0.608258  0.827698  1
  K  K5  1  0.552980  0.891742  0.327698  1
  K  K6  1  0.391742  0.052980  0.172302  1
  K  K7  1  0.052980  0.391742  0.172302  1
  K  K8  1  0.891742  0.552980  0.327698  1
  K  K9  1  0.447020  0.108258  0.672302  1
  K  K10  1  0.608258  0.947021  0.827698  1
  K  K11  1  0.285024  0.285024  0.317707  1
  Li  Li12  1  0.918026  0.081974  0.000000  1
  Li  Li13  1  0.581974  0.418026  0.500000  1
  Li  Li14  1  0.081974  0.918026  0.000000  1
  Li  Li15  1  0.418026  0.581974  0.500000  1
  Li  Li16  1  0.750596  0.249404  0.000000  1
  Li  Li17  1  0.749404  0.250596  0.500000  1
  Li  Li18  1  0.249404  0.750596  0.000000  1
  Li  Li19  1  0.250596  0.749404  0.500000  1
  Nb  Nb20  1  0.083823  0.916177  0.500000  1
  Nb  Nb21  1  0.416177  0.583823  0.000000  1
  Nb  Nb22  1  0.916177  0.083823  0.500000  1
  Nb  Nb23  1  0.583823  0.416177  0.000000  1
  P  P24  1  0.885530  0.565761  0.090400  1
  P  P25  1  0.434239  0.114470  0.909600  1
  P  P26  1  0.614470  0.934239  0.590400  1
  P  P27  1  0.934239  0.614470  0.590400  1
  P  P28  1  0.114470  0.434239  0.909600  1
  P  P29  1  0.565761  0.885530  0.090400  1
  P  P30  1  0.385530  0.065761  0.409600  1
  P  P31  1  0.224109  0.224109  0.589096  1
  P  P32  1  0.724109  0.724109  0.910904  1
  P  P33  1  0.275891  0.275891  0.089096  1
  P  P34  1  0.065761  0.385530  0.409600  1
  P  P35  1  0.775891  0.775891  0.410904  1
