# generated using pymatgen
data_Ce2CrRu3
_symmetry_space_group_name_H-M   'P 1'
_cell_length_a   5.01923468
_cell_length_b   5.01923501
_cell_length_c   5.01923480
_cell_angle_alpha   68.93149588
_cell_angle_beta   68.93149406
_cell_angle_gamma   68.93149911
_symmetry_Int_Tables_number   1
_chemical_formula_structural   Ce2CrRu3
_chemical_formula_sum   'Ce2 Cr1 Ru3'
_cell_volume   106.18825126
_cell_formula_units_Z   1
loop_
 _symmetry_equiv_pos_site_id
 _symmetry_equiv_pos_as_xyz
  1  'x, y, z'
loop_
 _atom_site_type_symbol
 _atom_site_label
 _atom_site_symmetry_multiplicity
 _atom_site_fract_x
 _atom_site_fract_y
 _atom_site_fract_z
 _atom_site_occupancy
  Ce  Ce0  1  0.628943  0.628943  0.628943  1
  Ce  Ce1  1  0.371057  0.371057  0.371057  1
  Cr  Cr2  1  0.000000  0.000000  0.000000  1
  Ru  Ru3  1  0.000000  0.500000  0.000000  1
  Ru  Ru4  1  0.500000  0.000000  0.000000  1
  Ru  Ru5  1  0.000000  0.000000  0.500000  1
