# generated using pymatgen
data_Ba8Y4FeCo3O20
_symmetry_space_group_name_H-M   'P 1'
_cell_length_a   6.16862561
_cell_length_b   7.99197712
_cell_length_c   12.56510694
_cell_angle_alpha   91.32676654
_cell_angle_beta   89.91714734
_cell_angle_gamma   90.01538808
_symmetry_Int_Tables_number   1
_chemical_formula_structural   Ba8Y4FeCo3O20
_chemical_formula_sum   'Ba8 Y4 Fe1 Co3 O20'
_cell_volume   619.28693606
_cell_formula_units_Z   1
loop_
 _symmetry_equiv_pos_site_id
 _symmetry_equiv_pos_as_xyz
  1  'x, y, z'
loop_
 _atom_site_type_symbol
 _atom_site_label
 _atom_site_symmetry_multiplicity
 _atom_site_fract_x
 _atom_site_fract_y
 _atom_site_fract_z
 _atom_site_occupancy
  Ba  Ba0  1  0.760724  0.486859  0.355321  1
  Ba  Ba1  1  0.741431  0.990267  0.859767  1
  Ba  Ba2  1  0.236844  0.508422  0.642631  1
  Ba  Ba3  1  0.260415  0.009838  0.139530  1
  Ba  Ba4  1  0.756140  0.996543  0.379447  1
  Ba  Ba5  1  0.746315  0.494720  0.882388  1
  Ba  Ba6  1  0.243713  0.008047  0.618990  1
  Ba  Ba7  1  0.255110  0.506276  0.116622  1
  Y  Y8  1  0.748066  0.262704  0.629993  1
  Y  Y9  1  0.752567  0.762752  0.128320  1
  Y  Y10  1  0.251842  0.737218  0.370195  1
  Y  Y11  1  0.248316  0.237272  0.871814  1
  Fe  Fe12  1  0.737091  0.744857  0.587955  1
  Co  Co13  1  0.760289  0.245761  0.090289  1
  Co  Co14  1  0.261129  0.254288  0.409458  1
  Co  Co15  1  0.240447  0.754428  0.908967  1
  O  O16  1  0.762704  0.969655  0.639739  1
  O  O17  1  0.741554  0.469695  0.133592  1
  O  O18  1  0.240901  0.030945  0.365370  1
  O  O19  1  0.258875  0.530524  0.867351  1
  O  O20  1  0.735478  0.054982  0.168891  1
  O  O21  1  0.769071  0.555108  0.673472  1
  O  O22  1  0.265238  0.945472  0.831497  1
  O  O23  1  0.236128  0.444417  0.330194  1
  O  O24  1  0.548603  0.746435  0.273665  1
  O  O25  1  0.954524  0.247303  0.774079  1
  O  O26  1  0.451491  0.253886  0.726933  1
  O  O27  1  0.048111  0.753222  0.225831  1
  O  O28  1  0.535252  0.230227  0.985470  1
  O  O29  1  0.954696  0.728863  0.479196  1
  O  O30  1  0.463732  0.770007  0.015773  1
  O  O31  1  0.037020  0.269592  0.515929  1
  O  O32  1  0.035840  0.235700  0.021673  1
  O  O33  1  0.458257  0.735492  0.521897  1
  O  O34  1  0.965272  0.764755  0.979074  1
  O  O35  1  0.536813  0.263466  0.478684  1
