# generated using pymatgen
data_Tm4LuRu2
_symmetry_space_group_name_H-M   'P 1'
_cell_length_a   6.21657496
_cell_length_b   7.22102532
_cell_length_c   8.32943528
_cell_angle_alpha   96.99008263
_cell_angle_beta   111.91119126
_cell_angle_gamma   89.99999317
_symmetry_Int_Tables_number   1
_chemical_formula_structural   Tm4LuRu2
_chemical_formula_sum   'Tm8 Lu2 Ru4'
_cell_volume   343.90144355
_cell_formula_units_Z   2
loop_
 _symmetry_equiv_pos_site_id
 _symmetry_equiv_pos_as_xyz
  1  'x, y, z'
loop_
 _atom_site_type_symbol
 _atom_site_label
 _atom_site_symmetry_multiplicity
 _atom_site_fract_x
 _atom_site_fract_y
 _atom_site_fract_z
 _atom_site_occupancy
  Tm  Tm0  1  0.521484  0.083645  0.812808  1
  Tm  Tm1  1  0.478516  0.916355  0.187192  1
  Tm  Tm2  1  0.708676  0.416355  0.187192  1
  Tm  Tm3  1  0.291324  0.583645  0.812808  1
  Tm  Tm4  1  0.300611  0.312726  0.433156  1
  Tm  Tm5  1  0.699389  0.687274  0.566844  1
  Tm  Tm6  1  0.867456  0.187274  0.566844  1
  Tm  Tm7  1  0.132544  0.812726  0.433156  1
  Lu  Lu8  1  0.080100  0.250000  0.000000  1
  Lu  Lu9  1  0.919900  0.750000  0.000000  1
  Ru  Ru10  1  0.320848  0.577281  0.220166  1
  Ru  Ru11  1  0.679152  0.422719  0.779834  1
  Ru  Ru12  1  0.100683  0.922719  0.779834  1
  Ru  Ru13  1  0.899317  0.077281  0.220166  1
