# generated using pymatgen
data_RbErCr2O8
_symmetry_space_group_name_H-M   'P 1'
_cell_length_a   5.75657500
_cell_length_b   5.75657459
_cell_length_c   7.88908400
_cell_angle_alpha   90.00000000
_cell_angle_beta   90.00000000
_cell_angle_gamma   119.99999663
_symmetry_Int_Tables_number   1
_chemical_formula_structural   RbErCr2O8
_chemical_formula_sum   'Rb1 Er1 Cr2 O8'
_cell_volume   226.40474788
_cell_formula_units_Z   1
loop_
 _symmetry_equiv_pos_site_id
 _symmetry_equiv_pos_as_xyz
  1  'x, y, z'
loop_
 _atom_site_type_symbol
 _atom_site_label
 _atom_site_symmetry_multiplicity
 _atom_site_fract_x
 _atom_site_fract_y
 _atom_site_fract_z
 _atom_site_occupancy
  Rb  Rb0  1  0.000000  0.000000  0.500000  1
  Er  Er1  1  0.000000  0.000000  0.000000  1
  Cr  Cr2  1  0.666666  0.333333  0.246359  1
  Cr  Cr3  1  0.333333  0.666667  0.753641  1
  O  O4  1  0.348240  0.174121  0.177113  1
  O  O5  1  0.825879  0.174121  0.177113  1
  O  O6  1  0.825879  0.651759  0.177113  1
  O  O7  1  0.666666  0.333333  0.451756  1
  O  O8  1  0.333333  0.666667  0.548244  1
  O  O9  1  0.174121  0.348241  0.822887  1
  O  O10  1  0.174120  0.825879  0.822887  1
  O  O11  1  0.651759  0.825879  0.822887  1
