# generated using pymatgen
data_Ce4Al18Os2PtRh3
_symmetry_space_group_name_H-M   'P 1'
_cell_length_a   7.61626735
_cell_length_b   7.61626799
_cell_length_c   9.45188500
_cell_angle_alpha   89.99919651
_cell_angle_beta   89.99919610
_cell_angle_gamma   118.86472198
_symmetry_Int_Tables_number   1
_chemical_formula_structural   Ce4Al18Os2PtRh3
_chemical_formula_sum   'Ce4 Al18 Os2 Pt1 Rh3'
_cell_volume   480.16321603
_cell_formula_units_Z   1
loop_
 _symmetry_equiv_pos_site_id
 _symmetry_equiv_pos_as_xyz
  1  'x, y, z'
loop_
 _atom_site_type_symbol
 _atom_site_label
 _atom_site_symmetry_multiplicity
 _atom_site_fract_x
 _atom_site_fract_y
 _atom_site_fract_z
 _atom_site_occupancy
  Ce  Ce0  1  0.995206  0.681707  0.250130  1
  Ce  Ce1  1  0.004781  0.317884  0.750047  1
  Ce  Ce2  1  0.682116  0.995219  0.249953  1
  Ce  Ce3  1  0.318293  0.004794  0.749870  1
  Al  Al4  1  0.006125  0.339076  0.077882  1
  Al  Al5  1  0.000033  0.663996  0.922256  1
  Al  Al6  1  0.996895  0.660494  0.577160  1
  Al  Al7  1  0.339506  0.003105  0.422840  1
  Al  Al8  1  0.003398  0.339213  0.422715  1
  Al  Al9  1  0.660787  0.996602  0.577285  1
  Al  Al10  1  0.660924  0.993875  0.922118  1
  Al  Al11  1  0.336004  0.999967  0.077744  1
  Al  Al12  1  0.333049  0.333231  0.544899  1
  Al  Al13  1  0.666769  0.666951  0.455101  1
  Al  Al14  1  0.666074  0.669302  0.046015  1
  Al  Al15  1  0.330698  0.333926  0.953985  1
  Al  Al16  1  0.136968  0.136381  0.250029  1
  Al  Al17  1  0.863619  0.863032  0.749971  1
  Al  Al18  1  0.345812  0.555628  0.250031  1
  Al  Al19  1  0.654388  0.446867  0.747176  1
  Al  Al20  1  0.553133  0.345612  0.252824  1
  Al  Al21  1  0.444372  0.654188  0.749969  1
  Os  Os22  1  0.000041  0.999959  0.000000  1
  Os  Os23  1  0.000057  0.999943  0.500000  1
  Pt  Pt24  1  0.672116  0.327884  0.000000  1
  Rh  Rh25  1  0.328427  0.671573  0.000000  1
  Rh  Rh26  1  0.328473  0.671527  0.500000  1
  Rh  Rh27  1  0.671935  0.328065  0.500000  1
