# generated using pymatgen
data_Ca11La(SnRh)8
_symmetry_space_group_name_H-M   'P 1'
_cell_length_a   5.95452360
_cell_length_b   8.20220585
_cell_length_c   14.22839249
_cell_angle_alpha   90.05819389
_cell_angle_beta   90.11423308
_cell_angle_gamma   89.89073671
_symmetry_Int_Tables_number   1
_chemical_formula_structural   Ca11La(SnRh)8
_chemical_formula_sum   'Ca11 La1 Sn8 Rh8'
_cell_volume   694.91493673
_cell_formula_units_Z   1
loop_
 _symmetry_equiv_pos_site_id
 _symmetry_equiv_pos_as_xyz
  1  'x, y, z'
loop_
 _atom_site_type_symbol
 _atom_site_label
 _atom_site_symmetry_multiplicity
 _atom_site_fract_x
 _atom_site_fract_y
 _atom_site_fract_z
 _atom_site_occupancy
  Ca  Ca0  1  0.624465  0.252479  0.253282  1
  Ca  Ca1  1  0.377756  0.749548  0.748320  1
  Ca  Ca2  1  0.374057  0.746284  0.253827  1
  Ca  Ca3  1  0.626159  0.250779  0.747943  1
  Ca  Ca4  1  0.150385  0.397698  0.093125  1
  Ca  Ca5  1  0.841226  0.596041  0.902079  1
  Ca  Ca6  1  0.847718  0.604401  0.593292  1
  Ca  Ca7  1  0.845022  0.897880  0.407404  1
  Ca  Ca8  1  0.153273  0.397083  0.408663  1
  Ca  Ca9  1  0.154546  0.101175  0.593747  1
  Ca  Ca10  1  0.161966  0.108234  0.903348  1
  La  La11  1  0.832905  0.896218  0.087087  1
  Sn  Sn12  1  0.135455  0.095388  0.251210  1
  Sn  Sn13  1  0.871969  0.903751  0.751475  1
  Sn  Sn14  1  0.868701  0.596896  0.251469  1
  Sn  Sn15  1  0.133232  0.403359  0.747874  1
  Sn  Sn16  1  0.631042  0.255212  0.999435  1
  Sn  Sn17  1  0.353398  0.747066  0.997158  1
  Sn  Sn18  1  0.371249  0.750354  0.500539  1
  Sn  Sn19  1  0.631809  0.249396  0.501170  1
  Rh  Rh20  1  0.369728  0.033899  0.092836  1
  Rh  Rh21  1  0.642601  0.961086  0.911899  1
  Rh  Rh22  1  0.637245  0.965237  0.593861  1
  Rh  Rh23  1  0.639902  0.534420  0.409364  1
  Rh  Rh24  1  0.362636  0.035863  0.409667  1
  Rh  Rh25  1  0.364256  0.465406  0.591249  1
  Rh  Rh26  1  0.362287  0.463226  0.906736  1
  Rh  Rh27  1  0.635010  0.541621  0.091943  1
