# generated using pymatgen
data_Nb3Al2IrC
_symmetry_space_group_name_H-M   'P 1'
_cell_length_a   8.35806868
_cell_length_b   8.35806903
_cell_length_c   8.35807000
_cell_angle_alpha   60.00000409
_cell_angle_beta   60.00000269
_cell_angle_gamma   60.00000091
_symmetry_Int_Tables_number   1
_chemical_formula_structural   Nb3Al2IrC
_chemical_formula_sum   'Nb12 Al8 Ir4 C4'
_cell_volume   412.86010709
_cell_formula_units_Z   4
loop_
 _symmetry_equiv_pos_site_id
 _symmetry_equiv_pos_as_xyz
  1  'x, y, z'
loop_
 _atom_site_type_symbol
 _atom_site_label
 _atom_site_symmetry_multiplicity
 _atom_site_fract_x
 _atom_site_fract_y
 _atom_site_fract_z
 _atom_site_occupancy
  Nb  Nb0  1  0.686878  0.313122  0.686878  1
  Nb  Nb1  1  0.936878  0.563122  0.563122  1
  Nb  Nb2  1  0.563122  0.936878  0.936878  1
  Nb  Nb3  1  0.936878  0.563122  0.936878  1
  Nb  Nb4  1  0.563122  0.563122  0.936878  1
  Nb  Nb5  1  0.936878  0.936878  0.563122  1
  Nb  Nb6  1  0.686878  0.686878  0.313122  1
  Nb  Nb7  1  0.313122  0.686878  0.686878  1
  Nb  Nb8  1  0.686878  0.313122  0.313122  1
  Nb  Nb9  1  0.313122  0.313122  0.686878  1
  Nb  Nb10  1  0.563122  0.936878  0.563122  1
  Nb  Nb11  1  0.313122  0.686878  0.313122  1
  Al  Al12  1  0.333600  0.333600  0.333600  1
  Al  Al13  1  0.250799  0.916400  0.916400  1
  Al  Al14  1  0.916400  0.250799  0.916400  1
  Al  Al15  1  0.916400  0.916400  0.250799  1
  Al  Al16  1  0.333600  0.999201  0.333600  1
  Al  Al17  1  0.333600  0.333600  0.999201  1
  Al  Al18  1  0.999201  0.333600  0.333600  1
  Al  Al19  1  0.916400  0.916400  0.916400  1
  Ir  Ir20  1  0.125000  0.125000  0.125000  1
  Ir  Ir21  1  0.625000  0.125000  0.125000  1
  Ir  Ir22  1  0.125000  0.625000  0.125000  1
  Ir  Ir23  1  0.125000  0.125000  0.625000  1
  C  C24  1  0.625000  0.625000  0.625000  1
  C  C25  1  0.125000  0.625000  0.625000  1
  C  C26  1  0.625000  0.125000  0.625000  1
  C  C27  1  0.625000  0.625000  0.125000  1
