# generated using pymatgen
data_Ba8GdY3(GaO5)4
_symmetry_space_group_name_H-M   'P 1'
_cell_length_a   6.15098223
_cell_length_b   7.89151427
_cell_length_c   12.77751622
_cell_angle_alpha   91.71745915
_cell_angle_beta   90.00285256
_cell_angle_gamma   89.96851287
_symmetry_Int_Tables_number   1
_chemical_formula_structural   Ba8GdY3(GaO5)4
_chemical_formula_sum   'Ba8 Gd1 Y3 Ga4 O20'
_cell_volume   619.94912832
_cell_formula_units_Z   1
loop_
 _symmetry_equiv_pos_site_id
 _symmetry_equiv_pos_as_xyz
  1  'x, y, z'
loop_
 _atom_site_type_symbol
 _atom_site_label
 _atom_site_symmetry_multiplicity
 _atom_site_fract_x
 _atom_site_fract_y
 _atom_site_fract_z
 _atom_site_occupancy
  Ba  Ba0  1  0.762732  0.483117  0.346086  1
  Ba  Ba1  1  0.737720  0.981797  0.847107  1
  Ba  Ba2  1  0.237283  0.518142  0.653682  1
  Ba  Ba3  1  0.262221  0.016707  0.153113  1
  Ba  Ba4  1  0.756426  0.992633  0.379150  1
  Ba  Ba5  1  0.743852  0.493589  0.880729  1
  Ba  Ba6  1  0.243317  0.006464  0.620312  1
  Ba  Ba7  1  0.256139  0.507120  0.120120  1
  Gd  Gd8  1  0.749527  0.267377  0.627885  1
  Y  Y9  1  0.750258  0.766655  0.128253  1
  Y  Y10  1  0.250124  0.733071  0.371574  1
  Y  Y11  1  0.249583  0.233133  0.872692  1
  Ga  Ga12  1  0.734906  0.742358  0.582002  1
  Ga  Ga13  1  0.765136  0.242331  0.082339  1
  Ga  Ga14  1  0.265533  0.257327  0.416146  1
  Ga  Ga15  1  0.235023  0.757503  0.918083  1
  O  O16  1  0.762150  0.969064  0.630823  1
  O  O17  1  0.737977  0.470107  0.130251  1
  O  O18  1  0.237146  0.029477  0.368868  1
  O  O19  1  0.261884  0.529947  0.869970  1
  O  O20  1  0.730118  0.066619  0.175111  1
  O  O21  1  0.770867  0.570828  0.677358  1
  O  O22  1  0.269724  0.932988  0.825251  1
  O  O23  1  0.229079  0.433303  0.323692  1
  O  O24  1  0.543219  0.745654  0.271827  1
  O  O25  1  0.955321  0.244959  0.773939  1
  O  O26  1  0.453508  0.254368  0.728029  1
  O  O27  1  0.042852  0.754571  0.228018  1
  O  O28  1  0.551283  0.222342  0.976531  1
  O  O29  1  0.948620  0.721809  0.476212  1
  O  O30  1  0.448985  0.777605  0.023858  1
  O  O31  1  0.054976  0.278135  0.523054  1
  O  O32  1  0.044031  0.230126  0.021926  1
  O  O33  1  0.456691  0.729421  0.520924  1
  O  O34  1  0.956973  0.769902  0.979472  1
  O  O35  1  0.544818  0.269451  0.475614  1
