# generated using pymatgen
data_Ta6Be15Co4(CuNi)2
_symmetry_space_group_name_H-M   'P 1'
_cell_length_a   7.56010088
_cell_length_b   7.56346048
_cell_length_c   7.56345881
_cell_angle_alpha   60.10949945
_cell_angle_beta   60.05500598
_cell_angle_gamma   60.05501428
_symmetry_Int_Tables_number   1
_chemical_formula_structural   Ta6Be15Co4(CuNi)2
_chemical_formula_sum   'Ta6 Be15 Co4 Cu2 Ni2'
_cell_volume   306.31826500
_cell_formula_units_Z   1
loop_
 _symmetry_equiv_pos_site_id
 _symmetry_equiv_pos_as_xyz
  1  'x, y, z'
loop_
 _atom_site_type_symbol
 _atom_site_label
 _atom_site_symmetry_multiplicity
 _atom_site_fract_x
 _atom_site_fract_y
 _atom_site_fract_z
 _atom_site_occupancy
  Ta  Ta0  1  0.700097  0.296305  0.296305  1
  Ta  Ta1  1  0.299903  0.703695  0.703695  1
  Ta  Ta2  1  0.292646  0.694794  0.301847  1
  Ta  Ta3  1  0.707354  0.305206  0.698153  1
  Ta  Ta4  1  0.292646  0.301847  0.694794  1
  Ta  Ta5  1  0.707354  0.698153  0.305206  1
  Be  Be6  1  0.322893  0.325465  0.325465  1
  Be  Be7  1  0.677107  0.674535  0.674535  1
  Be  Be8  1  0.328877  0.330183  0.017817  1
  Be  Be9  1  0.328877  0.017817  0.330183  1
  Be  Be10  1  0.671123  0.669817  0.982183  1
  Be  Be11  1  0.671123  0.982183  0.669817  1
  Be  Be12  1  0.023322  0.328315  0.328315  1
  Be  Be13  1  0.976678  0.671685  0.671685  1
  Be  Be14  1  0.500000  0.000000  0.000000  1
  Be  Be15  1  0.000000  0.500000  0.500000  1
  Be  Be16  1  0.000000  0.500000  0.000000  1
  Be  Be17  1  0.500000  0.000000  0.500000  1
  Be  Be18  1  0.000000  0.000000  0.500000  1
  Be  Be19  1  0.500000  0.500000  0.000000  1
  Be  Be20  1  0.000000  0.000000  0.000000  1
  Co  Co21  1  0.122672  0.121069  0.633571  1
  Co  Co22  1  0.122672  0.633571  0.121068  1
  Co  Co23  1  0.877328  0.878932  0.366429  1
  Co  Co24  1  0.877328  0.366429  0.878931  1
  Cu  Cu25  1  0.124096  0.121784  0.121784  1
  Cu  Cu26  1  0.875904  0.878217  0.878216  1
  Ni  Ni27  1  0.631959  0.122181  0.122181  1
  Ni  Ni28  1  0.368041  0.877819  0.877819  1
