# generated using pymatgen
data_La2SiPt8
_symmetry_space_group_name_H-M   'P 1'
_cell_length_a   4.32609000
_cell_length_b   9.33661247
_cell_length_c   9.33661345
_cell_angle_alpha   145.97843764
_cell_angle_beta   90.00000000
_cell_angle_gamma   90.00000000
_symmetry_Int_Tables_number   1
_chemical_formula_structural   La2SiPt8
_chemical_formula_sum   'La2 Si1 Pt8'
_cell_volume   210.99789608
_cell_formula_units_Z   1
loop_
 _symmetry_equiv_pos_site_id
 _symmetry_equiv_pos_as_xyz
  1  'x, y, z'
loop_
 _atom_site_type_symbol
 _atom_site_label
 _atom_site_symmetry_multiplicity
 _atom_site_fract_x
 _atom_site_fract_y
 _atom_site_fract_z
 _atom_site_occupancy
  La  La0  1  0.500000  0.618955  0.372161  1
  La  La1  1  0.500000  0.372161  0.618955  1
  Si  Si2  1  0.000000  0.221228  0.221228  1
  Pt  Pt3  1  0.000000  0.886708  0.109852  1
  Pt  Pt4  1  0.500000  0.790551  0.193959  1
  Pt  Pt5  1  0.000000  0.987365  0.489352  1
  Pt  Pt6  1  0.000000  0.640391  0.640391  1
  Pt  Pt7  1  0.500000  0.193959  0.790551  1
  Pt  Pt8  1  0.000000  0.109852  0.886708  1
  Pt  Pt9  1  0.000000  0.489352  0.987365  1
  Pt  Pt10  1  0.500000  0.003062  0.003062  1
