# generated using pymatgen
data_NdHo2AuO7
_symmetry_space_group_name_H-M   'P 1'
_cell_length_a   6.48818671
_cell_length_b   6.48818766
_cell_length_c   7.52403900
_cell_angle_alpha   90.00000000
_cell_angle_beta   90.00000000
_cell_angle_gamma   108.91886288
_symmetry_Int_Tables_number   1
_chemical_formula_structural   NdHo2AuO7
_chemical_formula_sum   'Nd2 Ho4 Au2 O14'
_cell_volume   299.62574171
_cell_formula_units_Z   2
loop_
 _symmetry_equiv_pos_site_id
 _symmetry_equiv_pos_as_xyz
  1  'x, y, z'
loop_
 _atom_site_type_symbol
 _atom_site_label
 _atom_site_symmetry_multiplicity
 _atom_site_fract_x
 _atom_site_fract_y
 _atom_site_fract_z
 _atom_site_occupancy
  Nd  Nd0  1  0.000000  0.000000  0.000000  1
  Nd  Nd1  1  0.000000  0.000000  0.500000  1
  Ho  Ho2  1  0.487720  0.944225  0.750000  1
  Ho  Ho3  1  0.512280  0.055775  0.250000  1
  Ho  Ho4  1  0.944225  0.487720  0.750000  1
  Ho  Ho5  1  0.055775  0.512280  0.250000  1
  Au  Au6  1  0.500000  0.500000  0.000000  1
  Au  Au7  1  0.500000  0.500000  0.500000  1
  O  O8  1  0.605885  0.605885  0.750000  1
  O  O9  1  0.394115  0.394115  0.250000  1
  O  O10  1  0.840046  0.124796  0.750000  1
  O  O11  1  0.159954  0.875204  0.250000  1
  O  O12  1  0.124796  0.840046  0.750000  1
  O  O13  1  0.875204  0.159954  0.250000  1
  O  O14  1  0.433674  0.171900  0.969729  1
  O  O15  1  0.566326  0.828100  0.469729  1
  O  O16  1  0.171900  0.433674  0.969729  1
  O  O17  1  0.828100  0.566326  0.469729  1
  O  O18  1  0.433674  0.171900  0.530271  1
  O  O19  1  0.566326  0.828100  0.030271  1
  O  O20  1  0.828100  0.566326  0.030271  1
  O  O21  1  0.171900  0.433674  0.530271  1
