# generated using pymatgen
data_KRbLiNb6(PO8)3
_symmetry_space_group_name_H-M   'P 1'
_cell_length_a   8.53132169
_cell_length_b   8.54203986
_cell_length_c   8.54512300
_cell_angle_alpha   104.07952898
_cell_angle_beta   104.19523926
_cell_angle_gamma   104.17415464
_symmetry_Int_Tables_number   1
_chemical_formula_structural   KRbLiNb6(PO8)3
_chemical_formula_sum   'K1 Rb1 Li1 Nb6 P3 O24'
_cell_volume   554.01765794
_cell_formula_units_Z   1
loop_
 _symmetry_equiv_pos_site_id
 _symmetry_equiv_pos_as_xyz
  1  'x, y, z'
loop_
 _atom_site_type_symbol
 _atom_site_label
 _atom_site_symmetry_multiplicity
 _atom_site_fract_x
 _atom_site_fract_y
 _atom_site_fract_z
 _atom_site_occupancy
  K  K0  1  0.304595  0.591322  0.908050  1
  Rb  Rb1  1  0.700452  0.089437  0.402897  1
  Li  Li2  1  0.585775  0.585823  0.582345  1
  Nb  Nb3  1  0.354938  0.159085  0.037961  1
  Nb  Nb4  1  0.040978  0.359671  0.162203  1
  Nb  Nb5  1  0.972041  0.843907  0.654581  1
  Nb  Nb6  1  0.159947  0.039021  0.358814  1
  Nb  Nb7  1  0.656951  0.974419  0.847690  1
  Nb  Nb8  1  0.845914  0.655184  0.974384  1
  P  P9  1  0.724427  0.499496  0.275911  1
  P  P10  1  0.277283  0.725596  0.501314  1
  P  P11  1  0.499819  0.277787  0.725191  1
  O  O12  1  0.970548  0.496992  0.025003  1
  O  O13  1  0.003714  0.845401  0.152391  1
  O  O14  1  0.846653  0.152300  0.004343  1
  O  O15  1  0.709706  0.584568  0.134940  1
  O  O16  1  0.206589  0.314667  0.065141  1
  O  O17  1  0.868398  0.419068  0.290280  1
  O  O18  1  0.553780  0.354432  0.232838  1
  O  O19  1  0.751896  0.630209  0.449948  1
  O  O20  1  0.311742  0.064895  0.204536  1
  O  O21  1  0.293923  0.870535  0.422754  1
  O  O22  1  0.231201  0.553892  0.357326  1
  O  O23  1  0.062841  0.201746  0.308640  1
  O  O24  1  0.020188  0.965310  0.492419  1
  O  O25  1  0.789157  0.926196  0.683505  1
  O  O26  1  0.449835  0.748888  0.632761  1
  O  O27  1  0.137970  0.712995  0.588933  1
  O  O28  1  0.928179  0.687258  0.793099  1
  O  O29  1  0.357035  0.231416  0.552139  1
  O  O30  1  0.629175  0.452123  0.750659  1
  O  O31  1  0.586555  0.138085  0.713094  1
  O  O32  1  0.682944  0.790569  0.928121  1
  O  O33  1  0.419000  0.294635  0.868520  1
  O  O34  1  0.151420  0.003765  0.845304  1
  O  O35  1  0.494427  0.023313  0.967965  1
