# generated using pymatgen
data_CeSc7(Cr3Si4)4
_symmetry_space_group_name_H-M   'P 1'
_cell_length_a   6.54797951
_cell_length_b   6.54699753
_cell_length_c   12.15366671
_cell_angle_alpha   89.81401321
_cell_angle_beta   90.12064868
_cell_angle_gamma   89.82245713
_symmetry_Int_Tables_number   1
_chemical_formula_structural   CeSc7(Cr3Si4)4
_chemical_formula_sum   'Ce1 Sc7 Cr12 Si16'
_cell_volume   521.01648681
_cell_formula_units_Z   1
loop_
 _symmetry_equiv_pos_site_id
 _symmetry_equiv_pos_as_xyz
  1  'x, y, z'
loop_
 _atom_site_type_symbol
 _atom_site_label
 _atom_site_symmetry_multiplicity
 _atom_site_fract_x
 _atom_site_fract_y
 _atom_site_fract_z
 _atom_site_occupancy
  Ce  Ce0  1  0.997332  0.666693  0.028600  1
  Sc  Sc1  1  0.495744  0.163281  0.223904  1
  Sc  Sc2  1  0.835802  0.502051  0.280016  1
  Sc  Sc3  1  0.336870  0.998365  0.471883  1
  Sc  Sc4  1  0.998326  0.337386  0.528493  1
  Sc  Sc5  1  0.500807  0.836565  0.719302  1
  Sc  Sc6  1  0.163157  0.496858  0.778524  1
  Sc  Sc7  1  0.662178  0.002375  0.969562  1
  Cr  Cr8  1  0.330999  0.334227  0.999508  1
  Cr  Cr9  1  0.503971  0.669263  0.126302  1
  Cr  Cr10  1  0.997963  0.169229  0.128515  1
  Cr  Cr11  1  0.165995  0.832674  0.250301  1
  Cr  Cr12  1  0.831662  0.004537  0.376738  1
  Cr  Cr13  1  0.332814  0.496791  0.378102  1
  Cr  Cr14  1  0.666468  0.668004  0.499905  1
  Cr  Cr15  1  0.496326  0.333162  0.623824  1
  Cr  Cr16  1  0.003425  0.834597  0.623286  1
  Cr  Cr17  1  0.833743  0.168376  0.748177  1
  Cr  Cr18  1  0.171299  0.992611  0.871113  1
  Cr  Cr19  1  0.671431  0.497558  0.873308  1
  Si  Si20  1  0.292972  0.972936  0.065774  1
  Si  Si21  1  0.691197  0.370987  0.067000  1
  Si  Si22  1  0.796683  0.884079  0.189022  1
  Si  Si23  1  0.216155  0.464923  0.188846  1
  Si  Si24  1  0.530307  0.787615  0.317523  1
  Si  Si25  1  0.122213  0.196510  0.318443  1
  Si  Si26  1  0.622733  0.302980  0.434285  1
  Si  Si27  1  0.033155  0.712698  0.434055  1
  Si  Si28  1  0.711458  0.034487  0.565818  1
  Si  Si29  1  0.301311  0.623299  0.566547  1
  Si  Si30  1  0.197747  0.123478  0.682216  1
  Si  Si31  1  0.787854  0.532945  0.682167  1
  Si  Si32  1  0.466633  0.211756  0.814474  1
  Si  Si33  1  0.877020  0.804799  0.809682  1
  Si  Si34  1  0.387402  0.695524  0.932134  1
  Si  Si35  1  0.968852  0.276384  0.932659  1
