# generated using pymatgen
data_Co2Hg2SF6
_symmetry_space_group_name_H-M   'P 1'
_cell_length_a   7.76951980
_cell_length_b   7.77388417
_cell_length_c   7.75922218
_cell_angle_alpha   119.95861863
_cell_angle_beta   89.97771134
_cell_angle_gamma   119.91648205
_symmetry_Int_Tables_number   1
_chemical_formula_structural   Co2Hg2SF6
_chemical_formula_sum   'Co4 Hg4 S2 F12'
_cell_volume   332.07559190
_cell_formula_units_Z   2
loop_
 _symmetry_equiv_pos_site_id
 _symmetry_equiv_pos_as_xyz
  1  'x, y, z'
loop_
 _atom_site_type_symbol
 _atom_site_label
 _atom_site_symmetry_multiplicity
 _atom_site_fract_x
 _atom_site_fract_y
 _atom_site_fract_z
 _atom_site_occupancy
  Co  Co0  1  0.000000  0.000000  0.000000  1
  Co  Co1  1  0.000000  0.000000  0.500000  1
  Co  Co2  1  0.000000  0.500000  0.500000  1
  Co  Co3  1  0.500000  0.500000  0.500000  1
  Hg  Hg4  1  0.500000  0.000000  0.000000  1
  Hg  Hg5  1  0.000000  0.500000  0.000000  1
  Hg  Hg6  1  0.500000  0.500000  0.000000  1
  Hg  Hg7  1  0.500000  0.000000  0.500000  1
  S  S8  1  0.375051  0.750097  0.125032  1
  S  S9  1  0.624949  0.249904  0.874968  1
  F  F10  1  0.930684  0.251059  0.180012  1
  F  F11  1  0.930694  0.859535  0.179960  1
  F  F12  1  0.319506  0.249316  0.179635  1
  F  F13  1  0.679621  0.360130  0.430215  1
  F  F14  1  0.069247  0.748464  0.429034  1
  F  F15  1  0.680381  0.750402  0.430119  1
  F  F16  1  0.319620  0.249599  0.569881  1
  F  F17  1  0.930753  0.251537  0.570966  1
  F  F18  1  0.320380  0.639869  0.569785  1
  F  F19  1  0.069307  0.140466  0.820041  1
  F  F20  1  0.069317  0.748942  0.819989  1
  F  F21  1  0.680496  0.750685  0.820366  1
