# generated using pymatgen
data_Dy9Th(Al2Ru3)2
_symmetry_space_group_name_H-M   'P 1'
_cell_length_a   8.38830741
_cell_length_b   8.35753168
_cell_length_c   8.35749996
_cell_angle_alpha   109.15318424
_cell_angle_beta   109.53131687
_cell_angle_gamma   109.57992441
_symmetry_Int_Tables_number   1
_chemical_formula_structural   Dy9Th(Al2Ru3)2
_chemical_formula_sum   'Dy9 Th1 Al4 Ru6'
_cell_volume   451.85464616
_cell_formula_units_Z   1
loop_
 _symmetry_equiv_pos_site_id
 _symmetry_equiv_pos_as_xyz
  1  'x, y, z'
loop_
 _atom_site_type_symbol
 _atom_site_label
 _atom_site_symmetry_multiplicity
 _atom_site_fract_x
 _atom_site_fract_y
 _atom_site_fract_z
 _atom_site_occupancy
  Dy  Dy0  1  0.749998  0.818136  0.068136  1
  Dy  Dy1  1  0.432451  0.251150  0.682615  1
  Dy  Dy2  1  0.680083  0.432238  0.248942  1
  Dy  Dy3  1  0.067549  0.750163  0.818700  1
  Dy  Dy4  1  0.819917  0.068858  0.752156  1
  Dy  Dy5  1  0.215244  0.212726  0.214857  1
  Dy  Dy6  1  0.503822  0.001103  0.286266  1
  Dy  Dy7  1  0.284755  0.499612  0.997480  1
  Dy  Dy8  1  0.996180  0.282445  0.497283  1
  Th  Th9  1  0.250000  0.688837  0.438838  1
  Al  Al10  1  0.595085  0.590344  0.590491  1
  Al  Al11  1  0.503651  0.006279  0.916140  1
  Al  Al12  1  0.904915  0.495404  0.995258  1
  Al  Al13  1  0.996350  0.912490  0.502629  1
  Ru  Ru14  1  0.250000  0.123020  0.873020  1
  Ru  Ru15  1  0.749999  0.376021  0.626021  1
  Ru  Ru16  1  0.876355  0.249736  0.125851  1
  Ru  Ru17  1  0.126960  0.862712  0.256187  1
  Ru  Ru18  1  0.623645  0.749496  0.373381  1
  Ru  Ru19  1  0.373040  0.629228  0.735751  1
