# generated using pymatgen
data_TaTi4ZnGa3
_symmetry_space_group_name_H-M   'P 1'
_cell_length_a   7.88307400
_cell_length_b   7.88307457
_cell_length_c   5.38430700
_cell_angle_alpha   90.00000000
_cell_angle_beta   90.00000000
_cell_angle_gamma   119.99999762
_symmetry_Int_Tables_number   1
_chemical_formula_structural   TaTi4ZnGa3
_chemical_formula_sum   'Ta2 Ti8 Zn2 Ga6'
_cell_volume   289.76884822
_cell_formula_units_Z   2
loop_
 _symmetry_equiv_pos_site_id
 _symmetry_equiv_pos_as_xyz
  1  'x, y, z'
loop_
 _atom_site_type_symbol
 _atom_site_label
 _atom_site_symmetry_multiplicity
 _atom_site_fract_x
 _atom_site_fract_y
 _atom_site_fract_z
 _atom_site_occupancy
  Ta  Ta0  1  0.333333  0.666667  0.000000  1
  Ta  Ta1  1  0.666667  0.333333  0.500000  1
  Ti  Ti2  1  0.666667  0.333333  0.000000  1
  Ti  Ti3  1  0.333333  0.666667  0.500000  1
  Ti  Ti4  1  0.300980  0.000000  0.250000  1
  Ti  Ti5  1  0.300980  0.300980  0.750000  1
  Ti  Ti6  1  0.000000  0.699020  0.750000  1
  Ti  Ti7  1  0.000000  0.300980  0.250000  1
  Ti  Ti8  1  0.699020  0.699020  0.250000  1
  Ti  Ti9  1  0.699020  0.000000  0.750000  1
  Zn  Zn10  1  0.000000  0.000000  0.000000  1
  Zn  Zn11  1  0.000000  0.000000  0.500000  1
  Ga  Ga12  1  0.635296  0.000000  0.250000  1
  Ga  Ga13  1  0.635296  0.635296  0.750000  1
  Ga  Ga14  1  0.000000  0.364704  0.750000  1
  Ga  Ga15  1  0.000000  0.635296  0.250000  1
  Ga  Ga16  1  0.364704  0.364704  0.250000  1
  Ga  Ga17  1  0.364704  0.000000  0.750000  1
