# generated using pymatgen
data_Rb4Zr6MnI18
_symmetry_space_group_name_H-M   'P 1'
_cell_length_a   11.77023963
_cell_length_b   11.77024027
_cell_length_c   11.50598138
_cell_angle_alpha   77.23902963
_cell_angle_beta   77.23902964
_cell_angle_gamma   117.62906693
_symmetry_Int_Tables_number   1
_chemical_formula_structural   Rb4Zr6MnI18
_chemical_formula_sum   'Rb4 Zr6 Mn1 I18'
_cell_volume   1277.31625390
_cell_formula_units_Z   1
loop_
 _symmetry_equiv_pos_site_id
 _symmetry_equiv_pos_as_xyz
  1  'x, y, z'
loop_
 _atom_site_type_symbol
 _atom_site_label
 _atom_site_symmetry_multiplicity
 _atom_site_fract_x
 _atom_site_fract_y
 _atom_site_fract_z
 _atom_site_occupancy
  Rb  Rb0  1  0.771514  0.446003  0.676563  1
  Rb  Rb1  1  0.553997  0.228486  0.323437  1
  Rb  Rb2  1  0.228486  0.553997  0.323437  1
  Rb  Rb3  1  0.446003  0.771514  0.676563  1
  Zr  Zr4  1  0.121196  0.121196  0.138088  1
  Zr  Zr5  1  0.878804  0.878804  0.861912  1
  Zr  Zr6  1  0.953540  0.775228  0.140902  1
  Zr  Zr7  1  0.224772  0.046460  0.859098  1
  Zr  Zr8  1  0.046460  0.224772  0.859098  1
  Zr  Zr9  1  0.775228  0.953540  0.140902  1
  Mn  Mn10  1  0.000000  0.000000  0.000000  1
  I  I11  1  0.807425  0.600624  0.009304  1
  I  I12  1  0.399377  0.192575  0.990696  1
  I  I13  1  0.192575  0.399377  0.990696  1
  I  I14  1  0.600623  0.807425  0.009304  1
  I  I15  1  0.206053  0.793947  0.000000  1
  I  I16  1  0.793947  0.206053  0.000000  1
  I  I17  1  0.317069  0.317069  0.674595  1
  I  I18  1  0.682931  0.682931  0.325405  1
  I  I19  1  0.889160  0.491782  0.325027  1
  I  I20  1  0.508218  0.110840  0.674973  1
  I  I21  1  0.110840  0.508218  0.674973  1
  I  I22  1  0.491782  0.889160  0.325027  1
  I  I23  1  0.266324  0.266324  0.301833  1
  I  I24  1  0.733676  0.733676  0.698167  1
  I  I25  1  0.079048  0.875220  0.319089  1
  I  I26  1  0.124780  0.920952  0.680911  1
  I  I27  1  0.920952  0.124780  0.680911  1
  I  I28  1  0.875220  0.079048  0.319089  1
