# generated using pymatgen
data_ErGe2(AsRh3)2
_symmetry_space_group_name_H-M   'P 1'
_cell_length_a   7.29135500
_cell_length_b   7.23642726
_cell_length_c   3.81446400
_cell_angle_alpha   90.00000000
_cell_angle_beta   90.00000000
_cell_angle_gamma   120.25139558
_symmetry_Int_Tables_number   1
_chemical_formula_structural   ErGe2(AsRh3)2
_chemical_formula_sum   'Er1 Ge2 As2 Rh6'
_cell_volume   173.85646548
_cell_formula_units_Z   1
loop_
 _symmetry_equiv_pos_site_id
 _symmetry_equiv_pos_as_xyz
  1  'x, y, z'
loop_
 _atom_site_type_symbol
 _atom_site_label
 _atom_site_symmetry_multiplicity
 _atom_site_fract_x
 _atom_site_fract_y
 _atom_site_fract_z
 _atom_site_occupancy
  Er  Er0  1  0.998516  0.997032  0.000000  1
  Ge  Ge1  1  0.807528  0.615056  0.500000  1
  Ge  Ge2  1  0.333124  0.666250  0.000000  1
  As  As3  1  0.383762  0.192986  0.500000  1
  As  As4  1  0.809224  0.192986  0.500000  1
  Rh  Rh5  1  0.534721  0.069441  0.000000  1
  Rh  Rh6  1  0.606372  0.803637  0.500000  1
  Rh  Rh7  1  0.196571  0.393144  0.500000  1
  Rh  Rh8  1  0.535278  0.466249  0.000000  1
  Rh  Rh9  1  0.197265  0.803637  0.500000  1
  Rh  Rh10  1  0.930970  0.466249  0.000000  1
