# generated using pymatgen
data_Dy9ErSi5Bi
_symmetry_space_group_name_H-M   'P 1'
_cell_length_a   8.53341108
_cell_length_b   8.57967305
_cell_length_c   6.36561302
_cell_angle_alpha   90.00908907
_cell_angle_beta   89.99584555
_cell_angle_gamma   119.83709416
_symmetry_Int_Tables_number   1
_chemical_formula_structural   Dy9ErSi5Bi
_chemical_formula_sum   'Dy9 Er1 Si5 Bi1'
_cell_volume   404.27309787
_cell_formula_units_Z   1
loop_
 _symmetry_equiv_pos_site_id
 _symmetry_equiv_pos_as_xyz
  1  'x, y, z'
loop_
 _atom_site_type_symbol
 _atom_site_label
 _atom_site_symmetry_multiplicity
 _atom_site_fract_x
 _atom_site_fract_y
 _atom_site_fract_z
 _atom_site_occupancy
  Dy  Dy0  1  0.984704  0.744356  0.750170  1
  Dy  Dy1  1  0.998004  0.243529  0.249804  1
  Dy  Dy2  1  0.754610  0.756331  0.249854  1
  Dy  Dy3  1  0.767507  0.000128  0.750124  1
  Dy  Dy4  1  0.240422  0.255526  0.750117  1
  Dy  Dy5  1  0.240815  0.000103  0.249901  1
  Dy  Dy6  1  0.330556  0.653632  0.494952  1
  Dy  Dy7  1  0.330675  0.653823  0.005044  1
  Dy  Dy8  1  0.676900  0.346310  0.495064  1
  Er  Er9  1  0.677034  0.346445  0.005002  1
  Si  Si10  1  0.393298  0.390153  0.249506  1
  Si  Si11  1  0.002068  0.609311  0.249395  1
  Si  Si12  1  0.998101  0.394090  0.750536  1
  Si  Si13  1  0.604506  0.605360  0.750501  1
  Si  Si14  1  0.607157  0.000413  0.249664  1
  Bi  Bi15  1  0.393639  0.000491  0.750367  1
