# generated using pymatgen
data_Ho6Al24FeRu5Pt2
_symmetry_space_group_name_H-M   'P 1'
_cell_length_a   8.80716691
_cell_length_b   8.75977925
_cell_length_c   9.50552162
_cell_angle_alpha   90.00000134
_cell_angle_beta   90.08887136
_cell_angle_gamma   119.82217274
_symmetry_Int_Tables_number   1
_chemical_formula_structural   Ho6Al24FeRu5Pt2
_chemical_formula_sum   'Ho6 Al24 Fe1 Ru5 Pt2'
_cell_volume   636.22496939
_cell_formula_units_Z   1
loop_
 _symmetry_equiv_pos_site_id
 _symmetry_equiv_pos_as_xyz
  1  'x, y, z'
loop_
 _atom_site_type_symbol
 _atom_site_label
 _atom_site_symmetry_multiplicity
 _atom_site_fract_x
 _atom_site_fract_y
 _atom_site_fract_z
 _atom_site_occupancy
  Ho  Ho0  1  0.191363  0.386782  0.252450  1
  Ho  Ho1  1  0.808637  0.613218  0.747550  1
  Ho  Ho2  1  0.615802  0.807901  0.251967  1
  Ho  Ho3  1  0.384198  0.192099  0.748033  1
  Ho  Ho4  1  0.191363  0.804582  0.252450  1
  Ho  Ho5  1  0.808637  0.195418  0.747550  1
  Al  Al6  1  0.327250  0.663625  0.025516  1
  Al  Al7  1  0.672750  0.336375  0.974484  1
  Al  Al8  1  0.667014  0.333507  0.521062  1
  Al  Al9  1  0.332986  0.666493  0.478938  1
  Al  Al10  1  0.160350  0.320499  0.575879  1
  Al  Al11  1  0.839650  0.679501  0.424121  1
  Al  Al12  1  0.679897  0.839949  0.575257  1
  Al  Al13  1  0.842213  0.675667  0.078720  1
  Al  Al14  1  0.320103  0.160051  0.424743  1
  Al  Al15  1  0.157787  0.324333  0.921280  1
  Al  Al16  1  0.160350  0.839851  0.575879  1
  Al  Al17  1  0.321950  0.160974  0.079478  1
  Al  Al18  1  0.839650  0.160149  0.424121  1
  Al  Al19  1  0.678050  0.839026  0.920522  1
  Al  Al20  1  0.842213  0.166544  0.078720  1
  Al  Al21  1  0.157787  0.833456  0.921280  1
  Al  Al22  1  0.562452  0.125250  0.253073  1
  Al  Al23  1  0.437548  0.874750  0.746927  1
  Al  Al24  1  0.877646  0.438823  0.249357  1
  Al  Al25  1  0.122354  0.561177  0.750643  1
  Al  Al26  1  0.562452  0.437203  0.253073  1
  Al  Al27  1  0.437548  0.562797  0.746927  1
  Al  Al28  1  0.998276  0.999138  0.256592  1
  Al  Al29  1  0.001724  0.000862  0.743408  1
  Fe  Fe30  1  0.000000  0.000000  0.500000  1
  Ru  Ru31  1  0.000000  0.500000  0.000000  1
  Ru  Ru32  1  0.500000  0.000000  0.500000  1
  Ru  Ru33  1  0.000000  0.500000  0.500000  1
  Ru  Ru34  1  0.500000  0.500000  0.500000  1
  Ru  Ru35  1  0.000000  0.000000  0.000000  1
  Pt  Pt36  1  0.500000  0.000000  0.000000  1
  Pt  Pt37  1  0.500000  0.500000  0.000000  1
