# generated using pymatgen
data_LaPr4Nd(SiBr3)2
_symmetry_space_group_name_H-M   'P 1'
_cell_length_a   10.50614471
_cell_length_b   10.61669061
_cell_length_c   10.55316880
_cell_angle_alpha   109.78583225
_cell_angle_beta   109.35504785
_cell_angle_gamma   109.35342081
_symmetry_Int_Tables_number   1
_chemical_formula_structural   LaPr4Nd(SiBr3)2
_chemical_formula_sum   'La2 Pr8 Nd2 Si4 Br12'
_cell_volume   905.22055439
_cell_formula_units_Z   2
loop_
 _symmetry_equiv_pos_site_id
 _symmetry_equiv_pos_as_xyz
  1  'x, y, z'
loop_
 _atom_site_type_symbol
 _atom_site_label
 _atom_site_symmetry_multiplicity
 _atom_site_fract_x
 _atom_site_fract_y
 _atom_site_fract_z
 _atom_site_occupancy
  La  La0  1  0.018116  0.256967  0.008951  1
  La  La1  1  0.260292  0.751919  0.241954  1
  Pr  Pr2  1  0.488853  0.751952  0.013221  1
  Pr  Pr3  1  0.751654  0.238698  0.263377  1
  Pr  Pr4  1  0.237984  0.261238  0.747097  1
  Pr  Pr5  1  0.475764  0.486844  0.237812  1
  Pr  Pr6  1  0.264647  0.012890  0.026093  1
  Pr  Pr7  1  0.237615  0.474471  0.490108  1
  Pr  Pr8  1  0.011872  0.023987  0.262786  1
  Pr  Pr9  1  0.010610  0.486916  0.746372  1
  Nd  Nd10  1  0.488891  0.239010  0.476235  1
  Nd  Nd11  1  0.752477  0.014324  0.487796  1
  Si  Si12  1  0.250237  0.250157  0.250449  1
  Si  Si13  1  0.000097  0.249385  0.500119  1
  Si  Si14  1  0.249004  0.499648  0.999883  1
  Si  Si15  1  0.500650  0.000529  0.252157  1
  Br  Br16  1  0.996884  0.991622  0.743448  1
  Br  Br17  1  0.753238  0.747778  0.250826  1
  Br  Br18  1  0.992252  0.747266  0.993974  1
  Br  Br19  1  0.252593  0.000119  0.505878  1
  Br  Br20  1  0.744525  0.994147  0.992336  1
  Br  Br21  1  0.503989  0.249958  0.996684  1
  Br  Br22  1  0.744184  0.249329  0.749369  1
  Br  Br23  1  0.507259  0.754296  0.507975  1
  Br  Br24  1  0.752075  0.505476  0.503200  1
  Br  Br25  1  0.250564  0.754107  0.746505  1
  Br  Br26  1  0.508291  0.503118  0.753113  1
  Br  Br27  1  0.995387  0.503852  0.252279  1
