# generated using pymatgen
data_K3RbHf6(OF12)2
_symmetry_space_group_name_H-M   'P 1'
_cell_length_a   10.82046077
_cell_length_b   10.82046067
_cell_length_c   10.82046056
_cell_angle_alpha   41.80750227
_cell_angle_beta   41.80750051
_cell_angle_gamma   41.80750825
_symmetry_Int_Tables_number   1
_chemical_formula_structural   K3RbHf6(OF12)2
_chemical_formula_sum   'K3 Rb1 Hf6 O2 F24'
_cell_volume   509.07571759
_cell_formula_units_Z   1
loop_
 _symmetry_equiv_pos_site_id
 _symmetry_equiv_pos_as_xyz
  1  'x, y, z'
loop_
 _atom_site_type_symbol
 _atom_site_label
 _atom_site_symmetry_multiplicity
 _atom_site_fract_x
 _atom_site_fract_y
 _atom_site_fract_z
 _atom_site_occupancy
  K  K0  1  0.999038  0.999038  0.999038  1
  K  K1  1  0.499710  0.499710  0.499710  1
  K  K2  1  0.861008  0.861008  0.861008  1
  Rb  Rb3  1  0.138359  0.138359  0.138359  1
  Hf  Hf4  1  0.576492  0.576492  0.029836  1
  Hf  Hf5  1  0.029836  0.576492  0.576492  1
  Hf  Hf6  1  0.576492  0.029836  0.576492  1
  Hf  Hf7  1  0.423978  0.969617  0.423978  1
  Hf  Hf8  1  0.969617  0.423978  0.423978  1
  Hf  Hf9  1  0.423978  0.423978  0.969617  1
  O  O10  1  0.713729  0.713729  0.713729  1
  O  O11  1  0.285388  0.285388  0.285388  1
  F  F12  1  0.706804  0.706804  0.371256  1
  F  F13  1  0.371256  0.706804  0.706804  1
  F  F14  1  0.706804  0.371256  0.706804  1
  F  F15  1  0.294402  0.629623  0.294402  1
  F  F16  1  0.294402  0.294402  0.629623  1
  F  F17  1  0.629623  0.294402  0.294402  1
  F  F18  1  0.911564  0.911564  0.401715  1
  F  F19  1  0.401715  0.911564  0.911564  1
  F  F20  1  0.648610  0.350320  0.001496  1
  F  F21  1  0.350320  0.001496  0.648610  1
  F  F22  1  0.001496  0.648610  0.350320  1
  F  F23  1  0.350320  0.648610  0.001496  1
  F  F24  1  0.648610  0.001496  0.350320  1
  F  F25  1  0.001496  0.350320  0.648610  1
  F  F26  1  0.906215  0.354969  0.354969  1
  F  F27  1  0.354969  0.354969  0.906215  1
  F  F28  1  0.354969  0.906215  0.354969  1
  F  F29  1  0.649653  0.085320  0.649653  1
  F  F30  1  0.085320  0.649653  0.649653  1
  F  F31  1  0.649653  0.649653  0.085320  1
  F  F32  1  0.599286  0.086661  0.086661  1
  F  F33  1  0.086661  0.086661  0.599286  1
  F  F34  1  0.086661  0.599286  0.086661  1
  F  F35  1  0.911564  0.401715  0.911564  1
