# generated using pymatgen
data_Pr3ThIr4F28
_symmetry_space_group_name_H-M   'P 1'
_cell_length_a   5.72595280
_cell_length_b   9.26400268
_cell_length_c   12.31747570
_cell_angle_alpha   61.79184125
_cell_angle_beta   89.99641429
_cell_angle_gamma   90.15446373
_symmetry_Int_Tables_number   1
_chemical_formula_structural   Pr3ThIr4F28
_chemical_formula_sum   'Pr3 Th1 Ir4 F28'
_cell_volume   575.78238993
_cell_formula_units_Z   1
loop_
 _symmetry_equiv_pos_site_id
 _symmetry_equiv_pos_as_xyz
  1  'x, y, z'
loop_
 _atom_site_type_symbol
 _atom_site_label
 _atom_site_symmetry_multiplicity
 _atom_site_fract_x
 _atom_site_fract_y
 _atom_site_fract_z
 _atom_site_occupancy
  Pr  Pr0  1  0.257022  0.194825  0.734736  1
  Pr  Pr1  1  0.241169  0.189104  0.235285  1
  Pr  Pr2  1  0.740011  0.811137  0.264238  1
  Th  Th3  1  0.758290  0.807377  0.764896  1
  Ir  Ir4  1  0.755976  0.273861  0.957130  1
  Ir  Ir5  1  0.255786  0.727439  0.542495  1
  Ir  Ir6  1  0.244797  0.727293  0.041777  1
  Ir  Ir7  1  0.744571  0.272763  0.458205  1
  F  F8  1  0.443205  0.711354  0.913217  1
  F  F9  1  0.937890  0.288076  0.585996  1
  F  F10  1  0.563360  0.293835  0.081712  1
  F  F11  1  0.062706  0.707842  0.418095  1
  F  F12  1  0.454954  0.279071  0.544707  1
  F  F13  1  0.950854  0.720694  0.953621  1
  F  F14  1  0.545534  0.716973  0.458896  1
  F  F15  1  0.045822  0.284153  0.040074  1
  F  F16  1  0.764433  0.519178  0.859887  1
  F  F17  1  0.264076  0.487098  0.639689  1
  F  F18  1  0.235571  0.488320  0.136427  1
  F  F19  1  0.737592  0.511702  0.362415  1
  F  F20  1  0.759348  0.033422  0.048422  1
  F  F21  1  0.258880  0.967089  0.451615  1
  F  F22  1  0.242839  0.967537  0.946908  1
  F  F23  1  0.739564  0.029063  0.554775  1
  F  F24  1  0.969379  0.731921  0.636024  1
  F  F25  1  0.472187  0.270303  0.866659  1
  F  F26  1  0.028391  0.269398  0.368913  1
  F  F27  1  0.528578  0.729601  0.131146  1
  F  F28  1  0.054854  0.742268  0.169124  1
  F  F29  1  0.555180  0.257007  0.330563  1
  F  F30  1  0.943330  0.257823  0.828348  1
  F  F31  1  0.448765  0.745679  0.671918  1
  F  F32  1  0.407210  0.967799  0.230138  1
  F  F33  1  0.907169  0.032374  0.270338  1
  F  F34  1  0.594387  0.024295  0.770048  1
  F  F35  1  0.086319  0.962323  0.731563  1
