# generated using pymatgen
data_Tb3Dy3(CoSn6)2
_symmetry_space_group_name_H-M   'P 1'
_cell_length_a   8.49098265
_cell_length_b   8.49097275
_cell_length_c   13.15534688
_cell_angle_alpha   89.99127503
_cell_angle_beta   90.00879168
_cell_angle_gamma   148.79838854
_symmetry_Int_Tables_number   1
_chemical_formula_structural   Tb3Dy3(CoSn6)2
_chemical_formula_sum   'Tb3 Dy3 Co2 Sn12'
_cell_volume   491.34922053
_cell_formula_units_Z   1
loop_
 _symmetry_equiv_pos_site_id
 _symmetry_equiv_pos_as_xyz
  1  'x, y, z'
loop_
 _atom_site_type_symbol
 _atom_site_label
 _atom_site_symmetry_multiplicity
 _atom_site_fract_x
 _atom_site_fract_y
 _atom_site_fract_z
 _atom_site_occupancy
  Tb  Tb0  1  0.100405  0.899597  0.593189  1
  Tb  Tb1  1  0.100151  0.899850  0.907006  1
  Tb  Tb2  1  0.899768  0.100231  0.406593  1
  Dy  Dy3  1  0.899355  0.100643  0.093327  1
  Dy  Dy4  1  0.900065  0.099935  0.750677  1
  Dy  Dy5  1  0.100028  0.899975  0.249394  1
  Co  Co6  1  0.299190  0.700810  0.249882  1
  Co  Co7  1  0.701047  0.298955  0.749888  1
  Sn  Sn8  1  0.755305  0.244691  0.571178  1
  Sn  Sn9  1  0.427698  0.572301  0.576841  1
  Sn  Sn10  1  0.572096  0.427907  0.423224  1
  Sn  Sn11  1  0.734179  0.265823  0.249978  1
  Sn  Sn12  1  0.265947  0.734054  0.750058  1
  Sn  Sn13  1  0.245149  0.754852  0.071156  1
  Sn  Sn14  1  0.244872  0.755121  0.428583  1
  Sn  Sn15  1  0.572242  0.427759  0.076404  1
  Sn  Sn16  1  0.453464  0.546534  0.249487  1
  Sn  Sn17  1  0.546595  0.453407  0.750167  1
  Sn  Sn18  1  0.755011  0.244991  0.928875  1
  Sn  Sn19  1  0.427432  0.572567  0.924093  1
