# generated using pymatgen
data_Tb3Ho2(In2Pt)2
_symmetry_space_group_name_H-M   'P 1'
_cell_length_a   3.65027200
_cell_length_b   8.18159500
_cell_length_c   18.28383600
_cell_angle_alpha   90.00000000
_cell_angle_beta   90.00000000
_cell_angle_gamma   90.00000000
_symmetry_Int_Tables_number   1
_chemical_formula_structural   Tb3Ho2(In2Pt)2
_chemical_formula_sum   'Tb6 Ho4 In8 Pt4'
_cell_volume   546.04762411
_cell_formula_units_Z   2
loop_
 _symmetry_equiv_pos_site_id
 _symmetry_equiv_pos_as_xyz
  1  'x, y, z'
loop_
 _atom_site_type_symbol
 _atom_site_label
 _atom_site_symmetry_multiplicity
 _atom_site_fract_x
 _atom_site_fract_y
 _atom_site_fract_z
 _atom_site_occupancy
  Tb  Tb0  1  0.000000  0.243328  0.219689  1
  Tb  Tb1  1  0.000000  0.756672  0.780311  1
  Tb  Tb2  1  0.000000  0.256672  0.719689  1
  Tb  Tb3  1  0.000000  0.743328  0.280311  1
  Tb  Tb4  1  0.000000  0.000000  0.000000  1
  Tb  Tb5  1  0.000000  0.500000  0.500000  1
  Ho  Ho6  1  0.000000  0.116000  0.414345  1
  Ho  Ho7  1  0.000000  0.884000  0.585655  1
  Ho  Ho8  1  0.000000  0.384000  0.914345  1
  Ho  Ho9  1  0.000000  0.616000  0.085655  1
  In  In10  1  0.500000  0.423025  0.351106  1
  In  In11  1  0.500000  0.576975  0.648894  1
  In  In12  1  0.500000  0.076975  0.851106  1
  In  In13  1  0.500000  0.923025  0.148894  1
  In  In14  1  0.500000  0.293114  0.066527  1
  In  In15  1  0.500000  0.706886  0.933473  1
  In  In16  1  0.500000  0.206886  0.566527  1
  In  In17  1  0.500000  0.793114  0.433473  1
  Pt  Pt18  1  0.500000  0.026153  0.303612  1
  Pt  Pt19  1  0.500000  0.973847  0.696388  1
  Pt  Pt20  1  0.500000  0.473847  0.803612  1
  Pt  Pt21  1  0.500000  0.526153  0.196388  1
