# generated using pymatgen
data_HfSc3Fe3Si4Ir
_symmetry_space_group_name_H-M   'P 1'
_cell_length_a   4.06052100
_cell_length_b   6.48984953
_cell_length_c   6.87214389
_cell_angle_alpha   89.37031411
_cell_angle_beta   90.00000000
_cell_angle_gamma   90.00000000
_symmetry_Int_Tables_number   1
_chemical_formula_structural   HfSc3Fe3Si4Ir
_chemical_formula_sum   'Hf1 Sc3 Fe3 Si4 Ir1'
_cell_volume   181.08496961
_cell_formula_units_Z   1
loop_
 _symmetry_equiv_pos_site_id
 _symmetry_equiv_pos_as_xyz
  1  'x, y, z'
loop_
 _atom_site_type_symbol
 _atom_site_label
 _atom_site_symmetry_multiplicity
 _atom_site_fract_x
 _atom_site_fract_y
 _atom_site_fract_z
 _atom_site_occupancy
  Hf  Hf0  1  0.250000  0.494054  0.200374  1
  Sc  Sc1  1  0.250000  0.982926  0.314873  1
  Sc  Sc2  1  0.750000  0.006924  0.686119  1
  Sc  Sc3  1  0.750000  0.505296  0.805475  1
  Fe  Fe4  1  0.250000  0.658344  0.554790  1
  Fe  Fe5  1  0.750000  0.843048  0.059786  1
  Fe  Fe6  1  0.750000  0.352015  0.434512  1
  Si  Si7  1  0.250000  0.300406  0.597396  1
  Si  Si8  1  0.250000  0.787457  0.888510  1
  Si  Si9  1  0.750000  0.706505  0.390858  1
  Si  Si10  1  0.750000  0.200114  0.127944  1
  Ir  Ir11  1  0.250000  0.162910  0.939360  1
