# generated using pymatgen
data_SmEr2Cd3Si2Au
_symmetry_space_group_name_H-M   'P 1'
_cell_length_a   7.28519252
_cell_length_b   7.28519337
_cell_length_c   4.33265200
_cell_angle_alpha   90.00000000
_cell_angle_beta   90.00000000
_cell_angle_gamma   120.36281294
_symmetry_Int_Tables_number   1
_chemical_formula_structural   SmEr2Cd3Si2Au
_chemical_formula_sum   'Sm1 Er2 Cd3 Si2 Au1'
_cell_volume   198.41164668
_cell_formula_units_Z   1
loop_
 _symmetry_equiv_pos_site_id
 _symmetry_equiv_pos_as_xyz
  1  'x, y, z'
loop_
 _atom_site_type_symbol
 _atom_site_label
 _atom_site_symmetry_multiplicity
 _atom_site_fract_x
 _atom_site_fract_y
 _atom_site_fract_z
 _atom_site_occupancy
  Sm  Sm0  1  0.418198  0.418198  0.000000  1
  Er  Er1  1  0.584294  0.001575  0.000000  1
  Er  Er2  1  0.001575  0.584294  0.000000  1
  Cd  Cd3  1  0.254878  0.999037  0.500000  1
  Cd  Cd4  1  0.999037  0.254878  0.500000  1
  Cd  Cd5  1  0.746065  0.746065  0.500000  1
  Si  Si6  1  0.331212  0.669743  0.500000  1
  Si  Si7  1  0.669743  0.331212  0.500000  1
  Au  Au8  1  0.994998  0.994998  0.000000  1
