# generated using pymatgen
data_Tb4Er2TiAl23Ru8
_symmetry_space_group_name_H-M   'P 1'
_cell_length_a   8.84268649
_cell_length_b   8.84268540
_cell_length_c   9.56598603
_cell_angle_alpha   89.99217086
_cell_angle_beta   90.00782700
_cell_angle_gamma   120.13858375
_symmetry_Int_Tables_number   1
_chemical_formula_structural   Tb4Er2TiAl23Ru8
_chemical_formula_sum   'Tb4 Er2 Ti1 Al23 Ru8'
_cell_volume   646.87534592
_cell_formula_units_Z   1
loop_
 _symmetry_equiv_pos_site_id
 _symmetry_equiv_pos_as_xyz
  1  'x, y, z'
loop_
 _atom_site_type_symbol
 _atom_site_label
 _atom_site_symmetry_multiplicity
 _atom_site_fract_x
 _atom_site_fract_y
 _atom_site_fract_z
 _atom_site_occupancy
  Tb  Tb0  1  0.193548  0.386573  0.249825  1
  Tb  Tb1  1  0.806835  0.614014  0.748874  1
  Tb  Tb2  1  0.613427  0.806452  0.249825  1
  Tb  Tb3  1  0.385986  0.193165  0.748874  1
  Er  Er4  1  0.194467  0.805533  0.249325  1
  Er  Er5  1  0.805849  0.194151  0.749006  1
  Ti  Ti6  1  0.332943  0.667057  0.994523  1
  Al  Al7  1  0.666673  0.333327  0.983193  1
  Al  Al8  1  0.666732  0.333268  0.514225  1
  Al  Al9  1  0.333279  0.666721  0.483737  1
  Al  Al10  1  0.160979  0.323058  0.577394  1
  Al  Al11  1  0.838759  0.676220  0.422283  1
  Al  Al12  1  0.676942  0.839021  0.577394  1
  Al  Al13  1  0.837916  0.675010  0.078275  1
  Al  Al14  1  0.323780  0.161241  0.422283  1
  Al  Al15  1  0.158278  0.317509  0.923236  1
  Al  Al16  1  0.161649  0.838351  0.576634  1
  Al  Al17  1  0.324990  0.162084  0.078275  1
  Al  Al18  1  0.838157  0.161843  0.423108  1
  Al  Al19  1  0.682491  0.841722  0.923236  1
  Al  Al20  1  0.837411  0.162589  0.077606  1
  Al  Al21  1  0.158686  0.841314  0.924109  1
  Al  Al22  1  0.561527  0.123220  0.252536  1
  Al  Al23  1  0.440389  0.880462  0.750362  1
  Al  Al24  1  0.876780  0.438473  0.252536  1
  Al  Al25  1  0.119538  0.559611  0.750362  1
  Al  Al26  1  0.562139  0.437861  0.252438  1
  Al  Al27  1  0.439752  0.560248  0.750495  1
  Al  Al28  1  0.001221  0.998779  0.249437  1
  Al  Al29  1  0.998846  0.001154  0.749069  1
  Ru  Ru30  1  0.498298  0.996895  0.002805  1
  Ru  Ru31  1  0.003105  0.501702  0.002805  1
  Ru  Ru32  1  0.499919  0.999438  0.503378  1
  Ru  Ru33  1  0.498389  0.501611  0.002936  1
  Ru  Ru34  1  0.000562  0.500081  0.503378  1
  Ru  Ru35  1  0.499700  0.500300  0.503308  1
  Ru  Ru36  1  0.999962  0.000038  0.000043  1
  Ru  Ru37  1  0.000096  0.999904  0.498878  1
