# generated using pymatgen
data_Er2Al9CuRePd
_symmetry_space_group_name_H-M   'P 1'
_cell_length_a   7.55184401
_cell_length_b   7.55186175
_cell_length_c   9.44530379
_cell_angle_alpha   89.92469487
_cell_angle_beta   89.92459162
_cell_angle_gamma   118.37438824
_symmetry_Int_Tables_number   1
_chemical_formula_structural   Er2Al9CuRePd
_chemical_formula_sum   'Er4 Al18 Cu2 Re2 Pd2'
_cell_volume   473.95341248
_cell_formula_units_Z   2
loop_
 _symmetry_equiv_pos_site_id
 _symmetry_equiv_pos_as_xyz
  1  'x, y, z'
loop_
 _atom_site_type_symbol
 _atom_site_label
 _atom_site_symmetry_multiplicity
 _atom_site_fract_x
 _atom_site_fract_y
 _atom_site_fract_z
 _atom_site_occupancy
  Er  Er0  1  0.993488  0.683055  0.248913  1
  Er  Er1  1  0.006512  0.316945  0.751087  1
  Er  Er2  1  0.683064  0.993530  0.248913  1
  Er  Er3  1  0.316936  0.006470  0.751087  1
  Al  Al4  1  0.135333  0.135339  0.249380  1
  Al  Al5  1  0.864667  0.864661  0.750620  1
  Al  Al6  1  0.000482  0.337614  0.078242  1
  Al  Al7  1  0.999518  0.662386  0.921758  1
  Al  Al8  1  0.998860  0.663374  0.577927  1
  Al  Al9  1  0.336643  0.001124  0.422078  1
  Al  Al10  1  0.001140  0.336626  0.422073  1
  Al  Al11  1  0.663357  0.998876  0.577922  1
  Al  Al12  1  0.662366  0.999533  0.921763  1
  Al  Al13  1  0.337634  0.000467  0.078237  1
  Al  Al14  1  0.329323  0.329291  0.548179  1
  Al  Al15  1  0.670677  0.670709  0.451821  1
  Al  Al16  1  0.668368  0.668402  0.049633  1
  Al  Al17  1  0.331632  0.331598  0.950367  1
  Al  Al18  1  0.346306  0.557139  0.248488  1
  Al  Al19  1  0.653694  0.442861  0.751512  1
  Al  Al20  1  0.557064  0.346357  0.248491  1
  Al  Al21  1  0.442936  0.653643  0.751509  1
  Cu  Cu22  1  0.672086  0.328198  0.000005  1
  Cu  Cu23  1  0.327914  0.671802  0.999995  1
  Re  Re24  1  0.000000  0.000000  0.000000  1
  Re  Re25  1  0.000000  0.000000  0.500000  1
  Pd  Pd26  1  0.327774  0.672110  0.500018  1
  Pd  Pd27  1  0.672226  0.327890  0.499982  1
