# generated using pymatgen
data_Pr3RhAu5
_symmetry_space_group_name_H-M   'P 1'
_cell_length_a   7.85214700
_cell_length_b   7.85214694
_cell_length_c   3.92195400
_cell_angle_alpha   90.00000000
_cell_angle_beta   90.00000000
_cell_angle_gamma   119.99999602
_symmetry_Int_Tables_number   1
_chemical_formula_structural   Pr3RhAu5
_chemical_formula_sum   'Pr3 Rh1 Au5'
_cell_volume   209.41606001
_cell_formula_units_Z   1
loop_
 _symmetry_equiv_pos_site_id
 _symmetry_equiv_pos_as_xyz
  1  'x, y, z'
loop_
 _atom_site_type_symbol
 _atom_site_label
 _atom_site_symmetry_multiplicity
 _atom_site_fract_x
 _atom_site_fract_y
 _atom_site_fract_z
 _atom_site_occupancy
  Pr  Pr0  1  0.593558  0.979077  0.000000  1
  Pr  Pr1  1  0.020923  0.614482  0.000000  1
  Pr  Pr2  1  0.385518  0.406442  0.000000  1
  Rh  Rh3  1  0.333333  0.666667  0.500000  1
  Au  Au4  1  0.270776  0.997385  0.500000  1
  Au  Au5  1  0.002615  0.273391  0.500000  1
  Au  Au6  1  0.726609  0.729224  0.500000  1
  Au  Au7  1  0.666667  0.333333  0.500000  1
  Au  Au8  1  0.000000  0.000000  0.000000  1
