# generated using pymatgen
data_Pa8CuSe17
_symmetry_space_group_name_H-M   'P 1'
_cell_length_a   8.28697639
_cell_length_b   8.28697697
_cell_length_c   10.95078230
_cell_angle_alpha   79.80090091
_cell_angle_beta   79.80089728
_cell_angle_gamma   64.10488392
_symmetry_Int_Tables_number   1
_chemical_formula_structural   Pa8CuSe17
_chemical_formula_sum   'Pa8 Cu1 Se17'
_cell_volume   661.59740361
_cell_formula_units_Z   1
loop_
 _symmetry_equiv_pos_site_id
 _symmetry_equiv_pos_as_xyz
  1  'x, y, z'
loop_
 _atom_site_type_symbol
 _atom_site_label
 _atom_site_symmetry_multiplicity
 _atom_site_fract_x
 _atom_site_fract_y
 _atom_site_fract_z
 _atom_site_occupancy
  Pa  Pa0  1  0.819448  0.301678  0.297993  1
  Pa  Pa1  1  0.301678  0.819448  0.297993  1
  Pa  Pa2  1  0.180552  0.698322  0.702007  1
  Pa  Pa3  1  0.698322  0.180552  0.702007  1
  Pa  Pa4  1  0.799141  0.799141  0.455754  1
  Pa  Pa5  1  0.200859  0.200859  0.544246  1
  Pa  Pa6  1  0.317138  0.317138  0.015456  1
  Pa  Pa7  1  0.682862  0.682862  0.984544  1
  Cu  Cu8  1  0.000000  0.000000  0.000000  1
  Se  Se9  1  0.180295  0.564997  0.464931  1
  Se  Se10  1  0.564997  0.180295  0.464931  1
  Se  Se11  1  0.819705  0.435003  0.535069  1
  Se  Se12  1  0.435003  0.819705  0.535069  1
  Se  Se13  1  0.944740  0.327069  0.032939  1
  Se  Se14  1  0.327069  0.944740  0.032939  1
  Se  Se15  1  0.055260  0.672931  0.967061  1
  Se  Se16  1  0.672931  0.055260  0.967061  1
  Se  Se17  1  0.942869  0.942869  0.226310  1
  Se  Se18  1  0.057131  0.057131  0.773690  1
  Se  Se19  1  0.785540  0.785540  0.722216  1
  Se  Se20  1  0.214460  0.214460  0.277784  1
  Se  Se21  1  0.699578  0.699578  0.245359  1
  Se  Se22  1  0.300422  0.300422  0.754641  1
  Se  Se23  1  0.479684  0.479684  0.169379  1
  Se  Se24  1  0.520316  0.520316  0.830621  1
  Se  Se25  1  0.000000  0.000000  0.500000  1
