# generated using pymatgen
data_Tb8Al2NiRu
_symmetry_space_group_name_H-M   'P 1'
_cell_length_a   9.52253512
_cell_length_b   9.52253364
_cell_length_c   9.50692600
_cell_angle_alpha   60.05421054
_cell_angle_beta   60.05421568
_cell_angle_gamma   60.32422812
_symmetry_Int_Tables_number   1
_chemical_formula_structural   Tb8Al2NiRu
_chemical_formula_sum   'Tb16 Al4 Ni2 Ru2'
_cell_volume   611.56164600
_cell_formula_units_Z   2
loop_
 _symmetry_equiv_pos_site_id
 _symmetry_equiv_pos_as_xyz
  1  'x, y, z'
loop_
 _atom_site_type_symbol
 _atom_site_label
 _atom_site_symmetry_multiplicity
 _atom_site_fract_x
 _atom_site_fract_y
 _atom_site_fract_z
 _atom_site_occupancy
  Tb  Tb0  1  0.101506  0.695735  0.101379  1
  Tb  Tb1  1  0.940817  0.940817  0.559183  1
  Tb  Tb2  1  0.943618  0.556293  0.942797  1
  Tb  Tb3  1  0.315027  0.689286  0.308606  1
  Tb  Tb4  1  0.943618  0.556293  0.557292  1
  Tb  Tb5  1  0.310457  0.310457  0.689543  1
  Tb  Tb6  1  0.099775  0.099775  0.103426  1
  Tb  Tb7  1  0.557395  0.557395  0.942605  1
  Tb  Tb8  1  0.099775  0.099775  0.697025  1
  Tb  Tb9  1  0.689286  0.315027  0.687081  1
  Tb  Tb10  1  0.685637  0.685637  0.314363  1
  Tb  Tb11  1  0.689286  0.315027  0.308606  1
  Tb  Tb12  1  0.315027  0.689286  0.687081  1
  Tb  Tb13  1  0.556293  0.943618  0.557292  1
  Tb  Tb14  1  0.695735  0.101506  0.101379  1
  Tb  Tb15  1  0.556293  0.943618  0.942797  1
  Al  Al16  1  0.327235  0.327235  0.325993  1
  Al  Al17  1  0.020233  0.326463  0.326651  1
  Al  Al18  1  0.326463  0.020233  0.326651  1
  Al  Al19  1  0.327235  0.327235  0.019537  1
  Ni  Ni20  1  0.891637  0.891637  0.893695  1
  Ni  Ni21  1  0.891637  0.891637  0.323030  1
  Ru  Ru22  1  0.324529  0.891482  0.891994  1
  Ru  Ru23  1  0.891482  0.324529  0.891994  1
