# generated using pymatgen
data_Nd2Fe5(PIr)7
_symmetry_space_group_name_H-M   'P 1'
_cell_length_a   9.38723597
_cell_length_b   9.37638101
_cell_length_c   3.87341800
_cell_angle_alpha   90.00000000
_cell_angle_beta   90.00000000
_cell_angle_gamma   119.85529759
_symmetry_Int_Tables_number   1
_chemical_formula_structural   Nd2Fe5(PIr)7
_chemical_formula_sum   'Nd2 Fe5 P7 Ir7'
_cell_volume   295.68506397
_cell_formula_units_Z   1
loop_
 _symmetry_equiv_pos_site_id
 _symmetry_equiv_pos_as_xyz
  1  'x, y, z'
loop_
 _atom_site_type_symbol
 _atom_site_label
 _atom_site_symmetry_multiplicity
 _atom_site_fract_x
 _atom_site_fract_y
 _atom_site_fract_z
 _atom_site_occupancy
  Nd  Nd0  1  0.663835  0.329317  0.000000  1
  Nd  Nd1  1  0.333383  0.666315  0.500000  1
  Fe  Fe2  1  0.261501  0.102960  0.000000  1
  Fe  Fe3  1  0.844118  0.736286  0.000000  1
  Fe  Fe4  1  0.892929  0.160717  0.000000  1
  Fe  Fe5  1  0.789966  0.912275  0.500000  1
  Fe  Fe6  1  0.124540  0.214565  0.500000  1
  P  P7  1  0.300175  0.892983  0.000000  1
  P  P8  1  0.597304  0.704919  0.000000  1
  P  P9  1  0.109416  0.402328  0.000000  1
  P  P10  1  0.387303  0.278223  0.500000  1
  P  P11  1  0.880556  0.602096  0.500000  1
  P  P12  1  0.725654  0.111909  0.500000  1
  P  P13  1  0.997340  0.003098  0.000000  1
  Ir  Ir14  1  0.062495  0.636690  0.000000  1
  Ir  Ir15  1  0.574081  0.938197  0.000000  1
  Ir  Ir16  1  0.366123  0.426264  0.000000  1
  Ir  Ir17  1  0.437496  0.055092  0.500000  1
  Ir  Ir18  1  0.616756  0.565039  0.500000  1
  Ir  Ir19  1  0.948762  0.386267  0.500000  1
  Ir  Ir20  1  0.086269  0.874459  0.500000  1
