# generated using pymatgen
data_Yb10Cu3Ag2Ir
_symmetry_space_group_name_H-M   'P 1'
_cell_length_a   8.94198167
_cell_length_b   8.94198164
_cell_length_c   8.94512833
_cell_angle_alpha   129.56078323
_cell_angle_beta   129.56078119
_cell_angle_gamma   74.08320712
_symmetry_Int_Tables_number   1
_chemical_formula_structural   Yb10Cu3Ag2Ir
_chemical_formula_sum   'Yb10 Cu3 Ag2 Ir1'
_cell_volume   414.59618492
_cell_formula_units_Z   1
loop_
 _symmetry_equiv_pos_site_id
 _symmetry_equiv_pos_as_xyz
  1  'x, y, z'
loop_
 _atom_site_type_symbol
 _atom_site_label
 _atom_site_symmetry_multiplicity
 _atom_site_fract_x
 _atom_site_fract_y
 _atom_site_fract_z
 _atom_site_occupancy
  Yb  Yb0  1  0.493305  0.502112  0.995416  1
  Yb  Yb1  1  0.002112  0.993305  0.995416  1
  Yb  Yb2  1  0.530697  0.030697  0.836978  1
  Yb  Yb3  1  0.188651  0.688651  0.148771  1
  Yb  Yb4  1  0.034046  0.201823  0.508013  1
  Yb  Yb5  1  0.701823  0.534046  0.508013  1
  Yb  Yb6  1  0.460122  0.960122  0.148771  1
  Yb  Yb7  1  0.806281  0.306281  0.836978  1
  Yb  Yb8  1  0.973966  0.806190  0.508013  1
  Yb  Yb9  1  0.306190  0.473966  0.508013  1
  Cu  Cu10  1  0.878852  0.378852  0.257703  1
  Cu  Cu11  1  0.617341  0.881296  0.498636  1
  Cu  Cu12  1  0.381296  0.117341  0.498636  1
  Ag  Ag13  1  0.251781  0.251781  0.003561  1
  Ag  Ag14  1  0.751781  0.751781  0.003561  1
  Ir  Ir15  1  0.121757  0.621757  0.743515  1
