# generated using pymatgen
data_Sm3Sc2(GaO4)3
_symmetry_space_group_name_H-M   'P 1'
_cell_length_a   10.92331486
_cell_length_b   10.92331550
_cell_length_c   10.92331500
_cell_angle_alpha   109.47121971
_cell_angle_beta   109.47122089
_cell_angle_gamma   109.47121920
_symmetry_Int_Tables_number   1
_chemical_formula_structural   Sm3Sc2(GaO4)3
_chemical_formula_sum   'Sm12 Sc8 Ga12 O48'
_cell_volume   1003.32470950
_cell_formula_units_Z   4
loop_
 _symmetry_equiv_pos_site_id
 _symmetry_equiv_pos_as_xyz
  1  'x, y, z'
loop_
 _atom_site_type_symbol
 _atom_site_label
 _atom_site_symmetry_multiplicity
 _atom_site_fract_x
 _atom_site_fract_y
 _atom_site_fract_z
 _atom_site_occupancy
  Sm  Sm0  1  0.250000  0.375000  0.125000  1
  Sm  Sm1  1  0.750000  0.625000  0.875000  1
  Sm  Sm2  1  0.750000  0.125000  0.375000  1
  Sm  Sm3  1  0.125000  0.250000  0.375000  1
  Sm  Sm4  1  0.375000  0.750000  0.125000  1
  Sm  Sm5  1  0.250000  0.875000  0.625000  1
  Sm  Sm6  1  0.875000  0.750000  0.625000  1
  Sm  Sm7  1  0.625000  0.250000  0.875000  1
  Sm  Sm8  1  0.375000  0.125000  0.250000  1
  Sm  Sm9  1  0.625000  0.875000  0.750000  1
  Sm  Sm10  1  0.125000  0.375000  0.750000  1
  Sm  Sm11  1  0.875000  0.625000  0.250000  1
  Sc  Sc12  1  0.000000  0.000000  0.000000  1
  Sc  Sc13  1  0.500000  0.000000  0.500000  1
  Sc  Sc14  1  0.000000  0.500000  0.500000  1
  Sc  Sc15  1  0.500000  0.000000  0.000000  1
  Sc  Sc16  1  0.500000  0.500000  0.000000  1
  Sc  Sc17  1  0.500000  0.500000  0.500000  1
  Sc  Sc18  1  0.000000  0.000000  0.500000  1
  Sc  Sc19  1  0.000000  0.500000  0.000000  1
  Ga  Ga20  1  0.250000  0.625000  0.375000  1
  Ga  Ga21  1  0.750000  0.375000  0.625000  1
  Ga  Ga22  1  0.750000  0.875000  0.125000  1
  Ga  Ga23  1  0.375000  0.250000  0.625000  1
  Ga  Ga24  1  0.625000  0.750000  0.375000  1
  Ga  Ga25  1  0.250000  0.125000  0.875000  1
  Ga  Ga26  1  0.125000  0.750000  0.875000  1
  Ga  Ga27  1  0.875000  0.250000  0.125000  1
  Ga  Ga28  1  0.625000  0.375000  0.250000  1
  Ga  Ga29  1  0.375000  0.625000  0.750000  1
  Ga  Ga30  1  0.875000  0.125000  0.750000  1
  Ga  Ga31  1  0.125000  0.875000  0.250000  1
  O  O32  1  0.471726  0.376053  0.288981  1
  O  O33  1  0.528274  0.623947  0.711019  1
  O  O34  1  0.587072  0.182745  0.211019  1
  O  O35  1  0.912928  0.123947  0.595674  1
  O  O36  1  0.288981  0.471726  0.376053  1
  O  O37  1  0.317255  0.912928  0.288981  1
  O  O38  1  0.412928  0.817255  0.788981  1
  O  O39  1  0.087072  0.876053  0.404326  1
  O  O40  1  0.711019  0.528274  0.623947  1
  O  O41  1  0.682745  0.087072  0.711019  1
  O  O42  1  0.028274  0.317255  0.904326  1
  O  O43  1  0.211019  0.587072  0.182745  1
  O  O44  1  0.123947  0.028274  0.211019  1
  O  O45  1  0.971726  0.682745  0.095674  1
  O  O46  1  0.788981  0.412928  0.817255  1
  O  O47  1  0.876053  0.971726  0.788981  1
  O  O48  1  0.595674  0.912928  0.123947  1
  O  O49  1  0.182745  0.471726  0.595674  1
  O  O50  1  0.404326  0.087072  0.876053  1
  O  O51  1  0.817255  0.528274  0.404326  1
  O  O52  1  0.904326  0.028274  0.317255  1
  O  O53  1  0.376053  0.587072  0.904326  1
  O  O54  1  0.095674  0.971726  0.682745  1
  O  O55  1  0.623947  0.412928  0.095674  1
  O  O56  1  0.376053  0.288981  0.471726  1
  O  O57  1  0.587072  0.904326  0.376053  1
  O  O58  1  0.623947  0.711019  0.528274  1
  O  O59  1  0.412928  0.095674  0.623947  1
  O  O60  1  0.123947  0.595674  0.912928  1
  O  O61  1  0.028274  0.211019  0.123947  1
  O  O62  1  0.876053  0.404326  0.087072  1
  O  O63  1  0.971726  0.788981  0.876053  1
  O  O64  1  0.317255  0.904326  0.028274  1
  O  O65  1  0.912928  0.288981  0.317255  1
  O  O66  1  0.682745  0.095674  0.971726  1
  O  O67  1  0.087072  0.711019  0.682745  1
  O  O68  1  0.182745  0.211019  0.587072  1
  O  O69  1  0.471726  0.595674  0.182745  1
  O  O70  1  0.817255  0.788981  0.412928  1
  O  O71  1  0.528274  0.404326  0.817255  1
  O  O72  1  0.288981  0.317255  0.912928  1
  O  O73  1  0.711019  0.682745  0.087072  1
  O  O74  1  0.211019  0.123947  0.028274  1
  O  O75  1  0.788981  0.876053  0.971726  1
  O  O76  1  0.904326  0.376053  0.587072  1
  O  O77  1  0.095674  0.623947  0.412928  1
  O  O78  1  0.595674  0.182745  0.471726  1
  O  O79  1  0.404326  0.817255  0.528274  1
