# generated using pymatgen
data_Sr2TmUO6
_symmetry_space_group_name_H-M   'P 1'
_cell_length_a   6.03531353
_cell_length_b   6.03531223
_cell_length_c   6.03531221
_cell_angle_alpha   60.16426244
_cell_angle_beta   60.16424867
_cell_angle_gamma   60.16426664
_symmetry_Int_Tables_number   1
_chemical_formula_structural   Sr2TmUO6
_chemical_formula_sum   'Sr2 Tm1 U1 O6'
_cell_volume   156.02601868
_cell_formula_units_Z   1
loop_
 _symmetry_equiv_pos_site_id
 _symmetry_equiv_pos_as_xyz
  1  'x, y, z'
loop_
 _atom_site_type_symbol
 _atom_site_label
 _atom_site_symmetry_multiplicity
 _atom_site_fract_x
 _atom_site_fract_y
 _atom_site_fract_z
 _atom_site_occupancy
  Sr  Sr0  1  0.255361  0.255361  0.255361  1
  Sr  Sr1  1  0.744639  0.744639  0.744639  1
  Tm  Tm2  1  0.000000  0.000000  0.000000  1
  U  U3  1  0.500000  0.500000  0.500000  1
  O  O4  1  0.740477  0.339711  0.168884  1
  O  O5  1  0.660288  0.831116  0.259523  1
  O  O6  1  0.168883  0.740478  0.339711  1
  O  O7  1  0.831117  0.259522  0.660289  1
  O  O8  1  0.339711  0.168883  0.740477  1
  O  O9  1  0.259522  0.660289  0.831116  1
