# generated using pymatgen
data_La4Ag3Au10
_symmetry_space_group_name_H-M   'P 1'
_cell_length_a   8.76369600
_cell_length_b   8.76368616
_cell_length_c   10.34477600
_cell_angle_alpha   90.00035958
_cell_angle_beta   90.00044457
_cell_angle_gamma   109.24343279
_symmetry_Int_Tables_number   1
_chemical_formula_structural   La4Ag3Au10
_chemical_formula_sum   'La8 Ag6 Au20'
_cell_volume   750.11100817
_cell_formula_units_Z   2
loop_
 _symmetry_equiv_pos_site_id
 _symmetry_equiv_pos_as_xyz
  1  'x, y, z'
loop_
 _atom_site_type_symbol
 _atom_site_label
 _atom_site_symmetry_multiplicity
 _atom_site_fract_x
 _atom_site_fract_y
 _atom_site_fract_z
 _atom_site_occupancy
  La  La0  1  0.702081  0.297940  0.000013  1
  La  La1  1  0.202096  0.797869  0.500035  1
  La  La2  1  0.798662  0.798647  0.296312  1
  La  La3  1  0.298697  0.298732  0.203679  1
  La  La4  1  0.797904  0.202131  0.499965  1
  La  La5  1  0.297919  0.702060  0.999987  1
  La  La6  1  0.701303  0.701268  0.796321  1
  La  La7  1  0.201338  0.201353  0.703688  1
  Ag  Ag8  1  0.524157  0.024150  0.249983  1
  Ag  Ag9  1  0.975851  0.475850  0.750015  1
  Ag  Ag10  1  0.000000  0.000000  0.000000  1
  Ag  Ag11  1  0.024149  0.524150  0.249985  1
  Ag  Ag12  1  0.475843  0.975850  0.750017  1
  Ag  Ag13  1  0.500000  0.500000  0.500000  1
  Au  Au14  1  0.153922  0.432112  0.481701  1
  Au  Au15  1  0.903160  0.903171  0.593899  1
  Au  Au16  1  0.567888  0.846089  0.518295  1
  Au  Au17  1  0.891639  0.167489  0.207723  1
  Au  Au18  1  0.391646  0.667549  0.292257  1
  Au  Au19  1  0.667533  0.391643  0.292256  1
  Au  Au20  1  0.403142  0.403141  0.906132  1
  Au  Au21  1  0.932144  0.653945  0.018275  1
  Au  Au22  1  0.332467  0.608357  0.707744  1
  Au  Au23  1  0.346055  0.067861  0.981733  1
  Au  Au24  1  0.596858  0.596859  0.093868  1
  Au  Au25  1  0.653945  0.932139  0.018267  1
  Au  Au26  1  0.096840  0.096829  0.406101  1
  Au  Au27  1  0.608354  0.332451  0.707743  1
  Au  Au28  1  0.108361  0.832511  0.792277  1
  Au  Au29  1  0.067856  0.346055  0.981725  1
  Au  Au30  1  0.846078  0.567888  0.518299  1
  Au  Au31  1  0.167496  0.891638  0.207731  1
  Au  Au32  1  0.432112  0.153911  0.481705  1
  Au  Au33  1  0.832504  0.108362  0.792269  1
