# generated using pymatgen
data_Tb11Y(OsPd)2
_symmetry_space_group_name_H-M   'P 1'
_cell_length_a   6.43873045
_cell_length_b   7.30976853
_cell_length_c   9.32705215
_cell_angle_alpha   89.93438256
_cell_angle_beta   89.95838130
_cell_angle_gamma   90.54991506
_symmetry_Int_Tables_number   1
_chemical_formula_structural   Tb11Y(OsPd)2
_chemical_formula_sum   'Tb11 Y1 Os2 Pd2'
_cell_volume   438.96295203
_cell_formula_units_Z   1
loop_
 _symmetry_equiv_pos_site_id
 _symmetry_equiv_pos_as_xyz
  1  'x, y, z'
loop_
 _atom_site_type_symbol
 _atom_site_label
 _atom_site_symmetry_multiplicity
 _atom_site_fract_x
 _atom_site_fract_y
 _atom_site_fract_z
 _atom_site_occupancy
  Tb  Tb0  1  0.624651  0.043347  0.249881  1
  Tb  Tb1  1  0.375779  0.956962  0.749884  1
  Tb  Tb2  1  0.125865  0.475710  0.749807  1
  Tb  Tb3  1  0.874051  0.523902  0.249861  1
  Tb  Tb4  1  0.177864  0.184310  0.062271  1
  Tb  Tb5  1  0.822295  0.815728  0.937745  1
  Tb  Tb6  1  0.663250  0.325590  0.940542  1
  Tb  Tb7  1  0.822370  0.815632  0.562053  1
  Tb  Tb8  1  0.336638  0.674659  0.059246  1
  Tb  Tb9  1  0.177934  0.184172  0.438031  1
  Tb  Tb10  1  0.336683  0.674505  0.441206  1
  Y  Y11  1  0.662852  0.325024  0.558874  1
  Os  Os12  1  0.455926  0.385617  0.250023  1
  Os  Os13  1  0.543614  0.614994  0.750370  1
  Pd  Pd14  1  0.951473  0.113706  0.750123  1
  Pd  Pd15  1  0.048756  0.886146  0.250084  1
