# generated using pymatgen
data_Tb8Hf9Zr2Si16Os
_symmetry_space_group_name_H-M   'P 1'
_cell_length_a   7.27205414
_cell_length_b   7.26984596
_cell_length_c   13.30054171
_cell_angle_alpha   89.83324331
_cell_angle_beta   90.13923793
_cell_angle_gamma   90.01739806
_symmetry_Int_Tables_number   1
_chemical_formula_structural   Tb8Hf9Zr2Si16Os
_chemical_formula_sum   'Tb8 Hf9 Zr2 Si16 Os1'
_cell_volume   703.15084169
_cell_formula_units_Z   1
loop_
 _symmetry_equiv_pos_site_id
 _symmetry_equiv_pos_as_xyz
  1  'x, y, z'
loop_
 _atom_site_type_symbol
 _atom_site_label
 _atom_site_symmetry_multiplicity
 _atom_site_fract_x
 _atom_site_fract_y
 _atom_site_fract_z
 _atom_site_occupancy
  Tb  Tb0  1  0.998565  0.344224  0.211357  1
  Tb  Tb1  1  0.005645  0.654374  0.717376  1
  Tb  Tb2  1  0.155351  0.494748  0.465040  1
  Tb  Tb3  1  0.501781  0.846546  0.032553  1
  Tb  Tb4  1  0.846484  0.501628  0.967092  1
  Tb  Tb5  1  0.494893  0.155538  0.535239  1
  Tb  Tb6  1  0.343824  0.998638  0.788650  1
  Tb  Tb7  1  0.654194  0.005465  0.282696  1
  Hf  Hf8  1  0.675339  0.323921  0.752390  1
  Hf  Hf9  1  0.146539  0.997343  0.371726  1
  Hf  Hf10  1  0.853202  0.004470  0.878980  1
  Hf  Hf11  1  0.503230  0.647137  0.625789  1
  Hf  Hf12  1  0.351735  0.496049  0.876945  1
  Hf  Hf13  1  0.496601  0.352184  0.122600  1
  Hf  Hf14  1  0.646874  0.503117  0.374616  1
  Hf  Hf15  1  0.997770  0.146761  0.628341  1
  Hf  Hf16  1  0.004896  0.853239  0.120929  1
  Zr  Zr17  1  0.824473  0.824512  0.500249  1
  Zr  Zr18  1  0.323926  0.675357  0.247606  1
  Si  Si19  1  0.360563  0.294334  0.315171  1
  Si  Si20  1  0.639128  0.705035  0.818437  1
  Si  Si21  1  0.206470  0.861947  0.566967  1
  Si  Si22  1  0.136362  0.793458  0.930863  1
  Si  Si23  1  0.793811  0.136410  0.068917  1
  Si  Si24  1  0.861895  0.206399  0.433267  1
  Si  Si25  1  0.295814  0.360276  0.685017  1
  Si  Si26  1  0.706258  0.638889  0.181535  1
  Si  Si27  1  0.292175  0.055952  0.179617  1
  Si  Si28  1  0.704104  0.950717  0.687405  1
  Si  Si29  1  0.448247  0.796197  0.435692  1
  Si  Si30  1  0.206157  0.546888  0.063092  1
  Si  Si31  1  0.548034  0.206713  0.935794  1
  Si  Si32  1  0.795756  0.447840  0.565403  1
  Si  Si33  1  0.054538  0.292328  0.819993  1
  Si  Si34  1  0.949182  0.704366  0.312825  1
  Os  Os35  1  0.176187  0.177002  0.999831  1
