# generated using pymatgen
data_DyY7(Ge4Mo3)4
_symmetry_space_group_name_H-M   'P 1'
_cell_length_a   6.94961447
_cell_length_b   7.07142789
_cell_length_c   13.15535967
_cell_angle_alpha   89.99856511
_cell_angle_beta   90.00938524
_cell_angle_gamma   89.99886947
_symmetry_Int_Tables_number   1
_chemical_formula_structural   DyY7(Ge4Mo3)4
_chemical_formula_sum   'Dy1 Y7 Ge16 Mo12'
_cell_volume   646.50300835
_cell_formula_units_Z   1
loop_
 _symmetry_equiv_pos_site_id
 _symmetry_equiv_pos_as_xyz
  1  'x, y, z'
loop_
 _atom_site_type_symbol
 _atom_site_label
 _atom_site_symmetry_multiplicity
 _atom_site_fract_x
 _atom_site_fract_y
 _atom_site_fract_z
 _atom_site_occupancy
  Dy  Dy0  1  0.990314  0.169319  0.092529  1
  Y  Y1  1  0.490594  0.330795  0.092447  1
  Y  Y2  1  0.990700  0.169343  0.407635  1
  Y  Y3  1  0.509410  0.669207  0.592420  1
  Y  Y4  1  0.009421  0.830850  0.907655  1
  Y  Y5  1  0.509296  0.669256  0.907593  1
  Y  Y6  1  0.009293  0.830627  0.592394  1
  Y  Y7  1  0.490581  0.330725  0.407550  1
  Ge  Ge8  1  0.668292  0.046430  0.548483  1
  Ge  Ge9  1  0.168322  0.453527  0.951714  1
  Ge  Ge10  1  0.331193  0.954005  0.048455  1
  Ge  Ge11  1  0.831660  0.546215  0.451478  1
  Ge  Ge12  1  0.331678  0.953687  0.451572  1
  Ge  Ge13  1  0.831655  0.546060  0.048462  1
  Ge  Ge14  1  0.668528  0.046364  0.951690  1
  Ge  Ge15  1  0.168350  0.453616  0.548555  1
  Ge  Ge16  1  0.530122  0.366151  0.749910  1
  Ge  Ge17  1  0.030032  0.133804  0.749870  1
  Ge  Ge18  1  0.469939  0.633810  0.249940  1
  Ge  Ge19  1  0.970087  0.866457  0.249897  1
  Ge  Ge20  1  0.810196  0.642319  0.750075  1
  Ge  Ge21  1  0.310143  0.857533  0.749995  1
  Ge  Ge22  1  0.189690  0.357395  0.249829  1
  Ge  Ge23  1  0.689993  0.142588  0.249956  1
  Mo  Mo24  1  0.830204  0.343706  0.627029  1
  Mo  Mo25  1  0.330287  0.156486  0.872942  1
  Mo  Mo26  1  0.169731  0.656475  0.127016  1
  Mo  Mo27  1  0.669882  0.843755  0.373023  1
  Mo  Mo28  1  0.169811  0.656319  0.372961  1
  Mo  Mo29  1  0.669920  0.843789  0.126997  1
  Mo  Mo30  1  0.830423  0.343344  0.873026  1
  Mo  Mo31  1  0.330127  0.156151  0.626984  1
  Mo  Mo32  1  0.665919  0.005358  0.750042  1
  Mo  Mo33  1  0.165996  0.494539  0.750077  1
  Mo  Mo34  1  0.334092  0.994697  0.249937  1
  Mo  Mo35  1  0.834113  0.505292  0.249865  1
