# generated using pymatgen
data_Ti8SiB4Mo2P
_symmetry_space_group_name_H-M   'P 1'
_cell_length_a   7.13058838
_cell_length_b   7.13058891
_cell_length_c   7.13045250
_cell_angle_alpha   129.66450917
_cell_angle_beta   129.66451717
_cell_angle_gamma   73.94180070
_symmetry_Int_Tables_number   1
_chemical_formula_structural   Ti8SiB4Mo2P
_chemical_formula_sum   'Ti8 Si1 B4 Mo2 P1'
_cell_volume   209.54230601
_cell_formula_units_Z   1
loop_
 _symmetry_equiv_pos_site_id
 _symmetry_equiv_pos_as_xyz
  1  'x, y, z'
loop_
 _atom_site_type_symbol
 _atom_site_label
 _atom_site_symmetry_multiplicity
 _atom_site_fract_x
 _atom_site_fract_y
 _atom_site_fract_z
 _atom_site_occupancy
  Ti  Ti0  1  0.806130  0.955441  0.495267  1
  Ti  Ti1  1  0.310851  0.806101  0.850653  1
  Ti  Ti2  1  0.189122  0.039808  0.495232  1
  Ti  Ti3  1  0.544559  0.693870  0.504733  1
  Ti  Ti4  1  0.039835  0.544578  0.850703  1
  Ti  Ti5  1  0.693899  0.189149  0.149347  1
  Ti  Ti6  1  0.955422  0.460165  0.149297  1
  Ti  Ti7  1  0.460192  0.310878  0.504768  1
  Si  Si8  1  0.249973  0.250027  0.000000  1
  B  B9  1  0.391347  0.891348  0.282704  1
  B  B10  1  0.891361  0.608639  0.500000  1
  B  B11  1  0.608652  0.108653  0.717296  1
  B  B12  1  0.108639  0.391361  0.500000  1
  Mo  Mo13  1  0.001134  0.001133  0.000002  1
  Mo  Mo14  1  0.498867  0.498866  0.999998  1
  P  P15  1  0.750016  0.749984  0.000000  1
