# generated using pymatgen
data_Pr3Er6ThGa8
_symmetry_space_group_name_H-M   'P 1'
_cell_length_a   7.63170822
_cell_length_b   7.88980300
_cell_length_c   15.07144400
_cell_angle_alpha   90.00000000
_cell_angle_beta   89.98615599
_cell_angle_gamma   90.00000000
_symmetry_Int_Tables_number   1
_chemical_formula_structural   Pr3Er6ThGa8
_chemical_formula_sum   'Pr6 Er12 Th2 Ga16'
_cell_volume   907.49192429
_cell_formula_units_Z   2
loop_
 _symmetry_equiv_pos_site_id
 _symmetry_equiv_pos_as_xyz
  1  'x, y, z'
loop_
 _atom_site_type_symbol
 _atom_site_label
 _atom_site_symmetry_multiplicity
 _atom_site_fract_x
 _atom_site_fract_y
 _atom_site_fract_z
 _atom_site_occupancy
  Pr  Pr0  1  0.485164  0.677715  0.905135  1
  Pr  Pr1  1  0.486237  0.678060  0.594670  1
  Pr  Pr2  1  0.986237  0.821940  0.594670  1
  Pr  Pr3  1  0.985164  0.822285  0.905135  1
  Pr  Pr4  1  0.513929  0.323604  0.094303  1
  Pr  Pr5  1  0.013929  0.176396  0.094303  1
  Er  Er6  1  0.328306  0.173837  0.622603  1
  Er  Er7  1  0.671243  0.826391  0.377945  1
  Er  Er8  1  0.663957  0.991404  0.750296  1
  Er  Er9  1  0.171243  0.673609  0.377945  1
  Er  Er10  1  0.827579  0.326312  0.876789  1
  Er  Er11  1  0.828306  0.326163  0.622603  1
  Er  Er12  1  0.836376  0.494637  0.248791  1
  Er  Er13  1  0.336376  0.005363  0.248791  1
  Er  Er14  1  0.327579  0.173688  0.876789  1
  Er  Er15  1  0.172628  0.672777  0.123005  1
  Er  Er16  1  0.672628  0.827223  0.123005  1
  Er  Er17  1  0.163957  0.508596  0.750296  1
  Th  Th18  1  0.016474  0.180481  0.403897  1
  Th  Th19  1  0.516474  0.319519  0.403897  1
  Ga  Ga20  1  0.278990  0.876957  0.749369  1
  Ga  Ga21  1  0.466836  0.610966  0.251889  1
  Ga  Ga22  1  0.033167  0.112886  0.749634  1
  Ga  Ga23  1  0.533167  0.387114  0.749634  1
  Ga  Ga24  1  0.156108  0.462384  0.538774  1
  Ga  Ga25  1  0.966836  0.889034  0.251889  1
  Ga  Ga26  1  0.719779  0.125704  0.253530  1
  Ga  Ga27  1  0.845271  0.534153  0.040511  1
  Ga  Ga28  1  0.345271  0.965847  0.040511  1
  Ga  Ga29  1  0.154977  0.465016  0.960507  1
  Ga  Ga30  1  0.656108  0.037616  0.538774  1
  Ga  Ga31  1  0.342976  0.970258  0.458352  1
  Ga  Ga32  1  0.842976  0.529742  0.458352  1
  Ga  Ga33  1  0.778990  0.623043  0.749369  1
  Ga  Ga34  1  0.219779  0.374296  0.253530  1
  Ga  Ga35  1  0.654977  0.034984  0.960507  1
