# generated using pymatgen
data_SmI9
_symmetry_space_group_name_H-M   'P 1'
_cell_length_a   10.55256747
_cell_length_b   10.55256903
_cell_length_c   10.55257058
_cell_angle_alpha   88.69555255
_cell_angle_beta   88.69555384
_cell_angle_gamma   88.69557061
_symmetry_Int_Tables_number   1
_chemical_formula_structural   SmI9
_chemical_formula_sum   'Sm2 I18'
_cell_volume   1174.19944845
_cell_formula_units_Z   2
loop_
 _symmetry_equiv_pos_site_id
 _symmetry_equiv_pos_as_xyz
  1  'x, y, z'
loop_
 _atom_site_type_symbol
 _atom_site_label
 _atom_site_symmetry_multiplicity
 _atom_site_fract_x
 _atom_site_fract_y
 _atom_site_fract_z
 _atom_site_occupancy
  Sm  Sm0  1  0.000000  0.000000  0.000000  1
  Sm  Sm1  1  0.500000  0.500000  0.500000  1
  I  I2  1  0.749638  0.128945  0.603619  1
  I  I3  1  0.993773  0.040806  0.707689  1
  I  I4  1  0.603619  0.749638  0.128945  1
  I  I5  1  0.959194  0.292311  0.006227  1
  I  I6  1  0.707689  0.993773  0.040806  1
  I  I7  1  0.040806  0.707689  0.993773  1
  I  I8  1  0.006227  0.959194  0.292311  1
  I  I9  1  0.871055  0.396381  0.250362  1
  I  I10  1  0.292311  0.006227  0.959194  1
  I  I11  1  0.250362  0.871055  0.396381  1
  I  I12  1  0.128945  0.603619  0.749638  1
  I  I13  1  0.396381  0.250362  0.871055  1
  I  I14  1  0.793357  0.524638  0.485585  1
  I  I15  1  0.524638  0.485585  0.793357  1
  I  I16  1  0.206643  0.475362  0.514415  1
  I  I17  1  0.475362  0.514415  0.206643  1
  I  I18  1  0.485585  0.793357  0.524638  1
  I  I19  1  0.514415  0.206643  0.475362  1
