# generated using pymatgen
data_La4Nd4Re3TcC8
_symmetry_space_group_name_H-M   'P 1'
_cell_length_a   5.41846500
_cell_length_b   6.75398266
_cell_length_c   10.28471707
_cell_angle_alpha   89.96823022
_cell_angle_beta   90.00000000
_cell_angle_gamma   90.00000000
_symmetry_Int_Tables_number   1
_chemical_formula_structural   La4Nd4Re3TcC8
_chemical_formula_sum   'La4 Nd4 Re3 Tc1 C8'
_cell_volume   376.38169646
_cell_formula_units_Z   1
loop_
 _symmetry_equiv_pos_site_id
 _symmetry_equiv_pos_as_xyz
  1  'x, y, z'
loop_
 _atom_site_type_symbol
 _atom_site_label
 _atom_site_symmetry_multiplicity
 _atom_site_fract_x
 _atom_site_fract_y
 _atom_site_fract_z
 _atom_site_occupancy
  La  La0  1  0.250000  0.473147  0.786810  1
  La  La1  1  0.750000  0.025882  0.286206  1
  La  La2  1  0.250000  0.973889  0.712822  1
  La  La3  1  0.750000  0.524875  0.212072  1
  Nd  Nd4  1  0.250000  0.815273  0.051227  1
  Nd  Nd5  1  0.750000  0.685984  0.551373  1
  Nd  Nd6  1  0.250000  0.313414  0.448092  1
  Nd  Nd7  1  0.750000  0.185808  0.948151  1
  Re  Re8  1  0.750000  0.231049  0.643268  1
  Re  Re9  1  0.250000  0.769438  0.356739  1
  Re  Re10  1  0.750000  0.730897  0.856393  1
  Tc  Tc11  1  0.250000  0.269116  0.143800  1
  C  C12  1  0.250000  0.686051  0.535727  1
  C  C13  1  0.750000  0.813786  0.035475  1
  C  C14  1  0.250000  0.186006  0.966001  1
  C  C15  1  0.750000  0.314068  0.464295  1
  C  C16  1  0.250000  0.032531  0.259187  1
  C  C17  1  0.750000  0.467126  0.758192  1
  C  C18  1  0.250000  0.534788  0.242732  1
  C  C19  1  0.750000  0.966872  0.741439  1
