# generated using pymatgen
data_Ho3Fe5(P3Ir2)2
_symmetry_space_group_name_H-M   'P 1'
_cell_length_a   3.81292500
_cell_length_b   10.87288500
_cell_length_c   12.34567700
_cell_angle_alpha   90.00000000
_cell_angle_beta   90.00000000
_cell_angle_gamma   90.00000000
_symmetry_Int_Tables_number   1
_chemical_formula_structural   Ho3Fe5(P3Ir2)2
_chemical_formula_sum   'Ho6 Fe10 P12 Ir8'
_cell_volume   511.82084298
_cell_formula_units_Z   2
loop_
 _symmetry_equiv_pos_site_id
 _symmetry_equiv_pos_as_xyz
  1  'x, y, z'
loop_
 _atom_site_type_symbol
 _atom_site_label
 _atom_site_symmetry_multiplicity
 _atom_site_fract_x
 _atom_site_fract_y
 _atom_site_fract_z
 _atom_site_occupancy
  Ho  Ho0  1  0.000000  0.500000  0.522379  1
  Ho  Ho1  1  0.500000  0.000000  0.477621  1
  Ho  Ho2  1  0.500000  0.818121  0.194814  1
  Ho  Ho3  1  0.500000  0.181879  0.194814  1
  Ho  Ho4  1  0.000000  0.681879  0.805186  1
  Ho  Ho5  1  0.000000  0.318121  0.805186  1
  Fe  Fe6  1  0.000000  0.500000  0.993261  1
  Fe  Fe7  1  0.500000  0.000000  0.006739  1
  Fe  Fe8  1  0.500000  0.881672  0.717783  1
  Fe  Fe9  1  0.500000  0.118328  0.717783  1
  Fe  Fe10  1  0.000000  0.618328  0.282217  1
  Fe  Fe11  1  0.000000  0.381672  0.282217  1
  Fe  Fe12  1  0.500000  0.332297  0.995010  1
  Fe  Fe13  1  0.500000  0.667703  0.995010  1
  Fe  Fe14  1  0.000000  0.167703  0.004990  1
  Fe  Fe15  1  0.000000  0.832297  0.004990  1
  P  P16  1  0.500000  0.303569  0.628299  1
  P  P17  1  0.500000  0.696431  0.628299  1
  P  P18  1  0.000000  0.196431  0.371701  1
  P  P19  1  0.000000  0.803569  0.371701  1
  P  P20  1  0.500000  0.500000  0.895001  1
  P  P21  1  0.000000  0.000000  0.104999  1
  P  P22  1  0.500000  0.840897  0.899949  1
  P  P23  1  0.500000  0.159103  0.899949  1
  P  P24  1  0.000000  0.659103  0.100051  1
  P  P25  1  0.000000  0.340897  0.100051  1
  P  P26  1  0.500000  0.500000  0.339045  1
  P  P27  1  0.000000  0.000000  0.660955  1
  Ir  Ir28  1  0.500000  0.300222  0.427005  1
  Ir  Ir29  1  0.500000  0.699778  0.427005  1
  Ir  Ir30  1  0.000000  0.199778  0.572995  1
  Ir  Ir31  1  0.000000  0.800222  0.572995  1
  Ir  Ir32  1  0.500000  0.500000  0.153491  1
  Ir  Ir33  1  0.000000  0.000000  0.846509  1
  Ir  Ir34  1  0.500000  0.500000  0.702500  1
  Ir  Ir35  1  0.000000  0.000000  0.297500  1
