# generated using pymatgen
data_Ho8Ti9Ge16Mo3
_symmetry_space_group_name_H-M   'P 1'
_cell_length_a   6.94533619
_cell_length_b   7.08920148
_cell_length_c   13.42218200
_cell_angle_alpha   90.00000000
_cell_angle_beta   90.00000000
_cell_angle_gamma   90.15728797
_symmetry_Int_Tables_number   1
_chemical_formula_structural   Ho8Ti9Ge16Mo3
_chemical_formula_sum   'Ho8 Ti9 Ge16 Mo3'
_cell_volume   660.86397654
_cell_formula_units_Z   1
loop_
 _symmetry_equiv_pos_site_id
 _symmetry_equiv_pos_as_xyz
  1  'x, y, z'
loop_
 _atom_site_type_symbol
 _atom_site_label
 _atom_site_symmetry_multiplicity
 _atom_site_fract_x
 _atom_site_fract_y
 _atom_site_fract_z
 _atom_site_occupancy
  Ho  Ho0  1  0.494473  0.676106  0.594902  1
  Ho  Ho1  1  0.997405  0.828083  0.904837  1
  Ho  Ho2  1  0.504685  0.324790  0.096212  1
  Ho  Ho3  1  0.004184  0.175055  0.403181  1
  Ho  Ho4  1  0.504685  0.324790  0.403788  1
  Ho  Ho5  1  0.004184  0.175055  0.096819  1
  Ho  Ho6  1  0.494473  0.676106  0.905098  1
  Ho  Ho7  1  0.997405  0.828083  0.595163  1
  Ti  Ti8  1  0.657054  0.166629  0.628111  1
  Ti  Ti9  1  0.163815  0.328388  0.872593  1
  Ti  Ti10  1  0.337969  0.830441  0.127940  1
  Ti  Ti11  1  0.839357  0.668117  0.372824  1
  Ti  Ti12  1  0.337969  0.830441  0.372060  1
  Ti  Ti13  1  0.839357  0.668117  0.127176  1
  Ti  Ti14  1  0.657054  0.166629  0.871889  1
  Ti  Ti15  1  0.163815  0.328388  0.627407  1
  Ti  Ti16  1  0.833722  0.489872  0.750000  1
  Ge  Ge17  1  0.674142  0.956700  0.456200  1
  Ge  Ge18  1  0.173387  0.541490  0.043095  1
  Ge  Ge19  1  0.327045  0.043579  0.957091  1
  Ge  Ge20  1  0.826895  0.458400  0.543640  1
  Ge  Ge21  1  0.327045  0.043579  0.542909  1
  Ge  Ge22  1  0.826895  0.458400  0.956360  1
  Ge  Ge23  1  0.674142  0.956700  0.043800  1
  Ge  Ge24  1  0.173387  0.541490  0.456905  1
  Ge  Ge25  1  0.462994  0.373509  0.750000  1
  Ge  Ge26  1  0.962243  0.128641  0.750000  1
  Ge  Ge27  1  0.537493  0.627362  0.250000  1
  Ge  Ge28  1  0.036696  0.873153  0.250000  1
  Ge  Ge29  1  0.693813  0.861952  0.750000  1
  Ge  Ge30  1  0.191644  0.636105  0.750000  1
  Ge  Ge31  1  0.307190  0.135654  0.250000  1
  Ge  Ge32  1  0.806462  0.364926  0.250000  1
  Mo  Mo33  1  0.335615  0.012109  0.750000  1
  Mo  Mo34  1  0.166207  0.513369  0.250000  1
  Mo  Mo35  1  0.665096  0.987796  0.250000  1
