# generated using pymatgen
data_Nb8FeIrS16
_symmetry_space_group_name_H-M   'P 1'
_cell_length_a   6.68010500
_cell_length_b   6.68010557
_cell_length_c   11.89905400
_cell_angle_alpha   90.00000000
_cell_angle_beta   90.00000000
_cell_angle_gamma   120.00000213
_symmetry_Int_Tables_number   1
_chemical_formula_structural   Nb8FeIrS16
_chemical_formula_sum   'Nb8 Fe1 Ir1 S16'
_cell_volume   459.84309841
_cell_formula_units_Z   1
loop_
 _symmetry_equiv_pos_site_id
 _symmetry_equiv_pos_as_xyz
  1  'x, y, z'
loop_
 _atom_site_type_symbol
 _atom_site_label
 _atom_site_symmetry_multiplicity
 _atom_site_fract_x
 _atom_site_fract_y
 _atom_site_fract_z
 _atom_site_occupancy
  Nb  Nb0  1  0.000000  0.000000  0.247148  1
  Nb  Nb1  1  0.000000  0.000000  0.752852  1
  Nb  Nb2  1  0.492530  0.985061  0.753217  1
  Nb  Nb3  1  0.014939  0.507470  0.753217  1
  Nb  Nb4  1  0.492530  0.507470  0.753217  1
  Nb  Nb5  1  0.507470  0.014939  0.246783  1
  Nb  Nb6  1  0.985061  0.492530  0.246783  1
  Nb  Nb7  1  0.507470  0.492530  0.246783  1
  Fe  Fe8  1  0.000000  0.000000  0.000000  1
  Ir  Ir9  1  0.000000  0.000000  0.500000  1
  S  S10  1  0.333333  0.666667  0.889696  1
  S  S11  1  0.666667  0.333333  0.110304  1
  S  S12  1  0.666667  0.333333  0.383549  1
  S  S13  1  0.333333  0.666667  0.616451  1
  S  S14  1  0.836371  0.672741  0.885054  1
  S  S15  1  0.327259  0.163629  0.885054  1
  S  S16  1  0.836371  0.163629  0.885054  1
  S  S17  1  0.163629  0.327259  0.114946  1
  S  S18  1  0.672741  0.836371  0.114946  1
  S  S19  1  0.163629  0.836371  0.114946  1
  S  S20  1  0.167330  0.334660  0.379333  1
  S  S21  1  0.665340  0.832670  0.379333  1
  S  S22  1  0.167330  0.832670  0.379333  1
  S  S23  1  0.832670  0.665340  0.620667  1
  S  S24  1  0.334660  0.167330  0.620667  1
  S  S25  1  0.832670  0.167330  0.620667  1
