# generated using pymatgen
data_Pr8Lu10Sc2Si15Se
_symmetry_space_group_name_H-M   'P 1'
_cell_length_a   7.40973590
_cell_length_b   7.74962432
_cell_length_c   14.51068900
_cell_angle_alpha   90.00000000
_cell_angle_beta   90.00000000
_cell_angle_gamma   90.86908323
_symmetry_Int_Tables_number   1
_chemical_formula_structural   Pr8Lu10Sc2Si15Se
_chemical_formula_sum   'Pr8 Lu10 Sc2 Si15 Se1'
_cell_volume   833.14664412
_cell_formula_units_Z   1
loop_
 _symmetry_equiv_pos_site_id
 _symmetry_equiv_pos_as_xyz
  1  'x, y, z'
loop_
 _atom_site_type_symbol
 _atom_site_label
 _atom_site_symmetry_multiplicity
 _atom_site_fract_x
 _atom_site_fract_y
 _atom_site_fract_z
 _atom_site_occupancy
  Pr  Pr0  1  0.016234  0.177354  0.403348  1
  Pr  Pr1  1  0.515161  0.323668  0.403605  1
  Pr  Pr2  1  0.492423  0.667255  0.905288  1
  Pr  Pr3  1  0.492423  0.667255  0.594712  1
  Pr  Pr4  1  0.987283  0.826528  0.601562  1
  Pr  Pr5  1  0.987283  0.826528  0.898438  1
  Pr  Pr6  1  0.515161  0.323668  0.096395  1
  Pr  Pr7  1  0.016234  0.177354  0.096652  1
  Lu  Lu8  1  0.320364  0.175451  0.627004  1
  Lu  Lu9  1  0.675500  0.825454  0.376151  1
  Lu  Lu10  1  0.175587  0.677244  0.377415  1
  Lu  Lu11  1  0.818144  0.327155  0.876267  1
  Lu  Lu12  1  0.818144  0.327155  0.623733  1
  Lu  Lu13  1  0.841507  0.492609  0.250000  1
  Lu  Lu14  1  0.342551  0.008202  0.250000  1
  Lu  Lu15  1  0.320364  0.175451  0.872996  1
  Lu  Lu16  1  0.175587  0.677244  0.122585  1
  Lu  Lu17  1  0.675500  0.825454  0.123849  1
  Sc  Sc18  1  0.665059  0.991686  0.750000  1
  Sc  Sc19  1  0.151003  0.495228  0.750000  1
  Si  Si20  1  0.468586  0.616787  0.250000  1
  Si  Si21  1  0.009021  0.139845  0.750000  1
  Si  Si22  1  0.521323  0.383978  0.750000  1
  Si  Si23  1  0.149388  0.468668  0.543253  1
  Si  Si24  1  0.972097  0.881546  0.250000  1
  Si  Si25  1  0.719084  0.122892  0.250000  1
  Si  Si26  1  0.849387  0.536975  0.039018  1
  Si  Si27  1  0.350945  0.966368  0.036757  1
  Si  Si28  1  0.149388  0.468668  0.956747  1
  Si  Si29  1  0.647418  0.030113  0.543590  1
  Si  Si30  1  0.350945  0.966368  0.463243  1
  Si  Si31  1  0.849387  0.536975  0.460982  1
  Si  Si32  1  0.786070  0.626763  0.750000  1
  Si  Si33  1  0.220143  0.379534  0.250000  1
  Si  Si34  1  0.647418  0.030113  0.956410  1
  Se  Se35  1  0.307888  0.856467  0.750000  1
