# generated using pymatgen
data_LaYb7(Sc3Pt4)4
_symmetry_space_group_name_H-M   'P 1'
_cell_length_a   7.30931127
_cell_length_b   7.37228644
_cell_length_c   14.01687902
_cell_angle_alpha   90.03541267
_cell_angle_beta   89.97438114
_cell_angle_gamma   89.98273908
_symmetry_Int_Tables_number   1
_chemical_formula_structural   LaYb7(Sc3Pt4)4
_chemical_formula_sum   'La1 Yb7 Sc12 Pt16'
_cell_volume   755.31800260
_cell_formula_units_Z   1
loop_
 _symmetry_equiv_pos_site_id
 _symmetry_equiv_pos_as_xyz
  1  'x, y, z'
loop_
 _atom_site_type_symbol
 _atom_site_label
 _atom_site_symmetry_multiplicity
 _atom_site_fract_x
 _atom_site_fract_y
 _atom_site_fract_z
 _atom_site_occupancy
  La  La0  1  0.487700  0.674216  0.593210  1
  Yb  Yb1  1  0.987516  0.825050  0.907735  1
  Yb  Yb2  1  0.512952  0.324932  0.093602  1
  Yb  Yb3  1  0.013416  0.174774  0.405310  1
  Yb  Yb4  1  0.513003  0.322390  0.404511  1
  Yb  Yb5  1  0.012553  0.175454  0.093720  1
  Yb  Yb6  1  0.487019  0.674681  0.906369  1
  Yb  Yb7  1  0.987958  0.825947  0.593775  1
  Sc  Sc8  1  0.648326  0.167106  0.625046  1
  Sc  Sc9  1  0.146641  0.333776  0.875624  1
  Sc  Sc10  1  0.352432  0.833239  0.124473  1
  Sc  Sc11  1  0.853254  0.666074  0.374401  1
  Sc  Sc12  1  0.350139  0.836442  0.372001  1
  Sc  Sc13  1  0.852457  0.665652  0.125042  1
  Sc  Sc14  1  0.648115  0.167352  0.876600  1
  Sc  Sc15  1  0.143534  0.331238  0.626491  1
  Sc  Sc16  1  0.812340  0.504490  0.752529  1
  Sc  Sc17  1  0.308013  0.997310  0.752236  1
  Sc  Sc18  1  0.190709  0.493779  0.249118  1
  Sc  Sc19  1  0.690250  0.004743  0.248585  1
  Pt  Pt20  1  0.676398  0.957673  0.452502  1
  Pt  Pt21  1  0.176237  0.543196  0.047033  1
  Pt  Pt22  1  0.324488  0.043178  0.952874  1
  Pt  Pt23  1  0.824561  0.456501  0.545533  1
  Pt  Pt24  1  0.322972  0.045580  0.546191  1
  Pt  Pt25  1  0.823559  0.457131  0.953160  1
  Pt  Pt26  1  0.676103  0.957129  0.046932  1
  Pt  Pt27  1  0.177772  0.542279  0.453487  1
  Pt  Pt28  1  0.445836  0.368155  0.750901  1
  Pt  Pt29  1  0.945101  0.128110  0.750771  1
  Pt  Pt30  1  0.553911  0.628908  0.250043  1
  Pt  Pt31  1  0.053111  0.871211  0.249406  1
  Pt  Pt32  1  0.671722  0.866601  0.750730  1
  Pt  Pt33  1  0.168319  0.635557  0.750500  1
  Pt  Pt34  1  0.330648  0.134180  0.249393  1
  Pt  Pt35  1  0.830935  0.365965  0.250164  1
