# generated using pymatgen
data_Ac3Cd3AgIrAu
_symmetry_space_group_name_H-M   'P 1'
_cell_length_a   8.28044100
_cell_length_b   8.28043952
_cell_length_c   4.10430400
_cell_angle_alpha   90.00000000
_cell_angle_beta   90.00000000
_cell_angle_gamma   119.99999284
_symmetry_Int_Tables_number   1
_chemical_formula_structural   Ac3Cd3AgIrAu
_chemical_formula_sum   'Ac3 Cd3 Ag1 Ir1 Au1'
_cell_volume   243.71207124
_cell_formula_units_Z   1
loop_
 _symmetry_equiv_pos_site_id
 _symmetry_equiv_pos_as_xyz
  1  'x, y, z'
loop_
 _atom_site_type_symbol
 _atom_site_label
 _atom_site_symmetry_multiplicity
 _atom_site_fract_x
 _atom_site_fract_y
 _atom_site_fract_z
 _atom_site_occupancy
  Ac  Ac0  1  0.575576  0.979299  0.000000  1
  Ac  Ac1  1  0.020701  0.596277  0.000000  1
  Ac  Ac2  1  0.403723  0.424424  0.000000  1
  Cd  Cd3  1  0.253596  0.001472  0.500000  1
  Cd  Cd4  1  0.998528  0.252124  0.500000  1
  Cd  Cd5  1  0.747876  0.746404  0.500000  1
  Ag  Ag6  1  0.000000  0.000000  0.000000  1
  Ir  Ir7  1  0.333333  0.666667  0.500000  1
  Au  Au8  1  0.666667  0.333333  0.500000  1
