# generated using pymatgen
data_CaPuF6
_symmetry_space_group_name_H-M   'P 1'
_cell_length_a   6.27447770
_cell_length_b   6.27447791
_cell_length_c   6.27447800
_cell_angle_alpha   59.99999953
_cell_angle_beta   59.99999843
_cell_angle_gamma   60.00000614
_symmetry_Int_Tables_number   1
_chemical_formula_structural   CaPuF6
_chemical_formula_sum   'Ca1 Pu1 F6'
_cell_volume   174.66978732
_cell_formula_units_Z   1
loop_
 _symmetry_equiv_pos_site_id
 _symmetry_equiv_pos_as_xyz
  1  'x, y, z'
loop_
 _atom_site_type_symbol
 _atom_site_label
 _atom_site_symmetry_multiplicity
 _atom_site_fract_x
 _atom_site_fract_y
 _atom_site_fract_z
 _atom_site_occupancy
  Ca  Ca0  1  0.500000  0.500000  0.500000  1
  Pu  Pu1  1  0.000000  0.000000  0.000000  1
  F  F2  1  0.756736  0.243264  0.756736  1
  F  F3  1  0.243264  0.243264  0.756736  1
  F  F4  1  0.243264  0.756736  0.243264  1
  F  F5  1  0.243264  0.756736  0.756736  1
  F  F6  1  0.756736  0.243264  0.243264  1
  F  F7  1  0.756736  0.756736  0.243264  1
