# generated using pymatgen
data_Zr4Mn2B4IrRu9
_symmetry_space_group_name_H-M   'P 1'
_cell_length_a   9.36960617
_cell_length_b   9.39508916
_cell_length_c   3.07574100
_cell_angle_alpha   90.00000000
_cell_angle_beta   90.00000000
_cell_angle_gamma   90.07789196
_symmetry_Int_Tables_number   1
_chemical_formula_structural   Zr4Mn2B4IrRu9
_chemical_formula_sum   'Zr4 Mn2 B4 Ir1 Ru9'
_cell_volume   270.75195639
_cell_formula_units_Z   1
loop_
 _symmetry_equiv_pos_site_id
 _symmetry_equiv_pos_as_xyz
  1  'x, y, z'
loop_
 _atom_site_type_symbol
 _atom_site_label
 _atom_site_symmetry_multiplicity
 _atom_site_fract_x
 _atom_site_fract_y
 _atom_site_fract_z
 _atom_site_occupancy
  Zr  Zr0  1  0.677566  0.177186  0.000000  1
  Zr  Zr1  1  0.325353  0.819254  0.000000  1
  Zr  Zr2  1  0.176649  0.327413  0.000000  1
  Zr  Zr3  1  0.822774  0.676936  0.000000  1
  Mn  Mn4  1  0.996008  0.998461  0.000000  1
  Mn  Mn5  1  0.500696  0.499921  0.000000  1
  B  B6  1  0.123278  0.623904  0.000000  1
  B  B7  1  0.876459  0.376539  0.000000  1
  B  B8  1  0.622747  0.875396  0.000000  1
  B  B9  1  0.379439  0.124831  0.000000  1
  Ir  Ir10  1  0.213577  0.069908  0.500000  1
  Ru  Ru11  1  0.784891  0.930002  0.500000  1
  Ru  Ru12  1  0.071263  0.786198  0.500000  1
  Ru  Ru13  1  0.714302  0.428906  0.500000  1
  Ru  Ru14  1  0.931170  0.214884  0.500000  1
  Ru  Ru15  1  0.285765  0.570224  0.500000  1
  Ru  Ru16  1  0.570521  0.713976  0.500000  1
  Ru  Ru17  1  0.428616  0.285228  0.500000  1
  Ru  Ru18  1  0.499398  0.999699  0.500000  1
  Ru  Ru19  1  0.999527  0.501134  0.500000  1
