# generated using pymatgen
data_Tb3DyHoCoSb2
_symmetry_space_group_name_H-M   'P 1'
_cell_length_a   7.92994300
_cell_length_b   8.78330700
_cell_length_c   12.25901700
_cell_angle_alpha   90.00000000
_cell_angle_beta   90.00000000
_cell_angle_gamma   90.00000000
_symmetry_Int_Tables_number   1
_chemical_formula_structural   Tb3DyHoCoSb2
_chemical_formula_sum   'Tb12 Dy4 Ho4 Co4 Sb8'
_cell_volume   853.85431149
_cell_formula_units_Z   4
loop_
 _symmetry_equiv_pos_site_id
 _symmetry_equiv_pos_as_xyz
  1  'x, y, z'
loop_
 _atom_site_type_symbol
 _atom_site_label
 _atom_site_symmetry_multiplicity
 _atom_site_fract_x
 _atom_site_fract_y
 _atom_site_fract_z
 _atom_site_occupancy
  Tb  Tb0  1  0.153768  0.749902  0.202943  1
  Tb  Tb1  1  0.653768  0.250098  0.297057  1
  Tb  Tb2  1  0.846232  0.249902  0.797057  1
  Tb  Tb3  1  0.346232  0.750098  0.702943  1
  Tb  Tb4  1  0.454523  0.750062  0.997821  1
  Tb  Tb5  1  0.954523  0.249938  0.502179  1
  Tb  Tb6  1  0.545477  0.250062  0.002179  1
  Tb  Tb7  1  0.045477  0.749938  0.497821  1
  Tb  Tb8  1  0.622358  0.750084  0.306816  1
  Tb  Tb9  1  0.122358  0.249916  0.193184  1
  Tb  Tb10  1  0.377642  0.250084  0.693184  1
  Tb  Tb11  1  0.877642  0.749916  0.806816  1
  Dy  Dy12  1  0.821322  0.964899  0.065160  1
  Dy  Dy13  1  0.321322  0.035101  0.434840  1
  Dy  Dy14  1  0.178678  0.464899  0.934840  1
  Dy  Dy15  1  0.678678  0.535101  0.565160  1
  Ho  Ho16  1  0.177939  0.035183  0.934797  1
  Ho  Ho17  1  0.677939  0.964817  0.565203  1
  Ho  Ho18  1  0.822061  0.535183  0.065203  1
  Ho  Ho19  1  0.322061  0.464817  0.434797  1
  Co  Co20  1  0.435651  0.750077  0.490952  1
  Co  Co21  1  0.935651  0.249923  0.009048  1
  Co  Co22  1  0.564349  0.250077  0.509048  1
  Co  Co23  1  0.064349  0.749923  0.990952  1
  Sb  Sb24  1  0.928430  0.992066  0.326907  1
  Sb  Sb25  1  0.428430  0.007934  0.173093  1
  Sb  Sb26  1  0.071570  0.492066  0.673093  1
  Sb  Sb27  1  0.571570  0.507934  0.826907  1
  Sb  Sb28  1  0.071371  0.007913  0.673219  1
  Sb  Sb29  1  0.571371  0.992087  0.826781  1
  Sb  Sb30  1  0.928629  0.507913  0.326781  1
  Sb  Sb31  1  0.428629  0.492087  0.173219  1
