# generated using pymatgen
data_PrY3(B2Ir5)2
_symmetry_space_group_name_H-M   'P 1'
_cell_length_a   11.06752080
_cell_length_b   11.06752031
_cell_length_c   11.06752103
_cell_angle_alpha   28.78319810
_cell_angle_beta   28.78320349
_cell_angle_gamma   28.78320492
_symmetry_Int_Tables_number   1
_chemical_formula_structural   PrY3(B2Ir5)2
_chemical_formula_sum   'Pr1 Y3 B4 Ir10'
_cell_volume   277.90483933
_cell_formula_units_Z   1
loop_
 _symmetry_equiv_pos_site_id
 _symmetry_equiv_pos_as_xyz
  1  'x, y, z'
loop_
 _atom_site_type_symbol
 _atom_site_label
 _atom_site_symmetry_multiplicity
 _atom_site_fract_x
 _atom_site_fract_y
 _atom_site_fract_z
 _atom_site_occupancy
  Pr  Pr0  1  0.151442  0.151442  0.151442  1
  Y  Y1  1  0.950433  0.950433  0.950433  1
  Y  Y2  1  0.848470  0.848470  0.848470  1
  Y  Y3  1  0.049479  0.049479  0.049479  1
  B  B4  1  0.618012  0.618012  0.618012  1
  B  B5  1  0.716063  0.716063  0.716063  1
  B  B6  1  0.382051  0.382051  0.382051  1
  B  B7  1  0.283733  0.283733  0.283733  1
  Ir  Ir8  1  0.407882  0.898609  0.407882  1
  Ir  Ir9  1  0.898609  0.407882  0.407882  1
  Ir  Ir10  1  0.499953  0.499953  0.000169  1
  Ir  Ir11  1  0.499953  0.000169  0.499953  1
  Ir  Ir12  1  0.000169  0.499953  0.499953  1
  Ir  Ir13  1  0.500160  0.500160  0.500160  1
  Ir  Ir14  1  0.592742  0.100223  0.592742  1
  Ir  Ir15  1  0.592742  0.592742  0.100223  1
  Ir  Ir16  1  0.100223  0.592742  0.592742  1
  Ir  Ir17  1  0.407882  0.407882  0.898609  1
