# generated using pymatgen
data_Sc3CuSi2Tc2As
_symmetry_space_group_name_H-M   'P 1'
_cell_length_a   6.86652021
_cell_length_b   6.92112272
_cell_length_c   3.52518500
_cell_angle_alpha   90.00000000
_cell_angle_beta   90.00000000
_cell_angle_gamma   120.57895065
_symmetry_Int_Tables_number   1
_chemical_formula_structural   Sc3CuSi2Tc2As
_chemical_formula_sum   'Sc3 Cu1 Si2 Tc2 As1'
_cell_volume   144.23228819
_cell_formula_units_Z   1
loop_
 _symmetry_equiv_pos_site_id
 _symmetry_equiv_pos_as_xyz
  1  'x, y, z'
loop_
 _atom_site_type_symbol
 _atom_site_label
 _atom_site_symmetry_multiplicity
 _atom_site_fract_x
 _atom_site_fract_y
 _atom_site_fract_z
 _atom_site_occupancy
  Sc  Sc0  1  0.399578  0.399595  0.500000  1
  Sc  Sc1  1  0.594980  0.004033  0.500000  1
  Sc  Sc2  1  0.006907  0.596818  0.500000  1
  Cu  Cu3  1  0.749722  0.759926  0.000000  1
  Si  Si4  1  0.333142  0.665056  0.000000  1
  Si  Si5  1  0.997629  0.996047  0.500000  1
  Tc  Tc6  1  0.004170  0.250900  0.000000  1
  Tc  Tc7  1  0.247122  0.993489  0.000000  1
  As  As8  1  0.666752  0.334138  0.000000  1
