# generated using pymatgen
data_InSn3BRh6
_symmetry_space_group_name_H-M   'P 1'
_cell_length_a   5.69897600
_cell_length_b   5.69897601
_cell_length_c   13.77227000
_cell_angle_alpha   90.00000000
_cell_angle_beta   90.00000000
_cell_angle_gamma   119.99999996
_symmetry_Int_Tables_number   1
_chemical_formula_structural   InSn3BRh6
_chemical_formula_sum   'In2 Sn6 B2 Rh12'
_cell_volume   387.37341905
_cell_formula_units_Z   2
loop_
 _symmetry_equiv_pos_site_id
 _symmetry_equiv_pos_as_xyz
  1  'x, y, z'
loop_
 _atom_site_type_symbol
 _atom_site_label
 _atom_site_symmetry_multiplicity
 _atom_site_fract_x
 _atom_site_fract_y
 _atom_site_fract_z
 _atom_site_occupancy
  In  In0  1  0.333333  0.666667  0.418528  1
  In  In1  1  0.666667  0.333333  0.918528  1
  Sn  Sn2  1  0.000000  0.000000  0.750651  1
  Sn  Sn3  1  0.000000  0.000000  0.250651  1
  Sn  Sn4  1  0.333333  0.666667  0.751435  1
  Sn  Sn5  1  0.666667  0.333333  0.251435  1
  Sn  Sn6  1  0.666667  0.333333  0.574559  1
  Sn  Sn7  1  0.333333  0.666667  0.074559  1
  B  B8  1  0.000000  0.000000  0.500140  1
  B  B9  1  0.000000  0.000000  0.000140  1
  Rh  Rh10  1  0.336498  0.168250  0.407851  1
  Rh  Rh11  1  0.831750  0.168250  0.407851  1
  Rh  Rh12  1  0.831750  0.663502  0.407851  1
  Rh  Rh13  1  0.168250  0.336498  0.907851  1
  Rh  Rh14  1  0.663168  0.831584  0.593711  1
  Rh  Rh15  1  0.663502  0.831750  0.907851  1
  Rh  Rh16  1  0.336832  0.168416  0.093711  1
  Rh  Rh17  1  0.168416  0.336832  0.593711  1
  Rh  Rh18  1  0.168416  0.831584  0.593711  1
  Rh  Rh19  1  0.831584  0.168416  0.093711  1
  Rh  Rh20  1  0.831584  0.663168  0.093711  1
  Rh  Rh21  1  0.168250  0.831750  0.907851  1
