# generated using pymatgen
data_Ho3Tm(ZnNi)4
_symmetry_space_group_name_H-M   'P 1'
_cell_length_a   3.87086200
_cell_length_b   6.78403476
_cell_length_c   7.93440730
_cell_angle_alpha   90.03579362
_cell_angle_beta   90.00000000
_cell_angle_gamma   90.00000000
_symmetry_Int_Tables_number   1
_chemical_formula_structural   Ho3Tm(ZnNi)4
_chemical_formula_sum   'Ho3 Tm1 Zn4 Ni4'
_cell_volume   208.35798976
_cell_formula_units_Z   1
loop_
 _symmetry_equiv_pos_site_id
 _symmetry_equiv_pos_as_xyz
  1  'x, y, z'
loop_
 _atom_site_type_symbol
 _atom_site_label
 _atom_site_symmetry_multiplicity
 _atom_site_fract_x
 _atom_site_fract_y
 _atom_site_fract_z
 _atom_site_occupancy
  Ho  Ho0  1  0.750000  0.457223  0.184473  1
  Ho  Ho1  1  0.750000  0.957490  0.316479  1
  Ho  Ho2  1  0.250000  0.542731  0.815302  1
  Tm  Tm3  1  0.250000  0.042862  0.684374  1
  Zn  Zn4  1  0.750000  0.862709  0.938545  1
  Zn  Zn5  1  0.750000  0.360667  0.561333  1
  Zn  Zn6  1  0.250000  0.137984  0.060084  1
  Zn  Zn7  1  0.250000  0.638254  0.439427  1
  Ni  Ni8  1  0.750000  0.242811  0.873159  1
  Ni  Ni9  1  0.750000  0.746563  0.625834  1
  Ni  Ni10  1  0.250000  0.756024  0.125143  1
  Ni  Ni11  1  0.250000  0.254682  0.375848  1
