# generated using pymatgen
data_Tm4Cr3TcB16
_symmetry_space_group_name_H-M   'P 1'
_cell_length_a   3.45444100
_cell_length_b   5.90687057
_cell_length_c   11.40857697
_cell_angle_alpha   89.89304295
_cell_angle_beta   90.00000000
_cell_angle_gamma   90.00000000
_symmetry_Int_Tables_number   1
_chemical_formula_structural   Tm4Cr3TcB16
_chemical_formula_sum   'Tm4 Cr3 Tc1 B16'
_cell_volume   232.79087604
_cell_formula_units_Z   1
loop_
 _symmetry_equiv_pos_site_id
 _symmetry_equiv_pos_as_xyz
  1  'x, y, z'
loop_
 _atom_site_type_symbol
 _atom_site_label
 _atom_site_symmetry_multiplicity
 _atom_site_fract_x
 _atom_site_fract_y
 _atom_site_fract_z
 _atom_site_occupancy
  Tm  Tm0  1  0.000000  0.624563  0.351473  1
  Tm  Tm1  1  0.000000  0.374765  0.649985  1
  Tm  Tm2  1  0.000000  0.126541  0.151761  1
  Tm  Tm3  1  0.000000  0.874733  0.847907  1
  Cr  Cr4  1  0.000000  0.370970  0.915697  1
  Cr  Cr5  1  0.000000  0.125153  0.418788  1
  Cr  Cr6  1  0.000000  0.875132  0.581082  1
  Tc  Tc7  1  0.000000  0.628251  0.084032  1
  B  B8  1  0.500000  0.785679  0.186580  1
  B  B9  1  0.500000  0.215944  0.814307  1
  B  B10  1  0.500000  0.283215  0.316575  1
  B  B11  1  0.500000  0.716433  0.684034  1
  B  B12  1  0.500000  0.866007  0.031174  1
  B  B13  1  0.500000  0.135769  0.966987  1
  B  B14  1  0.500000  0.363680  0.468265  1
  B  B15  1  0.500000  0.636311  0.532367  1
  B  B16  1  0.500000  0.886635  0.453122  1
  B  B17  1  0.500000  0.114140  0.547348  1
  B  B18  1  0.500000  0.384233  0.046561  1
  B  B19  1  0.500000  0.613122  0.951117  1
  B  B20  1  0.500000  0.976782  0.308693  1
  B  B21  1  0.500000  0.023866  0.691948  1
  B  B22  1  0.500000  0.473803  0.193752  1
  B  B23  1  0.500000  0.524274  0.806448  1
