# generated using pymatgen
data_YHf5(Be2Ir5)2
_symmetry_space_group_name_H-M   'P 1'
_cell_length_a   9.56143022
_cell_length_b   9.56143022
_cell_length_c   3.32042100
_cell_angle_alpha   90.00000000
_cell_angle_beta   90.00000000
_cell_angle_gamma   89.76435525
_symmetry_Int_Tables_number   1
_chemical_formula_structural   YHf5(Be2Ir5)2
_chemical_formula_sum   'Y1 Hf5 Be4 Ir10'
_cell_volume   303.55346755
_cell_formula_units_Z   1
loop_
 _symmetry_equiv_pos_site_id
 _symmetry_equiv_pos_as_xyz
  1  'x, y, z'
loop_
 _atom_site_type_symbol
 _atom_site_label
 _atom_site_symmetry_multiplicity
 _atom_site_fract_x
 _atom_site_fract_y
 _atom_site_fract_z
 _atom_site_occupancy
  Y  Y0  1  0.175400  0.675400  0.000000  1
  Hf  Hf1  1  0.324938  0.174630  0.000000  1
  Hf  Hf2  1  0.824464  0.324464  0.000000  1
  Hf  Hf3  1  0.499437  0.499838  0.000000  1
  Hf  Hf4  1  0.674630  0.824938  0.000000  1
  Hf  Hf5  1  0.999838  0.999437  0.000000  1
  Be  Be6  1  0.383772  0.883772  0.000000  1
  Be  Be7  1  0.117323  0.377252  0.000000  1
  Be  Be8  1  0.877252  0.617323  0.000000  1
  Be  Be9  1  0.620389  0.120389  0.000000  1
  Ir  Ir10  1  0.221739  0.939113  0.500000  1
  Ir  Ir11  1  0.919558  0.783657  0.500000  1
  Ir  Ir12  1  0.439113  0.721739  0.500000  1
  Ir  Ir13  1  0.573613  0.284422  0.500000  1
  Ir  Ir14  1  0.714265  0.570077  0.500000  1
  Ir  Ir15  1  0.283657  0.419558  0.500000  1
  Ir  Ir16  1  0.070077  0.214265  0.500000  1
  Ir  Ir17  1  0.992703  0.492703  0.500000  1
  Ir  Ir18  1  0.503410  0.003410  0.500000  1
  Ir  Ir19  1  0.784422  0.073613  0.500000  1
