# generated using pymatgen
data_B6Sb2MoRh20
_symmetry_space_group_name_H-M   'P 1'
_cell_length_a   8.12215203
_cell_length_b   8.12215274
_cell_length_c   8.12215200
_cell_angle_alpha   60.00000300
_cell_angle_beta   60.00000012
_cell_angle_gamma   59.99999826
_symmetry_Int_Tables_number   1
_chemical_formula_structural   B6Sb2MoRh20
_chemical_formula_sum   'B6 Sb2 Mo1 Rh20'
_cell_volume   378.87712557
_cell_formula_units_Z   1
loop_
 _symmetry_equiv_pos_site_id
 _symmetry_equiv_pos_as_xyz
  1  'x, y, z'
loop_
 _atom_site_type_symbol
 _atom_site_label
 _atom_site_symmetry_multiplicity
 _atom_site_fract_x
 _atom_site_fract_y
 _atom_site_fract_z
 _atom_site_occupancy
  B  B0  1  0.721164  0.721164  0.278836  1
  B  B1  1  0.721164  0.278836  0.721164  1
  B  B2  1  0.278836  0.721164  0.278836  1
  B  B3  1  0.721164  0.278836  0.278836  1
  B  B4  1  0.278836  0.721164  0.721164  1
  B  B5  1  0.278836  0.278836  0.721164  1
  Sb  Sb6  1  0.250000  0.250000  0.250000  1
  Sb  Sb7  1  0.750000  0.750000  0.750000  1
  Mo  Mo8  1  0.000000  0.000000  0.000000  1
  Rh  Rh9  1  0.000000  0.000000  0.669944  1
  Rh  Rh10  1  0.618893  0.618893  0.143322  1
  Rh  Rh11  1  0.381107  0.856678  0.381107  1
  Rh  Rh12  1  0.669944  0.330056  0.000000  1
  Rh  Rh13  1  0.000000  0.330056  0.669944  1
  Rh  Rh14  1  0.669944  0.000000  0.000000  1
  Rh  Rh15  1  0.000000  0.000000  0.330056  1
  Rh  Rh16  1  0.000000  0.330056  0.000000  1
  Rh  Rh17  1  0.330056  0.000000  0.669944  1
  Rh  Rh18  1  0.669944  0.000000  0.330056  1
  Rh  Rh19  1  0.330056  0.000000  0.000000  1
  Rh  Rh20  1  0.000000  0.669944  0.000000  1
  Rh  Rh21  1  0.381107  0.381107  0.856678  1
  Rh  Rh22  1  0.000000  0.669944  0.330056  1
  Rh  Rh23  1  0.330056  0.669944  0.000000  1
  Rh  Rh24  1  0.618893  0.143322  0.618893  1
  Rh  Rh25  1  0.143322  0.618893  0.618893  1
  Rh  Rh26  1  0.381107  0.381107  0.381107  1
  Rh  Rh27  1  0.856678  0.381107  0.381107  1
  Rh  Rh28  1  0.618893  0.618893  0.618893  1
