# generated using pymatgen
data_CaErTm5Co6Sn23
_symmetry_space_group_name_H-M   'P 1'
_cell_length_a   9.67690709
_cell_length_b   9.67690677
_cell_length_c   9.92274400
_cell_angle_alpha   89.99129149
_cell_angle_beta   90.00870639
_cell_angle_gamma   119.99018265
_symmetry_Int_Tables_number   1
_chemical_formula_structural   CaErTm5Co6Sn23
_chemical_formula_sum   'Ca1 Er1 Tm5 Co6 Sn23'
_cell_volume   804.78244644
_cell_formula_units_Z   1
loop_
 _symmetry_equiv_pos_site_id
 _symmetry_equiv_pos_as_xyz
  1  'x, y, z'
loop_
 _atom_site_type_symbol
 _atom_site_label
 _atom_site_symmetry_multiplicity
 _atom_site_fract_x
 _atom_site_fract_y
 _atom_site_fract_z
 _atom_site_occupancy
  Ca  Ca0  1  0.000072  0.999928  0.999903  1
  Er  Er1  1  0.479654  0.520346  0.306360  1
  Tm  Tm2  1  0.519964  0.480036  0.693923  1
  Tm  Tm3  1  0.519933  0.039854  0.694019  1
  Tm  Tm4  1  0.960146  0.480067  0.694019  1
  Tm  Tm5  1  0.039945  0.519908  0.306068  1
  Tm  Tm6  1  0.480092  0.960055  0.306068  1
  Co  Co7  1  0.169214  0.830786  0.800881  1
  Co  Co8  1  0.169155  0.338322  0.800967  1
  Co  Co9  1  0.661678  0.830845  0.800967  1
  Co  Co10  1  0.338200  0.168772  0.198983  1
  Co  Co11  1  0.831228  0.661800  0.198983  1
  Co  Co12  1  0.830698  0.169302  0.198985  1
  Sn  Sn13  1  0.666695  0.333305  0.183293  1
  Sn  Sn14  1  0.666658  0.333342  0.877594  1
  Sn  Sn15  1  0.332803  0.667197  0.121715  1
  Sn  Sn16  1  0.346588  0.346529  0.000089  1
  Sn  Sn17  1  0.000250  0.653684  0.999765  1
  Sn  Sn18  1  0.653505  0.000085  0.000015  1
  Sn  Sn19  1  0.653471  0.653412  0.000089  1
  Sn  Sn20  1  0.333237  0.666763  0.816574  1
  Sn  Sn21  1  0.438334  0.218841  0.453059  1
  Sn  Sn22  1  0.219070  0.780930  0.547365  1
  Sn  Sn23  1  0.218951  0.438253  0.547281  1
  Sn  Sn24  1  0.561747  0.781049  0.547281  1
  Sn  Sn25  1  0.118245  0.881755  0.274432  1
  Sn  Sn26  1  0.781159  0.561666  0.453059  1
  Sn  Sn27  1  0.780924  0.219076  0.452906  1
  Sn  Sn28  1  0.346316  0.999750  0.999765  1
  Sn  Sn29  1  0.117597  0.235629  0.274348  1
  Sn  Sn30  1  0.764371  0.882403  0.274348  1
  Sn  Sn31  1  0.235981  0.117717  0.725636  1
  Sn  Sn32  1  0.882283  0.764019  0.725636  1
  Sn  Sn33  1  0.881797  0.118203  0.725534  1
  Sn  Sn34  1  0.000124  0.999876  0.500072  1
  Sn  Sn35  1  0.999915  0.346495  0.000015  1
