# generated using pymatgen
data_SrLa3(Ir2O7)2
_symmetry_space_group_name_H-M   'P 1'
_cell_length_a   7.42818116
_cell_length_b   7.42817919
_cell_length_c   7.42817870
_cell_angle_alpha   60.49179176
_cell_angle_beta   60.49178819
_cell_angle_gamma   60.49179110
_symmetry_Int_Tables_number   1
_chemical_formula_structural   SrLa3(Ir2O7)2
_chemical_formula_sum   'Sr1 La3 Ir4 O14'
_cell_volume   293.04394978
_cell_formula_units_Z   1
loop_
 _symmetry_equiv_pos_site_id
 _symmetry_equiv_pos_as_xyz
  1  'x, y, z'
loop_
 _atom_site_type_symbol
 _atom_site_label
 _atom_site_symmetry_multiplicity
 _atom_site_fract_x
 _atom_site_fract_y
 _atom_site_fract_z
 _atom_site_occupancy
  Sr  Sr0  1  0.125000  0.125000  0.125000  1
  La  La1  1  0.625000  0.125000  0.125000  1
  La  La2  1  0.125000  0.625000  0.125000  1
  La  La3  1  0.125000  0.125000  0.625000  1
  Ir  Ir4  1  0.125000  0.625000  0.625000  1
  Ir  Ir5  1  0.625000  0.125000  0.625000  1
  Ir  Ir6  1  0.625000  0.625000  0.125000  1
  Ir  Ir7  1  0.625000  0.625000  0.625000  1
  O  O8  1  0.702807  0.702807  0.297942  1
  O  O9  1  0.299941  0.299941  0.696097  1
  O  O10  1  0.702807  0.297942  0.702807  1
  O  O11  1  0.299941  0.696097  0.299941  1
  O  O12  1  0.297942  0.702807  0.702807  1
  O  O13  1  0.696097  0.299941  0.299941  1
  O  O14  1  0.547193  0.547193  0.952058  1
  O  O15  1  0.950059  0.950059  0.553903  1
  O  O16  1  0.547193  0.952058  0.547193  1
  O  O17  1  0.950059  0.553903  0.950059  1
  O  O18  1  0.952058  0.547193  0.547193  1
  O  O19  1  0.553903  0.950059  0.950059  1
  O  O20  1  0.253962  0.253962  0.253962  1
  O  O21  1  0.996038  0.996038  0.996038  1
