# generated using pymatgen
data_Mg4Ni2Ge6Ir5
_symmetry_space_group_name_H-M   'P 1'
_cell_length_a   6.99777274
_cell_length_b   7.02862305
_cell_length_c   7.02862181
_cell_angle_alpha   109.41066284
_cell_angle_beta   109.59097759
_cell_angle_gamma   109.59098827
_symmetry_Int_Tables_number   1
_chemical_formula_structural   Mg4Ni2Ge6Ir5
_chemical_formula_sum   'Mg4 Ni2 Ge6 Ir5'
_cell_volume   265.53046414
_cell_formula_units_Z   1
loop_
 _symmetry_equiv_pos_site_id
 _symmetry_equiv_pos_as_xyz
  1  'x, y, z'
loop_
 _atom_site_type_symbol
 _atom_site_label
 _atom_site_symmetry_multiplicity
 _atom_site_fract_x
 _atom_site_fract_y
 _atom_site_fract_z
 _atom_site_occupancy
  Mg  Mg0  1  0.004723  0.002361  0.502361  1
  Mg  Mg1  1  0.004723  0.502361  0.002361  1
  Mg  Mg2  1  0.492430  0.995891  0.995891  1
  Mg  Mg3  1  0.492430  0.496539  0.496539  1
  Ni  Ni4  1  0.746665  0.251035  0.495630  1
  Ni  Ni5  1  0.746665  0.495630  0.251035  1
  Ge  Ge6  1  0.691856  0.690030  0.001826  1
  Ge  Ge7  1  0.318291  0.003794  0.314496  1
  Ge  Ge8  1  0.987737  0.309228  0.309228  1
  Ge  Ge9  1  0.318291  0.314496  0.003794  1
  Ge  Ge10  1  0.691856  0.001826  0.690030  1
  Ge  Ge11  1  0.987737  0.678509  0.678509  1
  Ir  Ir12  1  0.515209  0.257604  0.757604  1
  Ir  Ir13  1  0.241628  0.494606  0.747021  1
  Ir  Ir14  1  0.241628  0.747021  0.494606  1
  Ir  Ir15  1  0.515209  0.757604  0.257604  1
  Ir  Ir16  1  0.002924  0.001462  0.001462  1
