# generated using pymatgen
data_Dy4Ga16CoIrRu
_symmetry_space_group_name_H-M   'P 1'
_cell_length_a   6.12951200
_cell_length_b   6.07240800
_cell_length_c   11.19615300
_cell_angle_alpha   90.00000000
_cell_angle_beta   90.00000000
_cell_angle_gamma   90.00000000
_symmetry_Int_Tables_number   1
_chemical_formula_structural   Dy4Ga16CoIrRu
_chemical_formula_sum   'Dy4 Ga16 Co1 Ir1 Ru1'
_cell_volume   416.73086550
_cell_formula_units_Z   1
loop_
 _symmetry_equiv_pos_site_id
 _symmetry_equiv_pos_as_xyz
  1  'x, y, z'
loop_
 _atom_site_type_symbol
 _atom_site_label
 _atom_site_symmetry_multiplicity
 _atom_site_fract_x
 _atom_site_fract_y
 _atom_site_fract_z
 _atom_site_occupancy
  Dy  Dy0  1  0.500000  0.000000  0.802411  1
  Dy  Dy1  1  0.000000  0.500000  0.808982  1
  Dy  Dy2  1  0.500000  0.000000  0.197589  1
  Dy  Dy3  1  0.000000  0.500000  0.191018  1
  Ga  Ga4  1  0.240592  0.255591  0.617205  1
  Ga  Ga5  1  0.759408  0.744409  0.617205  1
  Ga  Ga6  1  0.759408  0.255591  0.617205  1
  Ga  Ga7  1  0.240592  0.744409  0.617205  1
  Ga  Ga8  1  0.759408  0.744409  0.382795  1
  Ga  Ga9  1  0.240592  0.255591  0.382795  1
  Ga  Ga10  1  0.240592  0.744409  0.382795  1
  Ga  Ga11  1  0.759408  0.255591  0.382795  1
  Ga  Ga12  1  0.288799  0.284374  0.000000  1
  Ga  Ga13  1  0.711201  0.715626  0.000000  1
  Ga  Ga14  1  0.711201  0.284374  0.000000  1
  Ga  Ga15  1  0.288799  0.715626  0.000000  1
  Ga  Ga16  1  0.500000  0.500000  0.802322  1
  Ga  Ga17  1  0.500000  0.500000  0.197678  1
  Ga  Ga18  1  0.000000  0.000000  0.777158  1
  Ga  Ga19  1  0.000000  0.000000  0.222842  1
  Co  Co20  1  0.000000  0.500000  0.500000  1
  Ir  Ir21  1  0.500000  0.000000  0.500000  1
  Ru  Ru22  1  0.000000  0.000000  0.000000  1
