# generated using pymatgen
data_PrTh7(FeSi3)4
_symmetry_space_group_name_H-M   'P 1'
_cell_length_a   8.15336200
_cell_length_b   8.15336146
_cell_length_c   8.31790700
_cell_angle_alpha   90.00000000
_cell_angle_beta   90.00000000
_cell_angle_gamma   120.00000217
_symmetry_Int_Tables_number   1
_chemical_formula_structural   PrTh7(FeSi3)4
_chemical_formula_sum   'Pr1 Th7 Fe4 Si12'
_cell_volume   478.87052203
_cell_formula_units_Z   1
loop_
 _symmetry_equiv_pos_site_id
 _symmetry_equiv_pos_as_xyz
  1  'x, y, z'
loop_
 _atom_site_type_symbol
 _atom_site_label
 _atom_site_symmetry_multiplicity
 _atom_site_fract_x
 _atom_site_fract_y
 _atom_site_fract_z
 _atom_site_occupancy
  Pr  Pr0  1  0.000000  0.000000  0.250000  1
  Th  Th1  1  0.500082  0.499918  0.750000  1
  Th  Th2  1  0.500028  0.499972  0.250000  1
  Th  Th3  1  0.999836  0.499918  0.750000  1
  Th  Th4  1  0.999944  0.499972  0.250000  1
  Th  Th5  1  0.500082  0.000164  0.750000  1
  Th  Th6  1  0.500028  0.000056  0.250000  1
  Th  Th7  1  0.000000  0.000000  0.750000  1
  Fe  Fe8  1  0.666667  0.333333  0.007594  1
  Fe  Fe9  1  0.333333  0.666667  0.009043  1
  Fe  Fe10  1  0.333333  0.666667  0.490957  1
  Fe  Fe11  1  0.666667  0.333333  0.492406  1
  Si  Si12  1  0.829428  0.170572  0.997722  1
  Si  Si13  1  0.170595  0.829405  0.997570  1
  Si  Si14  1  0.341144  0.170572  0.997722  1
  Si  Si15  1  0.170595  0.829405  0.502430  1
  Si  Si16  1  0.658809  0.829405  0.997570  1
  Si  Si17  1  0.829428  0.170572  0.502278  1
  Si  Si18  1  0.829428  0.658856  0.997722  1
  Si  Si19  1  0.658809  0.829405  0.502430  1
  Si  Si20  1  0.170595  0.341191  0.997570  1
  Si  Si21  1  0.341144  0.170572  0.502278  1
  Si  Si22  1  0.170595  0.341191  0.502430  1
  Si  Si23  1  0.829428  0.658856  0.502278  1
