# generated using pymatgen
data_Lu4NpTc4Ru3
_symmetry_space_group_name_H-M   'P 1'
_cell_length_a   5.21127225
_cell_length_b   5.21127380
_cell_length_c   8.99222667
_cell_angle_alpha   90.17066657
_cell_angle_beta   89.82933714
_cell_angle_gamma   115.60497184
_symmetry_Int_Tables_number   1
_chemical_formula_structural   Lu4NpTc4Ru3
_chemical_formula_sum   'Lu4 Np1 Tc4 Ru3'
_cell_volume   220.22166718
_cell_formula_units_Z   1
loop_
 _symmetry_equiv_pos_site_id
 _symmetry_equiv_pos_as_xyz
  1  'x, y, z'
loop_
 _atom_site_type_symbol
 _atom_site_label
 _atom_site_symmetry_multiplicity
 _atom_site_fract_x
 _atom_site_fract_y
 _atom_site_fract_z
 _atom_site_occupancy
  Lu  Lu0  1  0.328464  0.671536  0.444813  1
  Lu  Lu1  1  0.662970  0.337030  0.567971  1
  Lu  Lu2  1  0.660459  0.339541  0.930388  1
  Lu  Lu3  1  0.326896  0.673104  0.055146  1
  Np  Np4  1  0.852844  0.147156  0.243995  1
  Tc  Tc5  1  0.984907  0.015093  0.007412  1
  Tc  Tc6  1  0.163535  0.836465  0.751236  1
  Tc  Tc7  1  0.165081  0.349076  0.750983  1
  Tc  Tc8  1  0.650924  0.834919  0.750983  1
  Ru  Ru9  1  0.986516  0.013484  0.497662  1
  Ru  Ru10  1  0.847750  0.630349  0.249705  1
  Ru  Ru11  1  0.369651  0.152250  0.249705  1
