# generated using pymatgen
data_NaLaTb5IrBr12
_symmetry_space_group_name_H-M   'P 1'
_cell_length_a   9.42022304
_cell_length_b   9.23019504
_cell_length_c   9.46252134
_cell_angle_alpha   106.31585971
_cell_angle_beta   106.63452726
_cell_angle_gamma   107.73272131
_symmetry_Int_Tables_number   1
_chemical_formula_structural   NaLaTb5IrBr12
_chemical_formula_sum   'Na1 La1 Tb5 Ir1 Br12'
_cell_volume   687.08648675
_cell_formula_units_Z   1
loop_
 _symmetry_equiv_pos_site_id
 _symmetry_equiv_pos_as_xyz
  1  'x, y, z'
loop_
 _atom_site_type_symbol
 _atom_site_label
 _atom_site_symmetry_multiplicity
 _atom_site_fract_x
 _atom_site_fract_y
 _atom_site_fract_z
 _atom_site_occupancy
  Na  Na0  1  0.500168  0.499613  0.500706  1
  La  La1  1  0.106722  0.309956  0.027183  1
  Tb  Tb2  1  0.325809  0.032591  0.113085  1
  Tb  Tb3  1  0.029219  0.108316  0.320222  1
  Tb  Tb4  1  0.968908  0.885376  0.676200  1
  Tb  Tb5  1  0.674669  0.970096  0.887131  1
  Tb  Tb6  1  0.895327  0.701266  0.972660  1
  Ir  Ir7  1  0.002149  0.007140  0.998412  1
  Br  Br8  1  0.214171  0.688699  0.074180  1
  Br  Br9  1  0.465272  0.368838  0.156615  1
  Br  Br10  1  0.680616  0.070289  0.212698  1
  Br  Br11  1  0.924635  0.779073  0.313674  1
  Br  Br12  1  0.149617  0.449250  0.380932  1
  Br  Br13  1  0.365622  0.145119  0.445974  1
  Br  Br14  1  0.633799  0.852351  0.552888  1
  Br  Br15  1  0.851885  0.550701  0.637804  1
  Br  Br16  1  0.070592  0.207830  0.668310  1
  Br  Br17  1  0.318877  0.926669  0.786333  1
  Br  Br18  1  0.552885  0.631644  0.853015  1
  Br  Br19  1  0.769063  0.315183  0.921982  1
