# generated using pymatgen
data_Yb2Sc2B12IrOs
_symmetry_space_group_name_H-M   'P 1'
_cell_length_a   3.53923100
_cell_length_b   8.98696879
_cell_length_c   11.37181965
_cell_angle_alpha   90.05368974
_cell_angle_beta   90.00000000
_cell_angle_gamma   90.00000000
_symmetry_Int_Tables_number   1
_chemical_formula_structural   Yb2Sc2B12IrOs
_chemical_formula_sum   'Yb4 Sc4 B24 Ir2 Os2'
_cell_volume   361.70283734
_cell_formula_units_Z   2
loop_
 _symmetry_equiv_pos_site_id
 _symmetry_equiv_pos_as_xyz
  1  'x, y, z'
loop_
 _atom_site_type_symbol
 _atom_site_label
 _atom_site_symmetry_multiplicity
 _atom_site_fract_x
 _atom_site_fract_y
 _atom_site_fract_z
 _atom_site_occupancy
  Yb  Yb0  1  0.500000  0.320373  0.413677  1
  Yb  Yb1  1  0.500000  0.679627  0.586323  1
  Yb  Yb2  1  0.500000  0.176099  0.915959  1
  Yb  Yb3  1  0.500000  0.823901  0.084041  1
  Sc  Sc4  1  0.500000  0.441064  0.127704  1
  Sc  Sc5  1  0.500000  0.558936  0.872296  1
  Sc  Sc6  1  0.500000  0.052589  0.629427  1
  Sc  Sc7  1  0.500000  0.947411  0.370573  1
  B  B8  1  0.000000  0.096524  0.474317  1
  B  B9  1  0.000000  0.903476  0.525683  1
  B  B10  1  0.000000  0.403418  0.973739  1
  B  B11  1  0.000000  0.596582  0.026261  1
  B  B12  1  0.000000  0.130006  0.317281  1
  B  B13  1  0.000000  0.869994  0.682719  1
  B  B14  1  0.000000  0.370316  0.817456  1
  B  B15  1  0.000000  0.629684  0.182544  1
  B  B16  1  0.000000  0.054712  0.067555  1
  B  B17  1  0.000000  0.945288  0.932445  1
  B  B18  1  0.000000  0.444647  0.566781  1
  B  B19  1  0.000000  0.555353  0.433219  1
  B  B20  1  0.000000  0.482239  0.286955  1
  B  B21  1  0.000000  0.517761  0.713045  1
  B  B22  1  0.000000  0.017511  0.786344  1
  B  B23  1  0.000000  0.982489  0.213656  1
  B  B24  1  0.000000  0.252118  0.082266  1
  B  B25  1  0.000000  0.747882  0.917734  1
  B  B26  1  0.000000  0.247115  0.581517  1
  B  B27  1  0.000000  0.752885  0.418483  1
  B  B28  1  0.000000  0.294308  0.235948  1
  B  B29  1  0.000000  0.705692  0.764052  1
  B  B30  1  0.000000  0.206157  0.735965  1
  B  B31  1  0.000000  0.793843  0.264035  1
  Ir  Ir32  1  0.500000  0.359391  0.681627  1
  Ir  Ir33  1  0.500000  0.640609  0.318373  1
  Os  Os34  1  0.500000  0.141169  0.182710  1
  Os  Os35  1  0.500000  0.858831  0.817290  1
