# generated using pymatgen
data_YbZnCdAg3
_symmetry_space_group_name_H-M   'P 1'
_cell_length_a   5.43752465
_cell_length_b   5.43752390
_cell_length_c   5.43752487
_cell_angle_alpha   62.63142694
_cell_angle_beta   62.63141257
_cell_angle_gamma   62.63143246
_symmetry_Int_Tables_number   1
_chemical_formula_structural   YbZnCdAg3
_chemical_formula_sum   'Yb1 Zn1 Cd1 Ag3'
_cell_volume   120.34110607
_cell_formula_units_Z   1
loop_
 _symmetry_equiv_pos_site_id
 _symmetry_equiv_pos_as_xyz
  1  'x, y, z'
loop_
 _atom_site_type_symbol
 _atom_site_label
 _atom_site_symmetry_multiplicity
 _atom_site_fract_x
 _atom_site_fract_y
 _atom_site_fract_z
 _atom_site_occupancy
  Yb  Yb0  1  0.251011  0.251011  0.251011  1
  Zn  Zn1  1  0.625112  0.625112  0.625112  1
  Cd  Cd2  1  0.998885  0.998885  0.998885  1
  Ag  Ag3  1  0.625322  0.625322  0.124351  1
  Ag  Ag4  1  0.625322  0.124351  0.625322  1
  Ag  Ag5  1  0.124351  0.625322  0.625322  1
