# generated using pymatgen
data_LuPa(Al5Os)4
_symmetry_space_group_name_H-M   'P 1'
_cell_length_a   6.85300505
_cell_length_b   6.85300479
_cell_length_c   9.14535300
_cell_angle_alpha   90.00000000
_cell_angle_beta   90.00000000
_cell_angle_gamma   97.06688277
_symmetry_Int_Tables_number   1
_chemical_formula_structural   LuPa(Al5Os)4
_chemical_formula_sum   'Lu1 Pa1 Al20 Os4'
_cell_volume   426.23658411
_cell_formula_units_Z   1
loop_
 _symmetry_equiv_pos_site_id
 _symmetry_equiv_pos_as_xyz
  1  'x, y, z'
loop_
 _atom_site_type_symbol
 _atom_site_label
 _atom_site_symmetry_multiplicity
 _atom_site_fract_x
 _atom_site_fract_y
 _atom_site_fract_z
 _atom_site_occupancy
  Lu  Lu0  1  0.133129  0.866871  0.250000  1
  Pa  Pa1  1  0.873169  0.126831  0.750000  1
  Al  Al2  1  0.516357  0.780999  0.750000  1
  Al  Al3  1  0.782482  0.519199  0.250000  1
  Al  Al4  1  0.480801  0.217518  0.250000  1
  Al  Al5  1  0.219001  0.483643  0.750000  1
  Al  Al6  1  0.622598  0.377402  0.954133  1
  Al  Al7  1  0.374587  0.625413  0.047301  1
  Al  Al8  1  0.622598  0.377402  0.545867  1
  Al  Al9  1  0.374587  0.625413  0.452699  1
  Al  Al10  1  0.411323  0.146976  0.750000  1
  Al  Al11  1  0.149389  0.419794  0.250000  1
  Al  Al12  1  0.580206  0.850611  0.250000  1
  Al  Al13  1  0.853024  0.588677  0.750000  1
  Al  Al14  1  0.845305  0.154695  0.396778  1
  Al  Al15  1  0.153325  0.846675  0.600489  1
  Al  Al16  1  0.845305  0.154695  0.103222  1
  Al  Al17  1  0.153325  0.846675  0.899511  1
  Al  Al18  1  0.778919  0.776458  0.001534  1
  Al  Al19  1  0.778919  0.776458  0.498466  1
  Al  Al20  1  0.223542  0.221081  0.001534  1
  Al  Al21  1  0.223542  0.221081  0.498466  1
  Os  Os22  1  0.503045  0.000762  0.998767  1
  Os  Os23  1  0.999238  0.496955  0.998767  1
  Os  Os24  1  0.503045  0.000762  0.501233  1
  Os  Os25  1  0.999238  0.496955  0.501233  1
