# generated using pymatgen
data_Sc4TaSn3Ru8
_symmetry_space_group_name_H-M   'P 1'
_cell_length_a   6.42507700
_cell_length_b   4.52935400
_cell_length_c   9.06366100
_cell_angle_alpha   90.00000000
_cell_angle_beta   89.99945060
_cell_angle_gamma   90.00000000
_symmetry_Int_Tables_number   1
_chemical_formula_structural   Sc4TaSn3Ru8
_chemical_formula_sum   'Sc4 Ta1 Sn3 Ru8'
_cell_volume   263.76566118
_cell_formula_units_Z   1
loop_
 _symmetry_equiv_pos_site_id
 _symmetry_equiv_pos_as_xyz
  1  'x, y, z'
loop_
 _atom_site_type_symbol
 _atom_site_label
 _atom_site_symmetry_multiplicity
 _atom_site_fract_x
 _atom_site_fract_y
 _atom_site_fract_z
 _atom_site_occupancy
  Sc  Sc0  1  0.750029  0.250000  0.130440  1
  Sc  Sc1  1  0.250032  0.750000  0.375007  1
  Sc  Sc2  1  0.749979  0.250000  0.619515  1
  Sc  Sc3  1  0.249942  0.750000  0.875009  1
  Ta  Ta4  1  0.749953  0.750000  0.874991  1
  Sn  Sn5  1  0.250037  0.250000  0.124741  1
  Sn  Sn6  1  0.750068  0.750000  0.375012  1
  Sn  Sn7  1  0.249986  0.250000  0.625263  1
  Ru  Ru8  1  0.504648  0.750000  0.116882  1
  Ru  Ru9  1  0.995397  0.750000  0.116872  1
  Ru  Ru10  1  0.497717  0.250000  0.374943  1
  Ru  Ru11  1  0.002313  0.250000  0.374938  1
  Ru  Ru12  1  0.995257  0.750000  0.633130  1
  Ru  Ru13  1  0.504689  0.750000  0.633143  1
  Ru  Ru14  1  0.990884  0.250000  0.875063  1
  Ru  Ru15  1  0.509070  0.250000  0.875050  1
