# generated using pymatgen
data_Ho2TmFe2Co7P6
_symmetry_space_group_name_H-M   'P 1'
_cell_length_a   3.69461100
_cell_length_b   10.54500100
_cell_length_c   12.08596900
_cell_angle_alpha   90.00000000
_cell_angle_beta   90.00000000
_cell_angle_gamma   90.00000000
_symmetry_Int_Tables_number   1
_chemical_formula_structural   Ho2TmFe2Co7P6
_chemical_formula_sum   'Ho4 Tm2 Fe4 Co14 P12'
_cell_volume   470.86544472
_cell_formula_units_Z   2
loop_
 _symmetry_equiv_pos_site_id
 _symmetry_equiv_pos_as_xyz
  1  'x, y, z'
loop_
 _atom_site_type_symbol
 _atom_site_label
 _atom_site_symmetry_multiplicity
 _atom_site_fract_x
 _atom_site_fract_y
 _atom_site_fract_z
 _atom_site_occupancy
  Ho  Ho0  1  0.000000  0.500000  0.522297  1
  Ho  Ho1  1  0.500000  0.000000  0.477271  1
  Ho  Ho2  1  0.000000  0.680941  0.795820  1
  Ho  Ho3  1  0.000000  0.319059  0.795820  1
  Tm  Tm4  1  0.500000  0.819377  0.204145  1
  Tm  Tm5  1  0.500000  0.180623  0.204145  1
  Fe  Fe6  1  0.000000  0.500000  0.988783  1
  Fe  Fe7  1  0.500000  0.000000  0.012555  1
  Fe  Fe8  1  0.500000  0.500000  0.155918  1
  Fe  Fe9  1  0.000000  0.000000  0.844666  1
  Co  Co10  1  0.500000  0.296314  0.429702  1
  Co  Co11  1  0.500000  0.703686  0.429702  1
  Co  Co12  1  0.000000  0.203451  0.568990  1
  Co  Co13  1  0.000000  0.796549  0.568990  1
  Co  Co14  1  0.500000  0.878835  0.709180  1
  Co  Co15  1  0.500000  0.121165  0.709180  1
  Co  Co16  1  0.000000  0.621639  0.290320  1
  Co  Co17  1  0.000000  0.378361  0.290320  1
  Co  Co18  1  0.500000  0.331532  0.994789  1
  Co  Co19  1  0.500000  0.668468  0.994789  1
  Co  Co20  1  0.000000  0.168013  0.006608  1
  Co  Co21  1  0.000000  0.831987  0.006608  1
  Co  Co22  1  0.500000  0.500000  0.701023  1
  Co  Co23  1  0.000000  0.000000  0.298493  1
  P  P24  1  0.500000  0.310327  0.616399  1
  P  P25  1  0.500000  0.689673  0.616399  1
  P  P26  1  0.000000  0.189304  0.382218  1
  P  P27  1  0.000000  0.810696  0.382218  1
  P  P28  1  0.500000  0.500000  0.884418  1
  P  P29  1  0.000000  0.000000  0.116802  1
  P  P30  1  0.500000  0.847657  0.893648  1
  P  P31  1  0.500000  0.152343  0.893648  1
  P  P32  1  0.000000  0.653132  0.107040  1
  P  P33  1  0.000000  0.346868  0.107040  1
  P  P34  1  0.500000  0.500000  0.341981  1
  P  P35  1  0.000000  0.000000  0.658076  1
