# generated using pymatgen
data_RbTh3Se4
_symmetry_space_group_name_H-M   'P 1'
_cell_length_a   4.29507400
_cell_length_b   4.29507420
_cell_length_c   29.60995800
_cell_angle_alpha   90.00000000
_cell_angle_beta   90.00000000
_cell_angle_gamma   119.99998308
_symmetry_Int_Tables_number   1
_chemical_formula_structural   RbTh3Se4
_chemical_formula_sum   'Rb2 Th6 Se8'
_cell_volume   473.05301898
_cell_formula_units_Z   2
loop_
 _symmetry_equiv_pos_site_id
 _symmetry_equiv_pos_as_xyz
  1  'x, y, z'
loop_
 _atom_site_type_symbol
 _atom_site_label
 _atom_site_symmetry_multiplicity
 _atom_site_fract_x
 _atom_site_fract_y
 _atom_site_fract_z
 _atom_site_occupancy
  Rb  Rb0  1  0.666667  0.333333  0.250000  1
  Rb  Rb1  1  0.333333  0.666667  0.750000  1
  Th  Th2  1  0.666667  0.333333  0.608999  1
  Th  Th3  1  0.666667  0.333333  0.891001  1
  Th  Th4  1  0.333333  0.666667  0.391001  1
  Th  Th5  1  0.333333  0.666667  0.108999  1
  Th  Th6  1  0.000000  0.000000  0.500000  1
  Th  Th7  1  0.000000  0.000000  0.000000  1
  Se  Se8  1  0.000000  0.000000  0.167463  1
  Se  Se9  1  0.666667  0.333333  0.444718  1
  Se  Se10  1  0.000000  0.000000  0.667463  1
  Se  Se11  1  0.333333  0.666667  0.944718  1
  Se  Se12  1  0.333333  0.666667  0.555282  1
  Se  Se13  1  0.000000  0.000000  0.332537  1
  Se  Se14  1  0.666667  0.333333  0.055282  1
  Se  Se15  1  0.000000  0.000000  0.832537  1
