# generated using pymatgen
data_Er4Tc3NiB16
_symmetry_space_group_name_H-M   'P 1'
_cell_length_a   3.53351600
_cell_length_b   5.91489014
_cell_length_c   11.46503011
_cell_angle_alpha   89.99566066
_cell_angle_beta   90.00000000
_cell_angle_gamma   90.00000000
_symmetry_Int_Tables_number   1
_chemical_formula_structural   Er4Tc3NiB16
_chemical_formula_sum   'Er4 Tc3 Ni1 B16'
_cell_volume   239.62324391
_cell_formula_units_Z   1
loop_
 _symmetry_equiv_pos_site_id
 _symmetry_equiv_pos_as_xyz
  1  'x, y, z'
loop_
 _atom_site_type_symbol
 _atom_site_label
 _atom_site_symmetry_multiplicity
 _atom_site_fract_x
 _atom_site_fract_y
 _atom_site_fract_z
 _atom_site_occupancy
  Er  Er0  1  0.000000  0.628848  0.351558  1
  Er  Er1  1  0.000000  0.372948  0.646236  1
  Er  Er2  1  0.000000  0.128776  0.153027  1
  Er  Er3  1  0.000000  0.872144  0.847339  1
  Tc  Tc4  1  0.000000  0.632412  0.085948  1
  Tc  Tc5  1  0.000000  0.366731  0.911835  1
  Tc  Tc6  1  0.000000  0.131830  0.414854  1
  Ni  Ni7  1  0.000000  0.857575  0.595943  1
  B  B8  1  0.500000  0.787793  0.186023  1
  B  B9  1  0.500000  0.210811  0.812914  1
  B  B10  1  0.500000  0.287555  0.315274  1
  B  B11  1  0.500000  0.714188  0.683084  1
  B  B12  1  0.500000  0.865640  0.030806  1
  B  B13  1  0.500000  0.134554  0.968236  1
  B  B14  1  0.500000  0.366971  0.469691  1
  B  B15  1  0.500000  0.638611  0.531978  1
  B  B16  1  0.500000  0.886776  0.451808  1
  B  B17  1  0.500000  0.113556  0.547161  1
  B  B18  1  0.500000  0.386100  0.047145  1
  B  B19  1  0.500000  0.614074  0.951503  1
  B  B20  1  0.500000  0.976142  0.307345  1
  B  B21  1  0.500000  0.023014  0.691760  1
  B  B22  1  0.500000  0.477569  0.193331  1
  B  B23  1  0.500000  0.525379  0.805203  1
