# generated using pymatgen
data_Tb2Si6BiPd20
_symmetry_space_group_name_H-M   'P 1'
_cell_length_a   8.74680669
_cell_length_b   8.74680683
_cell_length_c   8.74680700
_cell_angle_alpha   60.00000315
_cell_angle_beta   60.00000263
_cell_angle_gamma   60.00000009
_symmetry_Int_Tables_number   1
_chemical_formula_structural   Tb2Si6BiPd20
_chemical_formula_sum   'Tb2 Si6 Bi1 Pd20'
_cell_volume   473.18789868
_cell_formula_units_Z   1
loop_
 _symmetry_equiv_pos_site_id
 _symmetry_equiv_pos_as_xyz
  1  'x, y, z'
loop_
 _atom_site_type_symbol
 _atom_site_label
 _atom_site_symmetry_multiplicity
 _atom_site_fract_x
 _atom_site_fract_y
 _atom_site_fract_z
 _atom_site_occupancy
  Tb  Tb0  1  0.250000  0.250000  0.250000  1
  Tb  Tb1  1  0.000000  0.000000  0.000000  1
  Si  Si2  1  0.731709  0.268291  0.268291  1
  Si  Si3  1  0.268291  0.731709  0.731709  1
  Si  Si4  1  0.268291  0.731709  0.268291  1
  Si  Si5  1  0.731709  0.268291  0.731709  1
  Si  Si6  1  0.268291  0.268291  0.731709  1
  Si  Si7  1  0.731709  0.731709  0.268291  1
  Bi  Bi8  1  0.750000  0.750000  0.750000  1
  Pd  Pd9  1  0.341348  0.003153  0.003153  1
  Pd  Pd10  1  0.652347  0.003153  0.003153  1
  Pd  Pd11  1  0.003153  0.341348  0.652347  1
  Pd  Pd12  1  0.003153  0.652347  0.341348  1
  Pd  Pd13  1  0.003153  0.341348  0.003153  1
  Pd  Pd14  1  0.652347  0.003153  0.341348  1
  Pd  Pd15  1  0.003153  0.652347  0.003153  1
  Pd  Pd16  1  0.341348  0.003153  0.652347  1
  Pd  Pd17  1  0.003153  0.003153  0.341348  1
  Pd  Pd18  1  0.003153  0.003153  0.652347  1
  Pd  Pd19  1  0.652347  0.341348  0.003153  1
  Pd  Pd20  1  0.341348  0.652347  0.003153  1
  Pd  Pd21  1  0.384582  0.384582  0.384582  1
  Pd  Pd22  1  0.617480  0.617480  0.617480  1
  Pd  Pd23  1  0.384582  0.384582  0.846253  1
  Pd  Pd24  1  0.384582  0.846253  0.384582  1
  Pd  Pd25  1  0.617480  0.617480  0.147562  1
  Pd  Pd26  1  0.617480  0.147562  0.617480  1
  Pd  Pd27  1  0.846253  0.384582  0.384582  1
  Pd  Pd28  1  0.147562  0.617480  0.617480  1
