# generated using pymatgen
data_HfZr9AlSiSn6
_symmetry_space_group_name_H-M   'P 1'
_cell_length_a   8.71768100
_cell_length_b   8.71768194
_cell_length_c   5.89321400
_cell_angle_alpha   90.00000000
_cell_angle_beta   90.00000000
_cell_angle_gamma   120.00000024
_symmetry_Int_Tables_number   1
_chemical_formula_structural   HfZr9AlSiSn6
_chemical_formula_sum   'Hf1 Zr9 Al1 Si1 Sn6'
_cell_volume   387.86879007
_cell_formula_units_Z   1
loop_
 _symmetry_equiv_pos_site_id
 _symmetry_equiv_pos_as_xyz
  1  'x, y, z'
loop_
 _atom_site_type_symbol
 _atom_site_label
 _atom_site_symmetry_multiplicity
 _atom_site_fract_x
 _atom_site_fract_y
 _atom_site_fract_z
 _atom_site_occupancy
  Hf  Hf0  1  0.666667  0.333333  0.000000  1
  Zr  Zr1  1  0.333333  0.666667  0.000000  1
  Zr  Zr2  1  0.333333  0.666667  0.500000  1
  Zr  Zr3  1  0.666667  0.333333  0.500000  1
  Zr  Zr4  1  0.735728  0.735385  0.740066  1
  Zr  Zr5  1  0.264615  0.000343  0.740066  1
  Zr  Zr6  1  0.999657  0.264272  0.740066  1
  Zr  Zr7  1  0.264615  0.264272  0.259934  1
  Zr  Zr8  1  0.735728  0.000343  0.259934  1
  Zr  Zr9  1  0.999657  0.735385  0.259934  1
  Al  Al10  1  0.000000  0.000000  0.000000  1
  Si  Si11  1  0.000000  0.000000  0.500000  1
  Sn  Sn12  1  0.390262  0.389655  0.754782  1
  Sn  Sn13  1  0.610345  0.000607  0.754782  1
  Sn  Sn14  1  0.999393  0.609738  0.754782  1
  Sn  Sn15  1  0.610345  0.609738  0.245218  1
  Sn  Sn16  1  0.390262  0.000607  0.245218  1
  Sn  Sn17  1  0.999393  0.389655  0.245218  1
