# generated using pymatgen
data_Dy2Y14In3AgRh4
_symmetry_space_group_name_H-M   'P 1'
_cell_length_a   9.68733854
_cell_length_b   9.66698241
_cell_length_c   9.66101411
_cell_angle_alpha   59.97309575
_cell_angle_beta   59.92767682
_cell_angle_gamma   59.98208395
_symmetry_Int_Tables_number   1
_chemical_formula_structural   Dy2Y14In3AgRh4
_chemical_formula_sum   'Dy2 Y14 In3 Ag1 Rh4'
_cell_volume   639.17259845
_cell_formula_units_Z   1
loop_
 _symmetry_equiv_pos_site_id
 _symmetry_equiv_pos_as_xyz
  1  'x, y, z'
loop_
 _atom_site_type_symbol
 _atom_site_label
 _atom_site_symmetry_multiplicity
 _atom_site_fract_x
 _atom_site_fract_y
 _atom_site_fract_z
 _atom_site_occupancy
  Dy  Dy0  1  0.690584  0.310437  0.691671  1
  Dy  Dy1  1  0.549620  0.149787  0.147350  1
  Y  Y2  1  0.690303  0.311187  0.309781  1
  Y  Y3  1  0.688875  0.689462  0.312607  1
  Y  Y4  1  0.311397  0.690368  0.309348  1
  Y  Y5  1  0.936033  0.936699  0.559048  1
  Y  Y6  1  0.147897  0.147962  0.553016  1
  Y  Y7  1  0.565564  0.938748  0.556587  1
  Y  Y8  1  0.151491  0.152794  0.149781  1
  Y  Y9  1  0.309332  0.309217  0.690995  1
  Y  Y10  1  0.937946  0.564981  0.557909  1
  Y  Y11  1  0.563133  0.562434  0.936672  1
  Y  Y12  1  0.563761  0.937293  0.934639  1
  Y  Y13  1  0.936207  0.564246  0.934124  1
  Y  Y14  1  0.148278  0.551122  0.147043  1
  Y  Y15  1  0.309999  0.691677  0.691546  1
  In  In16  1  0.246550  0.916365  0.923071  1
  In  In17  1  0.917088  0.245850  0.923181  1
  In  In18  1  0.917349  0.916236  0.920683  1
  Ag  Ag19  1  0.915706  0.915846  0.250916  1
  Rh  Rh20  1  0.357361  0.356192  0.357163  1
  Rh  Rh21  1  0.925271  0.357167  0.360600  1
  Rh  Rh22  1  0.361457  0.356063  0.925598  1
  Rh  Rh23  1  0.358797  0.927868  0.356675  1
