# generated using pymatgen
data_Sc5Tc24
_symmetry_space_group_name_H-M   'P 1'
_cell_length_a   8.39192921
_cell_length_b   8.39192838
_cell_length_c   8.39192800
_cell_angle_alpha   109.47121731
_cell_angle_beta   109.47121529
_cell_angle_gamma   109.47122458
_symmetry_Int_Tables_number   1
_chemical_formula_structural   Sc5Tc24
_chemical_formula_sum   'Sc5 Tc24'
_cell_volume   454.94978501
_cell_formula_units_Z   1
loop_
 _symmetry_equiv_pos_site_id
 _symmetry_equiv_pos_as_xyz
  1  'x, y, z'
loop_
 _atom_site_type_symbol
 _atom_site_label
 _atom_site_symmetry_multiplicity
 _atom_site_fract_x
 _atom_site_fract_y
 _atom_site_fract_z
 _atom_site_occupancy
  Sc  Sc0  1  0.372709  0.372709  0.372709  1
  Sc  Sc1  1  0.000000  0.627291  0.000000  1
  Sc  Sc2  1  0.627291  0.000000  0.000000  1
  Sc  Sc3  1  0.000000  0.000000  0.627291  1
  Sc  Sc4  1  0.000000  0.000000  0.000000  1
  Tc  Tc5  1  0.000000  0.394901  0.673743  1
  Tc  Tc6  1  0.278843  0.605099  0.605099  1
  Tc  Tc7  1  0.721157  0.326257  0.326257  1
  Tc  Tc8  1  0.326257  0.721157  0.326257  1
  Tc  Tc9  1  0.673743  0.000000  0.394901  1
  Tc  Tc10  1  0.000000  0.673743  0.394901  1
  Tc  Tc11  1  0.605099  0.605099  0.278843  1
  Tc  Tc12  1  0.807821  0.807821  0.182815  1
  Tc  Tc13  1  0.374994  0.192179  0.000000  1
  Tc  Tc14  1  0.192179  0.374994  0.000000  1
  Tc  Tc15  1  0.625006  0.817185  0.625006  1
  Tc  Tc16  1  0.374994  0.000000  0.192179  1
  Tc  Tc17  1  0.000000  0.374994  0.192179  1
  Tc  Tc18  1  0.817185  0.625006  0.625006  1
  Tc  Tc19  1  0.182815  0.807821  0.807821  1
  Tc  Tc20  1  0.807821  0.182815  0.807821  1
  Tc  Tc21  1  0.192179  0.000000  0.374994  1
  Tc  Tc22  1  0.000000  0.192179  0.374994  1
  Tc  Tc23  1  0.625006  0.625006  0.817185  1
  Tc  Tc24  1  0.394901  0.000000  0.673743  1
  Tc  Tc25  1  0.605099  0.278843  0.605099  1
  Tc  Tc26  1  0.673743  0.394901  0.000000  1
  Tc  Tc27  1  0.394901  0.673743  0.000000  1
  Tc  Tc28  1  0.326257  0.326257  0.721157  1
