# generated using pymatgen
data_Ca4ErIr2
_symmetry_space_group_name_H-M   'P 1'
_cell_length_a   6.59935046
_cell_length_b   7.39001381
_cell_length_c   8.65630966
_cell_angle_alpha   97.23916265
_cell_angle_beta   112.40724549
_cell_angle_gamma   89.99999597
_symmetry_Int_Tables_number   1
_chemical_formula_structural   Ca4ErIr2
_chemical_formula_sum   'Ca8 Er2 Ir4'
_cell_volume   386.64548361
_cell_formula_units_Z   2
loop_
 _symmetry_equiv_pos_site_id
 _symmetry_equiv_pos_as_xyz
  1  'x, y, z'
loop_
 _atom_site_type_symbol
 _atom_site_label
 _atom_site_symmetry_multiplicity
 _atom_site_fract_x
 _atom_site_fract_y
 _atom_site_fract_z
 _atom_site_occupancy
  Ca  Ca0  1  0.976169  0.920222  0.172812  1
  Ca  Ca1  1  0.803359  0.579778  0.827188  1
  Ca  Ca2  1  0.023831  0.079778  0.827188  1
  Ca  Ca3  1  0.196641  0.420222  0.172812  1
  Ca  Ca4  1  0.640649  0.819787  0.435749  1
  Ca  Ca5  1  0.204900  0.680213  0.564251  1
  Ca  Ca6  1  0.359351  0.180213  0.564251  1
  Ca  Ca7  1  0.795100  0.319787  0.435749  1
  Er  Er8  1  0.439848  0.750000  0.000000  1
  Er  Er9  1  0.560152  0.250000  0.000000  1
  Ir  Ir10  1  0.805426  0.573611  0.206664  1
  Ir  Ir11  1  0.598764  0.926389  0.793336  1
  Ir  Ir12  1  0.194574  0.426389  0.793336  1
  Ir  Ir13  1  0.401236  0.073611  0.206664  1
