# generated using pymatgen
data_Cs2PrDy5(CBr6)2
_symmetry_space_group_name_H-M   'P 1'
_cell_length_a   8.88063207
_cell_length_b   8.91489778
_cell_length_c   9.51578325
_cell_angle_alpha   71.04107475
_cell_angle_beta   84.96846344
_cell_angle_gamma   89.27936817
_symmetry_Int_Tables_number   1
_chemical_formula_structural   Cs2PrDy5(CBr6)2
_chemical_formula_sum   'Cs2 Pr1 Dy5 C2 Br12'
_cell_volume   709.64832644
_cell_formula_units_Z   1
loop_
 _symmetry_equiv_pos_site_id
 _symmetry_equiv_pos_as_xyz
  1  'x, y, z'
loop_
 _atom_site_type_symbol
 _atom_site_label
 _atom_site_symmetry_multiplicity
 _atom_site_fract_x
 _atom_site_fract_y
 _atom_site_fract_z
 _atom_site_occupancy
  Cs  Cs0  1  0.467221  0.364227  0.330735  1
  Cs  Cs1  1  0.532256  0.636226  0.668727  1
  Pr  Pr2  1  0.913947  0.735605  0.004451  1
  Dy  Dy3  1  0.085518  0.256370  0.995355  1
  Dy  Dy4  1  0.745602  0.083722  0.000826  1
  Dy  Dy5  1  0.254195  0.913571  0.999047  1
  Dy  Dy6  1  0.973641  0.888938  0.322474  1
  Dy  Dy7  1  0.026792  0.114458  0.676984  1
  C  C8  1  0.007900  0.031038  0.920453  1
  C  C9  1  0.995203  0.977664  0.078527  1
  Br  Br10  1  0.075366  0.195838  0.326993  1
  Br  Br11  1  0.925773  0.809730  0.663050  1
  Br  Br12  1  0.217035  0.590550  0.000366  1
  Br  Br13  1  0.795986  0.399644  0.998876  1
  Br  Br14  1  0.400969  0.196781  0.002204  1
  Br  Br15  1  0.587515  0.806709  0.998064  1
  Br  Br16  1  0.668935  0.001295  0.322121  1
  Br  Br17  1  0.329793  0.999685  0.676361  1
  Br  Br18  1  0.277164  0.777371  0.320310  1
  Br  Br19  1  0.721612  0.221301  0.680636  1
  Br  Br20  1  0.850878  0.590635  0.337714  1
  Br  Br21  1  0.146695  0.408643  0.675726  1
