# generated using pymatgen
data_Ce5MnTcB6
_symmetry_space_group_name_H-M   'P 1'
_cell_length_a   5.40579978
_cell_length_b   5.40580186
_cell_length_c   8.33385165
_cell_angle_alpha   71.08185876
_cell_angle_beta   71.08186387
_cell_angle_gamma   59.99619761
_symmetry_Int_Tables_number   1
_chemical_formula_structural   Ce5MnTcB6
_chemical_formula_sum   'Ce5 Mn1 Tc1 B6'
_cell_volume   195.56501063
_cell_formula_units_Z   1
loop_
 _symmetry_equiv_pos_site_id
 _symmetry_equiv_pos_as_xyz
  1  'x, y, z'
loop_
 _atom_site_type_symbol
 _atom_site_label
 _atom_site_symmetry_multiplicity
 _atom_site_fract_x
 _atom_site_fract_y
 _atom_site_fract_z
 _atom_site_occupancy
  Ce  Ce0  1  0.007211  0.007211  0.978298  1
  Ce  Ce1  1  0.745986  0.745986  0.762082  1
  Ce  Ce2  1  0.254335  0.254335  0.236756  1
  Ce  Ce3  1  0.587054  0.587054  0.238890  1
  Ce  Ce4  1  0.412185  0.412185  0.763527  1
  Mn  Mn5  1  0.109937  0.109937  0.670246  1
  Tc  Tc6  1  0.892121  0.892121  0.323601  1
  B  B7  1  0.495618  0.168490  0.504424  1
  B  B8  1  0.831500  0.495611  0.504428  1
  B  B9  1  0.168510  0.831444  0.504448  1
  B  B10  1  0.168490  0.495618  0.504424  1
  B  B11  1  0.831444  0.168510  0.504448  1
  B  B12  1  0.495611  0.831500  0.504428  1
