# generated using pymatgen
data_U2Nb4Co16Si7
_symmetry_space_group_name_H-M   'P 1'
_cell_length_a   8.01876797
_cell_length_b   8.01742880
_cell_length_c   7.99736801
_cell_angle_alpha   60.07999395
_cell_angle_beta   60.08394063
_cell_angle_gamma   60.19769269
_symmetry_Int_Tables_number   1
_chemical_formula_structural   U2Nb4Co16Si7
_chemical_formula_sum   'U2 Nb4 Co16 Si7'
_cell_volume   364.55081001
_cell_formula_units_Z   1
loop_
 _symmetry_equiv_pos_site_id
 _symmetry_equiv_pos_as_xyz
  1  'x, y, z'
loop_
 _atom_site_type_symbol
 _atom_site_label
 _atom_site_symmetry_multiplicity
 _atom_site_fract_x
 _atom_site_fract_y
 _atom_site_fract_z
 _atom_site_occupancy
  U  U0  1  0.206670  0.793421  0.787558  1
  U  U1  1  0.206660  0.793321  0.212433  1
  Nb  Nb2  1  0.792900  0.207082  0.198544  1
  Nb  Nb3  1  0.792903  0.207128  0.801514  1
  Nb  Nb4  1  0.777549  0.800491  0.211035  1
  Nb  Nb5  1  0.199586  0.222427  0.788987  1
  Co  Co6  1  0.381720  0.378632  0.381648  1
  Co  Co7  1  0.491369  0.831908  0.838330  1
  Co  Co8  1  0.621382  0.618292  0.141949  1
  Co  Co9  1  0.171457  0.156555  0.505537  1
  Co  Co10  1  0.843420  0.828515  0.494391  1
  Co  Co11  1  0.171483  0.156531  0.166404  1
  Co  Co12  1  0.843401  0.828548  0.833622  1
  Co  Co13  1  0.381693  0.378650  0.858059  1
  Co  Co14  1  0.838111  0.502328  0.829753  1
  Co  Co15  1  0.621364  0.618285  0.618345  1
  Co  Co16  1  0.381932  0.858371  0.379873  1
  Co  Co17  1  0.141565  0.618125  0.620151  1
  Co  Co18  1  0.616770  0.144562  0.619310  1
  Co  Co19  1  0.168058  0.508709  0.161622  1
  Co  Co20  1  0.855416  0.383247  0.380682  1
  Co  Co21  1  0.497600  0.161848  0.170257  1
  Si  Si22  1  0.977167  0.022854  0.500004  1
  Si  Si23  1  0.509903  0.007581  0.496840  1
  Si  Si24  1  0.500759  0.499178  0.499975  1
  Si  Si25  1  0.992503  0.490067  0.014302  1
  Si  Si26  1  0.514109  0.485901  0.000036  1
  Si  Si27  1  0.509988  0.007456  0.985694  1
  Si  Si28  1  0.992558  0.489988  0.503146  1
