# generated using pymatgen
data_TbY(ThH5)6
_symmetry_space_group_name_H-M   'P 1'
_cell_length_a   7.83897927
_cell_length_b   7.83789370
_cell_length_c   7.80978703
_cell_angle_alpha   109.45680016
_cell_angle_beta   109.46377269
_cell_angle_gamma   109.64953099
_symmetry_Int_Tables_number   1
_chemical_formula_structural   TbY(ThH5)6
_chemical_formula_sum   'Tb1 Y1 Th6 H30'
_cell_volume   368.66649060
_cell_formula_units_Z   1
loop_
 _symmetry_equiv_pos_site_id
 _symmetry_equiv_pos_as_xyz
  1  'x, y, z'
loop_
 _atom_site_type_symbol
 _atom_site_label
 _atom_site_symmetry_multiplicity
 _atom_site_fract_x
 _atom_site_fract_y
 _atom_site_fract_z
 _atom_site_occupancy
  Tb  Tb0  1  0.498540  0.999416  0.083492  1
  Y  Y1  1  0.914820  0.915737  0.916337  1
  Th  Th2  1  0.994531  0.079759  0.495433  1
  Th  Th3  1  0.084612  0.504038  0.000655  1
  Th  Th4  1  0.999075  0.584341  0.504634  1
  Th  Th5  1  0.583982  0.503457  0.999304  1
  Th  Th6  1  0.503834  0.998841  0.587108  1
  Th  Th7  1  0.416633  0.411750  0.412879  1
  H  H8  1  0.651339  0.965768  0.371059  1
  H  H9  1  0.218317  0.315798  0.846342  1
  H  H10  1  0.186236  0.404066  0.533967  1
  H  H11  1  0.095587  0.280666  0.126668  1
  H  H12  1  0.281465  0.124061  0.093592  1
  H  H13  1  0.125890  0.093890  0.277966  1
  H  H14  1  0.468879  0.154078  0.873207  1
  H  H15  1  0.719552  0.349754  0.814404  1
  H  H16  1  0.627581  0.379841  0.251369  1
  H  H17  1  0.249958  0.624692  0.375397  1
  H  H18  1  0.750677  0.872948  0.127259  1
  H  H19  1  0.123398  0.745671  0.872796  1
  H  H20  1  0.374562  0.249296  0.624595  1
  H  H21  1  0.876263  0.128487  0.748635  1
  H  H22  1  0.780316  0.594792  0.629012  1
  H  H23  1  0.317082  0.848110  0.221185  1
  H  H24  1  0.373647  0.656935  0.967746  1
  H  H25  1  0.965498  0.369779  0.651423  1
  H  H26  1  0.535227  0.185327  0.405992  1
  H  H27  1  0.405142  0.535334  0.185593  1
  H  H28  1  0.842323  0.218182  0.313015  1
  H  H29  1  0.905941  0.689402  0.032169  1
  H  H30  1  0.814076  0.718358  0.348592  1
  H  H31  1  0.152285  0.870103  0.466039  1
  H  H32  1  0.688302  0.030421  0.906369  1
  H  H33  1  0.347862  0.815788  0.721805  1
  H  H34  1  0.871968  0.469446  0.153679  1
  H  H35  1  0.629344  0.779389  0.594118  1
  H  H36  1  0.596013  0.627049  0.778887  1
  H  H37  1  0.029243  0.905229  0.687275  1
