# generated using pymatgen
data_Hf4Zn2InRe
_symmetry_space_group_name_H-M   'P 1'
_cell_length_a   6.76429200
_cell_length_b   6.66565700
_cell_length_c   6.76582000
_cell_angle_alpha   90.00000000
_cell_angle_beta   90.00000000
_cell_angle_gamma   90.00000000
_symmetry_Int_Tables_number   1
_chemical_formula_structural   Hf4Zn2InRe
_chemical_formula_sum   'Hf8 Zn4 In2 Re2'
_cell_volume   305.06033894
_cell_formula_units_Z   2
loop_
 _symmetry_equiv_pos_site_id
 _symmetry_equiv_pos_as_xyz
  1  'x, y, z'
loop_
 _atom_site_type_symbol
 _atom_site_label
 _atom_site_symmetry_multiplicity
 _atom_site_fract_x
 _atom_site_fract_y
 _atom_site_fract_z
 _atom_site_occupancy
  Hf  Hf0  1  0.763944  0.500067  0.263978  1
  Hf  Hf1  1  0.763944  0.999932  0.263978  1
  Hf  Hf2  1  0.236057  0.000067  0.263980  1
  Hf  Hf3  1  0.236057  0.499932  0.263980  1
  Hf  Hf4  1  0.763944  0.500067  0.736019  1
  Hf  Hf5  1  0.763944  0.999932  0.736019  1
  Hf  Hf6  1  0.236055  0.000067  0.736022  1
  Hf  Hf7  1  0.236055  0.499932  0.736022  1
  Zn  Zn8  1  0.999861  0.250000  0.000000  1
  Zn  Zn9  1  0.000140  0.749999  0.000000  1
  Zn  Zn10  1  0.499827  0.749999  0.500000  1
  Zn  Zn11  1  0.500174  0.250000  0.500001  1
  In  In12  1  0.500118  0.250000  0.000000  1
  In  In13  1  0.499881  0.749999  0.000000  1
  Re  Re14  1  0.999940  0.250000  0.500000  1
  Re  Re15  1  0.000060  0.749999  0.500000  1
