# generated using pymatgen
data_LiLuZrBIr5
_symmetry_space_group_name_H-M   'P 1'
_cell_length_a   5.73299028
_cell_length_b   5.73298983
_cell_length_c   5.75742000
_cell_angle_alpha   59.85893590
_cell_angle_beta   59.85893852
_cell_angle_gamma   61.07821417
_symmetry_Int_Tables_number   1
_chemical_formula_structural   LiLuZrBIr5
_chemical_formula_sum   'Li1 Lu1 Zr1 B1 Ir5'
_cell_volume   134.56893818
_cell_formula_units_Z   1
loop_
 _symmetry_equiv_pos_site_id
 _symmetry_equiv_pos_as_xyz
  1  'x, y, z'
loop_
 _atom_site_type_symbol
 _atom_site_label
 _atom_site_symmetry_multiplicity
 _atom_site_fract_x
 _atom_site_fract_y
 _atom_site_fract_z
 _atom_site_occupancy
  Li  Li0  1  0.730354  0.730354  0.269646  1
  Lu  Lu1  1  0.750375  0.750375  0.749625  1
  Zr  Zr2  1  0.247320  0.247320  0.252680  1
  B  B3  1  0.004840  0.004840  0.995160  1
  Ir  Ir4  1  0.256502  0.744294  0.254966  1
  Ir  Ir5  1  0.744294  0.256502  0.254966  1
  Ir  Ir6  1  0.265519  0.265519  0.734481  1
  Ir  Ir7  1  0.744294  0.256502  0.744238  1
  Ir  Ir8  1  0.256502  0.744294  0.744238  1
