# generated using pymatgen
data_Ta12Al8AgRu3C4
_symmetry_space_group_name_H-M   'P 1'
_cell_length_a   8.31249657
_cell_length_b   8.35488244
_cell_length_c   8.35488200
_cell_angle_alpha   60.00000968
_cell_angle_beta   59.83119053
_cell_angle_gamma   59.83118806
_symmetry_Int_Tables_number   1
_chemical_formula_structural   Ta12Al8AgRu3C4
_chemical_formula_sum   'Ta12 Al8 Ag1 Ru3 C4'
_cell_volume   409.24588150
_cell_formula_units_Z   1
loop_
 _symmetry_equiv_pos_site_id
 _symmetry_equiv_pos_as_xyz
  1  'x, y, z'
loop_
 _atom_site_type_symbol
 _atom_site_label
 _atom_site_symmetry_multiplicity
 _atom_site_fract_x
 _atom_site_fract_y
 _atom_site_fract_z
 _atom_site_occupancy
  Ta  Ta0  1  0.559221  0.935217  0.570347  1
  Ta  Ta1  1  0.311437  0.687860  0.687860  1
  Ta  Ta2  1  0.690779  0.314783  0.314783  1
  Ta  Ta3  1  0.311437  0.687860  0.312843  1
  Ta  Ta4  1  0.690779  0.679653  0.314783  1
  Ta  Ta5  1  0.311437  0.312843  0.687860  1
  Ta  Ta6  1  0.559221  0.570347  0.935217  1
  Ta  Ta7  1  0.938563  0.562140  0.562140  1
  Ta  Ta8  1  0.559221  0.935217  0.935217  1
  Ta  Ta9  1  0.938563  0.937157  0.562140  1
  Ta  Ta10  1  0.690779  0.314783  0.679653  1
  Ta  Ta11  1  0.938563  0.562140  0.937157  1
  Al  Al12  1  0.922017  0.912451  0.912451  1
  Al  Al13  1  0.003909  0.332030  0.332030  1
  Al  Al14  1  0.327983  0.996918  0.337549  1
  Al  Al15  1  0.327983  0.337549  0.996918  1
  Al  Al16  1  0.922017  0.253082  0.912451  1
  Al  Al17  1  0.922017  0.912451  0.253082  1
  Al  Al18  1  0.246091  0.917970  0.917970  1
  Al  Al19  1  0.327983  0.337549  0.337549  1
  Ag  Ag20  1  0.625000  0.125000  0.125000  1
  Ru  Ru21  1  0.125000  0.125000  0.125000  1
  Ru  Ru22  1  0.125000  0.625000  0.125000  1
  Ru  Ru23  1  0.125000  0.125000  0.625000  1
  C  C24  1  0.625000  0.625000  0.625000  1
  C  C25  1  0.125000  0.625000  0.625000  1
  C  C26  1  0.625000  0.125000  0.625000  1
  C  C27  1  0.625000  0.625000  0.125000  1
