# generated using pymatgen
data_Gd4B20IrRh
_symmetry_space_group_name_H-M   'P 1'
_cell_length_a   4.17550000
_cell_length_b   5.69127442
_cell_length_c   11.35404984
_cell_angle_alpha   89.95597089
_cell_angle_beta   90.00000000
_cell_angle_gamma   90.00000000
_symmetry_Int_Tables_number   1
_chemical_formula_structural   Gd4B20IrRh
_chemical_formula_sum   'Gd4 B20 Ir1 Rh1'
_cell_volume   269.81661082
_cell_formula_units_Z   1
loop_
 _symmetry_equiv_pos_site_id
 _symmetry_equiv_pos_as_xyz
  1  'x, y, z'
loop_
 _atom_site_type_symbol
 _atom_site_label
 _atom_site_symmetry_multiplicity
 _atom_site_fract_x
 _atom_site_fract_y
 _atom_site_fract_z
 _atom_site_occupancy
  Gd  Gd0  1  0.500000  0.202242  0.365080  1
  Gd  Gd1  1  0.500000  0.797758  0.634920  1
  Gd  Gd2  1  0.500000  0.294903  0.864162  1
  Gd  Gd3  1  0.500000  0.705097  0.135838  1
  B  B4  1  0.000000  0.381117  0.042653  1
  B  B5  1  0.000000  0.618883  0.957347  1
  B  B6  1  0.000000  0.118904  0.542670  1
  B  B7  1  0.000000  0.881096  0.457330  1
  B  B8  1  0.000000  0.362865  0.197495  1
  B  B9  1  0.000000  0.637135  0.802505  1
  B  B10  1  0.000000  0.137349  0.697055  1
  B  B11  1  0.000000  0.862651  0.302945  1
  B  B12  1  0.000000  0.055096  0.193088  1
  B  B13  1  0.000000  0.944904  0.806912  1
  B  B14  1  0.000000  0.444685  0.692716  1
  B  B15  1  0.000000  0.555315  0.307284  1
  B  B16  1  0.301190  0.219296  0.118881  1
  B  B17  1  0.698810  0.780704  0.881119  1
  B  B18  1  0.301190  0.780704  0.881119  1
  B  B19  1  0.698771  0.281122  0.618578  1
  B  B20  1  0.698810  0.219296  0.118881  1
  B  B21  1  0.301229  0.718878  0.381422  1
  B  B22  1  0.698771  0.718878  0.381422  1
  B  B23  1  0.301229  0.281122  0.618578  1
  Ir  Ir24  1  0.000000  0.000000  0.000000  1
  Rh  Rh25  1  0.000000  0.500000  0.500000  1
