# generated using pymatgen
data_Dy3ZnHg4Au
_symmetry_space_group_name_H-M   'P 1'
_cell_length_a   8.02687000
_cell_length_b   8.02686935
_cell_length_c   3.71795100
_cell_angle_alpha   90.00000000
_cell_angle_beta   90.00000000
_cell_angle_gamma   120.00001094
_symmetry_Int_Tables_number   1
_chemical_formula_structural   Dy3ZnHg4Au
_chemical_formula_sum   'Dy3 Zn1 Hg4 Au1'
_cell_volume   207.45631958
_cell_formula_units_Z   1
loop_
 _symmetry_equiv_pos_site_id
 _symmetry_equiv_pos_as_xyz
  1  'x, y, z'
loop_
 _atom_site_type_symbol
 _atom_site_label
 _atom_site_symmetry_multiplicity
 _atom_site_fract_x
 _atom_site_fract_y
 _atom_site_fract_z
 _atom_site_occupancy
  Dy  Dy0  1  0.606647  0.013957  0.000000  1
  Dy  Dy1  1  0.986043  0.592690  0.000000  1
  Dy  Dy2  1  0.407310  0.393353  0.000000  1
  Zn  Zn3  1  0.000000  0.000000  0.000000  1
  Hg  Hg4  1  0.261151  0.998043  0.500000  1
  Hg  Hg5  1  0.001957  0.263109  0.500000  1
  Hg  Hg6  1  0.736891  0.738849  0.500000  1
  Hg  Hg7  1  0.333333  0.666667  0.500000  1
  Au  Au8  1  0.666667  0.333333  0.500000  1
