# generated using pymatgen
data_Dy2Er10In2FeTc2
_symmetry_space_group_name_H-M   'P 1'
_cell_length_a   8.34822208
_cell_length_b   8.34822382
_cell_length_c   8.36742512
_cell_angle_alpha   108.75796011
_cell_angle_beta   108.75795562
_cell_angle_gamma   110.81665373
_symmetry_Int_Tables_number   1
_chemical_formula_structural   Dy2Er10In2FeTc2
_chemical_formula_sum   'Dy2 Er10 In2 Fe1 Tc2'
_cell_volume   449.21149515
_cell_formula_units_Z   1
loop_
 _symmetry_equiv_pos_site_id
 _symmetry_equiv_pos_as_xyz
  1  'x, y, z'
loop_
 _atom_site_type_symbol
 _atom_site_label
 _atom_site_symmetry_multiplicity
 _atom_site_fract_x
 _atom_site_fract_y
 _atom_site_fract_z
 _atom_site_occupancy
  Dy  Dy0  1  0.303443  0.303443  0.609564  1
  Dy  Dy1  1  0.693878  0.693878  0.390436  1
  Er  Er2  1  0.693350  0.304209  0.000000  1
  Er  Er3  1  0.304209  0.693350  0.000000  1
  Er  Er4  1  0.189351  0.430777  0.239709  1
  Er  Er5  1  0.808032  0.569789  0.763256  1
  Er  Er6  1  0.191070  0.949641  0.760291  1
  Er  Er7  1  0.949641  0.191070  0.760291  1
  Er  Er8  1  0.806533  0.044777  0.236744  1
  Er  Er9  1  0.044777  0.806533  0.236744  1
  Er  Er10  1  0.430777  0.189351  0.239709  1
  Er  Er11  1  0.569789  0.808032  0.763256  1
  In  In12  1  0.998224  0.498224  0.500000  1
  In  In13  1  0.498224  0.998224  0.500000  1
  Fe  Fe14  1  0.630539  0.630539  0.000000  1
  Tc  Tc15  1  0.387485  0.387485  0.000000  1
  Tc  Tc16  1  0.000679  0.000679  0.000000  1
