# generated using pymatgen
data_Tm10CuTc3Te4
_symmetry_space_group_name_H-M   'P 1'
_cell_length_a   8.79622745
_cell_length_b   8.79622892
_cell_length_c   7.55038000
_cell_angle_alpha   88.46089397
_cell_angle_beta   88.46089371
_cell_angle_gamma   128.60893724
_symmetry_Int_Tables_number   1
_chemical_formula_structural   Tm10CuTc3Te4
_chemical_formula_sum   'Tm10 Cu1 Tc3 Te4'
_cell_volume   455.63091440
_cell_formula_units_Z   1
loop_
 _symmetry_equiv_pos_site_id
 _symmetry_equiv_pos_as_xyz
  1  'x, y, z'
loop_
 _atom_site_type_symbol
 _atom_site_label
 _atom_site_symmetry_multiplicity
 _atom_site_fract_x
 _atom_site_fract_y
 _atom_site_fract_z
 _atom_site_occupancy
  Tm  Tm0  1  0.998568  0.998568  0.005984  1
  Tm  Tm1  1  0.506214  0.506214  0.503326  1
  Tm  Tm2  1  0.765162  0.530399  0.149180  1
  Tm  Tm3  1  0.444852  0.192684  0.825569  1
  Tm  Tm4  1  0.962579  0.723758  0.675736  1
  Tm  Tm5  1  0.305219  0.062698  0.337010  1
  Tm  Tm6  1  0.192684  0.444852  0.825569  1
  Tm  Tm7  1  0.530399  0.765162  0.149180  1
  Tm  Tm8  1  0.062698  0.305219  0.337010  1
  Tm  Tm9  1  0.723758  0.962579  0.675736  1
  Cu  Cu10  1  0.882314  0.882314  0.378591  1
  Tc  Tc11  1  0.129143  0.129143  0.623846  1
  Tc  Tc12  1  0.612512  0.612512  0.870827  1
  Tc  Tc13  1  0.367297  0.367297  0.106439  1
  Te  Te14  1  0.194914  0.769814  0.014320  1
  Te  Te15  1  0.737726  0.314148  0.503678  1
  Te  Te16  1  0.769814  0.194914  0.014320  1
  Te  Te17  1  0.314148  0.737726  0.503678  1
