# generated using pymatgen
data_TbDy4Ho(Si2Ni)2
_symmetry_space_group_name_H-M   'P 1'
_cell_length_a   4.11656000
_cell_length_b   11.19575100
_cell_length_c   11.24700600
_cell_angle_alpha   90.00000000
_cell_angle_beta   90.00000000
_cell_angle_gamma   90.00000000
_symmetry_Int_Tables_number   1
_chemical_formula_structural   TbDy4Ho(Si2Ni)2
_chemical_formula_sum   'Tb2 Dy8 Ho2 Si8 Ni4'
_cell_volume   518.35179587
_cell_formula_units_Z   2
loop_
 _symmetry_equiv_pos_site_id
 _symmetry_equiv_pos_as_xyz
  1  'x, y, z'
loop_
 _atom_site_type_symbol
 _atom_site_label
 _atom_site_symmetry_multiplicity
 _atom_site_fract_x
 _atom_site_fract_y
 _atom_site_fract_z
 _atom_site_occupancy
  Tb  Tb0  1  0.250000  0.124902  0.557719  1
  Tb  Tb1  1  0.250000  0.375098  0.057719  1
  Dy  Dy2  1  0.750000  0.940265  0.117755  1
  Dy  Dy3  1  0.750000  0.559735  0.617755  1
  Dy  Dy4  1  0.750000  0.875286  0.442363  1
  Dy  Dy5  1  0.750000  0.624714  0.942363  1
  Dy  Dy6  1  0.250000  0.803778  0.714250  1
  Dy  Dy7  1  0.250000  0.696222  0.214250  1
  Dy  Dy8  1  0.750000  0.196442  0.285693  1
  Dy  Dy9  1  0.750000  0.303558  0.785693  1
  Ho  Ho10  1  0.250000  0.059526  0.882395  1
  Ho  Ho11  1  0.250000  0.440474  0.382395  1
  Si  Si12  1  0.250000  0.813734  0.974942  1
  Si  Si13  1  0.250000  0.686266  0.474942  1
  Si  Si14  1  0.750000  0.186142  0.024635  1
  Si  Si15  1  0.750000  0.313858  0.524635  1
  Si  Si16  1  0.250000  0.495311  0.803592  1
  Si  Si17  1  0.250000  0.004689  0.303592  1
  Si  Si18  1  0.750000  0.504429  0.196826  1
  Si  Si19  1  0.750000  0.995571  0.696826  1
  Ni  Ni20  1  0.250000  0.366471  0.629490  1
  Ni  Ni21  1  0.250000  0.133529  0.129490  1
  Ni  Ni22  1  0.750000  0.633461  0.370342  1
  Ni  Ni23  1  0.750000  0.866539  0.870342  1
