# generated using pymatgen
data_La9Nd7(CdCo)4
_symmetry_space_group_name_H-M   'P 1'
_cell_length_a   9.90097544
_cell_length_b   9.90097489
_cell_length_c   9.91632400
_cell_angle_alpha   59.94871116
_cell_angle_beta   59.94871298
_cell_angle_gamma   60.44171504
_symmetry_Int_Tables_number   1
_chemical_formula_structural   La9Nd7(CdCo)4
_chemical_formula_sum   'La9 Nd7 Cd4 Co4'
_cell_volume   689.09820101
_cell_formula_units_Z   1
loop_
 _symmetry_equiv_pos_site_id
 _symmetry_equiv_pos_as_xyz
  1  'x, y, z'
loop_
 _atom_site_type_symbol
 _atom_site_label
 _atom_site_symmetry_multiplicity
 _atom_site_fract_x
 _atom_site_fract_y
 _atom_site_fract_z
 _atom_site_occupancy
  La  La0  1  0.345469  0.345469  0.346007  1
  La  La1  1  0.345469  0.345469  0.963054  1
  La  La2  1  0.347688  0.963554  0.344379  1
  La  La3  1  0.963554  0.347688  0.344379  1
  La  La4  1  0.809096  0.187530  0.190675  1
  La  La5  1  0.187530  0.809096  0.812700  1
  La  La6  1  0.187530  0.809096  0.190675  1
  La  La7  1  0.809096  0.187530  0.812700  1
  La  La8  1  0.189481  0.189481  0.810519  1
  Nd  Nd9  1  0.806436  0.806436  0.193564  1
  Nd  Nd10  1  0.936244  0.563769  0.563849  1
  Nd  Nd11  1  0.563769  0.936244  0.936138  1
  Nd  Nd12  1  0.563769  0.936244  0.563849  1
  Nd  Nd13  1  0.936244  0.563769  0.936138  1
  Nd  Nd14  1  0.562702  0.562702  0.937298  1
  Nd  Nd15  1  0.938216  0.938216  0.561784  1
  Cd  Cd16  1  0.580661  0.580661  0.578192  1
  Cd  Cd17  1  0.580661  0.580661  0.260485  1
  Cd  Cd18  1  0.580531  0.259832  0.579818  1
  Cd  Cd19  1  0.259832  0.580531  0.579818  1
  Co  Co20  1  0.139720  0.139720  0.139871  1
  Co  Co21  1  0.139720  0.139720  0.580690  1
  Co  Co22  1  0.146902  0.579683  0.136707  1
  Co  Co23  1  0.579683  0.146902  0.136707  1
