# generated using pymatgen
data_Nb12V3Fe9N4
_symmetry_space_group_name_H-M   'P 1'
_cell_length_a   8.11849151
_cell_length_b   8.11849003
_cell_length_c   8.11849101
_cell_angle_alpha   59.37176377
_cell_angle_beta   59.37176630
_cell_angle_gamma   59.37176436
_symmetry_Int_Tables_number   1
_chemical_formula_structural   Nb12V3Fe9N4
_chemical_formula_sum   'Nb12 V3 Fe9 N4'
_cell_volume   372.95479498
_cell_formula_units_Z   1
loop_
 _symmetry_equiv_pos_site_id
 _symmetry_equiv_pos_as_xyz
  1  'x, y, z'
loop_
 _atom_site_type_symbol
 _atom_site_label
 _atom_site_symmetry_multiplicity
 _atom_site_fract_x
 _atom_site_fract_y
 _atom_site_fract_z
 _atom_site_occupancy
  Nb  Nb0  1  0.802504  0.802504  0.199793  1
  Nb  Nb1  1  0.193519  0.193519  0.805504  1
  Nb  Nb2  1  0.802504  0.199793  0.802504  1
  Nb  Nb3  1  0.193519  0.805504  0.193519  1
  Nb  Nb4  1  0.199793  0.802504  0.802504  1
  Nb  Nb5  1  0.805504  0.193519  0.193519  1
  Nb  Nb6  1  0.447496  0.447496  0.050207  1
  Nb  Nb7  1  0.056481  0.056481  0.444496  1
  Nb  Nb8  1  0.447496  0.050207  0.447496  1
  Nb  Nb9  1  0.056481  0.444496  0.056481  1
  Nb  Nb10  1  0.050207  0.447496  0.447496  1
  Nb  Nb11  1  0.444496  0.056481  0.056481  1
  V  V12  1  0.125000  0.625000  0.625000  1
  V  V13  1  0.625000  0.125000  0.625000  1
  V  V14  1  0.625000  0.625000  0.125000  1
  Fe  Fe15  1  0.625000  0.625000  0.625000  1
  Fe  Fe16  1  0.728224  0.425518  0.425518  1
  Fe  Fe17  1  0.425518  0.728224  0.425518  1
  Fe  Fe18  1  0.425518  0.425518  0.728224  1
  Fe  Fe19  1  0.422067  0.422067  0.422067  1
  Fe  Fe20  1  0.521776  0.824482  0.824482  1
  Fe  Fe21  1  0.824482  0.521776  0.824482  1
  Fe  Fe22  1  0.824482  0.824482  0.521776  1
  Fe  Fe23  1  0.827933  0.827933  0.827933  1
  N  N24  1  0.625000  0.125000  0.125000  1
  N  N25  1  0.125000  0.625000  0.125000  1
  N  N26  1  0.125000  0.125000  0.625000  1
  N  N27  1  0.125000  0.125000  0.125000  1
