# generated using pymatgen
data_ZrCuNi4
_symmetry_space_group_name_H-M   'P 1'
_cell_length_a   4.76458419
_cell_length_b   4.76458439
_cell_length_c   4.76458500
_cell_angle_alpha   60.00000272
_cell_angle_beta   60.00000131
_cell_angle_gamma   60.00000229
_symmetry_Int_Tables_number   1
_chemical_formula_structural   ZrCuNi4
_chemical_formula_sum   'Zr1 Cu1 Ni4'
_cell_volume   76.48215757
_cell_formula_units_Z   1
loop_
 _symmetry_equiv_pos_site_id
 _symmetry_equiv_pos_as_xyz
  1  'x, y, z'
loop_
 _atom_site_type_symbol
 _atom_site_label
 _atom_site_symmetry_multiplicity
 _atom_site_fract_x
 _atom_site_fract_y
 _atom_site_fract_z
 _atom_site_occupancy
  Zr  Zr0  1  0.000000  0.000000  0.000000  1
  Cu  Cu1  1  0.750000  0.750000  0.750000  1
  Ni  Ni2  1  0.375949  0.872153  0.375949  1
  Ni  Ni3  1  0.375949  0.375949  0.872153  1
  Ni  Ni4  1  0.872153  0.375949  0.375949  1
  Ni  Ni5  1  0.375949  0.375949  0.375949  1
