# generated using pymatgen
data_Pa4Ta2Zn6Rh
_symmetry_space_group_name_H-M   'P 1'
_cell_length_a   10.61008711
_cell_length_b   10.61008725
_cell_length_c   10.61008753
_cell_angle_alpha   28.39693910
_cell_angle_beta   28.39693717
_cell_angle_gamma   28.39694277
_symmetry_Int_Tables_number   1
_chemical_formula_structural   Pa4Ta2Zn6Rh
_chemical_formula_sum   'Pa4 Ta2 Zn6 Rh1'
_cell_volume   238.73696709
_cell_formula_units_Z   1
loop_
 _symmetry_equiv_pos_site_id
 _symmetry_equiv_pos_as_xyz
  1  'x, y, z'
loop_
 _atom_site_type_symbol
 _atom_site_label
 _atom_site_symmetry_multiplicity
 _atom_site_fract_x
 _atom_site_fract_y
 _atom_site_fract_z
 _atom_site_occupancy
  Pa  Pa0  1  0.832226  0.832226  0.832226  1
  Pa  Pa1  1  0.167774  0.167774  0.167774  1
  Pa  Pa2  1  0.651284  0.651284  0.651284  1
  Pa  Pa3  1  0.348716  0.348716  0.348716  1
  Ta  Ta4  1  0.543188  0.543188  0.543188  1
  Ta  Ta5  1  0.456812  0.456812  0.456812  1
  Zn  Zn6  1  0.909900  0.408894  0.909900  1
  Zn  Zn7  1  0.909900  0.909900  0.408894  1
  Zn  Zn8  1  0.408894  0.909900  0.909900  1
  Zn  Zn9  1  0.090100  0.591106  0.090100  1
  Zn  Zn10  1  0.090100  0.090100  0.591106  1
  Zn  Zn11  1  0.591106  0.090100  0.090100  1
  Rh  Rh12  1  0.000000  0.000000  0.000000  1
