# generated using pymatgen
data_Ac3La4Nd3C4I15
_symmetry_space_group_name_H-M   'P 1'
_cell_length_a   10.02945979
_cell_length_b   10.84792892
_cell_length_c   12.10811287
_cell_angle_alpha   93.91708453
_cell_angle_beta   114.52915065
_cell_angle_gamma   109.02008465
_symmetry_Int_Tables_number   1
_chemical_formula_structural   Ac3La4Nd3C4I15
_chemical_formula_sum   'Ac3 La4 Nd3 C4 I15'
_cell_volume   1100.82054389
_cell_formula_units_Z   1
loop_
 _symmetry_equiv_pos_site_id
 _symmetry_equiv_pos_as_xyz
  1  'x, y, z'
loop_
 _atom_site_type_symbol
 _atom_site_label
 _atom_site_symmetry_multiplicity
 _atom_site_fract_x
 _atom_site_fract_y
 _atom_site_fract_z
 _atom_site_occupancy
  Ac  Ac0  1  0.601752  0.535285  0.346953  1
  Ac  Ac1  1  0.335754  0.746304  0.164372  1
  Ac  Ac2  1  0.787079  0.893462  0.262369  1
  La  La3  1  0.470357  0.811345  0.897352  1
  La  La4  1  0.701823  0.564996  0.041952  1
  La  La5  1  0.296132  0.431873  0.953850  1
  La  La6  1  0.651934  0.251192  0.834495  1
  Nd  Nd7  1  0.525727  0.186556  0.095068  1
  Nd  Nd8  1  0.229143  0.121714  0.746795  1
  Nd  Nd9  1  0.404124  0.457702  0.665374  1
  C  C10  1  0.482670  0.302251  0.937496  1
  C  C11  1  0.518791  0.700621  0.062947  1
  C  C12  1  0.454055  0.363495  0.836647  1
  C  C13  1  0.548638  0.638269  0.164732  1
  I  I14  1  0.209648  0.912434  0.933797  1
  I  I15  1  0.112282  0.192616  0.477590  1
  I  I16  1  0.155146  0.552888  0.703412  1
  I  I17  1  0.398479  0.968496  0.650630  1
  I  I18  1  0.708686  0.728841  0.821077  1
  I  I19  1  0.284956  0.259533  0.170034  1
  I  I20  1  0.847313  0.436184  0.286847  1
  I  I21  1  0.901592  0.817155  0.539007  1
  I  I22  1  0.357625  0.626967  0.417694  1
  I  I23  1  0.056350  0.831367  0.217368  1
  I  I24  1  0.787858  0.095341  0.058702  1
  I  I25  1  0.632605  0.366414  0.590694  1
  I  I26  1  0.954746  0.168479  0.780329  1
  I  I27  1  0.592304  0.043536  0.348090  1
  I  I28  1  0.992433  0.494687  0.994325  1
