# generated using pymatgen
data_SmU3PaGa15
_symmetry_space_group_name_H-M   'P 1'
_cell_length_a   12.62964302
_cell_length_b   12.62964272
_cell_length_c   12.62964200
_cell_angle_alpha   27.88997519
_cell_angle_beta   27.88997769
_cell_angle_gamma   27.88998021
_symmetry_Int_Tables_number   1
_chemical_formula_structural   SmU3PaGa15
_chemical_formula_sum   'Sm1 U3 Pa1 Ga15'
_cell_volume   389.27899630
_cell_formula_units_Z   1
loop_
 _symmetry_equiv_pos_site_id
 _symmetry_equiv_pos_as_xyz
  1  'x, y, z'
loop_
 _atom_site_type_symbol
 _atom_site_label
 _atom_site_symmetry_multiplicity
 _atom_site_fract_x
 _atom_site_fract_y
 _atom_site_fract_z
 _atom_site_occupancy
  Sm  Sm0  1  0.999897  0.999897  0.999897  1
  U  U1  1  0.599499  0.599499  0.599499  1
  U  U2  1  0.401273  0.401273  0.401273  1
  U  U3  1  0.869194  0.869194  0.869194  1
  Pa  Pa4  1  0.130384  0.130384  0.130384  1
  Ga  Ga5  1  0.569282  0.115383  0.115383  1
  Ga  Ga6  1  0.115383  0.569282  0.115383  1
  Ga  Ga7  1  0.115383  0.115383  0.569282  1
  Ga  Ga8  1  0.433076  0.882789  0.882789  1
  Ga  Ga9  1  0.882789  0.433076  0.882789  1
  Ga  Ga10  1  0.499824  0.499824  0.999901  1
  Ga  Ga11  1  0.499824  0.999901  0.499824  1
  Ga  Ga12  1  0.999901  0.499824  0.499824  1
  Ga  Ga13  1  0.637111  0.637111  0.128575  1
  Ga  Ga14  1  0.637111  0.128575  0.637111  1
  Ga  Ga15  1  0.128575  0.637111  0.637111  1
  Ga  Ga16  1  0.364841  0.364841  0.869027  1
  Ga  Ga17  1  0.364841  0.869027  0.364841  1
  Ga  Ga18  1  0.869027  0.364841  0.364841  1
  Ga  Ga19  1  0.882789  0.882789  0.433076  1
