# generated using pymatgen
data_Li11Pr12Al(TeO6)8
_symmetry_space_group_name_H-M   'P 1'
_cell_length_a   11.12615363
_cell_length_b   11.07596857
_cell_length_c   11.09268538
_cell_angle_alpha   109.15540768
_cell_angle_beta   109.74416437
_cell_angle_gamma   109.59456825
_symmetry_Int_Tables_number   1
_chemical_formula_structural   Li11Pr12Al(TeO6)8
_chemical_formula_sum   'Li11 Pr12 Al1 Te8 O48'
_cell_volume   1051.23592929
_cell_formula_units_Z   1
loop_
 _symmetry_equiv_pos_site_id
 _symmetry_equiv_pos_as_xyz
  1  'x, y, z'
loop_
 _atom_site_type_symbol
 _atom_site_label
 _atom_site_symmetry_multiplicity
 _atom_site_fract_x
 _atom_site_fract_y
 _atom_site_fract_z
 _atom_site_occupancy
  Li  Li0  1  0.250226  0.876236  0.128014  1
  Li  Li1  1  0.869566  0.126531  0.251431  1
  Li  Li2  1  0.376938  0.626350  0.249496  1
  Li  Li3  1  0.745790  0.625950  0.374168  1
  Li  Li4  1  0.625488  0.250230  0.375627  1
  Li  Li5  1  0.373137  0.749369  0.623881  1
  Li  Li6  1  0.256830  0.376087  0.627551  1
  Li  Li7  1  0.129497  0.872697  0.750009  1
  Li  Li8  1  0.622675  0.374623  0.749351  1
  Li  Li9  1  0.124093  0.251461  0.877059  1
  Li  Li10  1  0.749845  0.124568  0.874761  1
  Pr  Pr11  1  0.748084  0.370049  0.127129  1
  Pr  Pr12  1  0.374888  0.248102  0.124939  1
  Pr  Pr13  1  0.626995  0.885891  0.260438  1
  Pr  Pr14  1  0.126091  0.376409  0.252320  1
  Pr  Pr15  1  0.252207  0.124921  0.380885  1
  Pr  Pr16  1  0.132373  0.757779  0.385475  1
  Pr  Pr17  1  0.744701  0.872576  0.619730  1
  Pr  Pr18  1  0.873088  0.246722  0.622331  1
  Pr  Pr19  1  0.369064  0.121306  0.743824  1
  Pr  Pr20  1  0.870535  0.619066  0.739713  1
  Pr  Pr21  1  0.250245  0.625733  0.875532  1
  Pr  Pr22  1  0.617686  0.750847  0.868715  1
  Al  Al23  1  0.880330  0.746038  0.117317  1
  Te  Te24  1  0.002047  0.003009  0.002210  1
  Te  Te25  1  0.498216  0.998973  0.999248  1
  Te  Te26  1  0.502722  0.497921  0.000590  1
  Te  Te27  1  0.999804  0.499598  0.996559  1
  Te  Te28  1  0.994588  0.002578  0.504357  1
  Te  Te29  1  0.498498  0.499163  0.498327  1
  Te  Te30  1  0.500864  0.001590  0.502915  1
  Te  Te31  1  0.001768  0.499621  0.500219  1
  O  O32  1  0.903567  0.334285  0.022318  1
  O  O33  1  0.116183  0.193504  0.023206  1
  O  O34  1  0.402525  0.883514  0.074149  1
  O  O35  1  0.692006  0.692253  0.077119  1
  O  O36  1  0.665409  0.972063  0.088597  1
  O  O37  1  0.436813  0.621290  0.096498  1
  O  O38  1  0.913943  0.595531  0.106970  1
  O  O39  1  0.189967  0.021217  0.115744  1
  O  O40  1  0.577945  0.191697  0.171329  1
  O  O41  1  0.596414  0.476595  0.170065  1
  O  O42  1  0.165580  0.576643  0.190128  1
  O  O43  1  0.018615  0.114228  0.190490  1
  O  O44  1  0.384273  0.478960  0.306416  1
  O  O45  1  0.924710  0.330575  0.307131  1
  O  O46  1  0.309982  0.924794  0.333185  1
  O  O47  1  0.028728  0.887341  0.290909  1
  O  O48  1  0.906124  0.574845  0.383761  1
  O  O49  1  0.477495  0.308050  0.383210  1
  O  O50  1  0.518225  0.830147  0.407773  1
  O  O51  1  0.867412  0.090816  0.409200  1
  O  O52  1  0.779402  0.820908  0.416433  1
  O  O53  1  0.613634  0.094761  0.424885  1
  O  O54  1  0.306785  0.385955  0.475193  1
  O  O55  1  0.170853  0.591397  0.477628  1
  O  O56  1  0.690881  0.613100  0.522162  1
  O  O57  1  0.831225  0.406729  0.521697  1
  O  O58  1  0.214991  0.179607  0.584612  1
  O  O59  1  0.387769  0.908241  0.580745  1
  O  O60  1  0.128015  0.913330  0.593794  1
  O  O61  1  0.481064  0.171514  0.595997  1
  O  O62  1  0.520470  0.691784  0.614033  1
  O  O63  1  0.097669  0.425647  0.617799  1
  O  O64  1  0.973882  0.093803  0.678834  1
  O  O65  1  0.693802  0.076984  0.671536  1
  O  O66  1  0.613511  0.522009  0.691284  1
  O  O67  1  0.076722  0.668087  0.692730  1
  O  O68  1  0.976763  0.879802  0.813007  1
  O  O69  1  0.829362  0.426500  0.807951  1
  O  O70  1  0.415770  0.530791  0.836986  1
  O  O71  1  0.418682  0.806293  0.827175  1
  O  O72  1  0.808394  0.974424  0.887041  1
  O  O73  1  0.078195  0.409290  0.885634  1
  O  O74  1  0.578381  0.385703  0.908058  1
  O  O75  1  0.331239  0.025450  0.910789  1
  O  O76  1  0.330341  0.311302  0.926547  1
  O  O77  1  0.595180  0.114202  0.925387  1
  O  O78  1  0.092684  0.671809  0.978502  1
  O  O79  1  0.879548  0.800246  0.981239  1
