# generated using pymatgen
data_BaNa28SrPb8
_symmetry_space_group_name_H-M   'P 1'
_cell_length_a   11.65179025
_cell_length_b   11.66266209
_cell_length_c   11.65508838
_cell_angle_alpha   109.54445373
_cell_angle_beta   109.46857633
_cell_angle_gamma   109.36865627
_symmetry_Int_Tables_number   1
_chemical_formula_structural   BaNa28SrPb8
_chemical_formula_sum   'Ba1 Na28 Sr1 Pb8'
_cell_volume   1219.70421165
_cell_formula_units_Z   1
loop_
 _symmetry_equiv_pos_site_id
 _symmetry_equiv_pos_as_xyz
  1  'x, y, z'
loop_
 _atom_site_type_symbol
 _atom_site_label
 _atom_site_symmetry_multiplicity
 _atom_site_fract_x
 _atom_site_fract_y
 _atom_site_fract_z
 _atom_site_occupancy
  Ba  Ba0  1  0.625607  0.374233  0.251964  1
  Na  Na1  1  0.749752  0.874625  0.123063  1
  Na  Na2  1  0.123785  0.748637  0.875313  1
  Na  Na3  1  0.374638  0.251583  0.626676  1
  Na  Na4  1  0.875231  0.125078  0.748623  1
  Na  Na5  1  0.076994  0.262866  0.102515  1
  Na  Na6  1  0.692091  0.031022  0.916446  1
  Na  Na7  1  0.882300  0.465978  0.147525  1
  Na  Na8  1  0.160245  0.897821  0.473164  1
  Na  Na9  1  0.338807  0.812270  0.736478  1
  Na  Na10  1  0.722438  0.335600  0.805964  1
  Na  Na11  1  0.029762  0.917500  0.692629  1
  Na  Na12  1  0.223992  0.306290  0.838970  1
  Na  Na13  1  0.192927  0.408866  0.538276  1
  Na  Na14  1  0.968141  0.384347  0.662524  1
  Na  Na15  1  0.308140  0.846335  0.217593  1
  Na  Na16  1  0.525113  0.185910  0.424845  1
  Na  Na17  1  0.386784  0.664274  0.969784  1
  Na  Na18  1  0.112385  0.082612  0.275281  1
  Na  Na19  1  0.260023  0.100257  0.074126  1
  Na  Na20  1  0.850139  0.216358  0.309317  1
  Na  Na21  1  0.413770  0.535783  0.182447  1
  Na  Na22  1  0.661047  0.969015  0.385532  1
  Na  Na23  1  0.631282  0.782587  0.591463  1
  Na  Na24  1  0.583323  0.615611  0.777997  1
  Na  Na25  1  0.785411  0.593314  0.632232  1
  Na  Na26  1  0.815270  0.739417  0.340152  1
  Na  Na27  1  0.917614  0.693633  0.032580  1
  Na  Na28  1  0.460690  0.152156  0.868584  1
  Sr  Sr29  1  0.252071  0.626615  0.378302  1
  Pb  Pb30  1  0.418506  0.424332  0.417913  1
  Pb  Pb31  1  0.494896  0.991360  0.577208  1
  Pb  Pb32  1  0.580592  0.497233  0.999292  1
  Pb  Pb33  1  0.002013  0.579034  0.496089  1
  Pb  Pb34  1  0.085158  0.503470  0.005763  1
  Pb  Pb35  1  0.001018  0.085318  0.502448  1
  Pb  Pb36  1  0.502349  0.003909  0.083752  1
  Pb  Pb37  1  0.915694  0.914750  0.917166  1
