# generated using pymatgen
data_La3PaO7
_symmetry_space_group_name_H-M   'P 1'
_cell_length_a   6.90520636
_cell_length_b   6.89512013
_cell_length_c   8.14308829
_cell_angle_alpha   107.09686683
_cell_angle_beta   89.73685075
_cell_angle_gamma   98.55438163
_symmetry_Int_Tables_number   1
_chemical_formula_structural   La3PaO7
_chemical_formula_sum   'La6 Pa2 O14'
_cell_volume   366.14037131
_cell_formula_units_Z   2
loop_
 _symmetry_equiv_pos_site_id
 _symmetry_equiv_pos_as_xyz
  1  'x, y, z'
loop_
 _atom_site_type_symbol
 _atom_site_label
 _atom_site_symmetry_multiplicity
 _atom_site_fract_x
 _atom_site_fract_y
 _atom_site_fract_z
 _atom_site_occupancy
  La  La0  1  0.465678  0.005513  0.252970  1
  La  La1  1  0.534322  0.994487  0.747030  1
  La  La2  1  0.266153  0.533694  0.881889  1
  La  La3  1  0.733847  0.466306  0.118111  1
  La  La4  1  0.739259  0.481709  0.615965  1
  La  La5  1  0.260741  0.518291  0.384035  1
  Pa  Pa6  1  0.000000  0.000000  0.500000  1
  Pa  Pa7  1  0.000000  0.000000  0.000000  1
  O  O8  1  0.442644  0.644843  0.167018  1
  O  O9  1  0.557356  0.355157  0.832982  1
  O  O10  1  0.292599  0.918407  0.951384  1
  O  O11  1  0.707401  0.081593  0.048616  1
  O  O12  1  0.288011  0.921450  0.510807  1
  O  O13  1  0.711989  0.078550  0.489193  1
  O  O14  1  0.546748  0.365111  0.345735  1
  O  O15  1  0.453252  0.634889  0.654265  1
  O  O16  1  0.924682  0.677571  0.957543  1
  O  O17  1  0.075318  0.322429  0.042457  1
  O  O18  1  0.068697  0.338890  0.615127  1
  O  O19  1  0.931303  0.661110  0.384873  1
  O  O20  1  0.880308  0.916119  0.727048  1
  O  O21  1  0.119692  0.083881  0.272952  1
