# generated using pymatgen
data_Yb3ThPt4
_symmetry_space_group_name_H-M   'P 1'
_cell_length_a   4.44723200
_cell_length_b   5.67360637
_cell_length_c   7.22869135
_cell_angle_alpha   89.67863477
_cell_angle_beta   90.00000000
_cell_angle_gamma   90.00000000
_symmetry_Int_Tables_number   1
_chemical_formula_structural   Yb3ThPt4
_chemical_formula_sum   'Yb3 Th1 Pt4'
_cell_volume   182.39034209
_cell_formula_units_Z   1
loop_
 _symmetry_equiv_pos_site_id
 _symmetry_equiv_pos_as_xyz
  1  'x, y, z'
loop_
 _atom_site_type_symbol
 _atom_site_label
 _atom_site_symmetry_multiplicity
 _atom_site_fract_x
 _atom_site_fract_y
 _atom_site_fract_z
 _atom_site_occupancy
  Yb  Yb0  1  0.750000  0.640424  0.322417  1
  Yb  Yb1  1  0.750000  0.857160  0.812880  1
  Yb  Yb2  1  0.250000  0.360934  0.681474  1
  Th  Th3  1  0.250000  0.138679  0.184630  1
  Pt  Pt4  1  0.750000  0.150030  0.450458  1
  Pt  Pt5  1  0.250000  0.851091  0.540956  1
  Pt  Pt6  1  0.250000  0.660731  0.042131  1
  Pt  Pt7  1  0.750000  0.340951  0.965053  1
