# generated using pymatgen
data_Sc6Co15Si7Rh
_symmetry_space_group_name_H-M   'P 1'
_cell_length_a   8.07965993
_cell_length_b   8.07965937
_cell_length_c   8.10904289
_cell_angle_alpha   60.11979331
_cell_angle_beta   60.11979957
_cell_angle_gamma   60.00000837
_symmetry_Int_Tables_number   1
_chemical_formula_structural   Sc6Co15Si7Rh
_chemical_formula_sum   'Sc6 Co15 Si7 Rh1'
_cell_volume   374.99439743
_cell_formula_units_Z   1
loop_
 _symmetry_equiv_pos_site_id
 _symmetry_equiv_pos_as_xyz
  1  'x, y, z'
loop_
 _atom_site_type_symbol
 _atom_site_label
 _atom_site_symmetry_multiplicity
 _atom_site_fract_x
 _atom_site_fract_y
 _atom_site_fract_z
 _atom_site_occupancy
  Sc  Sc0  1  0.212712  0.789196  0.785379  1
  Sc  Sc1  1  0.790163  0.790163  0.212345  1
  Sc  Sc2  1  0.790163  0.207329  0.212345  1
  Sc  Sc3  1  0.212712  0.212712  0.785379  1
  Sc  Sc4  1  0.789196  0.212712  0.785379  1
  Sc  Sc5  1  0.207329  0.790163  0.212345  1
  Co  Co6  1  0.172971  0.479774  0.174285  1
  Co  Co7  1  0.861198  0.377678  0.383445  1
  Co  Co8  1  0.519127  0.828957  0.822958  1
  Co  Co9  1  0.479774  0.172971  0.174285  1
  Co  Co10  1  0.826679  0.826679  0.519961  1
  Co  Co11  1  0.173881  0.173881  0.478358  1
  Co  Co12  1  0.139045  0.620379  0.620196  1
  Co  Co13  1  0.172971  0.172971  0.174285  1
  Co  Co14  1  0.378711  0.378711  0.863865  1
  Co  Co15  1  0.620379  0.620379  0.620196  1
  Co  Co16  1  0.377678  0.861198  0.383445  1
  Co  Co17  1  0.377678  0.377678  0.383445  1
  Co  Co18  1  0.828957  0.828957  0.822958  1
  Co  Co19  1  0.620379  0.139045  0.620196  1
  Co  Co20  1  0.828957  0.519127  0.822958  1
  Si  Si21  1  0.500379  0.000344  0.498933  1
  Si  Si22  1  0.499391  0.499391  0.994905  1
  Si  Si23  1  0.495551  0.495551  0.513347  1
  Si  Si24  1  0.000344  0.000344  0.498933  1
  Si  Si25  1  0.006314  0.499391  0.994905  1
  Si  Si26  1  0.000344  0.500379  0.498933  1
  Si  Si27  1  0.499391  0.006314  0.994905  1
  Rh  Rh28  1  0.617624  0.617624  0.147130  1
