# generated using pymatgen
data_Ho2Er3RuPb3
_symmetry_space_group_name_H-M   'P 1'
_cell_length_a   9.26731700
_cell_length_b   9.26731680
_cell_length_c   6.54481200
_cell_angle_alpha   90.00000000
_cell_angle_beta   90.00000000
_cell_angle_gamma   119.99999716
_symmetry_Int_Tables_number   1
_chemical_formula_structural   Ho2Er3RuPb3
_chemical_formula_sum   'Ho4 Er6 Ru2 Pb6'
_cell_volume   486.78349915
_cell_formula_units_Z   2
loop_
 _symmetry_equiv_pos_site_id
 _symmetry_equiv_pos_as_xyz
  1  'x, y, z'
loop_
 _atom_site_type_symbol
 _atom_site_label
 _atom_site_symmetry_multiplicity
 _atom_site_fract_x
 _atom_site_fract_y
 _atom_site_fract_z
 _atom_site_occupancy
  Ho  Ho0  1  0.333333  0.666667  0.500000  1
  Ho  Ho1  1  0.666667  0.333333  0.500000  1
  Ho  Ho2  1  0.333333  0.666667  0.000000  1
  Ho  Ho3  1  0.666667  0.333333  0.000000  1
  Er  Er4  1  0.000000  0.763904  0.750000  1
  Er  Er5  1  0.236096  0.000000  0.250000  1
  Er  Er6  1  0.763904  0.000000  0.750000  1
  Er  Er7  1  0.000000  0.236096  0.250000  1
  Er  Er8  1  0.763904  0.763904  0.250000  1
  Er  Er9  1  0.236096  0.236096  0.750000  1
  Ru  Ru10  1  0.000000  0.000000  0.000000  1
  Ru  Ru11  1  0.000000  0.000000  0.500000  1
  Pb  Pb12  1  0.402392  0.402392  0.250000  1
  Pb  Pb13  1  0.000000  0.402392  0.750000  1
  Pb  Pb14  1  0.000000  0.597608  0.250000  1
  Pb  Pb15  1  0.597608  0.000000  0.250000  1
  Pb  Pb16  1  0.402392  0.000000  0.750000  1
  Pb  Pb17  1  0.597608  0.597608  0.750000  1
