# generated using pymatgen
data_Th10Zn3Si15Au2
_symmetry_space_group_name_H-M   'P 1'
_cell_length_a   4.20511532
_cell_length_b   4.22736885
_cell_length_c   35.69273789
_cell_angle_alpha   86.64227464
_cell_angle_beta   86.46810989
_cell_angle_gamma   90.00969517
_symmetry_Int_Tables_number   1
_chemical_formula_structural   Th10Zn3Si15Au2
_chemical_formula_sum   'Th10 Zn3 Si15 Au2'
_cell_volume   632.19775938
_cell_formula_units_Z   1
loop_
 _symmetry_equiv_pos_site_id
 _symmetry_equiv_pos_as_xyz
  1  'x, y, z'
loop_
 _atom_site_type_symbol
 _atom_site_label
 _atom_site_symmetry_multiplicity
 _atom_site_fract_x
 _atom_site_fract_y
 _atom_site_fract_z
 _atom_site_occupancy
  Th  Th0  1  0.949247  0.448692  0.102300  1
  Th  Th1  1  0.349652  0.849142  0.301661  1
  Th  Th2  1  0.749835  0.249596  0.499839  1
  Th  Th3  1  0.148954  0.648619  0.702143  1
  Th  Th4  1  0.547517  0.047595  0.904472  1
  Th  Th5  1  0.000455  0.000736  0.998635  1
  Th  Th6  1  0.401084  0.401363  0.197691  1
  Th  Th7  1  0.801183  0.801743  0.396510  1
  Th  Th8  1  0.202916  0.202602  0.594957  1
  Th  Th9  1  0.601923  0.602301  0.796299  1
  Zn  Zn10  1  0.467347  0.966689  0.066319  1
  Zn  Zn11  1  0.866949  0.367442  0.265367  1
  Zn  Zn12  1  0.267581  0.767432  0.464362  1
  Si  Si13  1  0.666769  0.166315  0.667172  1
  Si  Si14  1  0.065692  0.566852  0.868372  1
  Si  Si15  1  0.916820  0.916946  0.166324  1
  Si  Si16  1  0.317113  0.317262  0.365533  1
  Si  Si17  1  0.718613  0.718493  0.563350  1
  Si  Si18  1  0.116727  0.117844  0.765020  1
  Si  Si19  1  0.515387  0.516151  0.967729  1
  Si  Si20  1  0.433617  0.933398  0.133362  1
  Si  Si21  1  0.834180  0.333750  0.332335  1
  Si  Si22  1  0.234460  0.733585  0.531867  1
  Si  Si23  1  0.633037  0.133070  0.733454  1
  Si  Si24  1  0.032385  0.532743  0.934605  1
  Si  Si25  1  0.482592  0.482444  0.034189  1
  Si  Si26  1  0.883405  0.883481  0.232993  1
  Si  Si27  1  0.284124  0.283552  0.431957  1
  Au  Au28  1  0.684060  0.683596  0.632493  1
  Au  Au29  1  0.083576  0.083766  0.834291  1
