# generated using pymatgen
data_SrYb(As2Pd7)3
_symmetry_space_group_name_H-M   'P 1'
_cell_length_a   8.88187492
_cell_length_b   8.88187576
_cell_length_c   8.88187400
_cell_angle_alpha   59.99999909
_cell_angle_beta   59.99999597
_cell_angle_gamma   59.99999614
_symmetry_Int_Tables_number   1
_chemical_formula_structural   SrYb(As2Pd7)3
_chemical_formula_sum   'Sr1 Yb1 As6 Pd21'
_cell_volume   495.44896760
_cell_formula_units_Z   1
loop_
 _symmetry_equiv_pos_site_id
 _symmetry_equiv_pos_as_xyz
  1  'x, y, z'
loop_
 _atom_site_type_symbol
 _atom_site_label
 _atom_site_symmetry_multiplicity
 _atom_site_fract_x
 _atom_site_fract_y
 _atom_site_fract_z
 _atom_site_occupancy
  Sr  Sr0  1  0.750000  0.750000  0.750000  1
  Yb  Yb1  1  0.250000  0.250000  0.250000  1
  As  As2  1  0.737689  0.737689  0.262311  1
  As  As3  1  0.262311  0.737689  0.262311  1
  As  As4  1  0.737689  0.262311  0.262311  1
  As  As5  1  0.262311  0.262311  0.737689  1
  As  As6  1  0.737689  0.262311  0.737689  1
  As  As7  1  0.262311  0.737689  0.737689  1
  Pd  Pd8  1  0.000000  0.000000  0.000000  1
  Pd  Pd9  1  0.611574  0.611574  0.165280  1
  Pd  Pd10  1  0.611574  0.165280  0.611574  1
  Pd  Pd11  1  0.165280  0.611574  0.611574  1
  Pd  Pd12  1  0.611574  0.611574  0.611574  1
  Pd  Pd13  1  0.382035  0.382035  0.853893  1
  Pd  Pd14  1  0.382035  0.853893  0.382035  1
  Pd  Pd15  1  0.853893  0.382035  0.382035  1
  Pd  Pd16  1  0.382035  0.382035  0.382035  1
  Pd  Pd17  1  0.003393  0.003393  0.343474  1
  Pd  Pd18  1  0.649739  0.003393  0.343474  1
  Pd  Pd19  1  0.003393  0.649739  0.343474  1
  Pd  Pd20  1  0.649739  0.343474  0.003393  1
  Pd  Pd21  1  0.003393  0.343474  0.003393  1
  Pd  Pd22  1  0.003393  0.343474  0.649739  1
  Pd  Pd23  1  0.343474  0.649739  0.003393  1
  Pd  Pd24  1  0.343474  0.003393  0.649739  1
  Pd  Pd25  1  0.343474  0.003393  0.003393  1
  Pd  Pd26  1  0.003393  0.003393  0.649739  1
  Pd  Pd27  1  0.003393  0.649739  0.003393  1
  Pd  Pd28  1  0.649739  0.003393  0.003393  1
