# generated using pymatgen
data_Zr3(V2Re)2
_symmetry_space_group_name_H-M   'P 1'
_cell_length_a   5.20093034
_cell_length_b   5.21037751
_cell_length_c   12.92748391
_cell_angle_alpha   90.62339343
_cell_angle_beta   89.20168372
_cell_angle_gamma   119.20142726
_symmetry_Int_Tables_number   1
_chemical_formula_structural   Zr3(V2Re)2
_chemical_formula_sum   'Zr6 V8 Re4'
_cell_volume   305.76428536
_cell_formula_units_Z   2
loop_
 _symmetry_equiv_pos_site_id
 _symmetry_equiv_pos_as_xyz
  1  'x, y, z'
loop_
 _atom_site_type_symbol
 _atom_site_label
 _atom_site_symmetry_multiplicity
 _atom_site_fract_x
 _atom_site_fract_y
 _atom_site_fract_z
 _atom_site_occupancy
  Zr  Zr0  1  0.333175  0.664584  0.917439  1
  Zr  Zr1  1  0.000349  0.001400  0.249310  1
  Zr  Zr2  1  0.666315  0.332808  0.582902  1
  Zr  Zr3  1  0.333685  0.667192  0.667098  1
  Zr  Zr4  1  0.999651  0.998600  0.000689  1
  Zr  Zr5  1  0.666825  0.335416  0.332561  1
  V  V6  1  0.166554  0.334483  0.457510  1
  V  V7  1  0.833446  0.665517  0.792490  1
  V  V8  1  0.332306  0.668949  0.292855  1
  V  V9  1  0.000000  0.000000  0.625000  1
  V  V10  1  0.667694  0.331051  0.957145  1
  V  V11  1  0.000000  0.500000  0.125000  1
  V  V12  1  0.666155  0.833657  0.457804  1
  V  V13  1  0.333845  0.166343  0.792196  1
  Re  Re14  1  0.500000  0.500000  0.125000  1
  Re  Re15  1  0.166210  0.834049  0.457818  1
  Re  Re16  1  0.833790  0.165951  0.792182  1
  Re  Re17  1  0.500000  0.000000  0.125000  1
