# generated using pymatgen
data_K5LaO4
_symmetry_space_group_name_H-M   'P 1'
_cell_length_a   8.53078600
_cell_length_b   8.89850900
_cell_length_c   6.38021500
_cell_angle_alpha   90.00000000
_cell_angle_beta   90.00000000
_cell_angle_gamma   90.00000000
_symmetry_Int_Tables_number   1
_chemical_formula_structural   K5LaO4
_chemical_formula_sum   'K10 La2 O8'
_cell_volume   484.33026179
_cell_formula_units_Z   2
loop_
 _symmetry_equiv_pos_site_id
 _symmetry_equiv_pos_as_xyz
  1  'x, y, z'
loop_
 _atom_site_type_symbol
 _atom_site_label
 _atom_site_symmetry_multiplicity
 _atom_site_fract_x
 _atom_site_fract_y
 _atom_site_fract_z
 _atom_site_occupancy
  K  K0  1  0.262303  0.309029  0.242185  1
  K  K1  1  0.737698  0.309029  0.242185  1
  K  K2  1  0.262303  0.690971  0.242185  1
  K  K3  1  0.737698  0.690971  0.242185  1
  K  K4  1  0.500000  0.000000  0.312233  1
  K  K5  1  0.000000  0.499999  0.687768  1
  K  K6  1  0.237697  0.190970  0.757817  1
  K  K7  1  0.762303  0.190970  0.757817  1
  K  K8  1  0.237697  0.809029  0.757817  1
  K  K9  1  0.762303  0.809029  0.757817  1
  La  La10  1  0.000000  0.000000  0.282461  1
  La  La11  1  0.500000  0.499999  0.717541  1
  O  O12  1  0.227312  0.000000  0.092687  1
  O  O13  1  0.772688  0.000000  0.092687  1
  O  O14  1  0.000000  0.219590  0.476898  1
  O  O15  1  0.000000  0.780410  0.476898  1
  O  O16  1  0.500000  0.280409  0.523104  1
  O  O17  1  0.500000  0.719590  0.523104  1
  O  O18  1  0.272688  0.499999  0.907314  1
  O  O19  1  0.727312  0.499999  0.907314  1
