# generated using pymatgen
data_Tb4Er6IrRu3
_symmetry_space_group_name_H-M   'P 1'
_cell_length_a   6.33577643
_cell_length_b   7.27817881
_cell_length_c   8.45048848
_cell_angle_alpha   96.86705785
_cell_angle_beta   111.85623025
_cell_angle_gamma   90.15984996
_symmetry_Int_Tables_number   1
_chemical_formula_structural   Tb4Er6IrRu3
_chemical_formula_sum   'Tb4 Er6 Ir1 Ru3'
_cell_volume   358.59912653
_cell_formula_units_Z   1
loop_
 _symmetry_equiv_pos_site_id
 _symmetry_equiv_pos_as_xyz
  1  'x, y, z'
loop_
 _atom_site_type_symbol
 _atom_site_label
 _atom_site_symmetry_multiplicity
 _atom_site_fract_x
 _atom_site_fract_y
 _atom_site_fract_z
 _atom_site_occupancy
  Tb  Tb0  1  0.791235  0.581533  0.812392  1
  Tb  Tb1  1  0.979511  0.914882  0.189679  1
  Tb  Tb2  1  0.210416  0.416073  0.188539  1
  Tb  Tb3  1  0.023980  0.085060  0.813076  1
  Er  Er4  1  0.203785  0.684871  0.565192  1
  Er  Er5  1  0.640634  0.815654  0.434005  1
  Er  Er6  1  0.794372  0.313851  0.434056  1
  Er  Er7  1  0.357799  0.186313  0.564166  1
  Er  Er8  1  0.422096  0.749964  0.000172  1
  Er  Er9  1  0.578902  0.250789  0.000899  1
  Ir  Ir10  1  0.596713  0.924283  0.776465  1
  Ru  Ru11  1  0.822432  0.576166  0.221159  1
  Ru  Ru12  1  0.398640  0.075388  0.221970  1
  Ru  Ru13  1  0.179485  0.425172  0.778229  1
