# generated using pymatgen
data_Sc2Mn7(FeP2)3
_symmetry_space_group_name_H-M   'P 1'
_cell_length_a   3.55557500
_cell_length_b   10.35896100
_cell_length_c   12.05066100
_cell_angle_alpha   90.00000000
_cell_angle_beta   90.00000000
_cell_angle_gamma   90.00000000
_symmetry_Int_Tables_number   1
_chemical_formula_structural   Sc2Mn7(FeP2)3
_chemical_formula_sum   'Sc4 Mn14 Fe6 P12'
_cell_volume   443.85070222
_cell_formula_units_Z   2
loop_
 _symmetry_equiv_pos_site_id
 _symmetry_equiv_pos_as_xyz
  1  'x, y, z'
loop_
 _atom_site_type_symbol
 _atom_site_label
 _atom_site_symmetry_multiplicity
 _atom_site_fract_x
 _atom_site_fract_y
 _atom_site_fract_z
 _atom_site_occupancy
  Sc  Sc0  1  0.250000  0.578490  0.710543  1
  Sc  Sc1  1  0.250000  0.921510  0.210543  1
  Sc  Sc2  1  0.750000  0.416817  0.292094  1
  Sc  Sc3  1  0.750000  0.083183  0.792094  1
  Mn  Mn4  1  0.250000  0.710501  0.986932  1
  Mn  Mn5  1  0.250000  0.789499  0.486932  1
  Mn  Mn6  1  0.750000  0.291580  0.011477  1
  Mn  Mn7  1  0.750000  0.208420  0.511477  1
  Mn  Mn8  1  0.250000  0.406109  0.492006  1
  Mn  Mn9  1  0.250000  0.093891  0.992006  1
  Mn  Mn10  1  0.750000  0.589506  0.507920  1
  Mn  Mn11  1  0.750000  0.910494  0.007920  1
  Mn  Mn12  1  0.250000  0.219058  0.174648  1
  Mn  Mn13  1  0.250000  0.280942  0.674648  1
  Mn  Mn14  1  0.750000  0.779120  0.825119  1
  Mn  Mn15  1  0.750000  0.720880  0.325119  1
  Mn  Mn16  1  0.250000  0.875265  0.699121  1
  Mn  Mn17  1  0.250000  0.624735  0.199121  1
  Fe  Fe18  1  0.750000  0.126306  0.299815  1
  Fe  Fe19  1  0.750000  0.373694  0.799815  1
  Fe  Fe20  1  0.250000  0.462696  0.932945  1
  Fe  Fe21  1  0.250000  0.037304  0.432945  1
  Fe  Fe22  1  0.750000  0.539512  0.068984  1
  Fe  Fe23  1  0.750000  0.960488  0.568984  1
  P  P24  1  0.250000  0.423446  0.113211  1
  P  P25  1  0.250000  0.076554  0.613211  1
  P  P26  1  0.750000  0.572470  0.885418  1
  P  P27  1  0.750000  0.927530  0.385418  1
  P  P28  1  0.250000  0.264145  0.867759  1
  P  P29  1  0.250000  0.235855  0.367759  1
  P  P30  1  0.750000  0.742644  0.130742  1
  P  P31  1  0.750000  0.757356  0.630742  1
  P  P32  1  0.250000  0.589570  0.385165  1
  P  P33  1  0.250000  0.910430  0.885165  1
  P  P34  1  0.750000  0.408017  0.616102  1
  P  P35  1  0.750000  0.091983  0.116102  1
