# generated using pymatgen
data_NaCrFe(Sb6Pt)2
_symmetry_space_group_name_H-M   'P 1'
_cell_length_a   8.11611730
_cell_length_b   8.16791148
_cell_length_c   8.14953259
_cell_angle_alpha   109.38370891
_cell_angle_beta   109.10206722
_cell_angle_gamma   109.41976609
_symmetry_Int_Tables_number   1
_chemical_formula_structural   NaCrFe(Sb6Pt)2
_chemical_formula_sum   'Na1 Cr1 Fe1 Sb12 Pt2'
_cell_volume   418.46675373
_cell_formula_units_Z   1
loop_
 _symmetry_equiv_pos_site_id
 _symmetry_equiv_pos_as_xyz
  1  'x, y, z'
loop_
 _atom_site_type_symbol
 _atom_site_label
 _atom_site_symmetry_multiplicity
 _atom_site_fract_x
 _atom_site_fract_y
 _atom_site_fract_z
 _atom_site_occupancy
  Na  Na0  1  0.000000  0.000000  0.000000  1
  Cr  Cr1  1  0.500000  0.000000  0.000000  1
  Fe  Fe2  1  0.500000  0.500000  0.500000  1
  Sb  Sb3  1  0.653500  0.813604  0.151414  1
  Sb  Sb4  1  0.840173  0.338054  0.187056  1
  Sb  Sb5  1  0.507060  0.832386  0.661479  1
  Sb  Sb6  1  0.833554  0.652855  0.505883  1
  Sb  Sb7  1  0.492940  0.167614  0.338521  1
  Sb  Sb8  1  0.159827  0.661946  0.812944  1
  Sb  Sb9  1  0.803957  0.152258  0.653650  1
  Sb  Sb10  1  0.196043  0.847742  0.346350  1
  Sb  Sb11  1  0.166446  0.347145  0.494117  1
  Sb  Sb12  1  0.650971  0.505472  0.831920  1
  Sb  Sb13  1  0.349029  0.494528  0.168080  1
  Sb  Sb14  1  0.346500  0.186396  0.848586  1
  Pt  Pt15  1  0.000000  0.000000  0.500000  1
  Pt  Pt16  1  0.000000  0.500000  0.000000  1
