# generated using pymatgen
data_KBaAsS3
_symmetry_space_group_name_H-M   'P 1'
_cell_length_a   9.01900700
_cell_length_b   9.10581300
_cell_length_c   9.25584225
_cell_angle_alpha   72.41233089
_cell_angle_beta   90.00000000
_cell_angle_gamma   90.00000000
_symmetry_Int_Tables_number   1
_chemical_formula_structural   KBaAsS3
_chemical_formula_sum   'K4 Ba4 As4 S12'
_cell_volume   724.60748447
_cell_formula_units_Z   4
loop_
 _symmetry_equiv_pos_site_id
 _symmetry_equiv_pos_as_xyz
  1  'x, y, z'
loop_
 _atom_site_type_symbol
 _atom_site_label
 _atom_site_symmetry_multiplicity
 _atom_site_fract_x
 _atom_site_fract_y
 _atom_site_fract_z
 _atom_site_occupancy
  K  K0  1  0.593282  0.221948  0.411749  1
  K  K1  1  0.093282  0.278052  0.588251  1
  K  K2  1  0.406718  0.778052  0.588251  1
  K  K3  1  0.906718  0.721948  0.411749  1
  Ba  Ba4  1  0.216703  0.468243  0.075993  1
  Ba  Ba5  1  0.716703  0.031757  0.924007  1
  Ba  Ba6  1  0.783297  0.531757  0.924007  1
  Ba  Ba7  1  0.283297  0.968243  0.075993  1
  As  As8  1  0.961812  0.146559  0.242161  1
  As  As9  1  0.461812  0.353441  0.757839  1
  As  As10  1  0.038188  0.853441  0.757839  1
  As  As11  1  0.538188  0.646559  0.242161  1
  S  S12  1  0.694081  0.392395  0.660767  1
  S  S13  1  0.194081  0.107605  0.339233  1
  S  S14  1  0.305919  0.607605  0.339233  1
  S  S15  1  0.805919  0.892395  0.660767  1
  S  S16  1  0.506949  0.277809  0.017476  1
  S  S17  1  0.006949  0.222191  0.982524  1
  S  S18  1  0.493051  0.722191  0.982524  1
  S  S19  1  0.993051  0.777809  0.017476  1
  S  S20  1  0.902982  0.378716  0.269717  1
  S  S21  1  0.402982  0.121284  0.730283  1
  S  S22  1  0.097018  0.621284  0.730283  1
  S  S23  1  0.597018  0.878716  0.269717  1
