# generated using pymatgen
data_Ho8Al2PdRu
_symmetry_space_group_name_H-M   'P 1'
_cell_length_a   9.44388616
_cell_length_b   9.50311895
_cell_length_c   9.50282023
_cell_angle_alpha   60.73350695
_cell_angle_beta   60.43068154
_cell_angle_gamma   60.43185325
_symmetry_Int_Tables_number   1
_chemical_formula_structural   Ho8Al2PdRu
_chemical_formula_sum   'Ho16 Al4 Pd2 Ru2'
_cell_volume   610.28961280
_cell_formula_units_Z   2
loop_
 _symmetry_equiv_pos_site_id
 _symmetry_equiv_pos_as_xyz
  1  'x, y, z'
loop_
 _atom_site_type_symbol
 _atom_site_label
 _atom_site_symmetry_multiplicity
 _atom_site_fract_x
 _atom_site_fract_y
 _atom_site_fract_z
 _atom_site_occupancy
  Ho  Ho0  1  0.440117  0.432926  0.059516  1
  Ho  Ho1  1  0.643267  0.635005  0.072340  1
  Ho  Ho2  1  0.187517  0.804949  0.198308  1
  Ho  Ho3  1  0.062281  0.431948  0.058929  1
  Ho  Ho4  1  0.193548  0.806580  0.806583  1
  Ho  Ho5  1  0.066060  0.433476  0.433419  1
  Ho  Ho6  1  0.807520  0.189692  0.189773  1
  Ho  Ho7  1  0.655921  0.650499  0.650528  1
  Ho  Ho8  1  0.808720  0.200789  0.802436  1
  Ho  Ho9  1  0.187525  0.198290  0.804935  1
  Ho  Ho10  1  0.059883  0.642894  0.642903  1
  Ho  Ho11  1  0.438579  0.061985  0.061994  1
  Ho  Ho12  1  0.062283  0.058968  0.431944  1
  Ho  Ho13  1  0.643277  0.072323  0.635012  1
  Ho  Ho14  1  0.808731  0.802450  0.200790  1
  Ho  Ho15  1  0.440096  0.059552  0.432918  1
  Al  Al16  1  0.419407  0.422831  0.422848  1
  Al  Al17  1  0.423335  0.426737  0.731146  1
  Al  Al18  1  0.423360  0.731177  0.426673  1
  Al  Al19  1  0.733687  0.424316  0.424317  1
  Pd  Pd20  1  0.430015  0.862199  0.862209  1
  Pd  Pd21  1  0.848356  0.857598  0.857601  1
  Ru  Ru22  1  0.858219  0.428006  0.864911  1
  Ru  Ru23  1  0.858299  0.864812  0.427966  1
