# generated using pymatgen
data_Nd16Co3Hg4Pd
_symmetry_space_group_name_H-M   'P 1'
_cell_length_a   9.86633788
_cell_length_b   9.86577452
_cell_length_c   9.86577500
_cell_angle_alpha   60.00000176
_cell_angle_beta   60.00189057
_cell_angle_gamma   60.00189146
_symmetry_Int_Tables_number   1
_chemical_formula_structural   Nd16Co3Hg4Pd
_chemical_formula_sum   'Nd16 Co3 Hg4 Pd1'
_cell_volume   679.07195885
_cell_formula_units_Z   1
loop_
 _symmetry_equiv_pos_site_id
 _symmetry_equiv_pos_as_xyz
  1  'x, y, z'
loop_
 _atom_site_type_symbol
 _atom_site_label
 _atom_site_symmetry_multiplicity
 _atom_site_fract_x
 _atom_site_fract_y
 _atom_site_fract_z
 _atom_site_occupancy
  Nd  Nd0  1  0.340547  0.353612  0.353612  1
  Nd  Nd1  1  0.340547  0.353612  0.952229  1
  Nd  Nd2  1  0.340547  0.952229  0.353612  1
  Nd  Nd3  1  0.960055  0.346648  0.346648  1
  Nd  Nd4  1  0.820032  0.190506  0.190506  1
  Nd  Nd5  1  0.190640  0.810203  0.810203  1
  Nd  Nd6  1  0.190640  0.810203  0.188954  1
  Nd  Nd7  1  0.820032  0.190506  0.798956  1
  Nd  Nd8  1  0.190640  0.188954  0.810203  1
  Nd  Nd9  1  0.820032  0.798956  0.190506  1
  Nd  Nd10  1  0.934973  0.563078  0.563078  1
  Nd  Nd11  1  0.559827  0.938946  0.938946  1
  Nd  Nd12  1  0.559827  0.938946  0.562280  1
  Nd  Nd13  1  0.934973  0.563078  0.938869  1
  Nd  Nd14  1  0.559827  0.562280  0.938946  1
  Nd  Nd15  1  0.934973  0.938869  0.563078  1
  Co  Co16  1  0.142661  0.140912  0.140912  1
  Co  Co17  1  0.142661  0.140912  0.575514  1
  Co  Co18  1  0.142661  0.575514  0.140912  1
  Hg  Hg19  1  0.584221  0.583663  0.583663  1
  Hg  Hg20  1  0.584221  0.583663  0.248454  1
  Hg  Hg21  1  0.584221  0.248454  0.583663  1
  Hg  Hg22  1  0.245628  0.584791  0.584791  1
  Pd  Pd23  1  0.575613  0.141462  0.141462  1
