# generated using pymatgen
data_CaTbAl20(RuRh)2
_symmetry_space_group_name_H-M   'P 1'
_cell_length_a   6.86967844
_cell_length_b   6.88226110
_cell_length_c   9.17182000
_cell_angle_alpha   90.00000000
_cell_angle_beta   90.00000000
_cell_angle_gamma   96.81110864
_symmetry_Int_Tables_number   1
_chemical_formula_structural   CaTbAl20(RuRh)2
_chemical_formula_sum   'Ca1 Tb1 Al20 Ru2 Rh2'
_cell_volume   430.57339482
_cell_formula_units_Z   1
loop_
 _symmetry_equiv_pos_site_id
 _symmetry_equiv_pos_as_xyz
  1  'x, y, z'
loop_
 _atom_site_type_symbol
 _atom_site_label
 _atom_site_symmetry_multiplicity
 _atom_site_fract_x
 _atom_site_fract_y
 _atom_site_fract_z
 _atom_site_occupancy
  Ca  Ca0  1  0.872613  0.124270  0.750000  1
  Tb  Tb1  1  0.128590  0.875698  0.250000  1
  Al  Al2  1  0.620505  0.375683  0.547900  1
  Al  Al3  1  0.379711  0.623589  0.447699  1
  Al  Al4  1  0.379711  0.623589  0.052301  1
  Al  Al5  1  0.620505  0.375683  0.952100  1
  Al  Al6  1  0.226277  0.225094  0.498279  1
  Al  Al7  1  0.772868  0.776135  0.500549  1
  Al  Al8  1  0.772868  0.776135  0.999451  1
  Al  Al9  1  0.226277  0.225094  0.001721  1
  Al  Al10  1  0.843283  0.154906  0.101603  1
  Al  Al11  1  0.158895  0.842096  0.899155  1
  Al  Al12  1  0.158895  0.842096  0.600845  1
  Al  Al13  1  0.843283  0.154906  0.398397  1
  Al  Al14  1  0.856470  0.588556  0.750000  1
  Al  Al15  1  0.142062  0.412795  0.250000  1
  Al  Al16  1  0.411884  0.141819  0.750000  1
  Al  Al17  1  0.588270  0.859892  0.250000  1
  Al  Al18  1  0.224313  0.479107  0.750000  1
  Al  Al19  1  0.775776  0.519080  0.250000  1
  Al  Al20  1  0.520687  0.779951  0.750000  1
  Al  Al21  1  0.481715  0.220999  0.250000  1
  Ru  Ru22  1  0.497781  0.999751  0.000970  1
  Ru  Ru23  1  0.497781  0.999751  0.499030  1
  Rh  Rh24  1  0.999489  0.501664  0.499174  1
  Rh  Rh25  1  0.999489  0.501664  0.000826  1
