# generated using pymatgen
data_LaNdDy2(Ni7P4)2
_symmetry_space_group_name_H-M   'P 1'
_cell_length_a   3.72933300
_cell_length_b   9.20693672
_cell_length_c   10.36750569
_cell_angle_alpha   89.85624743
_cell_angle_beta   90.00000000
_cell_angle_gamma   90.00000000
_symmetry_Int_Tables_number   1
_chemical_formula_structural   LaNdDy2(Ni7P4)2
_chemical_formula_sum   'La1 Nd1 Dy2 Ni14 P8'
_cell_volume   355.97478641
_cell_formula_units_Z   1
loop_
 _symmetry_equiv_pos_site_id
 _symmetry_equiv_pos_as_xyz
  1  'x, y, z'
loop_
 _atom_site_type_symbol
 _atom_site_label
 _atom_site_symmetry_multiplicity
 _atom_site_fract_x
 _atom_site_fract_y
 _atom_site_fract_z
 _atom_site_occupancy
  La  La0  1  0.500000  0.438207  0.499818  1
  Nd  Nd1  1  0.000000  0.564913  0.999586  1
  Dy  Dy2  1  0.500000  0.058627  0.282127  1
  Dy  Dy3  1  0.000000  0.941698  0.783035  1
  Ni  Ni4  1  0.500000  0.301911  0.075751  1
  Ni  Ni5  1  0.500000  0.751413  0.403414  1
  Ni  Ni6  1  0.500000  0.415760  0.806343  1
  Ni  Ni7  1  0.500000  0.057265  0.977357  1
  Ni  Ni8  1  0.500000  0.686809  0.766490  1
  Ni  Ni9  1  0.000000  0.269898  0.670394  1
  Ni  Ni10  1  0.000000  0.250620  0.903741  1
  Ni  Ni11  1  0.000000  0.699460  0.580432  1
  Ni  Ni12  1  0.500000  0.092096  0.586115  1
  Ni  Ni13  1  0.000000  0.313139  0.262666  1
  Ni  Ni14  1  0.000000  0.584694  0.299978  1
  Ni  Ni15  1  0.000000  0.906110  0.085759  1
  Ni  Ni16  1  0.000000  0.941160  0.476866  1
  Ni  Ni17  1  0.500000  0.728875  0.169723  1
  P  P18  1  0.000000  0.820349  0.287519  1
  P  P19  1  0.000000  0.184195  0.464858  1
  P  P20  1  0.500000  0.179939  0.787865  1
  P  P21  1  0.000000  0.154686  0.093214  1
  P  P22  1  0.500000  0.478287  0.213629  1
  P  P23  1  0.500000  0.814272  0.964892  1
  P  P24  1  0.500000  0.844043  0.594307  1
  P  P25  1  0.000000  0.521576  0.719521  1
