# generated using pymatgen
data_Er2Sc2ReB12Os
_symmetry_space_group_name_H-M   'P 1'
_cell_length_a   3.56762600
_cell_length_b   8.96508451
_cell_length_c   11.34743184
_cell_angle_alpha   90.06134941
_cell_angle_beta   90.00000000
_cell_angle_gamma   90.00000000
_symmetry_Int_Tables_number   1
_chemical_formula_structural   Er2Sc2ReB12Os
_chemical_formula_sum   'Er4 Sc4 Re2 B24 Os2'
_cell_volume   362.93683044
_cell_formula_units_Z   2
loop_
 _symmetry_equiv_pos_site_id
 _symmetry_equiv_pos_as_xyz
  1  'x, y, z'
loop_
 _atom_site_type_symbol
 _atom_site_label
 _atom_site_symmetry_multiplicity
 _atom_site_fract_x
 _atom_site_fract_y
 _atom_site_fract_z
 _atom_site_occupancy
  Er  Er0  1  0.000000  0.319014  0.412900  1
  Er  Er1  1  0.000000  0.680986  0.587100  1
  Er  Er2  1  0.000000  0.822541  0.085449  1
  Er  Er3  1  0.000000  0.177459  0.914551  1
  Sc  Sc4  1  0.000000  0.945175  0.371810  1
  Sc  Sc5  1  0.000000  0.054825  0.628190  1
  Sc  Sc6  1  0.000000  0.443237  0.128091  1
  Sc  Sc7  1  0.000000  0.556763  0.871909  1
  Re  Re8  1  0.000000  0.139916  0.181530  1
  Re  Re9  1  0.000000  0.860084  0.818470  1
  B  B10  1  0.500000  0.554434  0.433292  1
  B  B11  1  0.500000  0.445566  0.566708  1
  B  B12  1  0.500000  0.053753  0.066737  1
  B  B13  1  0.500000  0.946247  0.933263  1
  B  B14  1  0.500000  0.753056  0.418957  1
  B  B15  1  0.500000  0.246944  0.581043  1
  B  B16  1  0.500000  0.253285  0.080764  1
  B  B17  1  0.500000  0.746715  0.919236  1
  B  B18  1  0.500000  0.793488  0.265342  1
  B  B19  1  0.500000  0.206512  0.734658  1
  B  B20  1  0.500000  0.294596  0.235163  1
  B  B21  1  0.500000  0.705404  0.764837  1
  B  B22  1  0.500000  0.628845  0.183578  1
  B  B23  1  0.500000  0.371155  0.816422  1
  B  B24  1  0.500000  0.129083  0.317054  1
  B  B25  1  0.500000  0.870917  0.682946  1
  B  B26  1  0.500000  0.980674  0.214088  1
  B  B27  1  0.500000  0.019326  0.785912  1
  B  B28  1  0.500000  0.481244  0.286560  1
  B  B29  1  0.500000  0.518756  0.713440  1
  B  B30  1  0.500000  0.597633  0.026907  1
  B  B31  1  0.500000  0.402367  0.973093  1
  B  B32  1  0.500000  0.098248  0.473321  1
  B  B33  1  0.500000  0.901752  0.526679  1
  Os  Os34  1  0.000000  0.639363  0.319524  1
  Os  Os35  1  0.000000  0.360637  0.680476  1
