# generated using pymatgen
data_Tb2Dy10ZnCo4Pb
_symmetry_space_group_name_H-M   'P 1'
_cell_length_a   8.33426551
_cell_length_b   8.33426547
_cell_length_c   8.35751857
_cell_angle_alpha   107.18216147
_cell_angle_beta   109.15373215
_cell_angle_gamma   112.00860025
_symmetry_Int_Tables_number   1
_chemical_formula_structural   Tb2Dy10ZnCo4Pb
_chemical_formula_sum   'Tb2 Dy10 Zn1 Co4 Pb1'
_cell_volume   446.65615097
_cell_formula_units_Z   1
loop_
 _symmetry_equiv_pos_site_id
 _symmetry_equiv_pos_as_xyz
  1  'x, y, z'
loop_
 _atom_site_type_symbol
 _atom_site_label
 _atom_site_symmetry_multiplicity
 _atom_site_fract_x
 _atom_site_fract_y
 _atom_site_fract_z
 _atom_site_occupancy
  Tb  Tb0  1  0.299974  0.271755  0.571726  1
  Tb  Tb1  1  0.700026  0.728245  0.428274  1
  Dy  Dy2  1  0.300117  0.729101  0.029217  1
  Dy  Dy3  1  0.699883  0.270899  0.970783  1
  Dy  Dy4  1  0.184816  0.509896  0.323505  1
  Dy  Dy5  1  0.186391  0.861311  0.676495  1
  Dy  Dy6  1  0.815184  0.490104  0.676495  1
  Dy  Dy7  1  0.813609  0.138689  0.323505  1
  Dy  Dy8  1  0.396767  0.217029  0.179535  1
  Dy  Dy9  1  0.037493  0.217232  0.820465  1
  Dy  Dy10  1  0.962507  0.782768  0.179535  1
  Dy  Dy11  1  0.603233  0.782971  0.820465  1
  Zn  Zn12  1  0.500000  0.500000  0.000000  1
  Co  Co13  1  0.160415  0.500391  0.660806  1
  Co  Co14  1  0.839585  0.499609  0.339194  1
  Co  Co15  1  0.998269  0.114437  0.112706  1
  Co  Co16  1  0.001731  0.885563  0.887294  1
  Pb  Pb17  1  0.500000  0.000000  0.500000  1
