# generated using pymatgen
data_K3Ba3AlBi4
_symmetry_space_group_name_H-M   'P 1'
_cell_length_a   11.29754700
_cell_length_b   11.29754751
_cell_length_c   8.56261400
_cell_angle_alpha   90.00000000
_cell_angle_beta   90.00000000
_cell_angle_gamma   120.00000144
_symmetry_Int_Tables_number   1
_chemical_formula_structural   K3Ba3AlBi4
_chemical_formula_sum   'K6 Ba6 Al2 Bi8'
_cell_volume   946.46667046
_cell_formula_units_Z   2
loop_
 _symmetry_equiv_pos_site_id
 _symmetry_equiv_pos_as_xyz
  1  'x, y, z'
loop_
 _atom_site_type_symbol
 _atom_site_label
 _atom_site_symmetry_multiplicity
 _atom_site_fract_x
 _atom_site_fract_y
 _atom_site_fract_z
 _atom_site_occupancy
  K  K0  1  0.860608  0.139392  0.545180  1
  K  K1  1  0.278784  0.139392  0.545180  1
  K  K2  1  0.860608  0.721216  0.545180  1
  K  K3  1  0.139392  0.860608  0.045180  1
  K  K4  1  0.721216  0.860608  0.045180  1
  K  K5  1  0.139392  0.278784  0.045180  1
  Ba  Ba6  1  0.480195  0.519805  0.734980  1
  Ba  Ba7  1  0.039609  0.519805  0.734980  1
  Ba  Ba8  1  0.480195  0.960391  0.734980  1
  Ba  Ba9  1  0.519805  0.480195  0.234980  1
  Ba  Ba10  1  0.960391  0.480195  0.234980  1
  Ba  Ba11  1  0.519805  0.039609  0.234980  1
  Al  Al12  1  0.666667  0.333333  0.857548  1
  Al  Al13  1  0.333333  0.666667  0.357548  1
  Bi  Bi14  1  0.804524  0.195476  0.956250  1
  Bi  Bi15  1  0.390953  0.195476  0.956250  1
  Bi  Bi16  1  0.804524  0.609047  0.956250  1
  Bi  Bi17  1  0.195476  0.804524  0.456250  1
  Bi  Bi18  1  0.609047  0.804524  0.456250  1
  Bi  Bi19  1  0.195476  0.390953  0.456250  1
  Bi  Bi20  1  0.666667  0.333333  0.518584  1
  Bi  Bi21  1  0.333333  0.666667  0.018584  1
