# generated using pymatgen
data_MgZr(InRh2)2
_symmetry_space_group_name_H-M   'P 1'
_cell_length_a   6.28249800
_cell_length_b   6.29249700
_cell_length_c   6.78385400
_cell_angle_alpha   90.00000000
_cell_angle_beta   90.00000000
_cell_angle_gamma   90.00000000
_symmetry_Int_Tables_number   1
_chemical_formula_structural   MgZr(InRh2)2
_chemical_formula_sum   'Mg2 Zr2 In4 Rh8'
_cell_volume   268.18338540
_cell_formula_units_Z   2
loop_
 _symmetry_equiv_pos_site_id
 _symmetry_equiv_pos_as_xyz
  1  'x, y, z'
loop_
 _atom_site_type_symbol
 _atom_site_label
 _atom_site_symmetry_multiplicity
 _atom_site_fract_x
 _atom_site_fract_y
 _atom_site_fract_z
 _atom_site_occupancy
  Mg  Mg0  1  0.750004  0.250000  0.000000  1
  Mg  Mg1  1  0.249997  0.750000  0.000000  1
  Zr  Zr2  1  0.250008  0.750000  0.499999  1
  Zr  Zr3  1  0.749992  0.250000  0.500001  1
  In  In4  1  0.250036  0.250000  0.000000  1
  In  In5  1  0.749964  0.750000  0.000000  1
  In  In6  1  0.250043  0.250000  0.499999  1
  In  In7  1  0.749957  0.750000  0.500001  1
  Rh  Rh8  1  0.000000  0.000000  0.247382  1
  Rh  Rh9  1  0.000000  0.499996  0.247382  1
  Rh  Rh10  1  0.499992  0.000000  0.247385  1
  Rh  Rh11  1  0.499992  0.500004  0.247385  1
  Rh  Rh12  1  0.500006  0.000000  0.752615  1
  Rh  Rh13  1  0.500006  0.499996  0.752615  1
  Rh  Rh14  1  0.000000  0.000000  0.752618  1
  Rh  Rh15  1  0.000000  0.500004  0.752618  1
