# generated using pymatgen
data_Ho10In8CoPd3
_symmetry_space_group_name_H-M   'P 1'
_cell_length_a   3.61138100
_cell_length_b   8.08370099
_cell_length_c   18.14266323
_cell_angle_alpha   89.96167426
_cell_angle_beta   90.00000000
_cell_angle_gamma   90.00000000
_symmetry_Int_Tables_number   1
_chemical_formula_structural   Ho10In8CoPd3
_chemical_formula_sum   'Ho10 In8 Co1 Pd3'
_cell_volume   529.64453056
_cell_formula_units_Z   1
loop_
 _symmetry_equiv_pos_site_id
 _symmetry_equiv_pos_as_xyz
  1  'x, y, z'
loop_
 _atom_site_type_symbol
 _atom_site_label
 _atom_site_symmetry_multiplicity
 _atom_site_fract_x
 _atom_site_fract_y
 _atom_site_fract_z
 _atom_site_occupancy
  Ho  Ho0  1  0.000000  0.111331  0.408830  1
  Ho  Ho1  1  0.000000  0.883095  0.582820  1
  Ho  Ho2  1  0.000000  0.383063  0.916665  1
  Ho  Ho3  1  0.000000  0.618741  0.086735  1
  Ho  Ho4  1  0.000000  0.228984  0.224598  1
  Ho  Ho5  1  0.000000  0.758902  0.779850  1
  Ho  Ho6  1  0.000000  0.257721  0.720025  1
  Ho  Ho7  1  0.000000  0.758441  0.279932  1
  Ho  Ho8  1  0.000000  0.000672  0.001644  1
  Ho  Ho9  1  0.000000  0.500674  0.498224  1
  In  In10  1  0.500000  0.422103  0.350753  1
  In  In11  1  0.500000  0.576856  0.647880  1
  In  In12  1  0.500000  0.076985  0.851658  1
  In  In13  1  0.500000  0.928601  0.152035  1
  In  In14  1  0.500000  0.292466  0.069302  1
  In  In15  1  0.500000  0.708980  0.933854  1
  In  In16  1  0.500000  0.208389  0.564834  1
  In  In17  1  0.500000  0.793514  0.428530  1
  Co  Co18  1  0.500000  0.017305  0.305109  1
  Pd  Pd19  1  0.500000  0.976240  0.695128  1
  Pd  Pd20  1  0.500000  0.476500  0.804285  1
  Pd  Pd21  1  0.500000  0.520434  0.197308  1
