# generated using pymatgen
data_Tm3Hf(Ni4As3)2
_symmetry_space_group_name_H-M   'P 1'
_cell_length_a   3.88369700
_cell_length_b   11.10965000
_cell_length_c   12.74681500
_cell_angle_alpha   90.00000000
_cell_angle_beta   90.00000000
_cell_angle_gamma   90.00000000
_symmetry_Int_Tables_number   1
_chemical_formula_structural   Tm3Hf(Ni4As3)2
_chemical_formula_sum   'Tm6 Hf2 Ni16 As12'
_cell_volume   549.98063665
_cell_formula_units_Z   2
loop_
 _symmetry_equiv_pos_site_id
 _symmetry_equiv_pos_as_xyz
  1  'x, y, z'
loop_
 _atom_site_type_symbol
 _atom_site_label
 _atom_site_symmetry_multiplicity
 _atom_site_fract_x
 _atom_site_fract_y
 _atom_site_fract_z
 _atom_site_occupancy
  Tm  Tm0  1  0.000000  0.500000  0.528861  1
  Tm  Tm1  1  0.500000  0.000000  0.471139  1
  Tm  Tm2  1  0.500000  0.822526  0.206425  1
  Tm  Tm3  1  0.500000  0.177474  0.206425  1
  Tm  Tm4  1  0.000000  0.677474  0.793575  1
  Tm  Tm5  1  0.000000  0.322526  0.793575  1
  Hf  Hf6  1  0.500000  0.500000  0.151624  1
  Hf  Hf7  1  0.000000  0.000000  0.848376  1
  Ni  Ni8  1  0.500000  0.500000  0.698394  1
  Ni  Ni9  1  0.000000  0.000000  0.301606  1
  Ni  Ni10  1  0.000000  0.500000  0.983079  1
  Ni  Ni11  1  0.500000  0.000000  0.016921  1
  Ni  Ni12  1  0.500000  0.337218  0.991690  1
  Ni  Ni13  1  0.500000  0.662782  0.991690  1
  Ni  Ni14  1  0.000000  0.162782  0.008310  1
  Ni  Ni15  1  0.000000  0.837218  0.008310  1
  Ni  Ni16  1  0.500000  0.301877  0.428287  1
  Ni  Ni17  1  0.500000  0.698123  0.428287  1
  Ni  Ni18  1  0.000000  0.198123  0.571713  1
  Ni  Ni19  1  0.000000  0.801877  0.571713  1
  Ni  Ni20  1  0.500000  0.878431  0.705944  1
  Ni  Ni21  1  0.500000  0.121569  0.705944  1
  Ni  Ni22  1  0.000000  0.621569  0.294056  1
  Ni  Ni23  1  0.000000  0.378431  0.294056  1
  As  As24  1  0.500000  0.500000  0.876262  1
  As  As25  1  0.000000  0.000000  0.123738  1
  As  As26  1  0.500000  0.500000  0.359545  1
  As  As27  1  0.000000  0.000000  0.640455  1
  As  As28  1  0.500000  0.314714  0.614688  1
  As  As29  1  0.500000  0.685286  0.614688  1
  As  As30  1  0.000000  0.185286  0.385312  1
  As  As31  1  0.000000  0.814714  0.385312  1
  As  As32  1  0.500000  0.835658  0.890486  1
  As  As33  1  0.500000  0.164342  0.890486  1
  As  As34  1  0.000000  0.664342  0.109514  1
  As  As35  1  0.000000  0.335658  0.109514  1
