# generated using pymatgen
data_Dy19HoSn13Sb3
_symmetry_space_group_name_H-M   'P 1'
_cell_length_a   8.09543542
_cell_length_b   8.15920037
_cell_length_c   15.40107647
_cell_angle_alpha   90.10216989
_cell_angle_beta   89.59616625
_cell_angle_gamma   90.03139327
_symmetry_Int_Tables_number   1
_chemical_formula_structural   Dy19HoSn13Sb3
_chemical_formula_sum   'Dy19 Ho1 Sn13 Sb3'
_cell_volume   1017.24917970
_cell_formula_units_Z   1
loop_
 _symmetry_equiv_pos_site_id
 _symmetry_equiv_pos_as_xyz
  1  'x, y, z'
loop_
 _atom_site_type_symbol
 _atom_site_label
 _atom_site_symmetry_multiplicity
 _atom_site_fract_x
 _atom_site_fract_y
 _atom_site_fract_z
 _atom_site_occupancy
  Dy  Dy0  1  0.372261  0.837900  0.878302  1
  Dy  Dy1  1  0.875992  0.661003  0.621208  1
  Dy  Dy2  1  0.624748  0.160450  0.378744  1
  Dy  Dy3  1  0.128181  0.337841  0.122614  1
  Dy  Dy4  1  0.629172  0.161846  0.121804  1
  Dy  Dy5  1  0.126622  0.337814  0.378677  1
  Dy  Dy6  1  0.373477  0.838460  0.621104  1
  Dy  Dy7  1  0.870736  0.662158  0.876876  1
  Dy  Dy8  1  0.529542  0.327026  0.899525  1
  Dy  Dy9  1  0.036916  0.173859  0.603108  1
  Dy  Dy10  1  0.463620  0.673815  0.397237  1
  Dy  Dy11  1  0.969360  0.822280  0.100294  1
  Dy  Dy12  1  0.474733  0.675915  0.098795  1
  Dy  Dy13  1  0.972955  0.823954  0.399185  1
  Dy  Dy14  1  0.526923  0.323444  0.600758  1
  Dy  Dy15  1  0.025071  0.179630  0.899947  1
  Dy  Dy16  1  0.701768  0.999208  0.752517  1
  Dy  Dy17  1  0.797966  0.498877  0.248264  1
  Dy  Dy18  1  0.298260  0.000924  0.251413  1
  Ho  Ho19  1  0.201746  0.501710  0.749906  1
  Sn  Sn20  1  0.211276  0.534599  0.957907  1
  Sn  Sn21  1  0.714438  0.965573  0.957850  1
  Sn  Sn22  1  0.215765  0.532750  0.542862  1
  Sn  Sn23  1  0.284661  0.033105  0.457486  1
  Sn  Sn24  1  0.790555  0.464448  0.041894  1
  Sn  Sn25  1  0.567855  0.621534  0.748027  1
  Sn  Sn26  1  0.069581  0.879090  0.749725  1
  Sn  Sn27  1  0.431957  0.378240  0.250143  1
  Sn  Sn28  1  0.930373  0.119843  0.251052  1
  Sn  Sn29  1  0.336977  0.148090  0.750949  1
  Sn  Sn30  1  0.835840  0.353747  0.748998  1
  Sn  Sn31  1  0.663101  0.852070  0.250155  1
  Sn  Sn32  1  0.162966  0.646409  0.249174  1
  Sb  Sb33  1  0.284264  0.032036  0.043546  1
  Sb  Sb34  1  0.780249  0.470299  0.456004  1
  Sb  Sb35  1  0.720095  0.970048  0.543949  1
