# generated using pymatgen
data_LuSc5Fe16(CoP6)2
_symmetry_space_group_name_H-M   'P 1'
_cell_length_a   3.62539600
_cell_length_b   10.35724100
_cell_length_c   11.97104400
_cell_angle_alpha   90.00000000
_cell_angle_beta   90.00000000
_cell_angle_gamma   90.00000000
_symmetry_Int_Tables_number   1
_chemical_formula_structural   LuSc5Fe16(CoP6)2
_chemical_formula_sum   'Lu1 Sc5 Fe16 Co2 P12'
_cell_volume   449.50192937
_cell_formula_units_Z   1
loop_
 _symmetry_equiv_pos_site_id
 _symmetry_equiv_pos_as_xyz
  1  'x, y, z'
loop_
 _atom_site_type_symbol
 _atom_site_label
 _atom_site_symmetry_multiplicity
 _atom_site_fract_x
 _atom_site_fract_y
 _atom_site_fract_z
 _atom_site_occupancy
  Lu  Lu0  1  0.500000  0.000000  0.473175  1
  Sc  Sc1  1  0.000000  0.500000  0.526753  1
  Sc  Sc2  1  0.500000  0.820002  0.206349  1
  Sc  Sc3  1  0.500000  0.179998  0.206349  1
  Sc  Sc4  1  0.000000  0.679255  0.793074  1
  Sc  Sc5  1  0.000000  0.320745  0.793074  1
  Fe  Fe6  1  0.500000  0.500000  0.153857  1
  Fe  Fe7  1  0.000000  0.000000  0.846816  1
  Fe  Fe8  1  0.000000  0.500000  0.987395  1
  Fe  Fe9  1  0.500000  0.000000  0.012116  1
  Fe  Fe10  1  0.500000  0.328752  0.995132  1
  Fe  Fe11  1  0.500000  0.671248  0.995132  1
  Fe  Fe12  1  0.000000  0.171910  0.004856  1
  Fe  Fe13  1  0.000000  0.828090  0.004856  1
  Fe  Fe14  1  0.500000  0.299928  0.430706  1
  Fe  Fe15  1  0.500000  0.700072  0.430706  1
  Fe  Fe16  1  0.000000  0.202414  0.569864  1
  Fe  Fe17  1  0.000000  0.797586  0.569864  1
  Fe  Fe18  1  0.500000  0.879898  0.708480  1
  Fe  Fe19  1  0.500000  0.120102  0.708480  1
  Fe  Fe20  1  0.000000  0.619241  0.292276  1
  Fe  Fe21  1  0.000000  0.380759  0.292276  1
  Co  Co22  1  0.500000  0.500000  0.698887  1
  Co  Co23  1  0.000000  0.000000  0.298898  1
  P  P24  1  0.500000  0.500000  0.879475  1
  P  P25  1  0.000000  0.000000  0.119201  1
  P  P26  1  0.500000  0.500000  0.345202  1
  P  P27  1  0.000000  0.000000  0.657100  1
  P  P28  1  0.500000  0.310514  0.616632  1
  P  P29  1  0.500000  0.689486  0.616632  1
  P  P30  1  0.000000  0.191133  0.382804  1
  P  P31  1  0.000000  0.808867  0.382804  1
  P  P32  1  0.500000  0.848253  0.887113  1
  P  P33  1  0.500000  0.151747  0.887113  1
  P  P34  1  0.000000  0.651059  0.113277  1
  P  P35  1  0.000000  0.348941  0.113277  1
