# generated using pymatgen
data_Y20In6TcNi
_symmetry_space_group_name_H-M   'P 1'
_cell_length_a   9.73588700
_cell_length_b   9.73587042
_cell_length_c   9.80291200
_cell_angle_alpha   90.00000000
_cell_angle_beta   90.00000000
_cell_angle_gamma   120.00010729
_symmetry_Int_Tables_number   1
_chemical_formula_structural   Y20In6TcNi
_chemical_formula_sum   'Y20 In6 Tc1 Ni1'
_cell_volume   804.70291768
_cell_formula_units_Z   1
loop_
 _symmetry_equiv_pos_site_id
 _symmetry_equiv_pos_as_xyz
  1  'x, y, z'
loop_
 _atom_site_type_symbol
 _atom_site_label
 _atom_site_symmetry_multiplicity
 _atom_site_fract_x
 _atom_site_fract_y
 _atom_site_fract_z
 _atom_site_occupancy
  Y  Y0  1  0.000000  0.000000  0.500584  1
  Y  Y1  1  0.000000  0.000000  0.999416  1
  Y  Y2  1  0.539090  0.460911  0.250000  1
  Y  Y3  1  0.539090  0.078178  0.250000  1
  Y  Y4  1  0.921822  0.460910  0.250000  1
  Y  Y5  1  0.456810  0.543189  0.750000  1
  Y  Y6  1  0.456810  0.913622  0.750000  1
  Y  Y7  1  0.086378  0.543190  0.750000  1
  Y  Y8  1  0.209498  0.790502  0.439960  1
  Y  Y9  1  0.209499  0.418997  0.439960  1
  Y  Y10  1  0.581004  0.790502  0.439960  1
  Y  Y11  1  0.789323  0.210677  0.564216  1
  Y  Y12  1  0.789322  0.578645  0.564216  1
  Y  Y13  1  0.421354  0.210677  0.564216  1
  Y  Y14  1  0.789323  0.210677  0.935784  1
  Y  Y15  1  0.789322  0.578645  0.935784  1
  Y  Y16  1  0.421354  0.210677  0.935784  1
  Y  Y17  1  0.209498  0.790502  0.060040  1
  Y  Y18  1  0.209499  0.418997  0.060040  1
  Y  Y19  1  0.581004  0.790502  0.060040  1
  In  In20  1  0.884057  0.115943  0.250000  1
  In  In21  1  0.884057  0.768115  0.250000  1
  In  In22  1  0.231886  0.115943  0.250000  1
  In  In23  1  0.116953  0.883047  0.750000  1
  In  In24  1  0.116953  0.233907  0.750000  1
  In  In25  1  0.766092  0.883047  0.750000  1
  Tc  Tc26  1  0.333333  0.666667  0.250000  1
  Ni  Ni27  1  0.666667  0.333333  0.750000  1
