# generated using pymatgen
data_Sc2Fe6Co6P7
_symmetry_space_group_name_H-M   'P 1'
_cell_length_a   8.89620800
_cell_length_b   8.89620753
_cell_length_c   3.55650700
_cell_angle_alpha   90.00000000
_cell_angle_beta   90.00000000
_cell_angle_gamma   120.00000920
_symmetry_Int_Tables_number   1
_chemical_formula_structural   Sc2Fe6Co6P7
_chemical_formula_sum   'Sc2 Fe6 Co6 P7'
_cell_volume   243.76092714
_cell_formula_units_Z   1
loop_
 _symmetry_equiv_pos_site_id
 _symmetry_equiv_pos_as_xyz
  1  'x, y, z'
loop_
 _atom_site_type_symbol
 _atom_site_label
 _atom_site_symmetry_multiplicity
 _atom_site_fract_x
 _atom_site_fract_y
 _atom_site_fract_z
 _atom_site_occupancy
  Sc  Sc0  1  0.666667  0.333333  0.000000  1
  Sc  Sc1  1  0.000000  0.000000  0.500000  1
  Fe  Fe2  1  0.719805  0.617231  0.500000  1
  Fe  Fe3  1  0.382769  0.102574  0.500000  1
  Fe  Fe4  1  0.897426  0.280195  0.500000  1
  Fe  Fe5  1  0.554504  0.793023  0.500000  1
  Fe  Fe6  1  0.206977  0.761482  0.500000  1
  Fe  Fe7  1  0.238518  0.445496  0.500000  1
  Co  Co8  1  0.766580  0.035621  0.000000  1
  Co  Co9  1  0.964379  0.730960  0.000000  1
  Co  Co10  1  0.269040  0.233420  0.000000  1
  Co  Co11  1  0.491332  0.548054  0.000000  1
  Co  Co12  1  0.451946  0.943278  0.000000  1
  Co  Co13  1  0.056722  0.508668  0.000000  1
  P  P14  1  0.746710  0.782101  0.000000  1
  P  P15  1  0.217899  0.964608  0.000000  1
  P  P16  1  0.035392  0.253290  0.000000  1
  P  P17  1  0.452816  0.377318  0.500000  1
  P  P18  1  0.622682  0.075499  0.500000  1
  P  P19  1  0.924501  0.547184  0.500000  1
  P  P20  1  0.333333  0.666667  0.000000  1
