# generated using pymatgen
data_Ca12Tm3Ge12Mo5O48
_symmetry_space_group_name_H-M   'P 1'
_cell_length_a   11.07375682
_cell_length_b   11.07402282
_cell_length_c   11.07481405
_cell_angle_alpha   109.46469693
_cell_angle_beta   109.48346618
_cell_angle_gamma   109.47105982
_symmetry_Int_Tables_number   1
_chemical_formula_structural   Ca12Tm3Ge12Mo5O48
_chemical_formula_sum   'Ca12 Tm3 Ge12 Mo5 O48'
_cell_volume   1045.40634056
_cell_formula_units_Z   1
loop_
 _symmetry_equiv_pos_site_id
 _symmetry_equiv_pos_as_xyz
  1  'x, y, z'
loop_
 _atom_site_type_symbol
 _atom_site_label
 _atom_site_symmetry_multiplicity
 _atom_site_fract_x
 _atom_site_fract_y
 _atom_site_fract_z
 _atom_site_occupancy
  Ca  Ca0  1  0.251690  0.874285  0.626609  1
  Ca  Ca1  1  0.750122  0.623773  0.874181  1
  Ca  Ca2  1  0.622882  0.873759  0.747656  1
  Ca  Ca3  1  0.877247  0.622463  0.249590  1
  Ca  Ca4  1  0.625379  0.247463  0.873090  1
  Ca  Ca5  1  0.872675  0.745020  0.622242  1
  Ca  Ca6  1  0.748310  0.125715  0.373391  1
  Ca  Ca7  1  0.249878  0.376227  0.125819  1
  Ca  Ca8  1  0.377118  0.126241  0.252344  1
  Ca  Ca9  1  0.122753  0.377537  0.750410  1
  Ca  Ca10  1  0.374621  0.752537  0.126910  1
  Ca  Ca11  1  0.127325  0.254980  0.377758  1
  Tm  Tm12  1  0.500000  0.500000  0.000000  1
  Tm  Tm13  1  0.000000  0.000000  0.500000  1
  Tm  Tm14  1  0.000000  0.000000  0.000000  1
  Ge  Ge15  1  0.124567  0.747242  0.873083  1
  Ge  Ge16  1  0.875433  0.252758  0.126917  1
  Ge  Ge17  1  0.626774  0.374216  0.251467  1
  Ge  Ge18  1  0.748599  0.875884  0.123153  1
  Ge  Ge19  1  0.872425  0.126466  0.748779  1
  Ge  Ge20  1  0.249889  0.624936  0.374900  1
  Ge  Ge21  1  0.750111  0.375064  0.625100  1
  Ge  Ge22  1  0.251401  0.124116  0.876847  1
  Ge  Ge23  1  0.127575  0.873534  0.251221  1
  Ge  Ge24  1  0.373226  0.625784  0.748533  1
  Ge  Ge25  1  0.622267  0.748685  0.376478  1
  Ge  Ge26  1  0.377733  0.251315  0.623522  1
  Mo  Mo27  1  0.500000  0.500000  0.500000  1
  Mo  Mo28  1  0.500000  0.000000  0.500000  1
  Mo  Mo29  1  0.000000  0.500000  0.500000  1
  Mo  Mo30  1  0.000000  0.500000  0.000000  1
  Mo  Mo31  1  0.500000  0.000000  0.000000  1
  O  O32  1  0.412017  0.809621  0.788146  1
  O  O33  1  0.876642  0.397685  0.087914  1
  O  O34  1  0.105140  0.979265  0.694960  1
  O  O35  1  0.516743  0.621364  0.709381  1
  O  O36  1  0.689551  0.089239  0.711971  1
  O  O37  1  0.622168  0.711376  0.521890  1
  O  O38  1  0.624579  0.410139  0.105530  1
  O  O39  1  0.710088  0.518566  0.622403  1
  O  O40  1  0.809332  0.519587  0.398297  1
  O  O41  1  0.980290  0.785152  0.874665  1
  O  O42  1  0.783884  0.874925  0.977045  1
  O  O43  1  0.714535  0.695376  0.090666  1
  O  O44  1  0.410621  0.102619  0.620776  1
  O  O45  1  0.396356  0.808220  0.518622  1
  O  O46  1  0.089394  0.709927  0.690924  1
  O  O47  1  0.103510  0.621708  0.411876  1
  O  O48  1  0.522190  0.395990  0.806097  1
  O  O49  1  0.089764  0.873799  0.395794  1
  O  O50  1  0.981860  0.691695  0.102760  1
  O  O51  1  0.190668  0.480413  0.601703  1
  O  O52  1  0.692796  0.104721  0.982799  1
  O  O53  1  0.790241  0.411900  0.808235  1
  O  O54  1  0.398670  0.089238  0.877620  1
  O  O55  1  0.875763  0.982229  0.785858  1
  O  O56  1  0.587983  0.190379  0.211854  1
  O  O57  1  0.123358  0.602315  0.912086  1
  O  O58  1  0.894860  0.020735  0.305040  1
  O  O59  1  0.483257  0.378636  0.290619  1
  O  O60  1  0.310449  0.910761  0.288029  1
  O  O61  1  0.377832  0.288624  0.478110  1
  O  O62  1  0.375421  0.589861  0.894470  1
  O  O63  1  0.289912  0.481434  0.377597  1
  O  O64  1  0.124237  0.017771  0.214142  1
  O  O65  1  0.601330  0.910762  0.122380  1
  O  O66  1  0.209759  0.588100  0.191765  1
  O  O67  1  0.196207  0.214399  0.589426  1
  O  O68  1  0.307204  0.895279  0.017201  1
  O  O69  1  0.018140  0.308305  0.897240  1
  O  O70  1  0.910236  0.126201  0.604206  1
  O  O71  1  0.477810  0.604010  0.193903  1
  O  O72  1  0.896490  0.378292  0.588124  1
  O  O73  1  0.910606  0.290073  0.309076  1
  O  O74  1  0.603644  0.191780  0.481378  1
  O  O75  1  0.589379  0.897381  0.379224  1
  O  O76  1  0.285465  0.304624  0.909334  1
  O  O77  1  0.216116  0.125075  0.022955  1
  O  O78  1  0.019710  0.214848  0.125335  1
  O  O79  1  0.803793  0.785601  0.410574  1
