# generated using pymatgen
data_Pr9NdSi5Hg
_symmetry_space_group_name_H-M   'P 1'
_cell_length_a   7.87619544
_cell_length_b   7.87619598
_cell_length_c   9.10682615
_cell_angle_alpha   115.62209894
_cell_angle_beta   115.62210339
_cell_angle_gamma   90.00000412
_symmetry_Int_Tables_number   1
_chemical_formula_structural   Pr9NdSi5Hg
_chemical_formula_sum   'Pr9 Nd1 Si5 Hg1'
_cell_volume   446.97993503
_cell_formula_units_Z   1
loop_
 _symmetry_equiv_pos_site_id
 _symmetry_equiv_pos_as_xyz
  1  'x, y, z'
loop_
 _atom_site_type_symbol
 _atom_site_label
 _atom_site_symmetry_multiplicity
 _atom_site_fract_x
 _atom_site_fract_y
 _atom_site_fract_z
 _atom_site_occupancy
  Pr  Pr0  1  0.004149  0.004149  0.008298  1
  Pr  Pr1  1  0.969190  0.824394  0.286321  1
  Pr  Pr2  1  0.317131  0.461927  0.286321  1
  Pr  Pr3  1  0.824394  0.317131  0.286321  1
  Pr  Pr4  1  0.461927  0.969190  0.286321  1
  Pr  Pr5  1  0.038528  0.183194  0.713667  1
  Pr  Pr6  1  0.675140  0.530472  0.713667  1
  Pr  Pr7  1  0.183194  0.675140  0.713667  1
  Pr  Pr8  1  0.530472  0.038528  0.713667  1
  Nd  Nd9  1  0.496013  0.496013  0.992025  1
  Si  Si10  1  0.250382  0.250382  0.500763  1
  Si  Si11  1  0.613597  0.885186  0.999892  1
  Si  Si12  1  0.386295  0.114707  0.999892  1
  Si  Si13  1  0.885186  0.386295  0.999892  1
  Si  Si14  1  0.114707  0.613597  0.999892  1
  Hg  Hg15  1  0.749696  0.749696  0.499393  1
