# generated using pymatgen
data_Nd5Sn15(Ir3Pt)2
_symmetry_space_group_name_H-M   'P 1'
_cell_length_a   4.52088100
_cell_length_b   7.36694214
_cell_length_c   18.84721677
_cell_angle_alpha   89.86493712
_cell_angle_beta   90.00000000
_cell_angle_gamma   90.00000000
_symmetry_Int_Tables_number   1
_chemical_formula_structural   Nd5Sn15(Ir3Pt)2
_chemical_formula_sum   'Nd5 Sn15 Ir6 Pt2'
_cell_volume   627.70610609
_cell_formula_units_Z   1
loop_
 _symmetry_equiv_pos_site_id
 _symmetry_equiv_pos_as_xyz
  1  'x, y, z'
loop_
 _atom_site_type_symbol
 _atom_site_label
 _atom_site_symmetry_multiplicity
 _atom_site_fract_x
 _atom_site_fract_y
 _atom_site_fract_z
 _atom_site_occupancy
  Nd  Nd0  1  0.500000  0.006007  0.852688  1
  Nd  Nd1  1  0.500000  0.495071  0.359254  1
  Nd  Nd2  1  0.000000  0.995595  0.146627  1
  Nd  Nd3  1  0.000000  0.503222  0.639965  1
  Nd  Nd4  1  0.500000  0.492692  0.929355  1
  Sn  Sn5  1  0.000000  0.719897  0.803521  1
  Sn  Sn6  1  0.000000  0.778342  0.308628  1
  Sn  Sn7  1  0.500000  0.276607  0.196018  1
  Sn  Sn8  1  0.500000  0.219761  0.689975  1
  Sn  Sn9  1  0.000000  0.850783  0.966904  1
  Sn  Sn10  1  0.000000  0.633104  0.467336  1
  Sn  Sn11  1  0.500000  0.133516  0.034269  1
  Sn  Sn12  1  0.500000  0.366837  0.531678  1
  Sn  Sn13  1  0.000000  0.306173  0.814655  1
  Sn  Sn14  1  0.000000  0.198807  0.319540  1
  Sn  Sn15  1  0.500000  0.698880  0.189609  1
  Sn  Sn16  1  0.500000  0.805757  0.677844  1
  Sn  Sn17  1  0.500000  0.022645  0.433993  1
  Sn  Sn18  1  0.000000  0.514982  0.069421  1
  Sn  Sn19  1  0.000000  0.979302  0.566827  1
  Ir  Ir20  1  0.000000  0.251015  0.465640  1
  Ir  Ir21  1  0.500000  0.750302  0.532843  1
  Ir  Ir22  1  0.000000  0.018432  0.714544  1
  Ir  Ir23  1  0.000000  0.483457  0.213988  1
  Ir  Ir24  1  0.500000  0.987212  0.289510  1
  Ir  Ir25  1  0.500000  0.520013  0.773977  1
  Pt  Pt26  1  0.000000  0.230087  0.964617  1
  Pt  Pt27  1  0.500000  0.761501  0.046776  1
