# generated using pymatgen
data_Ce12Al9Re13Ir2
_symmetry_space_group_name_H-M   'P 1'
_cell_length_a   9.48394600
_cell_length_b   9.48394486
_cell_length_c   8.55991800
_cell_angle_alpha   90.00000000
_cell_angle_beta   90.00000000
_cell_angle_gamma   119.99999003
_symmetry_Int_Tables_number   1
_chemical_formula_structural   Ce12Al9Re13Ir2
_chemical_formula_sum   'Ce12 Al9 Re13 Ir2'
_cell_volume   666.77356348
_cell_formula_units_Z   1
loop_
 _symmetry_equiv_pos_site_id
 _symmetry_equiv_pos_as_xyz
  1  'x, y, z'
loop_
 _atom_site_type_symbol
 _atom_site_label
 _atom_site_symmetry_multiplicity
 _atom_site_fract_x
 _atom_site_fract_y
 _atom_site_fract_z
 _atom_site_occupancy
  Ce  Ce0  1  0.332673  0.999149  0.064341  1
  Ce  Ce1  1  0.666476  0.999149  0.935659  1
  Ce  Ce2  1  0.000851  0.333524  0.064341  1
  Ce  Ce3  1  0.670383  0.002049  0.566020  1
  Ce  Ce4  1  0.997951  0.329617  0.433980  1
  Ce  Ce5  1  0.000851  0.667327  0.935659  1
  Ce  Ce6  1  0.331666  0.002049  0.433980  1
  Ce  Ce7  1  0.997951  0.668334  0.566020  1
  Ce  Ce8  1  0.666476  0.667327  0.064341  1
  Ce  Ce9  1  0.332673  0.333524  0.935659  1
  Ce  Ce10  1  0.331666  0.329617  0.566020  1
  Ce  Ce11  1  0.670383  0.668334  0.433980  1
  Al  Al12  1  0.666667  0.333333  0.500000  1
  Al  Al13  1  0.666667  0.333333  0.000000  1
  Al  Al14  1  0.333333  0.666667  0.000000  1
  Al  Al15  1  0.166278  0.999918  0.751465  1
  Al  Al16  1  0.833639  0.999918  0.248535  1
  Al  Al17  1  0.000082  0.166361  0.751465  1
  Al  Al18  1  0.000082  0.833722  0.248535  1
  Al  Al19  1  0.833639  0.833722  0.751465  1
  Al  Al20  1  0.166278  0.166361  0.248535  1
  Re  Re21  1  0.157214  0.496218  0.748267  1
  Re  Re22  1  0.846263  0.504038  0.251070  1
  Re  Re23  1  0.503782  0.660997  0.748267  1
  Re  Re24  1  0.495962  0.153737  0.748930  1
  Re  Re25  1  0.495962  0.342224  0.251070  1
  Re  Re26  1  0.503782  0.842786  0.251733  1
  Re  Re27  1  0.339003  0.842786  0.748267  1
  Re  Re28  1  0.657776  0.504038  0.748930  1
  Re  Re29  1  0.657776  0.153737  0.251070  1
  Re  Re30  1  0.339003  0.496218  0.251733  1
  Re  Re31  1  0.846263  0.342224  0.748930  1
  Re  Re32  1  0.157214  0.660997  0.251733  1
  Re  Re33  1  0.333333  0.666667  0.500000  1
  Ir  Ir34  1  0.000000  0.000000  0.500000  1
  Ir  Ir35  1  0.000000  0.000000  0.000000  1
