# generated using pymatgen
data_HoTmThCo2
_symmetry_space_group_name_H-M   'P 1'
_cell_length_a   5.94712576
_cell_length_b   5.94712640
_cell_length_c   5.94712490
_cell_angle_alpha   143.42983120
_cell_angle_beta   118.04469883
_cell_angle_gamma   74.13998290
_symmetry_Int_Tables_number   1
_chemical_formula_structural   HoTmThCo2
_chemical_formula_sum   'Ho1 Tm1 Th1 Co2'
_cell_volume   108.40870356
_cell_formula_units_Z   1
loop_
 _symmetry_equiv_pos_site_id
 _symmetry_equiv_pos_as_xyz
  1  'x, y, z'
loop_
 _atom_site_type_symbol
 _atom_site_label
 _atom_site_symmetry_multiplicity
 _atom_site_fract_x
 _atom_site_fract_y
 _atom_site_fract_z
 _atom_site_occupancy
  Ho  Ho0  1  0.688833  0.188833  0.500000  1
  Tm  Tm1  1  0.312088  0.812087  0.500000  1
  Th  Th2  1  0.000164  0.000164  0.000000  1
  Co  Co3  1  0.696289  0.499458  0.196832  1
  Co  Co4  1  0.302626  0.499458  0.803168  1
