# generated using pymatgen
data_Ba7In4Hg27
_symmetry_space_group_name_H-M   'P 1'
_cell_length_a   11.03647100
_cell_length_b   10.93483256
_cell_length_c   10.76689000
_cell_angle_alpha   90.00000000
_cell_angle_beta   90.00000000
_cell_angle_gamma   120.25481809
_symmetry_Int_Tables_number   1
_chemical_formula_structural   Ba7In4Hg27
_chemical_formula_sum   'Ba7 In4 Hg27'
_cell_volume   1122.38638547
_cell_formula_units_Z   1
loop_
 _symmetry_equiv_pos_site_id
 _symmetry_equiv_pos_as_xyz
  1  'x, y, z'
loop_
 _atom_site_type_symbol
 _atom_site_label
 _atom_site_symmetry_multiplicity
 _atom_site_fract_x
 _atom_site_fract_y
 _atom_site_fract_z
 _atom_site_occupancy
  Ba  Ba0  1  0.663264  0.329496  0.000000  1
  Ba  Ba1  1  0.004823  0.005172  0.000000  1
  Ba  Ba2  1  0.828923  0.665949  0.500000  1
  Ba  Ba3  1  0.333742  0.158906  0.500000  1
  Ba  Ba4  1  0.835175  0.173095  0.500000  1
  Ba  Ba5  1  0.331685  0.664705  0.780334  1
  Ba  Ba6  1  0.331685  0.664705  0.219666  1
  In  In7  1  0.050855  0.661232  0.000000  1
  In  In8  1  0.336390  0.388007  0.000000  1
  In  In9  1  0.613898  0.951360  0.000000  1
  In  In10  1  0.608846  0.675697  0.000000  1
  Hg  Hg11  1  0.327915  0.925272  0.000000  1
  Hg  Hg12  1  0.074793  0.399881  0.000000  1
  Hg  Hg13  1  0.832713  0.676634  0.833105  1
  Hg  Hg14  1  0.323679  0.153946  0.831867  1
  Hg  Hg15  1  0.846133  0.170739  0.829604  1
  Hg  Hg16  1  0.832713  0.676634  0.166895  1
  Hg  Hg17  1  0.323679  0.153946  0.168133  1
  Hg  Hg18  1  0.846133  0.170739  0.170396  1
  Hg  Hg19  1  0.661018  0.336066  0.640760  1
  Hg  Hg20  1  0.002154  0.997151  0.645586  1
  Hg  Hg21  1  0.002154  0.997151  0.354414  1
  Hg  Hg22  1  0.661018  0.336066  0.359240  1
  Hg  Hg23  1  0.950443  0.482934  0.737991  1
  Hg  Hg24  1  0.517613  0.479545  0.744135  1
  Hg  Hg25  1  0.525384  0.044889  0.739197  1
  Hg  Hg26  1  0.151174  0.840355  0.703104  1
  Hg  Hg27  1  0.693338  0.848113  0.698209  1
  Hg  Hg28  1  0.157805  0.305623  0.695527  1
  Hg  Hg29  1  0.693338  0.848113  0.301791  1
  Hg  Hg30  1  0.151174  0.840355  0.296896  1
  Hg  Hg31  1  0.157805  0.305623  0.304473  1
  Hg  Hg32  1  0.517613  0.479545  0.255865  1
  Hg  Hg33  1  0.950443  0.482934  0.262009  1
  Hg  Hg34  1  0.525384  0.044889  0.260803  1
  Hg  Hg35  1  0.130047  0.561850  0.500000  1
  Hg  Hg36  1  0.437892  0.564604  0.500000  1
  Hg  Hg37  1  0.433831  0.871409  0.500000  1
