# generated using pymatgen
data_LaPr15(HoSn4)4
_symmetry_space_group_name_H-M   'P 1'
_cell_length_a   8.23915512
_cell_length_b   8.39272018
_cell_length_c   15.92089400
_cell_angle_alpha   90.00437601
_cell_angle_beta   89.99025037
_cell_angle_gamma   89.98880472
_symmetry_Int_Tables_number   1
_chemical_formula_structural   LaPr15(HoSn4)4
_chemical_formula_sum   'La1 Pr15 Ho4 Sn16'
_cell_volume   1100.91264068
_cell_formula_units_Z   1
loop_
 _symmetry_equiv_pos_site_id
 _symmetry_equiv_pos_as_xyz
  1  'x, y, z'
loop_
 _atom_site_type_symbol
 _atom_site_label
 _atom_site_symmetry_multiplicity
 _atom_site_fract_x
 _atom_site_fract_y
 _atom_site_fract_z
 _atom_site_occupancy
  La  La0  1  0.017711  0.181576  0.402358  1
  Pr  Pr1  1  0.367162  0.837839  0.120620  1
  Pr  Pr2  1  0.132891  0.337737  0.620695  1
  Pr  Pr3  1  0.481785  0.681151  0.901501  1
  Pr  Pr4  1  0.867335  0.662236  0.120435  1
  Pr  Pr5  1  0.132639  0.337681  0.879242  1
  Pr  Pr6  1  0.481779  0.681192  0.598614  1
  Pr  Pr7  1  0.632779  0.162359  0.621124  1
  Pr  Pr8  1  0.866961  0.662003  0.379318  1
  Pr  Pr9  1  0.018118  0.181280  0.098421  1
  Pr  Pr10  1  0.981838  0.818826  0.901502  1
  Pr  Pr11  1  0.632702  0.162252  0.879145  1
  Pr  Pr12  1  0.518074  0.318951  0.098056  1
  Pr  Pr13  1  0.367370  0.837878  0.378991  1
  Pr  Pr14  1  0.981933  0.818482  0.598676  1
  Pr  Pr15  1  0.518539  0.319164  0.401521  1
  Ho  Ho16  1  0.198401  0.502109  0.249731  1
  Ho  Ho17  1  0.698124  0.997927  0.249748  1
  Ho  Ho18  1  0.301868  0.001896  0.750128  1
  Ho  Ho19  1  0.801743  0.498083  0.749955  1
  Sn  Sn20  1  0.791942  0.465691  0.544587  1
  Sn  Sn21  1  0.706422  0.964153  0.456384  1
  Sn  Sn22  1  0.676466  0.853024  0.750087  1
  Sn  Sn23  1  0.208365  0.535754  0.455884  1
  Sn  Sn24  1  0.292527  0.034690  0.955759  1
  Sn  Sn25  1  0.822472  0.353388  0.249276  1
  Sn  Sn26  1  0.792455  0.465344  0.955633  1
  Sn  Sn27  1  0.563690  0.615867  0.249774  1
  Sn  Sn28  1  0.207679  0.534858  0.044084  1
  Sn  Sn29  1  0.435993  0.384434  0.750162  1
  Sn  Sn30  1  0.176520  0.646860  0.750032  1
  Sn  Sn31  1  0.936232  0.115606  0.749973  1
  Sn  Sn32  1  0.293869  0.033498  0.544966  1
  Sn  Sn33  1  0.707579  0.965378  0.044150  1
  Sn  Sn34  1  0.324419  0.147070  0.249743  1
  Sn  Sn35  1  0.063623  0.883758  0.249726  1
