# generated using pymatgen
data_Y7ErCo17Si10Ir
_symmetry_space_group_name_H-M   'P 1'
_cell_length_a   5.24336734
_cell_length_b   5.24336640
_cell_length_c   22.00943401
_cell_angle_alpha   89.89245171
_cell_angle_beta   90.10754826
_cell_angle_gamma   120.31852374
_symmetry_Int_Tables_number   1
_chemical_formula_structural   Y7ErCo17Si10Ir
_chemical_formula_sum   'Y7 Er1 Co17 Si10 Ir1'
_cell_volume   522.34335931
_cell_formula_units_Z   1
loop_
 _symmetry_equiv_pos_site_id
 _symmetry_equiv_pos_as_xyz
  1  'x, y, z'
loop_
 _atom_site_type_symbol
 _atom_site_label
 _atom_site_symmetry_multiplicity
 _atom_site_fract_x
 _atom_site_fract_y
 _atom_site_fract_z
 _atom_site_occupancy
  Y  Y0  1  0.665283  0.334717  0.474915  1
  Y  Y1  1  0.666713  0.333287  0.027186  1
  Y  Y2  1  0.333402  0.666598  0.971715  1
  Y  Y3  1  0.332810  0.667190  0.675135  1
  Y  Y4  1  0.667744  0.332256  0.325744  1
  Y  Y5  1  0.666904  0.333096  0.173818  1
  Y  Y6  1  0.333458  0.666542  0.825858  1
  Er  Er7  1  0.332604  0.667396  0.530010  1
  Co  Co8  1  0.166283  0.332351  0.087559  1
  Co  Co9  1  0.833635  0.667612  0.911475  1
  Co  Co10  1  0.667649  0.833717  0.087559  1
  Co  Co11  1  0.832671  0.668654  0.589599  1
  Co  Co12  1  0.332388  0.166365  0.911475  1
  Co  Co13  1  0.165337  0.331226  0.412493  1
  Co  Co14  1  0.165965  0.834035  0.087623  1
  Co  Co15  1  0.331346  0.167329  0.589599  1
  Co  Co16  1  0.834348  0.165652  0.910851  1
  Co  Co17  1  0.668774  0.834663  0.412493  1
  Co  Co18  1  0.832600  0.167400  0.590044  1
  Co  Co19  1  0.168075  0.334389  0.247754  1
  Co  Co20  1  0.832568  0.664912  0.750434  1
  Co  Co21  1  0.665611  0.831925  0.247754  1
  Co  Co22  1  0.335088  0.167432  0.750434  1
  Co  Co23  1  0.167847  0.832153  0.249667  1
  Co  Co24  1  0.832543  0.167457  0.750671  1
  Si  Si25  1  0.999714  0.000286  0.999422  1
  Si  Si26  1  0.996835  0.003165  0.503005  1
  Si  Si27  1  0.332281  0.667719  0.166841  1
  Si  Si28  1  0.665962  0.334038  0.832206  1
  Si  Si29  1  0.666076  0.333924  0.668968  1
  Si  Si30  1  0.343478  0.656522  0.329056  1
  Si  Si31  1  0.001389  0.998611  0.167875  1
  Si  Si32  1  0.001079  0.998921  0.831145  1
  Si  Si33  1  0.999624  0.000376  0.669905  1
  Si  Si34  1  0.992592  0.007408  0.328483  1
  Ir  Ir35  1  0.169326  0.830674  0.411225  1
