# generated using pymatgen
data_EuCo3Ni2P3
_symmetry_space_group_name_H-M   'P 1'
_cell_length_a   6.04038502
_cell_length_b   6.04038319
_cell_length_c   11.44395258
_cell_angle_alpha   90.04601540
_cell_angle_beta   89.95398594
_cell_angle_gamma   145.27404574
_symmetry_Int_Tables_number   1
_chemical_formula_structural   EuCo3Ni2P3
_chemical_formula_sum   'Eu2 Co6 Ni4 P6'
_cell_volume   237.85623913
_cell_formula_units_Z   2
loop_
 _symmetry_equiv_pos_site_id
 _symmetry_equiv_pos_as_xyz
  1  'x, y, z'
loop_
 _atom_site_type_symbol
 _atom_site_label
 _atom_site_symmetry_multiplicity
 _atom_site_fract_x
 _atom_site_fract_y
 _atom_site_fract_z
 _atom_site_occupancy
  Eu  Eu0  1  0.160012  0.839988  0.247663  1
  Eu  Eu1  1  0.840310  0.159690  0.751816  1
  Co  Co2  1  0.443229  0.556771  0.141606  1
  Co  Co3  1  0.447780  0.552220  0.357323  1
  Co  Co4  1  0.198504  0.801496  0.936486  1
  Co  Co5  1  0.557049  0.442951  0.856427  1
  Co  Co6  1  0.802502  0.197498  0.433247  1
  Co  Co7  1  0.997603  0.002397  0.998209  1
  Ni  Ni8  1  0.551589  0.448411  0.641819  1
  Ni  Ni9  1  0.197825  0.802175  0.570714  1
  Ni  Ni10  1  0.001069  0.998931  0.498623  1
  Ni  Ni11  1  0.799738  0.200262  0.069475  1
  P  P12  1  0.113929  0.886071  0.755732  1
  P  P13  1  0.384578  0.615422  0.956855  1
  P  P14  1  0.380392  0.619608  0.536969  1
  P  P15  1  0.617983  0.382017  0.455808  1
  P  P16  1  0.614069  0.385931  0.039406  1
  P  P17  1  0.891839  0.108161  0.251824  1
