# generated using pymatgen
data_DyHo3LuBiAu2
_symmetry_space_group_name_H-M   'P 1'
_cell_length_a   8.67208783
_cell_length_b   8.67208802
_cell_length_c   8.67358442
_cell_angle_alpha   124.22675320
_cell_angle_beta   124.22674877
_cell_angle_gamma   82.81155225
_symmetry_Int_Tables_number   1
_chemical_formula_structural   DyHo3LuBiAu2
_chemical_formula_sum   'Dy2 Ho6 Lu2 Bi2 Au4'
_cell_volume   428.12566212
_cell_formula_units_Z   2
loop_
 _symmetry_equiv_pos_site_id
 _symmetry_equiv_pos_as_xyz
  1  'x, y, z'
loop_
 _atom_site_type_symbol
 _atom_site_label
 _atom_site_symmetry_multiplicity
 _atom_site_fract_x
 _atom_site_fract_y
 _atom_site_fract_z
 _atom_site_occupancy
  Dy  Dy0  1  0.015010  0.515010  0.810360  1
  Dy  Dy1  1  0.704650  0.204650  0.189640  1
  Ho  Ho2  1  0.515032  0.704987  0.500000  1
  Ho  Ho3  1  0.204987  0.015032  0.500000  1
  Ho  Ho4  1  0.984966  0.484966  0.190012  1
  Ho  Ho5  1  0.294954  0.794954  0.809988  1
  Ho  Ho6  1  0.484830  0.294958  0.500000  1
  Ho  Ho7  1  0.794958  0.984830  0.500000  1
  Lu  Lu8  1  0.000059  0.000059  0.000000  1
  Lu  Lu9  1  0.500059  0.500059  0.000000  1
  Bi  Bi10  1  0.749990  0.749990  0.000000  1
  Bi  Bi11  1  0.249990  0.249990  0.000000  1
  Au  Au12  1  0.638541  0.138541  0.776907  1
  Au  Au13  1  0.361634  0.861634  0.223093  1
  Au  Au14  1  0.138839  0.361500  0.500000  1
  Au  Au15  1  0.861500  0.638839  0.500000  1
