# generated using pymatgen
data_Sr2VGaO5
_symmetry_space_group_name_H-M   'P 1'
_cell_length_a   5.61501935
_cell_length_b   5.84828327
_cell_length_c   8.67532345
_cell_angle_alpha   109.69811495
_cell_angle_beta   108.88200665
_cell_angle_gamma   89.99999565
_symmetry_Int_Tables_number   1
_chemical_formula_structural   Sr2VGaO5
_chemical_formula_sum   'Sr4 V2 Ga2 O10'
_cell_volume   251.86835689
_cell_formula_units_Z   2
loop_
 _symmetry_equiv_pos_site_id
 _symmetry_equiv_pos_as_xyz
  1  'x, y, z'
loop_
 _atom_site_type_symbol
 _atom_site_label
 _atom_site_symmetry_multiplicity
 _atom_site_fract_x
 _atom_site_fract_y
 _atom_site_fract_z
 _atom_site_occupancy
  Sr  Sr0  1  0.115069  0.631821  0.221520  1
  Sr  Sr1  1  0.893549  0.368179  0.778480  1
  Sr  Sr2  1  0.393549  0.910301  0.778480  1
  Sr  Sr3  1  0.615069  0.089699  0.221520  1
  V  V4  1  0.497675  0.500000  0.000000  1
  V  V5  1  0.997675  0.000000  0.000000  1
  Ga  Ga6  1  0.281720  0.321118  0.500000  1
  Ga  Ga7  1  0.781720  0.678882  0.500000  1
  O  O8  1  0.239149  0.741575  0.977771  1
  O  O9  1  0.261378  0.258425  0.022229  1
  O  O10  1  0.761378  0.263804  0.022229  1
  O  O11  1  0.739149  0.736196  0.977771  1
  O  O12  1  0.619948  0.705104  0.285172  1
  O  O13  1  0.334777  0.294896  0.714828  1
  O  O14  1  0.834777  0.919933  0.714828  1
  O  O15  1  0.119948  0.080067  0.285172  1
  O  O16  1  0.112235  0.602521  0.500000  1
  O  O17  1  0.612235  0.397479  0.500000  1
