# generated using pymatgen
data_Tb3YTi(Sn3Rh2)3
_symmetry_space_group_name_H-M   'P 1'
_cell_length_a   13.27438234
_cell_length_b   13.27438277
_cell_length_c   7.25482000
_cell_angle_alpha   91.15334192
_cell_angle_beta   88.84665729
_cell_angle_gamma   160.65959294
_symmetry_Int_Tables_number   1
_chemical_formula_structural   Tb3YTi(Sn3Rh2)3
_chemical_formula_sum   'Tb3 Y1 Ti1 Sn9 Rh6'
_cell_volume   423.28096455
_cell_formula_units_Z   1
loop_
 _symmetry_equiv_pos_site_id
 _symmetry_equiv_pos_as_xyz
  1  'x, y, z'
loop_
 _atom_site_type_symbol
 _atom_site_label
 _atom_site_symmetry_multiplicity
 _atom_site_fract_x
 _atom_site_fract_y
 _atom_site_fract_z
 _atom_site_occupancy
  Tb  Tb0  1  0.476334  0.523666  0.235178  1
  Tb  Tb1  1  0.172620  0.827380  0.263237  1
  Tb  Tb2  1  0.525844  0.474156  0.732104  1
  Y  Y3  1  0.826740  0.173260  0.755458  1
  Ti  Ti4  1  0.704404  0.295596  0.570967  1
  Sn  Sn5  1  0.598194  0.401806  0.103890  1
  Sn  Sn6  1  0.048331  0.951669  0.394886  1
  Sn  Sn7  1  0.952672  0.047328  0.897234  1
  Sn  Sn8  1  0.709021  0.290979  0.976110  1
  Sn  Sn9  1  0.283888  0.716112  0.480079  1
  Sn  Sn10  1  0.294764  0.705236  0.055364  1
  Sn  Sn11  1  0.877809  0.122191  0.235226  1
  Sn  Sn12  1  0.123589  0.876411  0.717136  1
  Sn  Sn13  1  0.401828  0.598172  0.610107  1
  Rh  Rh14  1  0.394828  0.605172  0.984287  1
  Rh  Rh15  1  0.771189  0.228811  0.274365  1
  Rh  Rh16  1  0.224055  0.775945  0.775518  1
  Rh  Rh17  1  0.052391  0.947609  0.010516  1
  Rh  Rh18  1  0.612617  0.387383  0.476753  1
  Rh  Rh19  1  0.948880  0.051120  0.515386  1
