# generated using pymatgen
data_Ca3AcBi3
_symmetry_space_group_name_H-M   'P 1'
_cell_length_a   8.56505589
_cell_length_b   8.56505494
_cell_length_c   8.57439913
_cell_angle_alpha   109.39728701
_cell_angle_beta   109.39728977
_cell_angle_gamma   109.37964237
_symmetry_Int_Tables_number   1
_chemical_formula_structural   Ca3AcBi3
_chemical_formula_sum   'Ca6 Ac2 Bi6'
_cell_volume   485.64497952
_cell_formula_units_Z   2
loop_
 _symmetry_equiv_pos_site_id
 _symmetry_equiv_pos_as_xyz
  1  'x, y, z'
loop_
 _atom_site_type_symbol
 _atom_site_label
 _atom_site_symmetry_multiplicity
 _atom_site_fract_x
 _atom_site_fract_y
 _atom_site_fract_z
 _atom_site_occupancy
  Ca  Ca0  1  0.502058  0.005687  0.360223  1
  Ca  Ca1  1  0.505687  0.002058  0.860223  1
  Ca  Ca2  1  0.639439  0.641745  0.645264  1
  Ca  Ca3  1  0.995889  0.355887  0.494093  1
  Ca  Ca4  1  0.141745  0.139439  0.145264  1
  Ca  Ca5  1  0.855887  0.495889  0.994093  1
  Ac  Ac6  1  0.000634  0.854564  0.500349  1
  Ac  Ac7  1  0.354564  0.500634  0.000349  1
  Bi  Bi8  1  0.124704  0.751243  0.875522  1
  Bi  Bi9  1  0.870921  0.125752  0.753610  1
  Bi  Bi10  1  0.625752  0.370921  0.253610  1
  Bi  Bi11  1  0.380405  0.251071  0.620941  1
  Bi  Bi12  1  0.751071  0.880405  0.120941  1
  Bi  Bi13  1  0.251243  0.624704  0.375522  1
