# generated using pymatgen
data_ErTmCo9P6Os
_symmetry_space_group_name_H-M   'P 1'
_cell_length_a   3.66957700
_cell_length_b   10.31147000
_cell_length_c   11.71420500
_cell_angle_alpha   90.00000000
_cell_angle_beta   90.00000000
_cell_angle_gamma   90.00000000
_symmetry_Int_Tables_number   1
_chemical_formula_structural   ErTmCo9P6Os
_chemical_formula_sum   'Er2 Tm2 Co18 P12 Os2'
_cell_volume   443.25067704
_cell_formula_units_Z   2
loop_
 _symmetry_equiv_pos_site_id
 _symmetry_equiv_pos_as_xyz
  1  'x, y, z'
loop_
 _atom_site_type_symbol
 _atom_site_label
 _atom_site_symmetry_multiplicity
 _atom_site_fract_x
 _atom_site_fract_y
 _atom_site_fract_z
 _atom_site_occupancy
  Er  Er0  1  0.250000  0.582224  0.701963  1
  Er  Er1  1  0.250000  0.917776  0.201963  1
  Tm  Tm2  1  0.750000  0.413438  0.295278  1
  Tm  Tm3  1  0.750000  0.086562  0.795278  1
  Co  Co4  1  0.750000  0.283052  0.008497  1
  Co  Co5  1  0.750000  0.216948  0.508497  1
  Co  Co6  1  0.250000  0.406342  0.487483  1
  Co  Co7  1  0.250000  0.093658  0.987483  1
  Co  Co8  1  0.750000  0.591367  0.510350  1
  Co  Co9  1  0.750000  0.908633  0.010350  1
  Co  Co10  1  0.250000  0.220485  0.177279  1
  Co  Co11  1  0.250000  0.279515  0.677279  1
  Co  Co12  1  0.750000  0.777394  0.822665  1
  Co  Co13  1  0.750000  0.722606  0.322665  1
  Co  Co14  1  0.250000  0.887769  0.702182  1
  Co  Co15  1  0.250000  0.612231  0.202182  1
  Co  Co16  1  0.750000  0.115783  0.300728  1
  Co  Co17  1  0.750000  0.384217  0.800728  1
  Co  Co18  1  0.250000  0.465055  0.932539  1
  Co  Co19  1  0.250000  0.034945  0.432539  1
  Co  Co20  1  0.750000  0.533392  0.069280  1
  Co  Co21  1  0.750000  0.966608  0.569280  1
  P  P22  1  0.250000  0.416164  0.112961  1
  P  P23  1  0.250000  0.083836  0.612961  1
  P  P24  1  0.750000  0.578424  0.886224  1
  P  P25  1  0.750000  0.921576  0.386224  1
  P  P26  1  0.250000  0.269540  0.869450  1
  P  P27  1  0.250000  0.230460  0.369450  1
  P  P28  1  0.750000  0.729979  0.132504  1
  P  P29  1  0.750000  0.770021  0.632504  1
  P  P30  1  0.250000  0.592898  0.389770  1
  P  P31  1  0.250000  0.907102  0.889770  1
  P  P32  1  0.750000  0.397830  0.608973  1
  P  P33  1  0.750000  0.102170  0.108973  1
  Os  Os34  1  0.250000  0.715509  0.991874  1
  Os  Os35  1  0.250000  0.784491  0.491874  1
