# generated using pymatgen
data_Ba14SnBi11
_symmetry_space_group_name_H-M   'P 1'
_cell_length_a   18.29122655
_cell_length_b   18.29122711
_cell_length_c   18.29122700
_cell_angle_alpha   117.53088405
_cell_angle_beta   117.53088497
_cell_angle_gamma   94.33263014
_symmetry_Int_Tables_number   1
_chemical_formula_structural   Ba14SnBi11
_chemical_formula_sum   'Ba56 Sn4 Bi44'
_cell_volume   4474.91995289
_cell_formula_units_Z   4
loop_
 _symmetry_equiv_pos_site_id
 _symmetry_equiv_pos_as_xyz
  1  'x, y, z'
loop_
 _atom_site_type_symbol
 _atom_site_label
 _atom_site_symmetry_multiplicity
 _atom_site_fract_x
 _atom_site_fract_y
 _atom_site_fract_z
 _atom_site_occupancy
  Ba  Ba0  1  0.499090  0.603981  0.850293  1
  Ba  Ba1  1  0.625000  0.227223  0.102222  1
  Ba  Ba2  1  0.160546  0.028193  0.780777  1
  Ba  Ba3  1  0.898111  0.377078  0.838976  1
  Ba  Ba4  1  0.125000  0.022777  0.397778  1
  Ba  Ba5  1  0.772777  0.875000  0.397777  1
  Ba  Ba6  1  0.129767  0.410546  0.632353  1
  Ba  Ba7  1  0.753685  0.648794  0.149703  1
  Ba  Ba8  1  0.711898  0.372922  0.021033  1
  Ba  Ba9  1  0.440864  0.961895  0.838974  1
  Ba  Ba10  1  0.309136  0.288105  0.661026  1
  Ba  Ba11  1  0.038102  0.877078  0.478967  1
  Ba  Ba12  1  0.496312  0.146019  0.395109  1
  Ba  Ba13  1  0.353977  0.003686  0.604889  1
  Ba  Ba14  1  0.124999  0.522777  0.897777  1
  Ba  Ba15  1  0.996315  0.601206  0.350297  1
  Ba  Ba16  1  0.940863  0.101891  0.478969  1
  Ba  Ba17  1  0.627077  0.648109  0.338972  1
  Ba  Ba18  1  0.896019  0.000910  0.149706  1
  Ba  Ba19  1  0.351890  0.690864  0.978967  1
  Ba  Ba20  1  0.122923  0.601891  0.161028  1
  Ba  Ba21  1  0.999091  0.148794  0.895109  1
  Ba  Ba22  1  0.660545  0.879769  0.132354  1
  Ba  Ba23  1  0.502585  0.870231  0.280776  1
  Ba  Ba24  1  0.851889  0.872922  0.661024  1
  Ba  Ba25  1  0.211897  0.190864  0.338974  1
  Ba  Ba26  1  0.002586  0.721807  0.632355  1
  Ba  Ba27  1  0.747414  0.528193  0.867645  1
  Ba  Ba28  1  0.253688  0.103981  0.104891  1
  Ba  Ba29  1  0.247415  0.379769  0.219224  1
  Ba  Ba30  1  0.351205  0.500910  0.104891  1
  Ba  Ba31  1  0.250910  0.646019  0.649707  1
  Ba  Ba32  1  0.750909  0.101206  0.604891  1
  Ba  Ba33  1  0.625001  0.727223  0.602223  1
  Ba  Ba34  1  0.898797  0.503686  0.649709  1
  Ba  Ba35  1  0.851203  0.746314  0.850291  1
  Ba  Ba36  1  0.620233  0.839454  0.867647  1
  Ba  Ba37  1  0.278193  0.910546  0.280779  1
  Ba  Ba38  1  0.853981  0.249090  0.350294  1
  Ba  Ba39  1  0.127079  0.788105  0.978969  1
  Ba  Ba40  1  0.778191  0.497415  0.367644  1
  Ba  Ba41  1  0.971809  0.752585  0.132356  1
  Ba  Ba42  1  0.120229  0.252585  0.780776  1
  Ba  Ba43  1  0.589454  0.221807  0.719223  1
  Ba  Ba44  1  0.622921  0.461895  0.521031  1
  Ba  Ba45  1  0.977223  0.375000  0.102223  1
  Ba  Ba46  1  0.538103  0.059136  0.161026  1
  Ba  Ba47  1  0.396023  0.246314  0.895111  1
  Ba  Ba48  1  0.398795  0.749090  0.395109  1
  Ba  Ba49  1  0.477220  0.375000  0.602220  1
  Ba  Ba50  1  0.089455  0.370231  0.367646  1
  Ba  Ba51  1  0.809137  0.148109  0.021031  1
  Ba  Ba52  1  0.272780  0.875000  0.897780  1
  Ba  Ba53  1  0.471807  0.339454  0.219221  1
  Ba  Ba54  1  0.398110  0.559136  0.521033  1
  Ba  Ba55  1  0.629771  0.997415  0.719224  1
  Sn  Sn56  1  0.249956  0.749994  0.499939  1
  Sn  Sn57  1  0.750055  0.249994  0.500038  1
  Sn  Sn58  1  0.999945  0.000006  0.999962  1
  Sn  Sn59  1  0.500044  0.500006  0.000061  1
  Bi  Bi60  1  0.868430  0.368429  0.236860  1
  Bi  Bi61  1  0.290137  0.698202  0.144950  1
  Bi  Bi62  1  0.881570  0.881571  0.263140  1
  Bi  Bi63  1  0.553252  0.145187  0.855049  1
  Bi  Bi64  1  0.948201  0.040137  0.644951  1
  Bi  Bi65  1  0.368431  0.131570  0.500000  1
  Bi  Bi66  1  0.459863  0.551798  0.355050  1
  Bi  Bi67  1  0.354813  0.946749  0.144951  1
  Bi  Bi68  1  0.058934  0.203458  0.135638  1
  Bi  Bi69  1  0.053252  0.198202  0.408065  1
  Bi  Bi70  1  0.500000  0.000000  0.500000  1
  Bi  Bi71  1  0.196748  0.104813  0.644951  1
  Bi  Bi72  1  0.796552  0.932182  0.855481  1
  Bi  Bi73  1  0.682176  0.326708  0.635639  1
  Bi  Bi74  1  0.453467  0.808935  0.635644  1
  Bi  Bi75  1  0.173299  0.817818  0.364370  1
  Bi  Bi76  1  0.567820  0.703458  0.144524  1
  Bi  Bi77  1  0.673290  0.308935  0.355468  1
  Bi  Bi78  1  0.076710  0.941065  0.144532  1
  Bi  Bi79  1  0.750000  0.750000  0.999999  1
  Bi  Bi80  1  0.558932  0.423292  0.855470  1
  Bi  Bi81  1  0.381569  0.118430  0.000000  1
  Bi  Bi82  1  0.067824  0.923292  0.864361  1
  Bi  Bi83  1  0.000000  0.500000  0.500001  1
  Bi  Bi84  1  0.296533  0.441065  0.864356  1
  Bi  Bi85  1  0.801799  0.209863  0.855049  1
  Bi  Bi86  1  0.250000  0.250000  0.000000  1
  Bi  Bi87  1  0.395187  0.303251  0.355049  1
  Bi  Bi88  1  0.301798  0.446749  0.591936  1
  Bi  Bi89  1  0.696748  0.051798  0.091935  1
  Bi  Bi90  1  0.790137  0.645187  0.591935  1
  Bi  Bi91  1  0.191068  0.826708  0.644530  1
  Bi  Bi92  1  0.959863  0.604813  0.908065  1
  Bi  Bi93  1  0.118431  0.381571  0.000001  1
  Bi  Bi94  1  0.953448  0.317818  0.644519  1
  Bi  Bi95  1  0.631569  0.868429  0.499999  1
  Bi  Bi96  1  0.691066  0.046542  0.364362  1
  Bi  Bi97  1  0.576701  0.432182  0.135630  1
  Bi  Bi98  1  0.854814  0.709863  0.408065  1
  Bi  Bi99  1  0.895186  0.540137  0.091935  1
  Bi  Bi100  1  0.448202  0.803251  0.908064  1
  Bi  Bi101  1  0.131570  0.631570  0.763140  1
  Bi  Bi102  1  0.618430  0.618430  0.736860  1
  Bi  Bi103  1  0.182180  0.546542  0.355476  1
