# generated using pymatgen
data_TbHo3Al4Ni3Rh
_symmetry_space_group_name_H-M   'P 1'
_cell_length_a   4.26516400
_cell_length_b   6.68268505
_cell_length_c   7.70149200
_cell_angle_alpha   89.64904954
_cell_angle_beta   90.00000000
_cell_angle_gamma   90.00000000
_symmetry_Int_Tables_number   1
_chemical_formula_structural   TbHo3Al4Ni3Rh
_chemical_formula_sum   'Tb1 Ho3 Al4 Ni3 Rh1'
_cell_volume   219.50956560
_cell_formula_units_Z   1
loop_
 _symmetry_equiv_pos_site_id
 _symmetry_equiv_pos_as_xyz
  1  'x, y, z'
loop_
 _atom_site_type_symbol
 _atom_site_label
 _atom_site_symmetry_multiplicity
 _atom_site_fract_x
 _atom_site_fract_y
 _atom_site_fract_z
 _atom_site_occupancy
  Tb  Tb0  1  0.750000  0.464978  0.826129  1
  Ho  Ho1  1  0.250000  0.537265  0.178079  1
  Ho  Ho2  1  0.750000  0.961731  0.677435  1
  Ho  Ho3  1  0.250000  0.033213  0.320147  1
  Al  Al4  1  0.250000  0.641962  0.559154  1
  Al  Al5  1  0.750000  0.365446  0.435029  1
  Al  Al6  1  0.750000  0.861358  0.060068  1
  Al  Al7  1  0.250000  0.137193  0.944703  1
  Ni  Ni8  1  0.250000  0.774065  0.878700  1
  Ni  Ni9  1  0.750000  0.228799  0.124397  1
  Ni  Ni10  1  0.750000  0.731008  0.375599  1
  Rh  Rh11  1  0.250000  0.262982  0.620559  1
