# generated using pymatgen
data_Ta3Zn3N
_symmetry_space_group_name_H-M   'P 1'
_cell_length_a   8.25320149
_cell_length_b   8.25320177
_cell_length_c   8.25320100
_cell_angle_alpha   59.99999907
_cell_angle_beta   59.99999794
_cell_angle_gamma   59.99999976
_symmetry_Int_Tables_number   1
_chemical_formula_structural   Ta3Zn3N
_chemical_formula_sum   'Ta12 Zn12 N4'
_cell_volume   397.51390407
_cell_formula_units_Z   4
loop_
 _symmetry_equiv_pos_site_id
 _symmetry_equiv_pos_as_xyz
  1  'x, y, z'
loop_
 _atom_site_type_symbol
 _atom_site_label
 _atom_site_symmetry_multiplicity
 _atom_site_fract_x
 _atom_site_fract_y
 _atom_site_fract_z
 _atom_site_occupancy
  Ta  Ta0  1  0.818939  0.818939  0.181061  1
  Ta  Ta1  1  0.181061  0.181061  0.818939  1
  Ta  Ta2  1  0.818939  0.181061  0.818939  1
  Ta  Ta3  1  0.181061  0.818939  0.181061  1
  Ta  Ta4  1  0.181061  0.818939  0.818939  1
  Ta  Ta5  1  0.818939  0.181061  0.181061  1
  Ta  Ta6  1  0.431061  0.431061  0.068939  1
  Ta  Ta7  1  0.068939  0.068939  0.431061  1
  Ta  Ta8  1  0.431061  0.068939  0.431061  1
  Ta  Ta9  1  0.068939  0.431061  0.068939  1
  Ta  Ta10  1  0.068939  0.431061  0.431061  1
  Ta  Ta11  1  0.431061  0.068939  0.068939  1
  Zn  Zn12  1  0.125000  0.625000  0.625000  1
  Zn  Zn13  1  0.625000  0.125000  0.625000  1
  Zn  Zn14  1  0.625000  0.625000  0.125000  1
  Zn  Zn15  1  0.625000  0.625000  0.625000  1
  Zn  Zn16  1  0.747808  0.417398  0.417398  1
  Zn  Zn17  1  0.417398  0.747808  0.417398  1
  Zn  Zn18  1  0.417398  0.417398  0.747808  1
  Zn  Zn19  1  0.417398  0.417398  0.417398  1
  Zn  Zn20  1  0.502192  0.832602  0.832602  1
  Zn  Zn21  1  0.832602  0.502192  0.832602  1
  Zn  Zn22  1  0.832602  0.832602  0.502192  1
  Zn  Zn23  1  0.832602  0.832602  0.832602  1
  N  N24  1  0.625000  0.125000  0.125000  1
  N  N25  1  0.125000  0.625000  0.125000  1
  N  N26  1  0.125000  0.125000  0.625000  1
  N  N27  1  0.125000  0.125000  0.125000  1
