# generated using pymatgen
data_V12GaSi2Pt
_symmetry_space_group_name_H-M   'P 1'
_cell_length_a   4.74422100
_cell_length_b   4.75157000
_cell_length_c   9.52991200
_cell_angle_alpha   90.00000000
_cell_angle_beta   90.00000000
_cell_angle_gamma   90.00000000
_symmetry_Int_Tables_number   1
_chemical_formula_structural   V12GaSi2Pt
_chemical_formula_sum   'V12 Ga1 Si2 Pt1'
_cell_volume   214.82802389
_cell_formula_units_Z   1
loop_
 _symmetry_equiv_pos_site_id
 _symmetry_equiv_pos_as_xyz
  1  'x, y, z'
loop_
 _atom_site_type_symbol
 _atom_site_label
 _atom_site_symmetry_multiplicity
 _atom_site_fract_x
 _atom_site_fract_y
 _atom_site_fract_z
 _atom_site_occupancy
  V  V0  1  0.000000  0.500000  0.122250  1
  V  V1  1  0.000000  0.500000  0.626680  1
  V  V2  1  0.500000  0.251419  0.744637  1
  V  V3  1  0.500000  0.249344  0.255199  1
  V  V4  1  0.753891  0.000000  0.004992  1
  V  V5  1  0.746690  0.000000  0.495420  1
  V  V6  1  0.000000  0.500000  0.870141  1
  V  V7  1  0.000000  0.500000  0.380075  1
  V  V8  1  0.500000  0.748581  0.744637  1
  V  V9  1  0.500000  0.750656  0.255199  1
  V  V10  1  0.246109  0.000000  0.004992  1
  V  V11  1  0.253310  0.000000  0.495420  1
  Ga  Ga12  1  0.500000  0.500000  0.001618  1
  Si  Si13  1  0.500000  0.500000  0.497696  1
  Si  Si14  1  0.000000  0.000000  0.250871  1
  Pt  Pt15  1  0.000000  0.000000  0.750173  1
