# generated using pymatgen
data_La6Mg7Cd16Se
_symmetry_space_group_name_H-M   'P 1'
_cell_length_a   10.15809584
_cell_length_b   10.15809607
_cell_length_c   10.15809700
_cell_angle_alpha   60.00000024
_cell_angle_beta   59.99999946
_cell_angle_gamma   60.00000418
_symmetry_Int_Tables_number   1
_chemical_formula_structural   La6Mg7Cd16Se
_chemical_formula_sum   'La6 Mg7 Cd16 Se1'
_cell_volume   741.17709954
_cell_formula_units_Z   1
loop_
 _symmetry_equiv_pos_site_id
 _symmetry_equiv_pos_as_xyz
  1  'x, y, z'
loop_
 _atom_site_type_symbol
 _atom_site_label
 _atom_site_symmetry_multiplicity
 _atom_site_fract_x
 _atom_site_fract_y
 _atom_site_fract_z
 _atom_site_occupancy
  La  La0  1  0.786940  0.786940  0.213060  1
  La  La1  1  0.213060  0.786940  0.213060  1
  La  La2  1  0.786940  0.213060  0.213060  1
  La  La3  1  0.213060  0.213060  0.786940  1
  La  La4  1  0.786940  0.213060  0.786940  1
  La  La5  1  0.213060  0.786940  0.786940  1
  Mg  Mg6  1  0.000000  0.000000  0.500000  1
  Mg  Mg7  1  0.500000  0.000000  0.500000  1
  Mg  Mg8  1  0.000000  0.500000  0.500000  1
  Mg  Mg9  1  0.500000  0.500000  0.000000  1
  Mg  Mg10  1  0.000000  0.500000  0.000000  1
  Mg  Mg11  1  0.500000  0.000000  0.000000  1
  Mg  Mg12  1  0.500000  0.500000  0.500000  1
  Cd  Cd13  1  0.830605  0.830605  0.508187  1
  Cd  Cd14  1  0.830605  0.508187  0.830605  1
  Cd  Cd15  1  0.508187  0.830605  0.830605  1
  Cd  Cd16  1  0.830605  0.830605  0.830605  1
  Cd  Cd17  1  0.169395  0.169395  0.491813  1
  Cd  Cd18  1  0.169395  0.491813  0.169395  1
  Cd  Cd19  1  0.491813  0.169395  0.169395  1
  Cd  Cd20  1  0.169395  0.169395  0.169395  1
  Cd  Cd21  1  0.620998  0.620998  0.137005  1
  Cd  Cd22  1  0.620998  0.137005  0.620998  1
  Cd  Cd23  1  0.137005  0.620998  0.620998  1
  Cd  Cd24  1  0.620998  0.620998  0.620998  1
  Cd  Cd25  1  0.379002  0.379002  0.862995  1
  Cd  Cd26  1  0.379002  0.862995  0.379002  1
  Cd  Cd27  1  0.862995  0.379002  0.379002  1
  Cd  Cd28  1  0.379002  0.379002  0.379002  1
  Se  Se29  1  0.000000  0.000000  0.000000  1
