# generated using pymatgen
data_Tb5Dy2Ho5Ru4
_symmetry_space_group_name_H-M   'P 1'
_cell_length_a   6.31974517
_cell_length_b   7.30070032
_cell_length_c   9.20247103
_cell_angle_alpha   89.99067286
_cell_angle_beta   90.00596087
_cell_angle_gamma   90.02706817
_symmetry_Int_Tables_number   1
_chemical_formula_structural   Tb5Dy2Ho5Ru4
_chemical_formula_sum   'Tb5 Dy2 Ho5 Ru4'
_cell_volume   424.58875785
_cell_formula_units_Z   1
loop_
 _symmetry_equiv_pos_site_id
 _symmetry_equiv_pos_as_xyz
  1  'x, y, z'
loop_
 _atom_site_type_symbol
 _atom_site_label
 _atom_site_symmetry_multiplicity
 _atom_site_fract_x
 _atom_site_fract_y
 _atom_site_fract_z
 _atom_site_occupancy
  Tb  Tb0  1  0.329895  0.677100  0.064773  1
  Tb  Tb1  1  0.864874  0.540131  0.250197  1
  Tb  Tb2  1  0.635152  0.040503  0.250192  1
  Tb  Tb3  1  0.134471  0.459413  0.749827  1
  Tb  Tb4  1  0.365439  0.959668  0.749827  1
  Dy  Dy5  1  0.329879  0.677037  0.435330  1
  Dy  Dy6  1  0.169839  0.177044  0.064987  1
  Ho  Ho7  1  0.169926  0.176948  0.435050  1
  Ho  Ho8  1  0.670229  0.322964  0.565205  1
  Ho  Ho9  1  0.829926  0.823103  0.934615  1
  Ho  Ho10  1  0.670290  0.322869  0.934619  1
  Ho  Ho11  1  0.829996  0.823171  0.565200  1
  Ru  Ru12  1  0.039943  0.885949  0.250233  1
  Ru  Ru13  1  0.459834  0.385417  0.250248  1
  Ru  Ru14  1  0.959457  0.114409  0.749887  1
  Ru  Ru15  1  0.540851  0.614275  0.749810  1
