# generated using pymatgen
data_Pr2Zn2IrPd
_symmetry_space_group_name_H-M   'P 1'
_cell_length_a   4.34324200
_cell_length_b   7.17123639
_cell_length_c   8.16533492
_cell_angle_alpha   90.78112114
_cell_angle_beta   90.00000000
_cell_angle_gamma   90.00000000
_symmetry_Int_Tables_number   1
_chemical_formula_structural   Pr2Zn2IrPd
_chemical_formula_sum   'Pr4 Zn4 Ir2 Pd2'
_cell_volume   254.29727671
_cell_formula_units_Z   2
loop_
 _symmetry_equiv_pos_site_id
 _symmetry_equiv_pos_as_xyz
  1  'x, y, z'
loop_
 _atom_site_type_symbol
 _atom_site_label
 _atom_site_symmetry_multiplicity
 _atom_site_fract_x
 _atom_site_fract_y
 _atom_site_fract_z
 _atom_site_occupancy
  Pr  Pr0  1  0.250000  0.526668  0.201743  1
  Pr  Pr1  1  0.750000  0.473332  0.798257  1
  Pr  Pr2  1  0.250000  0.020889  0.310876  1
  Pr  Pr3  1  0.750000  0.979111  0.689124  1
  Zn  Zn4  1  0.250000  0.657236  0.570316  1
  Zn  Zn5  1  0.750000  0.342764  0.429684  1
  Zn  Zn6  1  0.250000  0.163551  0.925050  1
  Zn  Zn7  1  0.750000  0.836449  0.074950  1
  Ir  Ir8  1  0.750000  0.730210  0.391408  1
  Ir  Ir9  1  0.250000  0.269790  0.608592  1
  Pd  Pd10  1  0.750000  0.222301  0.102741  1
  Pd  Pd11  1  0.250000  0.777699  0.897259  1
