# generated using pymatgen
data_Ca6Sc4Ti5GeO24
_symmetry_space_group_name_H-M   'P 1'
_cell_length_a   11.05942900
_cell_length_b   11.05942885
_cell_length_c   11.05942821
_cell_angle_alpha   109.46010847
_cell_angle_beta   109.46010598
_cell_angle_gamma   109.49345233
_symmetry_Int_Tables_number   1
_chemical_formula_structural   Ca6Sc4Ti5GeO24
_chemical_formula_sum   'Ca12 Sc8 Ti10 Ge2 O48'
_cell_volume   1041.30061301
_cell_formula_units_Z   2
loop_
 _symmetry_equiv_pos_site_id
 _symmetry_equiv_pos_as_xyz
  1  'x, y, z'
loop_
 _atom_site_type_symbol
 _atom_site_label
 _atom_site_symmetry_multiplicity
 _atom_site_fract_x
 _atom_site_fract_y
 _atom_site_fract_z
 _atom_site_occupancy
  Ca  Ca0  1  0.373894  0.123894  0.250000  1
  Ca  Ca1  1  0.749656  0.124952  0.375579  1
  Ca  Ca2  1  0.249374  0.374077  0.124421  1
  Ca  Ca3  1  0.124952  0.249374  0.375296  1
  Ca  Ca4  1  0.374077  0.749656  0.124704  1
  Ca  Ca5  1  0.123894  0.373894  0.750000  1
  Ca  Ca6  1  0.626106  0.876106  0.750000  1
  Ca  Ca7  1  0.250344  0.875048  0.624421  1
  Ca  Ca8  1  0.750626  0.625923  0.875579  1
  Ca  Ca9  1  0.875048  0.750626  0.624704  1
  Ca  Ca10  1  0.625923  0.250344  0.875296  1
  Ca  Ca11  1  0.876106  0.626106  0.250000  1
  Sc  Sc12  1  0.000000  0.000000  0.000000  1
  Sc  Sc13  1  0.500000  0.000000  0.000000  1
  Sc  Sc14  1  0.000000  0.500000  0.000000  1
  Sc  Sc15  1  0.000000  0.000000  0.500000  1
  Sc  Sc16  1  0.500000  0.500000  0.000000  1
  Sc  Sc17  1  0.000000  0.500000  0.500000  1
  Sc  Sc18  1  0.500000  0.000000  0.500000  1
  Sc  Sc19  1  0.500000  0.500000  0.500000  1
  Ti  Ti20  1  0.625000  0.375000  0.250000  1
  Ti  Ti21  1  0.749996  0.374750  0.625532  1
  Ti  Ti22  1  0.249219  0.124465  0.874468  1
  Ti  Ti23  1  0.875535  0.250004  0.124754  1
  Ti  Ti24  1  0.625250  0.750781  0.375246  1
  Ti  Ti25  1  0.375000  0.625000  0.750000  1
  Ti  Ti26  1  0.124465  0.749996  0.875246  1
  Ti  Ti27  1  0.750781  0.875535  0.125532  1
  Ti  Ti28  1  0.374750  0.249219  0.624754  1
  Ti  Ti29  1  0.250004  0.625250  0.374468  1
  Ge  Ge30  1  0.875000  0.125000  0.750000  1
  Ge  Ge31  1  0.125000  0.875000  0.250000  1
  O  O32  1  0.414071  0.813818  0.793091  1
  O  O33  1  0.879114  0.400042  0.086085  1
  O  O34  1  0.100619  0.978481  0.684713  1
  O  O35  1  0.520727  0.620979  0.706909  1
  O  O36  1  0.690748  0.087018  0.706462  1
  O  O37  1  0.620938  0.706827  0.520366  1
  O  O38  1  0.620979  0.414071  0.100253  1
  O  O39  1  0.707069  0.520134  0.620929  1
  O  O40  1  0.813818  0.520727  0.399747  1
  O  O41  1  0.978481  0.793768  0.877862  1
  O  O42  1  0.793030  0.879114  0.979072  1
  O  O43  1  0.706827  0.686461  0.085889  1
  O  O44  1  0.415906  0.100619  0.622138  1
  O  O45  1  0.400042  0.813958  0.520928  1
  O  O46  1  0.086141  0.707069  0.686935  1
  O  O47  1  0.100572  0.620938  0.414111  1
  O  O48  1  0.520134  0.399205  0.813065  1
  O  O49  1  0.087018  0.880556  0.396270  1
  O  O50  1  0.984285  0.690748  0.103730  1
  O  O51  1  0.186182  0.479273  0.600253  1
  O  O52  1  0.686461  0.100572  0.979634  1
  O  O53  1  0.793768  0.415906  0.815287  1
  O  O54  1  0.399205  0.086141  0.879071  1
  O  O55  1  0.880556  0.984285  0.793538  1
  O  O56  1  0.585929  0.186182  0.206909  1
  O  O57  1  0.120886  0.599958  0.913915  1
  O  O58  1  0.899381  0.021519  0.315287  1
  O  O59  1  0.479273  0.379021  0.293091  1
  O  O60  1  0.309252  0.912982  0.293538  1
  O  O61  1  0.379062  0.293173  0.479634  1
  O  O62  1  0.379021  0.585929  0.899747  1
  O  O63  1  0.292931  0.479866  0.379071  1
  O  O64  1  0.119444  0.015715  0.206462  1
  O  O65  1  0.600795  0.913859  0.120929  1
  O  O66  1  0.206232  0.584094  0.184713  1
  O  O67  1  0.186042  0.206970  0.586085  1
  O  O68  1  0.313539  0.899428  0.020366  1
  O  O69  1  0.015715  0.309252  0.896270  1
  O  O70  1  0.912982  0.119444  0.603730  1
  O  O71  1  0.479866  0.600795  0.186935  1
  O  O72  1  0.899428  0.379062  0.585889  1
  O  O73  1  0.913859  0.292931  0.313065  1
  O  O74  1  0.599958  0.186042  0.479072  1
  O  O75  1  0.584094  0.899381  0.377862  1
  O  O76  1  0.293173  0.313539  0.914111  1
  O  O77  1  0.206970  0.120886  0.020928  1
  O  O78  1  0.021519  0.206232  0.122138  1
  O  O79  1  0.813958  0.793030  0.413915  1
