# generated using pymatgen
data_Sm4NCl6
_symmetry_space_group_name_H-M   'P 1'
_cell_length_a   12.61723000
_cell_length_b   13.11250100
_cell_length_c   3.84406100
_cell_angle_alpha   90.00000000
_cell_angle_beta   90.00000000
_cell_angle_gamma   90.00000000
_symmetry_Int_Tables_number   1
_chemical_formula_structural   Sm4NCl6
_chemical_formula_sum   'Sm8 N2 Cl12'
_cell_volume   635.97467922
_cell_formula_units_Z   2
loop_
 _symmetry_equiv_pos_site_id
 _symmetry_equiv_pos_as_xyz
  1  'x, y, z'
loop_
 _atom_site_type_symbol
 _atom_site_label
 _atom_site_symmetry_multiplicity
 _atom_site_fract_x
 _atom_site_fract_y
 _atom_site_fract_z
 _atom_site_occupancy
  Sm  Sm0  1  0.103248  0.080433  0.000000  1
  Sm  Sm1  1  0.603249  0.419567  0.000000  1
  Sm  Sm2  1  0.396752  0.580432  0.000000  1
  Sm  Sm3  1  0.896752  0.919568  0.000000  1
  Sm  Sm4  1  0.876781  0.146254  0.500001  1
  Sm  Sm5  1  0.376781  0.353746  0.500001  1
  Sm  Sm6  1  0.623219  0.646254  0.500001  1
  Sm  Sm7  1  0.123219  0.853746  0.500001  1
  N  N8  1  0.000000  0.000000  0.500001  1
  N  N9  1  0.500000  0.500000  0.500001  1
  Cl  Cl10  1  0.739130  0.068860  0.000000  1
  Cl  Cl11  1  0.484077  0.240352  0.000000  1
  Cl  Cl12  1  0.984077  0.259649  0.000000  1
  Cl  Cl13  1  0.239130  0.431141  0.000000  1
  Cl  Cl14  1  0.760870  0.568859  0.000000  1
  Cl  Cl15  1  0.015923  0.740352  0.000000  1
  Cl  Cl16  1  0.515923  0.759648  0.000000  1
  Cl  Cl17  1  0.260870  0.931141  0.000000  1
  Cl  Cl18  1  0.234440  0.179812  0.500001  1
  Cl  Cl19  1  0.734441  0.320188  0.500001  1
  Cl  Cl20  1  0.265560  0.679812  0.500001  1
  Cl  Cl21  1  0.765560  0.820188  0.500001  1
