# generated using pymatgen
data_Yb2Cd2Si2RuPt3
_symmetry_space_group_name_H-M   'P 1'
_cell_length_a   4.17170600
_cell_length_b   4.17170600
_cell_length_c   10.98861400
_cell_angle_alpha   90.00000000
_cell_angle_beta   90.00000000
_cell_angle_gamma   90.00000000
_symmetry_Int_Tables_number   1
_chemical_formula_structural   Yb2Cd2Si2RuPt3
_chemical_formula_sum   'Yb2 Cd2 Si2 Ru1 Pt3'
_cell_volume   191.23628841
_cell_formula_units_Z   1
loop_
 _symmetry_equiv_pos_site_id
 _symmetry_equiv_pos_as_xyz
  1  'x, y, z'
loop_
 _atom_site_type_symbol
 _atom_site_label
 _atom_site_symmetry_multiplicity
 _atom_site_fract_x
 _atom_site_fract_y
 _atom_site_fract_z
 _atom_site_occupancy
  Yb  Yb0  1  0.000000  0.500000  0.235016  1
  Yb  Yb1  1  0.500000  0.000000  0.764984  1
  Cd  Cd2  1  0.000000  0.000000  0.500000  1
  Cd  Cd3  1  0.500000  0.500000  0.500000  1
  Si  Si4  1  0.000000  0.500000  0.888326  1
  Si  Si5  1  0.500000  0.000000  0.111674  1
  Ru  Ru6  1  0.000000  0.000000  0.000000  1
  Pt  Pt7  1  0.500000  0.500000  0.000000  1
  Pt  Pt8  1  0.000000  0.500000  0.677434  1
  Pt  Pt9  1  0.500000  0.000000  0.322566  1
