# generated using pymatgen
data_BaDySi2Ge2N7
_symmetry_space_group_name_H-M   'P 1'
_cell_length_a   6.24787479
_cell_length_b   6.22120230
_cell_length_c   10.08360766
_cell_angle_alpha   89.33933643
_cell_angle_beta   90.32891765
_cell_angle_gamma   119.85886861
_symmetry_Int_Tables_number   1
_chemical_formula_structural   BaDySi2Ge2N7
_chemical_formula_sum   'Ba2 Dy2 Si4 Ge4 N14'
_cell_volume   339.89142643
_cell_formula_units_Z   2
loop_
 _symmetry_equiv_pos_site_id
 _symmetry_equiv_pos_as_xyz
  1  'x, y, z'
loop_
 _atom_site_type_symbol
 _atom_site_label
 _atom_site_symmetry_multiplicity
 _atom_site_fract_x
 _atom_site_fract_y
 _atom_site_fract_z
 _atom_site_occupancy
  Ba  Ba0  1  0.333173  0.665676  0.362585  1
  Ba  Ba1  1  0.666827  0.332501  0.862585  1
  Dy  Dy2  1  0.331164  0.665373  0.737774  1
  Dy  Dy3  1  0.668836  0.334208  0.237774  1
  Si  Si4  1  0.827664  0.171974  0.546669  1
  Si  Si5  1  0.172336  0.344312  0.046669  1
  Si  Si6  1  0.999514  0.005010  0.814356  1
  Si  Si7  1  0.000486  0.005496  0.314356  1
  Ge  Ge8  1  0.828104  0.654896  0.546717  1
  Ge  Ge9  1  0.171896  0.826794  0.046717  1
  Ge  Ge10  1  0.654105  0.825935  0.046789  1
  Ge  Ge11  1  0.345895  0.171828  0.546789  1
  N  N12  1  0.994768  0.009116  0.627439  1
  N  N13  1  0.005232  0.014348  0.127439  1
  N  N14  1  0.150556  0.301954  0.876632  1
  N  N15  1  0.849444  0.151397  0.376632  1
  N  N16  1  0.304153  0.151567  0.365540  1
  N  N17  1  0.695847  0.847415  0.865540  1
  N  N18  1  0.150099  0.848429  0.864396  1
  N  N19  1  0.849901  0.698329  0.364396  1
  N  N20  1  0.981443  0.478047  0.600395  1
  N  N21  1  0.494738  0.989654  0.104076  1
  N  N22  1  0.477983  0.496100  0.100532  1
  N  N23  1  0.505262  0.494918  0.604076  1
  N  N24  1  0.018557  0.496603  0.100395  1
  N  N25  1  0.522017  0.018118  0.600532  1
