# generated using pymatgen
data_Tm7Zr13Si16
_symmetry_space_group_name_H-M   'P 1'
_cell_length_a   7.28381660
_cell_length_b   7.28408286
_cell_length_c   13.38298430
_cell_angle_alpha   89.99266375
_cell_angle_beta   89.94940238
_cell_angle_gamma   89.94966231
_symmetry_Int_Tables_number   1
_chemical_formula_structural   Tm7Zr13Si16
_chemical_formula_sum   'Tm7 Zr13 Si16'
_cell_volume   710.04603705
_cell_formula_units_Z   1
loop_
 _symmetry_equiv_pos_site_id
 _symmetry_equiv_pos_as_xyz
  1  'x, y, z'
loop_
 _atom_site_type_symbol
 _atom_site_label
 _atom_site_symmetry_multiplicity
 _atom_site_fract_x
 _atom_site_fract_y
 _atom_site_fract_z
 _atom_site_occupancy
  Tm  Tm0  1  0.495565  0.152000  0.534820  1
  Tm  Tm1  1  0.504096  0.848012  0.036873  1
  Tm  Tm2  1  0.654168  0.004888  0.283905  1
  Tm  Tm3  1  0.347203  0.996626  0.786781  1
  Tm  Tm4  1  0.847425  0.504564  0.964779  1
  Tm  Tm5  1  0.152900  0.495827  0.464491  1
  Tm  Tm6  1  0.004479  0.653504  0.714075  1
  Zr  Zr7  1  0.676326  0.323355  0.750029  1
  Zr  Zr8  1  0.323203  0.674164  0.249894  1
  Zr  Zr9  1  0.823674  0.823441  0.499335  1
  Zr  Zr10  1  0.174390  0.177767  0.001326  1
  Zr  Zr11  1  0.000442  0.352264  0.212361  1
  Zr  Zr12  1  0.497334  0.353929  0.126282  1
  Zr  Zr13  1  0.502601  0.646692  0.625101  1
  Zr  Zr14  1  0.853320  0.003350  0.876677  1
  Zr  Zr15  1  0.143634  0.995918  0.373622  1
  Zr  Zr16  1  0.645612  0.500239  0.373324  1
  Zr  Zr17  1  0.353817  0.497356  0.875540  1
  Zr  Zr18  1  0.002414  0.853169  0.125304  1
  Zr  Zr19  1  0.997448  0.145910  0.624375  1
  Si  Si20  1  0.797654  0.146108  0.071213  1
  Si  Si21  1  0.205629  0.857784  0.566290  1
  Si  Si22  1  0.641695  0.705826  0.817365  1
  Si  Si23  1  0.352851  0.295448  0.316718  1
  Si  Si24  1  0.858599  0.206825  0.429254  1
  Si  Si25  1  0.141538  0.793654  0.933689  1
  Si  Si26  1  0.709260  0.639081  0.181971  1
  Si  Si27  1  0.295278  0.357472  0.682790  1
  Si  Si28  1  0.551717  0.203736  0.938175  1
  Si  Si29  1  0.448839  0.796514  0.436278  1
  Si  Si30  1  0.703296  0.948870  0.686979  1
  Si  Si31  1  0.295199  0.053273  0.187371  1
  Si  Si32  1  0.796586  0.448576  0.562354  1
  Si  Si33  1  0.200563  0.549160  0.064880  1
  Si  Si34  1  0.949765  0.697974  0.312627  1
  Si  Si35  1  0.051480  0.296728  0.813151  1
