# generated using pymatgen
data_Y2MgBe2Rh5
_symmetry_space_group_name_H-M   'P 1'
_cell_length_a   9.64751500
_cell_length_b   9.64751500
_cell_length_c   3.31385600
_cell_angle_alpha   90.00000000
_cell_angle_beta   90.00000000
_cell_angle_gamma   90.00000000
_symmetry_Int_Tables_number   1
_chemical_formula_structural   Y2MgBe2Rh5
_chemical_formula_sum   'Y4 Mg2 Be4 Rh10'
_cell_volume   308.43564163
_cell_formula_units_Z   2
loop_
 _symmetry_equiv_pos_site_id
 _symmetry_equiv_pos_as_xyz
  1  'x, y, z'
loop_
 _atom_site_type_symbol
 _atom_site_label
 _atom_site_symmetry_multiplicity
 _atom_site_fract_x
 _atom_site_fract_y
 _atom_site_fract_z
 _atom_site_occupancy
  Y  Y0  1  0.676919  0.176919  0.000000  1
  Y  Y1  1  0.323081  0.823081  0.000000  1
  Y  Y2  1  0.176919  0.323081  0.000000  1
  Y  Y3  1  0.823081  0.676919  0.000000  1
  Mg  Mg4  1  0.000000  0.000000  0.000000  1
  Mg  Mg5  1  0.500000  0.500000  0.000000  1
  Be  Be6  1  0.121314  0.621314  0.000000  1
  Be  Be7  1  0.878686  0.378686  0.000000  1
  Be  Be8  1  0.621314  0.878686  0.000000  1
  Be  Be9  1  0.378686  0.121314  0.000000  1
  Rh  Rh10  1  0.500000  0.000000  0.500000  1
  Rh  Rh11  1  0.000000  0.500000  0.500000  1
  Rh  Rh12  1  0.217317  0.068858  0.500000  1
  Rh  Rh13  1  0.782683  0.931142  0.500000  1
  Rh  Rh14  1  0.068858  0.782683  0.500000  1
  Rh  Rh15  1  0.717317  0.431142  0.500000  1
  Rh  Rh16  1  0.931142  0.217317  0.500000  1
  Rh  Rh17  1  0.282683  0.568858  0.500000  1
  Rh  Rh18  1  0.568858  0.717317  0.500000  1
  Rh  Rh19  1  0.431142  0.282683  0.500000  1
