# generated using pymatgen
data_HoScP7Ru12
_symmetry_space_group_name_H-M   'P 1'
_cell_length_a   9.38674000
_cell_length_b   9.38673924
_cell_length_c   3.92913200
_cell_angle_alpha   90.00000000
_cell_angle_beta   90.00000000
_cell_angle_gamma   119.99999563
_symmetry_Int_Tables_number   1
_chemical_formula_structural   HoScP7Ru12
_chemical_formula_sum   'Ho1 Sc1 P7 Ru12'
_cell_volume   299.81738527
_cell_formula_units_Z   1
loop_
 _symmetry_equiv_pos_site_id
 _symmetry_equiv_pos_as_xyz
  1  'x, y, z'
loop_
 _atom_site_type_symbol
 _atom_site_label
 _atom_site_symmetry_multiplicity
 _atom_site_fract_x
 _atom_site_fract_y
 _atom_site_fract_z
 _atom_site_occupancy
  Ho  Ho0  1  0.333333  0.666667  0.000000  1
  Sc  Sc1  1  0.666667  0.333333  0.500000  1
  P  P2  1  0.599771  0.718199  0.500000  1
  P  P3  1  0.000000  0.000000  0.000000  1
  P  P4  1  0.281801  0.881573  0.500000  1
  P  P5  1  0.118427  0.400229  0.500000  1
  P  P6  1  0.882761  0.571908  0.000000  1
  P  P7  1  0.428092  0.310852  0.000000  1
  P  P8  1  0.689148  0.117239  0.000000  1
  Ru  Ru9  1  0.556775  0.951633  0.500000  1
  Ru  Ru10  1  0.394859  0.443225  0.500000  1
  Ru  Ru11  1  0.914267  0.121762  0.500000  1
  Ru  Ru12  1  0.207495  0.085733  0.500000  1
  Ru  Ru13  1  0.878238  0.792505  0.500000  1
  Ru  Ru14  1  0.726585  0.891389  0.000000  1
  Ru  Ru15  1  0.108611  0.835195  0.000000  1
  Ru  Ru16  1  0.164805  0.273415  0.000000  1
  Ru  Ru17  1  0.425962  0.069272  0.000000  1
  Ru  Ru18  1  0.930728  0.356691  0.000000  1
  Ru  Ru19  1  0.643309  0.574038  0.000000  1
  Ru  Ru20  1  0.048367  0.605141  0.500000  1
