# generated using pymatgen
data_Pr10Nd2Ir3AuI12
_symmetry_space_group_name_H-M   'P 1'
_cell_length_a   11.01042154
_cell_length_b   11.01332556
_cell_length_c   11.01379635
_cell_angle_alpha   109.89643719
_cell_angle_beta   109.80520581
_cell_angle_gamma   109.82230363
_symmetry_Int_Tables_number   1
_chemical_formula_structural   Pr10Nd2Ir3AuI12
_chemical_formula_sum   'Pr10 Nd2 Ir3 Au1 I12'
_cell_volume   1013.77259628
_cell_formula_units_Z   1
loop_
 _symmetry_equiv_pos_site_id
 _symmetry_equiv_pos_as_xyz
  1  'x, y, z'
loop_
 _atom_site_type_symbol
 _atom_site_label
 _atom_site_symmetry_multiplicity
 _atom_site_fract_x
 _atom_site_fract_y
 _atom_site_fract_z
 _atom_site_occupancy
  Pr  Pr0  1  0.749945  0.020766  0.479174  1
  Pr  Pr1  1  0.223305  0.459546  0.487617  1
  Pr  Pr2  1  0.272062  0.749662  0.227809  1
  Pr  Pr3  1  0.040689  0.276763  0.012441  1
  Pr  Pr4  1  0.012090  0.040471  0.276610  1
  Pr  Pr5  1  0.479403  0.750109  0.020831  1
  Pr  Pr6  1  0.487884  0.223438  0.459523  1
  Pr  Pr7  1  0.020456  0.479094  0.749547  1
  Pr  Pr8  1  0.276840  0.012493  0.040579  1
  Pr  Pr9  1  0.228135  0.272323  0.750440  1
  Nd  Nd10  1  0.458943  0.487480  0.222937  1
  Nd  Nd11  1  0.749961  0.227465  0.272494  1
  Ir  Ir12  1  0.501736  0.999372  0.250024  1
  Ir  Ir13  1  0.998198  0.249955  0.500607  1
  Ir  Ir14  1  0.250608  0.501296  0.999392  1
  Au  Au15  1  0.250546  0.250552  0.250050  1
  I  I16  1  0.249996  0.759847  0.740204  1
  I  I17  1  0.514800  0.506433  0.756363  1
  I  I18  1  0.985230  0.743622  0.993555  1
  I  I19  1  0.740158  0.250017  0.759798  1
  I  I20  1  0.993587  0.985178  0.743637  1
  I  I21  1  0.249990  0.993539  0.506444  1
  I  I22  1  0.756020  0.514279  0.505586  1
  I  I23  1  0.506835  0.250533  0.994403  1
  I  I24  1  0.759323  0.739734  0.249984  1
  I  I25  1  0.743632  0.994073  0.985720  1
  I  I26  1  0.993178  0.506135  0.250012  1
  I  I27  1  0.506449  0.755825  0.514221  1
