# generated using pymatgen
data_NbTcSeS3
_symmetry_space_group_name_H-M   'P 1'
_cell_length_a   3.25920600
_cell_length_b   5.63131100
_cell_length_c   7.18703449
_cell_angle_alpha   74.40836068
_cell_angle_beta   90.00000000
_cell_angle_gamma   90.00000000
_symmetry_Int_Tables_number   1
_chemical_formula_structural   NbTcSeS3
_chemical_formula_sum   'Nb1 Tc1 Se1 S3'
_cell_volume   127.05399859
_cell_formula_units_Z   1
loop_
 _symmetry_equiv_pos_site_id
 _symmetry_equiv_pos_as_xyz
  1  'x, y, z'
loop_
 _atom_site_type_symbol
 _atom_site_label
 _atom_site_symmetry_multiplicity
 _atom_site_fract_x
 _atom_site_fract_y
 _atom_site_fract_z
 _atom_site_occupancy
  Nb  Nb0  1  0.500000  0.494512  0.005755  1
  Tc  Tc1  1  0.000000  0.004520  0.004727  1
  Se  Se2  1  0.500000  0.922992  0.759334  1
  S  S3  1  0.000000  0.401939  0.776073  1
  S  S4  1  0.500000  0.764641  0.222658  1
  S  S5  1  0.000000  0.243393  0.235453  1
