# generated using pymatgen
data_NdDy5Y2(CdPt)2
_symmetry_space_group_name_H-M   'P 1'
_cell_length_a   9.71376316
_cell_length_b   9.73503604
_cell_length_c   9.73503719
_cell_angle_alpha   59.85548060
_cell_angle_beta   60.07226595
_cell_angle_gamma   60.07226357
_symmetry_Int_Tables_number   1
_chemical_formula_structural   NdDy5Y2(CdPt)2
_chemical_formula_sum   'Nd2 Dy10 Y4 Cd4 Pt4'
_cell_volume   650.94393627
_cell_formula_units_Z   2
loop_
 _symmetry_equiv_pos_site_id
 _symmetry_equiv_pos_as_xyz
  1  'x, y, z'
loop_
 _atom_site_type_symbol
 _atom_site_label
 _atom_site_symmetry_multiplicity
 _atom_site_fract_x
 _atom_site_fract_y
 _atom_site_fract_z
 _atom_site_occupancy
  Nd  Nd0  1  0.934288  0.565712  0.565712  1
  Nd  Nd1  1  0.565712  0.934288  0.934288  1
  Dy  Dy2  1  0.352140  0.351476  0.351476  1
  Dy  Dy3  1  0.351476  0.352140  0.944907  1
  Dy  Dy4  1  0.351476  0.944907  0.352140  1
  Dy  Dy5  1  0.944907  0.351476  0.351476  1
  Dy  Dy6  1  0.810601  0.189399  0.189399  1
  Dy  Dy7  1  0.189399  0.810601  0.810601  1
  Dy  Dy8  1  0.189345  0.810655  0.189345  1
  Dy  Dy9  1  0.810655  0.189345  0.810655  1
  Dy  Dy10  1  0.189345  0.189345  0.810655  1
  Dy  Dy11  1  0.810655  0.810655  0.189345  1
  Y  Y12  1  0.562133  0.937867  0.562133  1
  Y  Y13  1  0.937867  0.562133  0.937867  1
  Y  Y14  1  0.562133  0.562133  0.937867  1
  Y  Y15  1  0.937867  0.937867  0.562133  1
  Cd  Cd16  1  0.579178  0.582187  0.582187  1
  Cd  Cd17  1  0.582187  0.579178  0.256448  1
  Cd  Cd18  1  0.582187  0.256448  0.579178  1
  Cd  Cd19  1  0.256448  0.582187  0.582187  1
  Pt  Pt20  1  0.141449  0.144144  0.144144  1
  Pt  Pt21  1  0.144144  0.141449  0.570262  1
  Pt  Pt22  1  0.144144  0.570262  0.141449  1
  Pt  Pt23  1  0.570262  0.144144  0.144144  1
