# generated using pymatgen
data_Dy3MgCd2Ge2Au
_symmetry_space_group_name_H-M   'P 1'
_cell_length_a   7.29227216
_cell_length_b   7.29227172
_cell_length_c   4.38070400
_cell_angle_alpha   90.00000000
_cell_angle_beta   90.00000000
_cell_angle_gamma   120.66599760
_symmetry_Int_Tables_number   1
_chemical_formula_structural   Dy3MgCd2Ge2Au
_chemical_formula_sum   'Dy3 Mg1 Cd2 Ge2 Au1'
_cell_volume   200.37631784
_cell_formula_units_Z   1
loop_
 _symmetry_equiv_pos_site_id
 _symmetry_equiv_pos_as_xyz
  1  'x, y, z'
loop_
 _atom_site_type_symbol
 _atom_site_label
 _atom_site_symmetry_multiplicity
 _atom_site_fract_x
 _atom_site_fract_y
 _atom_site_fract_z
 _atom_site_occupancy
  Dy  Dy0  1  0.582225  0.002280  0.000000  1
  Dy  Dy1  1  0.002280  0.582225  0.000000  1
  Dy  Dy2  1  0.415148  0.415148  0.000000  1
  Mg  Mg3  1  0.760932  0.760932  0.500000  1
  Cd  Cd4  1  0.248475  0.998316  0.500000  1
  Cd  Cd5  1  0.998316  0.248475  0.500000  1
  Ge  Ge6  1  0.339967  0.667166  0.500000  1
  Ge  Ge7  1  0.667166  0.339967  0.500000  1
  Au  Au8  1  0.985492  0.985492  0.000000  1
