# generated using pymatgen
data_YErLu2(WO6)2
_symmetry_space_group_name_H-M   'P 1'
_cell_length_a   5.35108200
_cell_length_b   7.63150955
_cell_length_c   11.33443436
_cell_angle_alpha   75.53155288
_cell_angle_beta   90.00000000
_cell_angle_gamma   90.00000000
_symmetry_Int_Tables_number   1
_chemical_formula_structural   YErLu2(WO6)2
_chemical_formula_sum   'Y2 Er2 Lu4 W4 O24'
_cell_volume   448.18290155
_cell_formula_units_Z   2
loop_
 _symmetry_equiv_pos_site_id
 _symmetry_equiv_pos_as_xyz
  1  'x, y, z'
loop_
 _atom_site_type_symbol
 _atom_site_label
 _atom_site_symmetry_multiplicity
 _atom_site_fract_x
 _atom_site_fract_y
 _atom_site_fract_z
 _atom_site_occupancy
  Y  Y0  1  0.315529  0.500000  0.750000  1
  Y  Y1  1  0.684471  0.500000  0.250000  1
  Er  Er2  1  0.258173  0.000000  0.750000  1
  Er  Er3  1  0.741827  0.000000  0.250000  1
  Lu  Lu4  1  0.184280  0.795047  0.078616  1
  Lu  Lu5  1  0.184280  0.204953  0.421384  1
  Lu  Lu6  1  0.815720  0.204953  0.921384  1
  Lu  Lu7  1  0.815720  0.795047  0.578616  1
  W  W8  1  0.744653  0.724814  0.885648  1
  W  W9  1  0.255347  0.724814  0.385648  1
  W  W10  1  0.744653  0.275186  0.614352  1
  W  W11  1  0.255347  0.275186  0.114352  1
  O  O12  1  0.855079  0.363226  0.450405  1
  O  O13  1  0.461093  0.845542  0.932181  1
  O  O14  1  0.855079  0.636774  0.049595  1
  O  O15  1  0.019041  0.285996  0.730440  1
  O  O16  1  0.980959  0.285996  0.230440  1
  O  O17  1  0.144921  0.363226  0.950405  1
  O  O18  1  0.643198  0.487772  0.886816  1
  O  O19  1  0.538907  0.154458  0.067819  1
  O  O20  1  0.144921  0.636774  0.549595  1
  O  O21  1  0.019041  0.714004  0.769560  1
  O  O22  1  0.456279  0.206658  0.274803  1
  O  O23  1  0.044071  0.942714  0.396629  1
  O  O24  1  0.461093  0.154458  0.567819  1
  O  O25  1  0.980959  0.714004  0.269560  1
  O  O26  1  0.955929  0.057286  0.603371  1
  O  O27  1  0.543721  0.206658  0.774803  1
  O  O28  1  0.543721  0.793342  0.725197  1
  O  O29  1  0.044071  0.057286  0.103371  1
  O  O30  1  0.643198  0.512228  0.613184  1
  O  O31  1  0.356802  0.512228  0.113184  1
  O  O32  1  0.456279  0.793342  0.225197  1
  O  O33  1  0.356802  0.487772  0.386816  1
  O  O34  1  0.538907  0.845542  0.432181  1
  O  O35  1  0.955929  0.942714  0.896629  1
