# generated using pymatgen
data_Ac3DyIn2Ir3
_symmetry_space_group_name_H-M   'P 1'
_cell_length_a   7.88824409
_cell_length_b   7.76411842
_cell_length_c   4.39520200
_cell_angle_alpha   90.00000000
_cell_angle_beta   90.00000000
_cell_angle_gamma   119.48083026
_symmetry_Int_Tables_number   1
_chemical_formula_structural   Ac3DyIn2Ir3
_chemical_formula_sum   'Ac3 Dy1 In2 Ir3'
_cell_volume   234.33129026
_cell_formula_units_Z   1
loop_
 _symmetry_equiv_pos_site_id
 _symmetry_equiv_pos_as_xyz
  1  'x, y, z'
loop_
 _atom_site_type_symbol
 _atom_site_label
 _atom_site_symmetry_multiplicity
 _atom_site_fract_x
 _atom_site_fract_y
 _atom_site_fract_z
 _atom_site_occupancy
  Ac  Ac0  1  0.433089  0.418613  0.000000  1
  Ac  Ac1  1  0.566911  0.985524  0.000000  1
  Ac  Ac2  1  0.000000  0.601623  0.000000  1
  Dy  Dy3  1  0.000000  0.235999  0.500000  1
  In  In4  1  0.757307  0.759349  0.500000  1
  In  In5  1  0.242693  0.002041  0.500000  1
  Ir  Ir6  1  0.000000  0.001434  0.000000  1
  Ir  Ir7  1  0.324543  0.659980  0.500000  1
  Ir  Ir8  1  0.675457  0.335436  0.500000  1
