# generated using pymatgen
data_Pr2GaSi3IrRh5
_symmetry_space_group_name_H-M   'P 1'
_cell_length_a   6.74446490
_cell_length_b   6.73230339
_cell_length_c   6.74377308
_cell_angle_alpha   130.21028886
_cell_angle_beta   114.60075575
_cell_angle_gamma   86.53999419
_symmetry_Int_Tables_number   1
_chemical_formula_structural   Pr2GaSi3IrRh5
_chemical_formula_sum   'Pr2 Ga1 Si3 Ir1 Rh5'
_cell_volume   202.81519840
_cell_formula_units_Z   1
loop_
 _symmetry_equiv_pos_site_id
 _symmetry_equiv_pos_as_xyz
  1  'x, y, z'
loop_
 _atom_site_type_symbol
 _atom_site_label
 _atom_site_symmetry_multiplicity
 _atom_site_fract_x
 _atom_site_fract_y
 _atom_site_fract_z
 _atom_site_occupancy
  Pr  Pr0  1  0.250633  0.959581  0.710124  1
  Pr  Pr1  1  0.751930  0.030039  0.279052  1
  Ga  Ga2  1  0.091676  0.295584  0.205077  1
  Si  Si3  1  0.932736  0.730071  0.797483  1
  Si  Si4  1  0.406020  0.615423  0.208118  1
  Si  Si5  1  0.570605  0.368749  0.795884  1
  Ir  Ir6  1  0.765604  0.498930  0.270704  1
  Rh  Rh7  1  0.527705  0.506158  0.531029  1
  Rh  Rh8  1  0.977209  0.506450  0.980077  1
  Rh  Rh9  1  0.286100  0.995345  0.280936  1
  Rh  Rh10  1  0.713659  0.996414  0.711444  1
  Rh  Rh11  1  0.226122  0.497252  0.730073  1
