# generated using pymatgen
data_Y3Hf4MgIr4
_symmetry_space_group_name_H-M   'P 1'
_cell_length_a   4.47641200
_cell_length_b   7.05574793
_cell_length_c   8.23910382
_cell_angle_alpha   89.30742867
_cell_angle_beta   90.00000000
_cell_angle_gamma   90.00000000
_symmetry_Int_Tables_number   1
_chemical_formula_structural   Y3Hf4MgIr4
_chemical_formula_sum   'Y3 Hf4 Mg1 Ir4'
_cell_volume   260.20842576
_cell_formula_units_Z   1
loop_
 _symmetry_equiv_pos_site_id
 _symmetry_equiv_pos_as_xyz
  1  'x, y, z'
loop_
 _atom_site_type_symbol
 _atom_site_label
 _atom_site_symmetry_multiplicity
 _atom_site_fract_x
 _atom_site_fract_y
 _atom_site_fract_z
 _atom_site_occupancy
  Y  Y0  1  0.250000  0.482007  0.179656  1
  Y  Y1  1  0.750000  0.015531  0.668834  1
  Y  Y2  1  0.750000  0.516224  0.822599  1
  Hf  Hf3  1  0.250000  0.353688  0.565187  1
  Hf  Hf4  1  0.250000  0.859001  0.931274  1
  Hf  Hf5  1  0.750000  0.655006  0.427405  1
  Hf  Hf6  1  0.750000  0.138588  0.080075  1
  Mg  Mg7  1  0.250000  0.975652  0.326871  1
  Ir  Ir8  1  0.250000  0.228581  0.901135  1
  Ir  Ir9  1  0.250000  0.724968  0.604583  1
  Ir  Ir10  1  0.750000  0.767192  0.096920  1
  Ir  Ir11  1  0.750000  0.283562  0.395462  1
