# generated using pymatgen
data_Li3La2Y(WO6)2
_symmetry_space_group_name_H-M   'P 1'
_cell_length_a   10.97054217
_cell_length_b   10.91302259
_cell_length_c   10.94681727
_cell_angle_alpha   109.42779915
_cell_angle_beta   109.63980480
_cell_angle_gamma   109.32949771
_symmetry_Int_Tables_number   1
_chemical_formula_structural   Li3La2Y(WO6)2
_chemical_formula_sum   'Li12 La8 Y4 W8 O48'
_cell_volume   1009.07943275
_cell_formula_units_Z   4
loop_
 _symmetry_equiv_pos_site_id
 _symmetry_equiv_pos_as_xyz
  1  'x, y, z'
loop_
 _atom_site_type_symbol
 _atom_site_label
 _atom_site_symmetry_multiplicity
 _atom_site_fract_x
 _atom_site_fract_y
 _atom_site_fract_z
 _atom_site_occupancy
  Li  Li0  1  0.748542  0.374928  0.125110  1
  Li  Li1  1  0.876586  0.750195  0.125132  1
  Li  Li2  1  0.125939  0.375198  0.249722  1
  Li  Li3  1  0.623767  0.874520  0.249710  1
  Li  Li4  1  0.622891  0.249733  0.372197  1
  Li  Li5  1  0.249290  0.122449  0.372183  1
  Li  Li6  1  0.375239  0.750880  0.624306  1
  Li  Li7  1  0.749079  0.873438  0.624331  1
  Li  Li8  1  0.375145  0.124487  0.751196  1
  Li  Li9  1  0.876045  0.626695  0.751182  1
  Li  Li10  1  0.127429  0.250228  0.877446  1
  Li  Li11  1  0.250034  0.627242  0.877470  1
  La  La12  1  0.126921  0.749550  0.372807  1
  La  La13  1  0.745879  0.623253  0.372809  1
  La  La14  1  0.874580  0.248358  0.621893  1
  La  La15  1  0.247314  0.373540  0.621893  1
  La  La16  1  0.624444  0.374449  0.748898  1
  La  La17  1  0.127109  0.877090  0.754209  1
  La  La18  1  0.625538  0.752034  0.878632  1
  La  La19  1  0.753111  0.126598  0.878637  1
  Y  Y20  1  0.253588  0.876319  0.127243  1
  Y  Y21  1  0.373657  0.250931  0.127241  1
  Y  Y22  1  0.875837  0.125837  0.251678  1
  Y  Y23  1  0.373655  0.623645  0.247300  1
  W  W24  1  0.005537  0.002171  0.008132  1
  W  W25  1  0.502593  0.005953  0.008123  1
  W  W26  1  0.495363  0.497011  0.000939  1
  W  W27  1  0.005576  0.503931  0.000934  1
  W  W28  1  0.499112  0.995788  0.494742  1
  W  W29  1  0.997158  0.497210  0.496218  1
  W  W30  1  0.999054  0.999011  0.496225  1
  W  W31  1  0.495629  0.498953  0.494742  1
  O  O32  1  0.327179  0.406387  0.029087  1
  O  O33  1  0.201892  0.622684  0.029066  1
  O  O34  1  0.887519  0.911641  0.086328  1
  O  O35  1  0.698804  0.174679  0.086305  1
  O  O36  1  0.622668  0.928887  0.099783  1
  O  O37  1  0.977131  0.170908  0.099811  1
  O  O38  1  0.028054  0.700013  0.113927  1
  O  O39  1  0.585863  0.413911  0.113925  1
  O  O40  1  0.202849  0.079349  0.174036  1
  O  O41  1  0.471198  0.094681  0.174043  1
  O  O42  1  0.123634  0.526354  0.195570  1
  O  O43  1  0.571935  0.669215  0.195574  1
  O  O44  1  0.326612  0.420219  0.297327  1
  O  O45  1  0.470734  0.877128  0.297336  1
  O  O46  1  0.918245  0.803800  0.325972  1
  O  O47  1  0.907710  0.522164  0.325960  1
  O  O48  1  0.571852  0.403252  0.376614  1
  O  O49  1  0.304771  0.973379  0.376619  1
  O  O50  1  0.829293  0.025330  0.402207  1
  O  O51  1  0.072916  0.376897  0.402219  1
  O  O52  1  0.087878  0.113553  0.413635  1
  O  O53  1  0.825753  0.300081  0.413648  1
  O  O54  1  0.585796  0.672030  0.472028  1
  O  O55  1  0.386241  0.800006  0.472034  1
  O  O56  1  0.612629  0.191493  0.518559  1
  O  O57  1  0.405929  0.327068  0.518563  1
  O  O58  1  0.171456  0.690915  0.578835  1
  O  O59  1  0.907391  0.887941  0.578861  1
  O  O60  1  0.172204  0.978602  0.590223  1
  O  O61  1  0.918002  0.611601  0.590211  1
  O  O62  1  0.418238  0.591633  0.611701  1
  O  O63  1  0.693464  0.020063  0.611712  1
  O  O64  1  0.080218  0.193484  0.670677  1
  O  O65  1  0.090455  0.477196  0.670681  1
  O  O66  1  0.670427  0.578796  0.688490  1
  O  O67  1  0.518049  0.109678  0.688489  1
  O  O68  1  0.887808  0.479235  0.806184  1
  O  O69  1  0.418382  0.326966  0.806184  1
  O  O70  1  0.518414  0.909186  0.831412  1
  O  O71  1  0.813010  0.922240  0.831429  1
  O  O72  1  0.981192  0.307858  0.887329  1
  O  O73  1  0.406158  0.579489  0.887345  1
  O  O74  1  0.387833  0.086535  0.914928  1
  O  O75  1  0.027096  0.828383  0.914921  1
  O  O76  1  0.122004  0.098258  0.930826  1
  O  O77  1  0.308814  0.832569  0.930836  1
  O  O78  1  0.812337  0.390621  0.982639  1
  O  O79  1  0.670308  0.592017  0.982633  1
