# generated using pymatgen
data_Dy8Ti2VSi16W9
_symmetry_space_group_name_H-M   'P 1'
_cell_length_a   6.89126180
_cell_length_b   6.89126193
_cell_length_c   12.80496500
_cell_angle_alpha   90.02530716
_cell_angle_beta   89.97469319
_cell_angle_gamma   89.83721783
_symmetry_Int_Tables_number   1
_chemical_formula_structural   Dy8Ti2VSi16W9
_chemical_formula_sum   'Dy8 Ti2 V1 Si16 W9'
_cell_volume   608.09868551
_cell_formula_units_Z   1
loop_
 _symmetry_equiv_pos_site_id
 _symmetry_equiv_pos_as_xyz
  1  'x, y, z'
loop_
 _atom_site_type_symbol
 _atom_site_label
 _atom_site_symmetry_multiplicity
 _atom_site_fract_x
 _atom_site_fract_y
 _atom_site_fract_z
 _atom_site_occupancy
  Dy  Dy0  1  0.999156  0.659793  0.031263  1
  Dy  Dy1  1  0.000516  0.339814  0.531394  1
  Dy  Dy2  1  0.659793  0.999156  0.968737  1
  Dy  Dy3  1  0.163414  0.501636  0.781411  1
  Dy  Dy4  1  0.837118  0.500230  0.281739  1
  Dy  Dy5  1  0.501636  0.163414  0.218589  1
  Dy  Dy6  1  0.500230  0.837118  0.718261  1
  Dy  Dy7  1  0.339814  0.000516  0.468606  1
  Ti  Ti8  1  0.830148  0.168555  0.749279  1
  Ti  Ti9  1  0.168555  0.830148  0.250721  1
  V  V10  1  0.332200  0.332200  0.000000  1
  Si  Si11  1  0.037121  0.711028  0.437791  1
  Si  Si12  1  0.961906  0.290370  0.936727  1
  Si  Si13  1  0.711028  0.037121  0.562209  1
  Si  Si14  1  0.209712  0.459233  0.184535  1
  Si  Si15  1  0.790415  0.540290  0.685968  1
  Si  Si16  1  0.459233  0.209712  0.815465  1
  Si  Si17  1  0.540290  0.790415  0.314032  1
  Si  Si18  1  0.290370  0.961906  0.063273  1
  Si  Si19  1  0.798757  0.871864  0.183285  1
  Si  Si20  1  0.301453  0.626310  0.566176  1
  Si  Si21  1  0.698729  0.371964  0.065777  1
  Si  Si22  1  0.626310  0.301453  0.433824  1
  Si  Si23  1  0.371964  0.698729  0.934223  1
  Si  Si24  1  0.127904  0.203080  0.315886  1
  Si  Si25  1  0.203080  0.127904  0.684114  1
  Si  Si26  1  0.871864  0.798757  0.816715  1
  W  W27  1  0.334193  0.504518  0.374962  1
  W  W28  1  0.841342  0.997019  0.373484  1
  W  W29  1  0.005914  0.159923  0.124866  1
  W  W30  1  0.997019  0.841342  0.626516  1
  W  W31  1  0.504518  0.334193  0.625038  1
  W  W32  1  0.159923  0.005914  0.875134  1
  W  W33  1  0.667837  0.667837  0.500000  1
  W  W34  1  0.495625  0.660920  0.124239  1
  W  W35  1  0.660920  0.495625  0.875761  1
