# generated using pymatgen
data_Pr4Ga24IrPt8
_symmetry_space_group_name_H-M   'P 1'
_cell_length_a   7.59822715
_cell_length_b   7.62748564
_cell_length_c   13.40651700
_cell_angle_alpha   84.63275155
_cell_angle_beta   79.26499728
_cell_angle_gamma   59.98571987
_symmetry_Int_Tables_number   1
_chemical_formula_structural   Pr4Ga24IrPt8
_chemical_formula_sum   'Pr4 Ga24 Ir1 Pt8'
_cell_volume   661.01286946
_cell_formula_units_Z   1
loop_
 _symmetry_equiv_pos_site_id
 _symmetry_equiv_pos_as_xyz
  1  'x, y, z'
loop_
 _atom_site_type_symbol
 _atom_site_label
 _atom_site_symmetry_multiplicity
 _atom_site_fract_x
 _atom_site_fract_y
 _atom_site_fract_z
 _atom_site_occupancy
  Pr  Pr0  1  0.394704  0.166992  0.810151  1
  Pr  Pr1  1  0.605296  0.833008  0.189849  1
  Pr  Pr2  1  0.729925  0.499294  0.810752  1
  Pr  Pr3  1  0.270075  0.500706  0.189248  1
  Ga  Ga4  1  0.690076  0.831329  0.941933  1
  Ga  Ga5  1  0.309924  0.168671  0.058067  1
  Ga  Ga6  1  0.146020  0.831935  0.559822  1
  Ga  Ga7  1  0.853980  0.168065  0.440178  1
  Ga  Ga8  1  0.480121  0.166760  0.556354  1
  Ga  Ga9  1  0.519879  0.833240  0.443646  1
  Ga  Ga10  1  0.218902  0.165849  0.327052  1
  Ga  Ga11  1  0.781098  0.834151  0.672948  1
  Ga  Ga12  1  0.436452  0.504995  0.671647  1
  Ga  Ga13  1  0.563548  0.495005  0.328353  1
  Ga  Ga14  1  0.107799  0.162103  0.669872  1
  Ga  Ga15  1  0.892201  0.837897  0.330128  1
  Ga  Ga16  1  0.351250  0.499562  0.942758  1
  Ga  Ga17  1  0.648750  0.500438  0.057242  1
  Ga  Ga18  1  0.017762  0.171504  0.949676  1
  Ga  Ga19  1  0.982238  0.828496  0.050324  1
  Ga  Ga20  1  0.186034  0.498584  0.442709  1
  Ga  Ga21  1  0.813966  0.501416  0.557291  1
  Ga  Ga22  1  0.738696  0.163545  0.182718  1
  Ga  Ga23  1  0.261304  0.836455  0.817282  1
  Ga  Ga24  1  0.061426  0.630449  0.818181  1
  Ga  Ga25  1  0.938574  0.369551  0.181819  1
  Ga  Ga26  1  0.859418  0.038154  0.816564  1
  Ga  Ga27  1  0.140582  0.961846  0.183437  1
  Ir  Ir28  1  0.000000  0.500000  0.000000  1
  Pt  Pt29  1  0.118721  0.496847  0.637528  1
  Pt  Pt30  1  0.881279  0.503153  0.362472  1
  Pt  Pt31  1  0.660193  0.169791  0.999970  1
  Pt  Pt32  1  0.339807  0.830209  0.000030  1
  Pt  Pt33  1  0.541443  0.167035  0.362007  1
  Pt  Pt34  1  0.458557  0.832965  0.637993  1
  Pt  Pt35  1  0.781738  0.170647  0.635332  1
  Pt  Pt36  1  0.218262  0.829353  0.364668  1
