# generated using pymatgen
data_HoLu7Ta11TiSi16
_symmetry_space_group_name_H-M   'P 1'
_cell_length_a   6.99299304
_cell_length_b   6.99006553
_cell_length_c   12.85999013
_cell_angle_alpha   89.94827227
_cell_angle_beta   90.00120134
_cell_angle_gamma   89.97544777
_symmetry_Int_Tables_number   1
_chemical_formula_structural   HoLu7Ta11TiSi16
_chemical_formula_sum   'Ho1 Lu7 Ta11 Ti1 Si16'
_cell_volume   628.61503090
_cell_formula_units_Z   1
loop_
 _symmetry_equiv_pos_site_id
 _symmetry_equiv_pos_as_xyz
  1  'x, y, z'
loop_
 _atom_site_type_symbol
 _atom_site_label
 _atom_site_symmetry_multiplicity
 _atom_site_fract_x
 _atom_site_fract_y
 _atom_site_fract_z
 _atom_site_occupancy
  Ho  Ho0  1  0.997302  0.659422  0.031595  1
  Lu  Lu1  1  0.342470  0.001348  0.468391  1
  Lu  Lu2  1  0.498963  0.841928  0.718158  1
  Lu  Lu3  1  0.500848  0.158924  0.219088  1
  Lu  Lu4  1  0.841684  0.498974  0.281590  1
  Lu  Lu5  1  0.158226  0.500188  0.781376  1
  Lu  Lu6  1  0.658239  0.998166  0.968266  1
  Lu  Lu7  1  0.002087  0.341760  0.531596  1
  Ta  Ta8  1  0.328906  0.328527  0.999718  1
  Ta  Ta9  1  0.171246  0.828894  0.250504  1
  Ta  Ta10  1  0.827462  0.171989  0.749639  1
  Ta  Ta11  1  0.671198  0.671657  0.500072  1
  Ta  Ta12  1  0.151958  0.005167  0.872414  1
  Ta  Ta13  1  0.493602  0.651880  0.124203  1
  Ta  Ta14  1  0.506179  0.347891  0.623584  1
  Ta  Ta15  1  0.651666  0.491229  0.875870  1
  Ta  Ta16  1  0.349072  0.507030  0.376568  1
  Ta  Ta17  1  0.847008  0.993355  0.373566  1
  Ta  Ta18  1  0.007062  0.152720  0.126660  1
  Ti  Ti19  1  0.993350  0.847029  0.626973  1
  Si  Si20  1  0.203411  0.132800  0.679436  1
  Si  Si21  1  0.365893  0.704918  0.929478  1
  Si  Si22  1  0.636194  0.295705  0.430716  1
  Si  Si23  1  0.703654  0.363470  0.069880  1
  Si  Si24  1  0.294154  0.637226  0.570254  1
  Si  Si25  1  0.794150  0.865834  0.180869  1
  Si  Si26  1  0.135768  0.204913  0.320616  1
  Si  Si27  1  0.863790  0.795886  0.818270  1
  Si  Si28  1  0.296958  0.955468  0.063669  1
  Si  Si29  1  0.544675  0.797212  0.314190  1
  Si  Si30  1  0.453849  0.203052  0.813324  1
  Si  Si31  1  0.798051  0.546789  0.684944  1
  Si  Si32  1  0.204319  0.454535  0.186853  1
  Si  Si33  1  0.706645  0.044412  0.564582  1
  Si  Si34  1  0.954973  0.294754  0.935649  1
  Si  Si35  1  0.044987  0.704950  0.437435  1
