# generated using pymatgen
data_Tb3Pa(ZnIr)4
_symmetry_space_group_name_H-M   'P 1'
_cell_length_a   3.96702200
_cell_length_b   7.05412702
_cell_length_c   8.31456958
_cell_angle_alpha   90.55958543
_cell_angle_beta   90.00000000
_cell_angle_gamma   90.00000000
_symmetry_Int_Tables_number   1
_chemical_formula_structural   Tb3Pa(ZnIr)4
_chemical_formula_sum   'Tb3 Pa1 Zn4 Ir4'
_cell_volume   232.66279616
_cell_formula_units_Z   1
loop_
 _symmetry_equiv_pos_site_id
 _symmetry_equiv_pos_as_xyz
  1  'x, y, z'
loop_
 _atom_site_type_symbol
 _atom_site_label
 _atom_site_symmetry_multiplicity
 _atom_site_fract_x
 _atom_site_fract_y
 _atom_site_fract_z
 _atom_site_occupancy
  Tb  Tb0  1  0.750000  0.448342  0.811811  1
  Tb  Tb1  1  0.250000  0.049286  0.319906  1
  Tb  Tb2  1  0.750000  0.945293  0.683458  1
  Pa  Pa3  1  0.250000  0.549423  0.180305  1
  Zn  Zn4  1  0.250000  0.130611  0.935070  1
  Zn  Zn5  1  0.750000  0.887650  0.062371  1
  Zn  Zn6  1  0.250000  0.623826  0.563299  1
  Zn  Zn7  1  0.750000  0.365011  0.442516  1
  Ir  Ir8  1  0.750000  0.739063  0.359793  1
  Ir  Ir9  1  0.250000  0.241085  0.625975  1
  Ir  Ir10  1  0.750000  0.274534  0.128259  1
  Ir  Ir11  1  0.250000  0.745877  0.887238  1
