# generated using pymatgen
data_Pr20Si15Sn
_symmetry_space_group_name_H-M   'P 1'
_cell_length_a   7.99224233
_cell_length_b   7.97070154
_cell_length_c   15.31463326
_cell_angle_alpha   90.07353257
_cell_angle_beta   89.68405820
_cell_angle_gamma   89.77890779
_symmetry_Int_Tables_number   1
_chemical_formula_structural   Pr20Si15Sn
_chemical_formula_sum   'Pr20 Si15 Sn1'
_cell_volume   975.57707454
_cell_formula_units_Z   1
loop_
 _symmetry_equiv_pos_site_id
 _symmetry_equiv_pos_as_xyz
  1  'x, y, z'
loop_
 _atom_site_type_symbol
 _atom_site_label
 _atom_site_symmetry_multiplicity
 _atom_site_fract_x
 _atom_site_fract_y
 _atom_site_fract_z
 _atom_site_occupancy
  Pr  Pr0  1  0.308682  0.309921  0.000901  1
  Pr  Pr1  1  0.191363  0.809224  0.249696  1
  Pr  Pr2  1  0.800969  0.189893  0.751954  1
  Pr  Pr3  1  0.687819  0.691628  0.497039  1
  Pr  Pr4  1  0.376552  0.012540  0.449132  1
  Pr  Pr5  1  0.495504  0.871155  0.698352  1
  Pr  Pr6  1  0.510127  0.121000  0.197532  1
  Pr  Pr7  1  0.877999  0.489199  0.301037  1
  Pr  Pr8  1  0.119351  0.517848  0.805165  1
  Pr  Pr9  1  0.622979  0.987482  0.949799  1
  Pr  Pr10  1  0.004484  0.383589  0.546587  1
  Pr  Pr11  1  0.989086  0.621620  0.053345  1
  Pr  Pr12  1  0.126865  0.981563  0.879638  1
  Pr  Pr13  1  0.518907  0.627298  0.126934  1
  Pr  Pr14  1  0.491643  0.381464  0.625655  1
  Pr  Pr15  1  0.629385  0.520782  0.876354  1
  Pr  Pr16  1  0.373496  0.481548  0.372781  1
  Pr  Pr17  1  0.872660  0.018092  0.375919  1
  Pr  Pr18  1  0.981962  0.127664  0.124579  1
  Pr  Pr19  1  0.007526  0.858890  0.620580  1
  Si  Si20  1  0.331832  0.696234  0.953129  1
  Si  Si21  1  0.666673  0.302678  0.450322  1
  Si  Si22  1  0.697211  0.331892  0.049047  1
  Si  Si23  1  0.304150  0.669157  0.547079  1
  Si  Si24  1  0.803459  0.832190  0.201668  1
  Si  Si25  1  0.167593  0.196597  0.299145  1
  Si  Si26  1  0.834524  0.804016  0.798991  1
  Si  Si27  1  0.288283  0.921661  0.060420  1
  Si  Si28  1  0.578310  0.789323  0.309142  1
  Si  Si29  1  0.430847  0.210832  0.814549  1
  Si  Si30  1  0.789189  0.577138  0.691754  1
  Si  Si31  1  0.211518  0.421034  0.191090  1
  Si  Si32  1  0.710593  0.079441  0.559140  1
  Si  Si33  1  0.922786  0.289102  0.941069  1
  Si  Si34  1  0.080112  0.712536  0.438634  1
  Sn  Sn35  1  0.195563  0.163772  0.691844  1
