# generated using pymatgen
data_SmDy2Ga3(Ni3Sn)3
_symmetry_space_group_name_H-M   'P 1'
_cell_length_a   4.07826200
_cell_length_b   9.17417175
_cell_length_c   9.15803539
_cell_angle_alpha   60.04768776
_cell_angle_beta   90.00000000
_cell_angle_gamma   90.00000000
_symmetry_Int_Tables_number   1
_chemical_formula_structural   SmDy2Ga3(Ni3Sn)3
_chemical_formula_sum   'Sm1 Dy2 Ga3 Ni9 Sn3'
_cell_volume   296.88170172
_cell_formula_units_Z   1
loop_
 _symmetry_equiv_pos_site_id
 _symmetry_equiv_pos_as_xyz
  1  'x, y, z'
loop_
 _atom_site_type_symbol
 _atom_site_label
 _atom_site_symmetry_multiplicity
 _atom_site_fract_x
 _atom_site_fract_y
 _atom_site_fract_z
 _atom_site_occupancy
  Sm  Sm0  1  0.500000  0.333282  0.333458  1
  Dy  Dy1  1  0.500000  0.666508  0.666839  1
  Dy  Dy2  1  0.000000  0.999981  0.999860  1
  Ga  Ga3  1  0.500000  0.257527  0.742557  1
  Ga  Ga4  1  0.500000  0.742677  0.999888  1
  Ga  Ga5  1  0.500000  0.999966  0.257456  1
  Ni  Ni6  1  0.000000  0.159479  0.204840  1
  Ni  Ni7  1  0.000000  0.204967  0.635379  1
  Ni  Ni8  1  0.000000  0.635578  0.159539  1
  Ni  Ni9  1  0.000000  0.793197  0.839563  1
  Ni  Ni10  1  0.000000  0.367095  0.793335  1
  Ni  Ni11  1  0.000000  0.839555  0.366981  1
  Ni  Ni12  1  0.500000  0.721930  0.279210  1
  Ni  Ni13  1  0.500000  0.279231  0.999130  1
  Ni  Ni14  1  0.500000  0.999208  0.721841  1
  Sn  Sn15  1  0.000000  0.530753  0.469988  1
  Sn  Sn16  1  0.000000  0.469921  0.999379  1
  Sn  Sn17  1  0.000000  0.999044  0.530859  1
