# generated using pymatgen
data_Yb4Hf(SnO4)3
_symmetry_space_group_name_H-M   'P 1'
_cell_length_a   5.49699070
_cell_length_b   5.72228001
_cell_length_c   7.91815294
_cell_angle_alpha   89.74429178
_cell_angle_beta   89.88463183
_cell_angle_gamma   89.90493773
_symmetry_Int_Tables_number   1
_chemical_formula_structural   Yb4Hf(SnO4)3
_chemical_formula_sum   'Yb4 Hf1 Sn3 O12'
_cell_volume   249.06470995
_cell_formula_units_Z   1
loop_
 _symmetry_equiv_pos_site_id
 _symmetry_equiv_pos_as_xyz
  1  'x, y, z'
loop_
 _atom_site_type_symbol
 _atom_site_label
 _atom_site_symmetry_multiplicity
 _atom_site_fract_x
 _atom_site_fract_y
 _atom_site_fract_z
 _atom_site_occupancy
  Yb  Yb0  1  0.980513  0.058872  0.248982  1
  Yb  Yb1  1  0.485748  0.440087  0.749930  1
  Yb  Yb2  1  0.514252  0.559913  0.250070  1
  Yb  Yb3  1  0.019487  0.941128  0.751018  1
  Hf  Hf4  1  0.000000  0.500000  0.500000  1
  Sn  Sn5  1  0.500000  0.000000  0.000000  1
  Sn  Sn6  1  0.500000  0.000000  0.500000  1
  Sn  Sn7  1  0.000000  0.500000  0.000000  1
  O  O8  1  0.615772  0.044941  0.750505  1
  O  O9  1  0.195321  0.199064  0.556900  1
  O  O10  1  0.193643  0.197653  0.939920  1
  O  O11  1  0.692501  0.302425  0.060525  1
  O  O12  1  0.694434  0.302869  0.445066  1
  O  O13  1  0.107270  0.458697  0.249861  1
  O  O14  1  0.892730  0.541303  0.750139  1
  O  O15  1  0.305566  0.697131  0.554934  1
  O  O16  1  0.307499  0.697575  0.939475  1
  O  O17  1  0.806357  0.802347  0.060080  1
  O  O18  1  0.804679  0.800936  0.443100  1
  O  O19  1  0.384228  0.955059  0.249495  1
