# generated using pymatgen
data_Sr3Cd(Bi2O7)2
_symmetry_space_group_name_H-M   'P 1'
_cell_length_a   7.79480384
_cell_length_b   7.88462737
_cell_length_c   7.88462775
_cell_angle_alpha   120.02541323
_cell_angle_beta   120.09118023
_cell_angle_gamma   90.22895130
_symmetry_Int_Tables_number   1
_chemical_formula_structural   Sr3Cd(Bi2O7)2
_chemical_formula_sum   'Sr3 Cd1 Bi4 O14'
_cell_volume   341.35215811
_cell_formula_units_Z   1
loop_
 _symmetry_equiv_pos_site_id
 _symmetry_equiv_pos_as_xyz
  1  'x, y, z'
loop_
 _atom_site_type_symbol
 _atom_site_label
 _atom_site_symmetry_multiplicity
 _atom_site_fract_x
 _atom_site_fract_y
 _atom_site_fract_z
 _atom_site_occupancy
  Sr  Sr0  1  0.000000  0.000000  0.500000  1
  Sr  Sr1  1  0.000000  0.500000  0.000000  1
  Sr  Sr2  1  0.000000  0.000000  0.000000  1
  Cd  Cd3  1  0.500000  0.500000  0.000000  1
  Bi  Bi4  1  0.500000  0.000000  0.000000  1
  Bi  Bi5  1  0.500000  0.500000  0.500000  1
  Bi  Bi6  1  0.500000  0.000000  0.500000  1
  Bi  Bi7  1  0.000000  0.500000  0.500000  1
  O  O8  1  0.443438  0.103470  0.779305  1
  O  O9  1  0.556562  0.335867  0.660030  1
  O  O10  1  0.168380  0.416701  0.337973  1
  O  O11  1  0.831620  0.169594  0.248322  1
  O  O12  1  0.556562  0.896530  0.220695  1
  O  O13  1  0.443438  0.664133  0.339970  1
  O  O14  1  0.831620  0.583299  0.662027  1
  O  O15  1  0.168380  0.830406  0.751678  1
  O  O16  1  0.623541  0.769372  0.854169  1
  O  O17  1  0.376459  0.230628  0.145831  1
  O  O18  1  0.171442  0.899601  0.271840  1
  O  O19  1  0.828558  0.100399  0.728160  1
  O  O20  1  0.838732  0.584396  0.254335  1
  O  O21  1  0.161268  0.415604  0.745665  1
