# generated using pymatgen
data_NaSr2As6(IrRu2)2
_symmetry_space_group_name_H-M   'P 1'
_cell_length_a   8.82579622
_cell_length_b   8.82579601
_cell_length_c   6.58471237
_cell_angle_alpha   72.46109266
_cell_angle_beta   72.46109314
_cell_angle_gamma   38.77489705
_symmetry_Int_Tables_number   1
_chemical_formula_structural   NaSr2As6(IrRu2)2
_chemical_formula_sum   'Na1 Sr2 As6 Ir2 Ru4'
_cell_volume   304.38584851
_cell_formula_units_Z   1
loop_
 _symmetry_equiv_pos_site_id
 _symmetry_equiv_pos_as_xyz
  1  'x, y, z'
loop_
 _atom_site_type_symbol
 _atom_site_label
 _atom_site_symmetry_multiplicity
 _atom_site_fract_x
 _atom_site_fract_y
 _atom_site_fract_z
 _atom_site_occupancy
  Na  Na0  1  0.001140  0.998860  0.000000  1
  Sr  Sr1  1  0.662636  0.665093  0.674888  1
  Sr  Sr2  1  0.334907  0.337364  0.325112  1
  As  As3  1  0.878078  0.885223  0.514114  1
  As  As4  1  0.213187  0.211914  0.854879  1
  As  As5  1  0.549236  0.542603  0.189192  1
  As  As6  1  0.457397  0.450764  0.810808  1
  As  As7  1  0.788086  0.786813  0.145121  1
  As  As8  1  0.114777  0.121922  0.485886  1
  Ir  Ir9  1  0.082879  0.583817  0.828519  1
  Ir  Ir10  1  0.416183  0.917121  0.171481  1
  Ru  Ru11  1  0.750539  0.249461  0.500000  1
  Ru  Ru12  1  0.249511  0.750489  0.500000  1
  Ru  Ru13  1  0.583311  0.081867  0.831831  1
  Ru  Ru14  1  0.918133  0.416689  0.168169  1
