# generated using pymatgen
data_Er4Mg2B4IrRh9
_symmetry_space_group_name_H-M   'P 1'
_cell_length_a   9.61328230
_cell_length_b   9.61328230
_cell_length_c   3.17385300
_cell_angle_alpha   90.00000000
_cell_angle_beta   90.00000000
_cell_angle_gamma   89.83225989
_symmetry_Int_Tables_number   1
_chemical_formula_structural   Er4Mg2B4IrRh9
_chemical_formula_sum   'Er4 Mg2 B4 Ir1 Rh9'
_cell_volume   293.31099189
_cell_formula_units_Z   1
loop_
 _symmetry_equiv_pos_site_id
 _symmetry_equiv_pos_as_xyz
  1  'x, y, z'
loop_
 _atom_site_type_symbol
 _atom_site_label
 _atom_site_symmetry_multiplicity
 _atom_site_fract_x
 _atom_site_fract_y
 _atom_site_fract_z
 _atom_site_occupancy
  Er  Er0  1  0.676863  0.176863  0.000000  1
  Er  Er1  1  0.323137  0.823137  0.000000  1
  Er  Er2  1  0.175195  0.324805  0.000000  1
  Er  Er3  1  0.824805  0.675195  0.000000  1
  Mg  Mg4  1  0.000000  0.000000  0.000000  1
  Mg  Mg5  1  0.500000  0.500000  0.000000  1
  B  B6  1  0.122993  0.622993  0.000000  1
  B  B7  1  0.877007  0.377007  0.000000  1
  B  B8  1  0.622468  0.877532  0.000000  1
  B  B9  1  0.377532  0.122468  0.000000  1
  Ir  Ir10  1  0.500000  0.000000  0.500000  1
  Rh  Rh11  1  0.000000  0.500000  0.500000  1
  Rh  Rh12  1  0.223402  0.071104  0.500000  1
  Rh  Rh13  1  0.776598  0.928896  0.500000  1
  Rh  Rh14  1  0.070341  0.775873  0.500000  1
  Rh  Rh15  1  0.724127  0.429659  0.500000  1
  Rh  Rh16  1  0.929659  0.224127  0.500000  1
  Rh  Rh17  1  0.275873  0.570341  0.500000  1
  Rh  Rh18  1  0.571104  0.723402  0.500000  1
  Rh  Rh19  1  0.428896  0.276598  0.500000  1
