# generated using pymatgen
data_TaBe15Rh16
_symmetry_space_group_name_H-M   'P 1'
_cell_length_a   8.46210245
_cell_length_b   8.46169125
_cell_length_c   8.46175130
_cell_angle_alpha   140.79489011
_cell_angle_beta   96.46143473
_cell_angle_gamma   96.46249916
_symmetry_Int_Tables_number   1
_chemical_formula_structural   TaBe15Rh16
_chemical_formula_sum   'Ta1 Be15 Rh16'
_cell_volume   360.79201392
_cell_formula_units_Z   1
loop_
 _symmetry_equiv_pos_site_id
 _symmetry_equiv_pos_as_xyz
  1  'x, y, z'
loop_
 _atom_site_type_symbol
 _atom_site_label
 _atom_site_symmetry_multiplicity
 _atom_site_fract_x
 _atom_site_fract_y
 _atom_site_fract_z
 _atom_site_occupancy
  Ta  Ta0  1  0.124770  0.749830  0.374942  1
  Be  Be1  1  0.124764  0.249826  0.874941  1
  Be  Be2  1  0.381862  0.250262  0.131638  1
  Be  Be3  1  0.868727  0.250222  0.618455  1
  Be  Be4  1  0.624405  0.249440  0.374963  1
  Be  Be5  1  0.381800  0.506667  0.875131  1
  Be  Be6  1  0.634085  0.504500  0.129598  1
  Be  Be7  1  0.124543  0.504448  0.620081  1
  Be  Be8  1  0.873872  0.498683  0.375188  1
  Be  Be9  1  0.868585  0.993485  0.875096  1
  Be  Be10  1  0.124657  0.994909  0.129756  1
  Be  Be11  1  0.614939  0.994864  0.620065  1
  Be  Be12  1  0.377044  0.001936  0.375110  1
  Be  Be13  1  0.624870  0.750055  0.874812  1
  Be  Be14  1  0.873889  0.750412  0.123501  1
  Be  Be15  1  0.377185  0.750451  0.626709  1
  Rh  Rh16  1  0.125106  0.359655  0.243937  1
  Rh  Rh17  1  0.125106  0.881158  0.765445  1
  Rh  Rh18  1  0.865611  0.359585  0.984541  1
  Rh  Rh19  1  0.375374  0.875147  0.000039  1
  Rh  Rh20  1  0.865615  0.881073  0.506032  1
  Rh  Rh21  1  0.375395  0.375339  0.500254  1
  Rh  Rh22  1  0.625154  0.875211  0.249732  1
  Rh  Rh23  1  0.625171  0.375421  0.749956  1
  Rh  Rh24  1  0.874377  0.124791  0.249720  1
  Rh  Rh25  1  0.874401  0.624650  0.749606  1
  Rh  Rh26  1  0.625166  0.124972  0.000514  1
  Rh  Rh27  1  0.125105  0.618901  0.984767  1
  Rh  Rh28  1  0.625172  0.624640  0.500216  1
  Rh  Rh29  1  0.125111  0.140346  0.506219  1
  Rh  Rh30  1  0.384065  0.618865  0.243817  1
  Rh  Rh31  1  0.384072  0.140257  0.765211  1
