# generated using pymatgen
data_Ho5GaSiBi2
_symmetry_space_group_name_H-M   'P 1'
_cell_length_a   8.66221302
_cell_length_b   8.66221252
_cell_length_c   7.96281313
_cell_angle_alpha   89.75249664
_cell_angle_beta   89.75249921
_cell_angle_gamma   125.27770812
_symmetry_Int_Tables_number   1
_chemical_formula_structural   Ho5GaSiBi2
_chemical_formula_sum   'Ho10 Ga2 Si2 Bi4'
_cell_volume   487.73958420
_cell_formula_units_Z   2
loop_
 _symmetry_equiv_pos_site_id
 _symmetry_equiv_pos_as_xyz
  1  'x, y, z'
loop_
 _atom_site_type_symbol
 _atom_site_label
 _atom_site_symmetry_multiplicity
 _atom_site_fract_x
 _atom_site_fract_y
 _atom_site_fract_z
 _atom_site_occupancy
  Ho  Ho0  1  0.041544  0.285499  0.335747  1
  Ho  Ho1  1  0.958456  0.714501  0.664253  1
  Ho  Ho2  1  0.456409  0.209763  0.833718  1
  Ho  Ho3  1  0.790237  0.543591  0.166282  1
  Ho  Ho4  1  0.543591  0.790237  0.166282  1
  Ho  Ho5  1  0.209763  0.456409  0.833718  1
  Ho  Ho6  1  0.714501  0.958456  0.664253  1
  Ho  Ho7  1  0.285499  0.041544  0.335747  1
  Ho  Ho8  1  0.000000  0.000000  0.000000  1
  Ho  Ho9  1  0.500000  0.500000  0.500000  1
  Ga  Ga10  1  0.367963  0.367963  0.132066  1
  Ga  Ga11  1  0.632037  0.632037  0.867934  1
  Si  Si12  1  0.136749  0.136749  0.635625  1
  Si  Si13  1  0.863251  0.863251  0.364375  1
  Bi  Bi14  1  0.792655  0.207345  0.000000  1
  Bi  Bi15  1  0.207345  0.792655  0.000000  1
  Bi  Bi16  1  0.707361  0.292639  0.500000  1
  Bi  Bi17  1  0.292639  0.707361  0.500000  1
