# generated using pymatgen
data_K6VBrO5
_symmetry_space_group_name_H-M   'P 1'
_cell_length_a   7.69123261
_cell_length_b   7.69123299
_cell_length_c   7.69123400
_cell_angle_alpha   60.00000427
_cell_angle_beta   60.00000261
_cell_angle_gamma   60.00000836
_symmetry_Int_Tables_number   1
_chemical_formula_structural   K6VBrO5
_chemical_formula_sum   'K6 V1 Br1 O5'
_cell_volume   321.71624467
_cell_formula_units_Z   1
loop_
 _symmetry_equiv_pos_site_id
 _symmetry_equiv_pos_as_xyz
  1  'x, y, z'
loop_
 _atom_site_type_symbol
 _atom_site_label
 _atom_site_symmetry_multiplicity
 _atom_site_fract_x
 _atom_site_fract_y
 _atom_site_fract_z
 _atom_site_occupancy
  K  K0  1  0.486847  0.013153  0.013153  1
  K  K1  1  0.013153  0.486847  0.013153  1
  K  K2  1  0.486848  0.486848  0.013152  1
  K  K3  1  0.013153  0.013153  0.486847  1
  K  K4  1  0.486848  0.013152  0.486848  1
  K  K5  1  0.013152  0.486848  0.486848  1
  V  V6  1  0.500000  0.500000  0.500000  1
  Br  Br7  1  0.000000  0.000000  0.000000  1
  O  O8  1  0.593185  0.593185  0.220443  1
  O  O9  1  0.250000  0.250000  0.250000  1
  O  O10  1  0.593185  0.220443  0.593185  1
  O  O11  1  0.220443  0.593185  0.593185  1
  O  O12  1  0.593185  0.593185  0.593185  1
