# generated using pymatgen
data_LaYb3CeRu2
_symmetry_space_group_name_H-M   'P 1'
_cell_length_a   6.48563188
_cell_length_b   7.24884709
_cell_length_c   8.75348200
_cell_angle_alpha   94.95880908
_cell_angle_beta   111.90266170
_cell_angle_gamma   93.70687101
_symmetry_Int_Tables_number   1
_chemical_formula_structural   LaYb3CeRu2
_chemical_formula_sum   'La2 Yb6 Ce2 Ru4'
_cell_volume   378.30087959
_cell_formula_units_Z   2
loop_
 _symmetry_equiv_pos_site_id
 _symmetry_equiv_pos_as_xyz
  1  'x, y, z'
loop_
 _atom_site_type_symbol
 _atom_site_label
 _atom_site_symmetry_multiplicity
 _atom_site_fract_x
 _atom_site_fract_y
 _atom_site_fract_z
 _atom_site_occupancy
  La  La0  1  0.078302  0.253029  0.007479  1
  La  La1  1  0.921698  0.746971  0.992521  1
  Yb  Yb2  1  0.701122  0.420115  0.185234  1
  Yb  Yb3  1  0.298878  0.579885  0.814766  1
  Yb  Yb4  1  0.299084  0.313741  0.430615  1
  Yb  Yb5  1  0.700916  0.686259  0.569385  1
  Yb  Yb6  1  0.861591  0.182591  0.569772  1
  Yb  Yb7  1  0.138409  0.817409  0.430228  1
  Ce  Ce8  1  0.503355  0.098459  0.816448  1
  Ce  Ce9  1  0.496645  0.901541  0.183552  1
  Ru  Ru10  1  0.336378  0.609804  0.212554  1
  Ru  Ru11  1  0.663622  0.390196  0.787446  1
  Ru  Ru12  1  0.163628  0.944359  0.797162  1
  Ru  Ru13  1  0.836372  0.055641  0.202838  1
