# generated using pymatgen
data_As(WBr6)2
_symmetry_space_group_name_H-M   'P 1'
_cell_length_a   12.14820100
_cell_length_b   10.13603708
_cell_length_c   10.42387370
_cell_angle_alpha   87.87885833
_cell_angle_beta   90.00000000
_cell_angle_gamma   90.00000000
_symmetry_Int_Tables_number   1
_chemical_formula_structural   As(WBr6)2
_chemical_formula_sum   'As2 W4 Br24'
_cell_volume   1282.66020776
_cell_formula_units_Z   2
loop_
 _symmetry_equiv_pos_site_id
 _symmetry_equiv_pos_as_xyz
  1  'x, y, z'
loop_
 _atom_site_type_symbol
 _atom_site_label
 _atom_site_symmetry_multiplicity
 _atom_site_fract_x
 _atom_site_fract_y
 _atom_site_fract_z
 _atom_site_occupancy
  As  As0  1  0.250000  0.826870  0.963448  1
  As  As1  1  0.750000  0.173130  0.036552  1
  W  W2  1  0.250000  0.157285  0.609797  1
  W  W3  1  0.750000  0.651401  0.590146  1
  W  W4  1  0.750000  0.842715  0.390203  1
  W  W5  1  0.250000  0.348599  0.409854  1
  Br  Br6  1  0.891053  0.618880  0.759771  1
  Br  Br7  1  0.599246  0.184256  0.890767  1
  Br  Br8  1  0.250000  0.574468  0.478943  1
  Br  Br9  1  0.108947  0.381120  0.240229  1
  Br  Br10  1  0.108928  0.983606  0.656606  1
  Br  Br11  1  0.750000  0.425532  0.521057  1
  Br  Br12  1  0.420939  0.300636  0.554045  1
  Br  Br13  1  0.099246  0.815744  0.109233  1
  Br  Br14  1  0.400754  0.815744  0.109233  1
  Br  Br15  1  0.250000  0.609270  0.888530  1
  Br  Br16  1  0.250000  0.242354  0.824703  1
  Br  Br17  1  0.920939  0.699364  0.445955  1
  Br  Br18  1  0.391053  0.381120  0.240229  1
  Br  Br19  1  0.750000  0.390730  0.111470  1
  Br  Br20  1  0.391072  0.983606  0.656606  1
  Br  Br21  1  0.079061  0.300636  0.554045  1
  Br  Br22  1  0.750000  0.757646  0.175297  1
  Br  Br23  1  0.250000  0.093726  0.368084  1
  Br  Br24  1  0.608928  0.016394  0.343394  1
  Br  Br25  1  0.900754  0.184256  0.890767  1
  Br  Br26  1  0.750000  0.906274  0.631916  1
  Br  Br27  1  0.579061  0.699364  0.445955  1
  Br  Br28  1  0.608947  0.618880  0.759771  1
  Br  Br29  1  0.891072  0.016394  0.343394  1
