# generated using pymatgen
data_Hf7Zr9(Si4W)4
_symmetry_space_group_name_H-M   'P 1'
_cell_length_a   6.97737901
_cell_length_b   6.97706136
_cell_length_c   12.80284464
_cell_angle_alpha   89.96386038
_cell_angle_beta   90.00378079
_cell_angle_gamma   89.99420304
_symmetry_Int_Tables_number   1
_chemical_formula_structural   Hf7Zr9(Si4W)4
_chemical_formula_sum   'Hf7 Zr9 Si16 W4'
_cell_volume   623.26285216
_cell_formula_units_Z   1
loop_
 _symmetry_equiv_pos_site_id
 _symmetry_equiv_pos_as_xyz
  1  'x, y, z'
loop_
 _atom_site_type_symbol
 _atom_site_label
 _atom_site_symmetry_multiplicity
 _atom_site_fract_x
 _atom_site_fract_y
 _atom_site_fract_z
 _atom_site_occupancy
  Hf  Hf0  1  0.503325  0.645548  0.624657  1
  Hf  Hf1  1  0.854559  0.002962  0.874299  1
  Hf  Hf2  1  0.145260  0.996658  0.374857  1
  Hf  Hf3  1  0.645365  0.503409  0.375666  1
  Hf  Hf4  1  0.354177  0.496764  0.875109  1
  Hf  Hf5  1  0.003324  0.854486  0.125361  1
  Hf  Hf6  1  0.996724  0.145508  0.625411  1
  Zr  Zr7  1  0.497916  0.154230  0.531250  1
  Zr  Zr8  1  0.502342  0.846598  0.031326  1
  Zr  Zr9  1  0.654746  0.001578  0.281497  1
  Zr  Zr10  1  0.345470  0.997719  0.780951  1
  Zr  Zr11  1  0.846210  0.502355  0.968408  1
  Zr  Zr12  1  0.154230  0.497935  0.468993  1
  Zr  Zr13  1  0.002046  0.654386  0.718901  1
  Zr  Zr14  1  0.998624  0.345533  0.218830  1
  Zr  Zr15  1  0.497433  0.354345  0.124694  1
  Si  Si16  1  0.798259  0.144677  0.070628  1
  Si  Si17  1  0.203067  0.855262  0.571184  1
  Si  Si18  1  0.644608  0.702952  0.821074  1
  Si  Si19  1  0.355147  0.296730  0.321865  1
  Si  Si20  1  0.855090  0.203156  0.428966  1
  Si  Si21  1  0.144788  0.796831  0.928872  1
  Si  Si22  1  0.703532  0.645657  0.179349  1
  Si  Si23  1  0.296847  0.355306  0.678754  1
  Si  Si24  1  0.547184  0.198601  0.932993  1
  Si  Si25  1  0.452752  0.801135  0.433893  1
  Si  Si26  1  0.698975  0.952680  0.683652  1
  Si  Si27  1  0.300906  0.046278  0.183938  1
  Si  Si28  1  0.801081  0.452870  0.566340  1
  Si  Si29  1  0.198386  0.547454  0.065978  1
  Si  Si30  1  0.952597  0.698982  0.316376  1
  Si  Si31  1  0.047249  0.301011  0.816140  1
  W  W32  1  0.672763  0.327192  0.749777  1
  W  W33  1  0.326212  0.673986  0.250513  1
  W  W34  1  0.827257  0.827558  0.500021  1
  W  W35  1  0.171548  0.171669  0.999479  1
