# generated using pymatgen
data_LuU7(B6W)4
_symmetry_space_group_name_H-M   'P 1'
_cell_length_a   3.67847500
_cell_length_b   9.27897445
_cell_length_c   11.38064077
_cell_angle_alpha   89.93603040
_cell_angle_beta   90.00000000
_cell_angle_gamma   90.00000000
_symmetry_Int_Tables_number   1
_chemical_formula_structural   LuU7(B6W)4
_chemical_formula_sum   'Lu1 U7 B24 W4'
_cell_volume   388.44920054
_cell_formula_units_Z   1
loop_
 _symmetry_equiv_pos_site_id
 _symmetry_equiv_pos_as_xyz
  1  'x, y, z'
loop_
 _atom_site_type_symbol
 _atom_site_label
 _atom_site_symmetry_multiplicity
 _atom_site_fract_x
 _atom_site_fract_y
 _atom_site_fract_z
 _atom_site_occupancy
  Lu  Lu0  1  0.000000  0.334855  0.408049  1
  U  U1  1  0.000000  0.664191  0.591797  1
  U  U2  1  0.000000  0.834088  0.092870  1
  U  U3  1  0.000000  0.165627  0.907504  1
  U  U4  1  0.000000  0.956987  0.394821  1
  U  U5  1  0.000000  0.045134  0.604473  1
  U  U6  1  0.000000  0.455933  0.105340  1
  U  U7  1  0.000000  0.543605  0.895066  1
  B  B8  1  0.500000  0.551295  0.433586  1
  B  B9  1  0.500000  0.451043  0.568173  1
  B  B10  1  0.500000  0.049807  0.066818  1
  B  B11  1  0.500000  0.950185  0.933126  1
  B  B12  1  0.500000  0.742574  0.424837  1
  B  B13  1  0.500000  0.256313  0.575796  1
  B  B14  1  0.500000  0.244076  0.076061  1
  B  B15  1  0.500000  0.756345  0.924402  1
  B  B16  1  0.500000  0.803352  0.272982  1
  B  B17  1  0.500000  0.196503  0.727173  1
  B  B18  1  0.500000  0.303121  0.225841  1
  B  B19  1  0.500000  0.696223  0.772240  1
  B  B20  1  0.500000  0.643562  0.187804  1
  B  B21  1  0.500000  0.355336  0.812591  1
  B  B22  1  0.500000  0.143850  0.312246  1
  B  B23  1  0.500000  0.855481  0.687240  1
  B  B24  1  0.500000  0.985806  0.218469  1
  B  B25  1  0.500000  0.014569  0.781352  1
  B  B26  1  0.500000  0.486167  0.281011  1
  B  B27  1  0.500000  0.515107  0.717742  1
  B  B28  1  0.500000  0.641761  0.039450  1
  B  B29  1  0.500000  0.358310  0.960814  1
  B  B30  1  0.500000  0.139985  0.461052  1
  B  B31  1  0.500000  0.857799  0.539479  1
  W  W32  1  0.000000  0.647145  0.319636  1
  W  W33  1  0.000000  0.355292  0.681963  1
  W  W34  1  0.000000  0.143484  0.177843  1
  W  W35  1  0.000000  0.855088  0.820354  1
