# generated using pymatgen
data_Ho4Sc4Re3B24Os
_symmetry_space_group_name_H-M   'P 1'
_cell_length_a   3.57426500
_cell_length_b   8.98704623
_cell_length_c   11.36934427
_cell_angle_alpha   90.03605216
_cell_angle_beta   90.00000000
_cell_angle_gamma   90.00000000
_symmetry_Int_Tables_number   1
_chemical_formula_structural   Ho4Sc4Re3B24Os
_chemical_formula_sum   'Ho4 Sc4 Re3 B24 Os1'
_cell_volume   365.20696846
_cell_formula_units_Z   1
loop_
 _symmetry_equiv_pos_site_id
 _symmetry_equiv_pos_as_xyz
  1  'x, y, z'
loop_
 _atom_site_type_symbol
 _atom_site_label
 _atom_site_symmetry_multiplicity
 _atom_site_fract_x
 _atom_site_fract_y
 _atom_site_fract_z
 _atom_site_occupancy
  Ho  Ho0  1  0.000000  0.320236  0.414281  1
  Ho  Ho1  1  0.000000  0.679360  0.587378  1
  Ho  Ho2  1  0.000000  0.822007  0.084700  1
  Ho  Ho3  1  0.000000  0.178891  0.913116  1
  Sc  Sc4  1  0.000000  0.943677  0.370842  1
  Sc  Sc5  1  0.000000  0.055622  0.628843  1
  Sc  Sc6  1  0.000000  0.443406  0.128559  1
  Sc  Sc7  1  0.000000  0.556320  0.871370  1
  Re  Re8  1  0.000000  0.360680  0.680478  1
  Re  Re9  1  0.000000  0.139853  0.181889  1
  Re  Re10  1  0.000000  0.860499  0.818954  1
  B  B11  1  0.500000  0.554677  0.432948  1
  B  B12  1  0.500000  0.446274  0.566639  1
  B  B13  1  0.500000  0.054029  0.066971  1
  B  B14  1  0.500000  0.946428  0.932774  1
  B  B15  1  0.500000  0.752782  0.418635  1
  B  B16  1  0.500000  0.245794  0.580838  1
  B  B17  1  0.500000  0.253742  0.081131  1
  B  B18  1  0.500000  0.746596  0.918985  1
  B  B19  1  0.500000  0.793451  0.265267  1
  B  B20  1  0.500000  0.205616  0.734708  1
  B  B21  1  0.500000  0.294622  0.235307  1
  B  B22  1  0.500000  0.705528  0.765452  1
  B  B23  1  0.500000  0.628742  0.183568  1
  B  B24  1  0.500000  0.371792  0.816556  1
  B  B25  1  0.500000  0.128262  0.317110  1
  B  B26  1  0.500000  0.871388  0.683250  1
  B  B27  1  0.500000  0.980155  0.213670  1
  B  B28  1  0.500000  0.019693  0.785994  1
  B  B29  1  0.500000  0.481252  0.286696  1
  B  B30  1  0.500000  0.519898  0.713783  1
  B  B31  1  0.500000  0.597095  0.027183  1
  B  B32  1  0.500000  0.403559  0.973707  1
  B  B33  1  0.500000  0.095775  0.473276  1
  B  B34  1  0.500000  0.902608  0.526406  1
  Os  Os35  1  0.000000  0.639687  0.318741  1
