# generated using pymatgen
data_Cr20Ga(MoC3)2
_symmetry_space_group_name_H-M   'P 1'
_cell_length_a   7.54088737
_cell_length_b   7.54084008
_cell_length_c   7.54090800
_cell_angle_alpha   60.00014057
_cell_angle_beta   60.00011355
_cell_angle_gamma   59.99962912
_symmetry_Int_Tables_number   1
_chemical_formula_structural   Cr20Ga(MoC3)2
_chemical_formula_sum   'Cr20 Ga1 Mo2 C6'
_cell_volume   303.21483546
_cell_formula_units_Z   1
loop_
 _symmetry_equiv_pos_site_id
 _symmetry_equiv_pos_as_xyz
  1  'x, y, z'
loop_
 _atom_site_type_symbol
 _atom_site_label
 _atom_site_symmetry_multiplicity
 _atom_site_fract_x
 _atom_site_fract_y
 _atom_site_fract_z
 _atom_site_occupancy
  Cr  Cr0  1  0.616592  0.616574  0.150231  1
  Cr  Cr1  1  0.616609  0.150249  0.616585  1
  Cr  Cr2  1  0.150247  0.616606  0.616597  1
  Cr  Cr3  1  0.616560  0.616569  0.616612  1
  Cr  Cr4  1  0.383408  0.383426  0.849769  1
  Cr  Cr5  1  0.383391  0.849751  0.383415  1
  Cr  Cr6  1  0.849753  0.383394  0.383403  1
  Cr  Cr7  1  0.383440  0.383431  0.383388  1
  Cr  Cr8  1  0.000005  0.000015  0.341858  1
  Cr  Cr9  1  0.658171  0.000015  0.341830  1
  Cr  Cr10  1  0.000006  0.658188  0.341822  1
  Cr  Cr11  1  0.658134  0.341855  0.000010  1
  Cr  Cr12  1  0.999998  0.341836  0.000029  1
  Cr  Cr13  1  0.999994  0.341812  0.658178  1
  Cr  Cr14  1  0.341866  0.658145  0.999990  1
  Cr  Cr15  1  0.341829  0.999985  0.658170  1
  Cr  Cr16  1  0.341828  0.999996  0.000021  1
  Cr  Cr17  1  0.999995  0.999985  0.658142  1
  Cr  Cr18  1  0.000002  0.658164  0.999971  1
  Cr  Cr19  1  0.658172  0.000004  0.999979  1
  Ga  Ga20  1  0.000000  0.000000  0.000000  1
  Mo  Mo21  1  0.750002  0.750004  0.749996  1
  Mo  Mo22  1  0.249998  0.249996  0.250004  1
  C  C23  1  0.722225  0.722229  0.277779  1
  C  C24  1  0.277768  0.722228  0.277779  1
  C  C25  1  0.722226  0.277766  0.277781  1
  C  C26  1  0.277775  0.277771  0.722221  1
  C  C27  1  0.722232  0.277772  0.722221  1
  C  C28  1  0.277774  0.722234  0.722219  1
