# generated using pymatgen
data_Pr2Sc3P12IrRu18
_symmetry_space_group_name_H-M   'P 1'
_cell_length_a   12.51962300
_cell_length_b   12.51962449
_cell_length_c   3.97010200
_cell_angle_alpha   90.00000000
_cell_angle_beta   90.00000000
_cell_angle_gamma   119.99999870
_symmetry_Int_Tables_number   1
_chemical_formula_structural   Pr2Sc3P12IrRu18
_chemical_formula_sum   'Pr2 Sc3 P12 Ir1 Ru18'
_cell_volume   538.90828035
_cell_formula_units_Z   1
loop_
 _symmetry_equiv_pos_site_id
 _symmetry_equiv_pos_as_xyz
  1  'x, y, z'
loop_
 _atom_site_type_symbol
 _atom_site_label
 _atom_site_symmetry_multiplicity
 _atom_site_fract_x
 _atom_site_fract_y
 _atom_site_fract_z
 _atom_site_occupancy
  Pr  Pr0  1  0.333333  0.666667  0.000000  1
  Pr  Pr1  1  0.666667  0.333333  0.000000  1
  Sc  Sc2  1  0.814338  0.000000  0.500000  1
  Sc  Sc3  1  0.000000  0.814338  0.500000  1
  Sc  Sc4  1  0.185662  0.185662  0.500000  1
  P  P5  1  0.181296  0.000000  0.000000  1
  P  P6  1  0.000000  0.181296  0.000000  1
  P  P7  1  0.818704  0.818704  0.000000  1
  P  P8  1  0.166275  0.473544  0.500000  1
  P  P9  1  0.526456  0.692731  0.500000  1
  P  P10  1  0.307269  0.833725  0.500000  1
  P  P11  1  0.692731  0.526456  0.500000  1
  P  P12  1  0.833725  0.307269  0.500000  1
  P  P13  1  0.473544  0.166275  0.500000  1
  P  P14  1  0.626595  0.000000  0.000000  1
  P  P15  1  0.000000  0.626595  0.000000  1
  P  P16  1  0.373405  0.373405  0.000000  1
  Ir  Ir17  1  0.000000  0.000000  0.000000  1
  Ru  Ru18  1  0.442926  0.000000  0.000000  1
  Ru  Ru19  1  0.000000  0.442926  0.000000  1
  Ru  Ru20  1  0.557074  0.557074  0.000000  1
  Ru  Ru21  1  0.364162  0.488497  0.500000  1
  Ru  Ru22  1  0.511503  0.875666  0.500000  1
  Ru  Ru23  1  0.124334  0.635838  0.500000  1
  Ru  Ru24  1  0.875666  0.511503  0.500000  1
  Ru  Ru25  1  0.635838  0.124334  0.500000  1
  Ru  Ru26  1  0.488497  0.364162  0.500000  1
  Ru  Ru27  1  0.183898  0.370272  0.000000  1
  Ru  Ru28  1  0.629728  0.813627  0.000000  1
  Ru  Ru29  1  0.186373  0.816102  0.000000  1
  Ru  Ru30  1  0.813627  0.629728  0.000000  1
  Ru  Ru31  1  0.816102  0.186373  0.000000  1
  Ru  Ru32  1  0.370272  0.183898  0.000000  1
  Ru  Ru33  1  0.276410  0.000000  0.500000  1
  Ru  Ru34  1  0.000000  0.276410  0.500000  1
  Ru  Ru35  1  0.723590  0.723590  0.500000  1
