# generated using pymatgen
data_Li8Te3WO16
_symmetry_space_group_name_H-M   'P 1'
_cell_length_a   6.11520549
_cell_length_b   6.12046400
_cell_length_c   8.47369199
_cell_angle_alpha   90.00000000
_cell_angle_beta   89.92076444
_cell_angle_gamma   90.00000000
_symmetry_Int_Tables_number   1
_chemical_formula_structural   Li8Te3WO16
_chemical_formula_sum   'Li8 Te3 W1 O16'
_cell_volume   317.15215114
_cell_formula_units_Z   1
loop_
 _symmetry_equiv_pos_site_id
 _symmetry_equiv_pos_as_xyz
  1  'x, y, z'
loop_
 _atom_site_type_symbol
 _atom_site_label
 _atom_site_symmetry_multiplicity
 _atom_site_fract_x
 _atom_site_fract_y
 _atom_site_fract_z
 _atom_site_occupancy
  Li  Li0  1  0.747624  0.747249  0.874787  1
  Li  Li1  1  0.252376  0.747249  0.125213  1
  Li  Li2  1  0.738837  0.238316  0.626465  1
  Li  Li3  1  0.261163  0.238316  0.373535  1
  Li  Li4  1  0.702685  0.503243  0.231900  1
  Li  Li5  1  0.500000  0.285647  0.000000  1
  Li  Li6  1  0.500000  0.725880  0.500000  1
  Li  Li7  1  0.297315  0.503243  0.768100  1
  Te  Te8  1  0.268915  0.002954  0.747304  1
  Te  Te9  1  0.731085  0.002954  0.252696  1
  Te  Te10  1  0.000000  0.268111  0.000000  1
  W  W11  1  0.000000  0.717701  0.500000  1
  O  O12  1  0.230631  0.982655  0.519357  1
  O  O13  1  0.769369  0.982655  0.480643  1
  O  O14  1  0.017104  0.227708  0.766320  1
  O  O15  1  0.775508  0.018744  0.017767  1
  O  O16  1  0.231809  0.468982  0.005365  1
  O  O17  1  0.530997  0.234800  0.250881  1
  O  O18  1  0.467575  0.768779  0.754950  1
  O  O19  1  0.228358  0.529775  0.480957  1
  O  O20  1  0.768191  0.468982  0.994635  1
  O  O21  1  0.771642  0.529775  0.519043  1
  O  O22  1  0.469003  0.234800  0.749119  1
  O  O23  1  0.532425  0.768779  0.245050  1
  O  O24  1  0.982896  0.227708  0.233680  1
  O  O25  1  0.224492  0.018744  0.982233  1
  O  O26  1  0.981019  0.778126  0.270420  1
  O  O27  1  0.018981  0.778126  0.729580  1
