# generated using pymatgen
data_Na2NpSe3
_symmetry_space_group_name_H-M   'P 1'
_cell_length_a   7.27316780
_cell_length_b   7.27316838
_cell_length_c   7.31884808
_cell_angle_alpha   80.34416346
_cell_angle_beta   80.34416344
_cell_angle_gamma   119.99257620
_symmetry_Int_Tables_number   1
_chemical_formula_structural   Na2NpSe3
_chemical_formula_sum   'Na4 Np2 Se6'
_cell_volume   315.88967299
_cell_formula_units_Z   2
loop_
 _symmetry_equiv_pos_site_id
 _symmetry_equiv_pos_as_xyz
  1  'x, y, z'
loop_
 _atom_site_type_symbol
 _atom_site_label
 _atom_site_symmetry_multiplicity
 _atom_site_fract_x
 _atom_site_fract_y
 _atom_site_fract_z
 _atom_site_occupancy
  Na  Na0  1  0.000000  0.000000  0.000000  1
  Na  Na1  1  0.500000  0.500000  0.500000  1
  Na  Na2  1  0.839703  0.160297  0.500000  1
  Na  Na3  1  0.160297  0.839703  0.500000  1
  Np  Np4  1  0.667095  0.332905  0.000000  1
  Np  Np5  1  0.332905  0.667095  0.000000  1
  Se  Se6  1  0.277666  0.277666  0.230892  1
  Se  Se7  1  0.432424  0.077104  0.771307  1
  Se  Se8  1  0.077104  0.432424  0.771307  1
  Se  Se9  1  0.722334  0.722334  0.769108  1
  Se  Se10  1  0.567576  0.922896  0.228693  1
  Se  Se11  1  0.922896  0.567576  0.228693  1
