# generated using pymatgen
data_Dy9Er11(Bi2Pt)4
_symmetry_space_group_name_H-M   'P 1'
_cell_length_a   8.05496007
_cell_length_b   9.00741000
_cell_length_c   12.44061411
_cell_angle_alpha   90.00000000
_cell_angle_beta   89.98482038
_cell_angle_gamma   90.00000000
_symmetry_Int_Tables_number   1
_chemical_formula_structural   Dy9Er11(Bi2Pt)4
_chemical_formula_sum   'Dy9 Er11 Bi8 Pt4'
_cell_volume   902.62036355
_cell_formula_units_Z   1
loop_
 _symmetry_equiv_pos_site_id
 _symmetry_equiv_pos_as_xyz
  1  'x, y, z'
loop_
 _atom_site_type_symbol
 _atom_site_label
 _atom_site_symmetry_multiplicity
 _atom_site_fract_x
 _atom_site_fract_y
 _atom_site_fract_z
 _atom_site_occupancy
  Dy  Dy0  1  0.664719  0.750000  0.710142  1
  Dy  Dy1  1  0.335298  0.250000  0.289748  1
  Dy  Dy2  1  0.164731  0.250000  0.789595  1
  Dy  Dy3  1  0.835473  0.750000  0.210478  1
  Dy  Dy4  1  0.131811  0.750000  0.806323  1
  Dy  Dy5  1  0.868209  0.250000  0.193562  1
  Dy  Dy6  1  0.631806  0.250000  0.693478  1
  Dy  Dy7  1  0.368255  0.750000  0.306497  1
  Dy  Dy8  1  0.550485  0.750000  0.999295  1
  Er  Er9  1  0.448862  0.250000  0.000733  1
  Er  Er10  1  0.051236  0.250000  0.500724  1
  Er  Er11  1  0.948730  0.750000  0.499274  1
  Er  Er12  1  0.823903  0.453593  0.931432  1
  Er  Er13  1  0.176090  0.545860  0.068594  1
  Er  Er14  1  0.323583  0.546066  0.568463  1
  Er  Er15  1  0.176090  0.954140  0.068594  1
  Er  Er16  1  0.676381  0.453868  0.431514  1
  Er  Er17  1  0.823903  0.046407  0.931432  1
  Er  Er18  1  0.676381  0.046132  0.431514  1
  Er  Er19  1  0.323583  0.953934  0.568463  1
  Bi  Bi20  1  0.936092  0.007698  0.671995  1
  Bi  Bi21  1  0.063915  0.992326  0.328024  1
  Bi  Bi22  1  0.435873  0.992711  0.827625  1
  Bi  Bi23  1  0.063915  0.507674  0.328024  1
  Bi  Bi24  1  0.563932  0.008054  0.172428  1
  Bi  Bi25  1  0.936092  0.492302  0.671995  1
  Bi  Bi26  1  0.563932  0.491946  0.172428  1
  Bi  Bi27  1  0.435873  0.507289  0.827625  1
  Pt  Pt28  1  0.924445  0.750000  0.989822  1
  Pt  Pt29  1  0.076381  0.250000  0.010195  1
  Pt  Pt30  1  0.423607  0.250000  0.510224  1
  Pt  Pt31  1  0.576417  0.750000  0.489757  1
