# generated using pymatgen
data_Ho2Ga(Ni2P)6
_symmetry_space_group_name_H-M   'P 1'
_cell_length_a   9.10798500
_cell_length_b   9.10798355
_cell_length_c   3.67881500
_cell_angle_alpha   90.00000000
_cell_angle_beta   90.00000000
_cell_angle_gamma   120.00000164
_symmetry_Int_Tables_number   1
_chemical_formula_structural   Ho2Ga(Ni2P)6
_chemical_formula_sum   'Ho2 Ga1 Ni12 P6'
_cell_volume   264.29145224
_cell_formula_units_Z   1
loop_
 _symmetry_equiv_pos_site_id
 _symmetry_equiv_pos_as_xyz
  1  'x, y, z'
loop_
 _atom_site_type_symbol
 _atom_site_label
 _atom_site_symmetry_multiplicity
 _atom_site_fract_x
 _atom_site_fract_y
 _atom_site_fract_z
 _atom_site_occupancy
  Ho  Ho0  1  0.000000  0.000000  0.000000  1
  Ho  Ho1  1  0.333333  0.666667  0.500000  1
  Ga  Ga2  1  0.666667  0.333333  0.000000  1
  Ni  Ni3  1  0.103900  0.395647  0.000000  1
  Ni  Ni4  1  0.604353  0.708252  0.000000  1
  Ni  Ni5  1  0.291748  0.896100  0.000000  1
  Ni  Ni6  1  0.050855  0.768294  0.500000  1
  Ni  Ni7  1  0.231706  0.282560  0.500000  1
  Ni  Ni8  1  0.717440  0.949145  0.500000  1
  Ni  Ni9  1  0.829791  0.625793  0.000000  1
  Ni  Ni10  1  0.374207  0.204001  0.000000  1
  Ni  Ni11  1  0.795999  0.170209  0.000000  1
  Ni  Ni12  1  0.905190  0.438711  0.500000  1
  Ni  Ni13  1  0.561289  0.466479  0.500000  1
  Ni  Ni14  1  0.533521  0.094810  0.500000  1
  P  P15  1  0.777846  0.738187  0.500000  1
  P  P16  1  0.261813  0.039659  0.500000  1
  P  P17  1  0.960341  0.222154  0.500000  1
  P  P18  1  0.072461  0.625528  0.000000  1
  P  P19  1  0.374472  0.446933  0.000000  1
  P  P20  1  0.553067  0.927539  0.000000  1
