# generated using pymatgen
data_KNpO4
_symmetry_space_group_name_H-M   'P 1'
_cell_length_a   5.71741500
_cell_length_b   6.28597728
_cell_length_c   7.82600079
_cell_angle_alpha   48.46261613
_cell_angle_beta   90.00000000
_cell_angle_gamma   90.00000000
_symmetry_Int_Tables_number   1
_chemical_formula_structural   KNpO4
_chemical_formula_sum   'K2 Np2 O8'
_cell_volume   210.53179263
_cell_formula_units_Z   2
loop_
 _symmetry_equiv_pos_site_id
 _symmetry_equiv_pos_as_xyz
  1  'x, y, z'
loop_
 _atom_site_type_symbol
 _atom_site_label
 _atom_site_symmetry_multiplicity
 _atom_site_fract_x
 _atom_site_fract_y
 _atom_site_fract_z
 _atom_site_occupancy
  K  K0  1  0.584187  0.292112  0.243092  1
  K  K1  1  0.084187  0.707888  0.756908  1
  Np  Np2  1  0.057374  0.750721  0.248747  1
  Np  Np3  1  0.557374  0.249279  0.751253  1
  O  O4  1  0.313514  0.609711  0.475773  1
  O  O5  1  0.813514  0.390289  0.524227  1
  O  O6  1  0.166444  0.532738  0.184099  1
  O  O7  1  0.295696  0.117899  0.970923  1
  O  O8  1  0.795696  0.882101  0.029077  1
  O  O9  1  0.449786  0.032130  0.686041  1
  O  O10  1  0.949786  0.967870  0.313959  1
  O  O11  1  0.666444  0.467262  0.815901  1
