# generated using pymatgen
data_Ac3Cd2CuHgPt2
_symmetry_space_group_name_H-M   'P 1'
_cell_length_a   8.13548000
_cell_length_b   8.10404304
_cell_length_c   4.06860500
_cell_angle_alpha   90.00000000
_cell_angle_beta   90.00000000
_cell_angle_gamma   120.12841325
_symmetry_Int_Tables_number   1
_chemical_formula_structural   Ac3Cd2CuHgPt2
_chemical_formula_sum   'Ac3 Cd2 Cu1 Hg1 Pt2'
_cell_volume   232.00516754
_cell_formula_units_Z   1
loop_
 _symmetry_equiv_pos_site_id
 _symmetry_equiv_pos_as_xyz
  1  'x, y, z'
loop_
 _atom_site_type_symbol
 _atom_site_label
 _atom_site_symmetry_multiplicity
 _atom_site_fract_x
 _atom_site_fract_y
 _atom_site_fract_z
 _atom_site_occupancy
  Ac  Ac0  1  0.424110  0.000000  0.500000  1
  Ac  Ac1  1  0.995351  0.414262  0.500000  1
  Ac  Ac2  1  0.581089  0.585738  0.500000  1
  Cd  Cd3  1  0.003122  0.764379  0.000000  1
  Cd  Cd4  1  0.238744  0.235621  0.000000  1
  Cu  Cu5  1  0.005417  0.000000  0.500000  1
  Hg  Hg6  1  0.765193  0.000000  0.000000  1
  Pt  Pt7  1  0.322805  0.658634  0.000000  1
  Pt  Pt8  1  0.664172  0.341366  0.000000  1
