# generated using pymatgen
data_Dy17Lu3Si15Ir
_symmetry_space_group_name_H-M   'P 1'
_cell_length_a   7.40626722
_cell_length_b   7.65752957
_cell_length_c   14.58255531
_cell_angle_alpha   89.76465349
_cell_angle_beta   89.69477775
_cell_angle_gamma   90.19384172
_symmetry_Int_Tables_number   1
_chemical_formula_structural   Dy17Lu3Si15Ir
_chemical_formula_sum   'Dy17 Lu3 Si15 Ir1'
_cell_volume   827.00730983
_cell_formula_units_Z   1
loop_
 _symmetry_equiv_pos_site_id
 _symmetry_equiv_pos_as_xyz
  1  'x, y, z'
loop_
 _atom_site_type_symbol
 _atom_site_label
 _atom_site_symmetry_multiplicity
 _atom_site_fract_x
 _atom_site_fract_y
 _atom_site_fract_z
 _atom_site_occupancy
  Dy  Dy0  1  0.353656  0.010385  0.752768  1
  Dy  Dy1  1  0.973465  0.814303  0.097643  1
  Dy  Dy2  1  0.471648  0.682620  0.401181  1
  Dy  Dy3  1  0.531072  0.324708  0.901473  1
  Dy  Dy4  1  0.029168  0.184959  0.599382  1
  Dy  Dy5  1  0.027254  0.187821  0.902261  1
  Dy  Dy6  1  0.530096  0.318592  0.598528  1
  Dy  Dy7  1  0.475351  0.680542  0.099266  1
  Dy  Dy8  1  0.970007  0.817308  0.400180  1
  Dy  Dy9  1  0.685222  0.811048  0.882631  1
  Dy  Dy10  1  0.178315  0.681605  0.621771  1
  Dy  Dy11  1  0.817333  0.333766  0.119006  1
  Dy  Dy12  1  0.315464  0.177382  0.375456  1
  Dy  Dy13  1  0.320188  0.178633  0.124179  1
  Dy  Dy14  1  0.818882  0.319859  0.376822  1
  Dy  Dy15  1  0.175045  0.674530  0.878499  1
  Dy  Dy16  1  0.683044  0.819098  0.622306  1
  Lu  Lu17  1  0.648455  0.992485  0.248536  1
  Lu  Lu18  1  0.148601  0.510884  0.247962  1
  Lu  Lu19  1  0.847328  0.487109  0.758524  1
  Si  Si20  1  0.766366  0.631342  0.252079  1
  Si  Si21  1  0.267388  0.869721  0.250573  1
  Si  Si22  1  0.734133  0.125246  0.748369  1
  Si  Si23  1  0.234770  0.374020  0.746305  1
  Si  Si24  1  0.016791  0.104007  0.248756  1
  Si  Si25  1  0.520655  0.397646  0.251305  1
  Si  Si26  1  0.472989  0.605327  0.746129  1
  Si  Si27  1  0.977536  0.898861  0.748203  1
  Si  Si28  1  0.353964  0.972205  0.539283  1
  Si  Si29  1  0.646110  0.026631  0.043084  1
  Si  Si30  1  0.147735  0.470795  0.459613  1
  Si  Si31  1  0.155028  0.473387  0.042373  1
  Si  Si32  1  0.643679  0.027995  0.458813  1
  Si  Si33  1  0.353577  0.968929  0.962301  1
  Si  Si34  1  0.853831  0.528318  0.539271  1
  Ir  Ir35  1  0.855853  0.517933  0.955169  1
