# generated using pymatgen
data_TbHo6Co6Sn23
_symmetry_space_group_name_H-M   'P 1'
_cell_length_a   9.68185600
_cell_length_b   9.68185528
_cell_length_c   9.95792500
_cell_angle_alpha   90.00000000
_cell_angle_beta   90.00000000
_cell_angle_gamma   119.99999562
_symmetry_Int_Tables_number   1
_chemical_formula_structural   TbHo6Co6Sn23
_chemical_formula_sum   'Tb1 Ho6 Co6 Sn23'
_cell_volume   808.38213591
_cell_formula_units_Z   1
loop_
 _symmetry_equiv_pos_site_id
 _symmetry_equiv_pos_as_xyz
  1  'x, y, z'
loop_
 _atom_site_type_symbol
 _atom_site_label
 _atom_site_symmetry_multiplicity
 _atom_site_fract_x
 _atom_site_fract_y
 _atom_site_fract_z
 _atom_site_occupancy
  Tb  Tb0  1  0.000000  0.000000  0.000000  1
  Ho  Ho1  1  0.521465  0.478535  0.693420  1
  Ho  Ho2  1  0.521465  0.042929  0.693420  1
  Ho  Ho3  1  0.957071  0.478535  0.693420  1
  Ho  Ho4  1  0.042929  0.521465  0.306580  1
  Ho  Ho5  1  0.478535  0.957071  0.306580  1
  Ho  Ho6  1  0.478535  0.521465  0.306580  1
  Co  Co7  1  0.167940  0.832060  0.802772  1
  Co  Co8  1  0.167940  0.335880  0.802772  1
  Co  Co9  1  0.664120  0.832060  0.802772  1
  Co  Co10  1  0.335880  0.167940  0.197228  1
  Co  Co11  1  0.832060  0.664120  0.197228  1
  Co  Co12  1  0.832060  0.167940  0.197228  1
  Sn  Sn13  1  0.666667  0.333333  0.181692  1
  Sn  Sn14  1  0.666667  0.333333  0.882086  1
  Sn  Sn15  1  0.333333  0.666667  0.117914  1
  Sn  Sn16  1  0.346140  0.346140  0.000000  1
  Sn  Sn17  1  0.000000  0.653860  0.000000  1
  Sn  Sn18  1  0.653860  0.000000  0.000000  1
  Sn  Sn19  1  0.653860  0.653860  0.000000  1
  Sn  Sn20  1  0.333333  0.666667  0.818308  1
  Sn  Sn21  1  0.437074  0.218538  0.451909  1
  Sn  Sn22  1  0.218538  0.781462  0.548091  1
  Sn  Sn23  1  0.218538  0.437074  0.548091  1
  Sn  Sn24  1  0.562926  0.781462  0.548091  1
  Sn  Sn25  1  0.118238  0.881762  0.274505  1
  Sn  Sn26  1  0.781462  0.562926  0.451909  1
  Sn  Sn27  1  0.781462  0.218538  0.451909  1
  Sn  Sn28  1  0.346140  0.000000  0.000000  1
  Sn  Sn29  1  0.118238  0.236477  0.274505  1
  Sn  Sn30  1  0.763523  0.881762  0.274505  1
  Sn  Sn31  1  0.236477  0.118238  0.725495  1
  Sn  Sn32  1  0.881762  0.763523  0.725495  1
  Sn  Sn33  1  0.881762  0.118238  0.725495  1
  Sn  Sn34  1  0.000000  0.000000  0.500000  1
  Sn  Sn35  1  0.000000  0.346140  0.000000  1
