# generated using pymatgen
data_Ta2AlV2Os
_symmetry_space_group_name_H-M   'P 1'
_cell_length_a   5.07833687
_cell_length_b   5.07822763
_cell_length_c   8.24034500
_cell_angle_alpha   90.00000000
_cell_angle_beta   90.00000000
_cell_angle_gamma   60.29192097
_symmetry_Int_Tables_number   1
_chemical_formula_structural   Ta2AlV2Os
_chemical_formula_sum   'Ta4 Al2 V4 Os2'
_cell_volume   184.57790469
_cell_formula_units_Z   2
loop_
 _symmetry_equiv_pos_site_id
 _symmetry_equiv_pos_as_xyz
  1  'x, y, z'
loop_
 _atom_site_type_symbol
 _atom_site_label
 _atom_site_symmetry_multiplicity
 _atom_site_fract_x
 _atom_site_fract_y
 _atom_site_fract_z
 _atom_site_occupancy
  Ta  Ta0  1  0.331328  0.331305  0.556504  1
  Ta  Ta1  1  0.662833  0.662843  0.437447  1
  Ta  Ta2  1  0.662833  0.662843  0.062553  1
  Ta  Ta3  1  0.331328  0.331305  0.943496  1
  Al  Al4  1  0.836985  0.349403  0.750000  1
  Al  Al5  1  0.349387  0.836998  0.750000  1
  V  V6  1  0.839672  0.839655  0.750000  1
  V  V7  1  0.167444  0.653005  0.250000  1
  V  V8  1  0.653015  0.167430  0.250000  1
  V  V9  1  0.168545  0.168530  0.250000  1
  Os  Os10  1  0.998316  0.998342  0.498590  1
  Os  Os11  1  0.998316  0.998342  0.001410  1
