# generated using pymatgen
data_Dy2Mn2Cl
_symmetry_space_group_name_H-M   'P 1'
_cell_length_a   3.77709100
_cell_length_b   3.77708959
_cell_length_c   16.46091100
_cell_angle_alpha   90.00000000
_cell_angle_beta   90.00000000
_cell_angle_gamma   119.99998605
_symmetry_Int_Tables_number   1
_chemical_formula_structural   Dy2Mn2Cl
_chemical_formula_sum   'Dy4 Mn4 Cl2'
_cell_volume   203.37580937
_cell_formula_units_Z   2
loop_
 _symmetry_equiv_pos_site_id
 _symmetry_equiv_pos_as_xyz
  1  'x, y, z'
loop_
 _atom_site_type_symbol
 _atom_site_label
 _atom_site_symmetry_multiplicity
 _atom_site_fract_x
 _atom_site_fract_y
 _atom_site_fract_z
 _atom_site_occupancy
  Dy  Dy0  1  0.000000  0.000000  0.119473  1
  Dy  Dy1  1  0.000000  0.000000  0.380527  1
  Dy  Dy2  1  0.000000  0.000000  0.619473  1
  Dy  Dy3  1  0.000000  0.000000  0.880527  1
  Mn  Mn4  1  0.666666  0.333334  0.988396  1
  Mn  Mn5  1  0.333334  0.666667  0.011604  1
  Mn  Mn6  1  0.666666  0.333334  0.511604  1
  Mn  Mn7  1  0.333334  0.666667  0.488396  1
  Cl  Cl8  1  0.666666  0.333334  0.250000  1
  Cl  Cl9  1  0.333334  0.666667  0.750000  1
