# generated using pymatgen
data_Ho10SiSn6Hg
_symmetry_space_group_name_H-M   'P 1'
_cell_length_a   9.14181100
_cell_length_b   9.14181249
_cell_length_c   6.66711600
_cell_angle_alpha   90.00000000
_cell_angle_beta   90.00000000
_cell_angle_gamma   119.99999821
_symmetry_Int_Tables_number   1
_chemical_formula_structural   Ho10SiSn6Hg
_chemical_formula_sum   'Ho10 Si1 Sn6 Hg1'
_cell_volume   482.53986528
_cell_formula_units_Z   1
loop_
 _symmetry_equiv_pos_site_id
 _symmetry_equiv_pos_as_xyz
  1  'x, y, z'
loop_
 _atom_site_type_symbol
 _atom_site_label
 _atom_site_symmetry_multiplicity
 _atom_site_fract_x
 _atom_site_fract_y
 _atom_site_fract_z
 _atom_site_occupancy
  Ho  Ho0  1  0.666667  0.333333  0.000000  1
  Ho  Ho1  1  0.333333  0.666667  0.000000  1
  Ho  Ho2  1  0.333333  0.666667  0.500000  1
  Ho  Ho3  1  0.666667  0.333333  0.500000  1
  Ho  Ho4  1  0.737827  0.737827  0.724923  1
  Ho  Ho5  1  0.262173  0.000000  0.724923  1
  Ho  Ho6  1  0.000000  0.262173  0.724923  1
  Ho  Ho7  1  0.262173  0.262173  0.275077  1
  Ho  Ho8  1  0.737827  0.000000  0.275077  1
  Ho  Ho9  1  0.000000  0.737827  0.275077  1
  Si  Si10  1  0.000000  0.000000  0.500000  1
  Sn  Sn11  1  0.388604  0.388604  0.753091  1
  Sn  Sn12  1  0.611396  0.000000  0.753091  1
  Sn  Sn13  1  0.000000  0.611396  0.753091  1
  Sn  Sn14  1  0.611396  0.611396  0.246909  1
  Sn  Sn15  1  0.388604  0.000000  0.246909  1
  Sn  Sn16  1  0.000000  0.388604  0.246909  1
  Hg  Hg17  1  0.000000  0.000000  0.000000  1
