# generated using pymatgen
data_HfZr7Si16(Mo2W)4
_symmetry_space_group_name_H-M   'P 1'
_cell_length_a   6.62342943
_cell_length_b   6.78220582
_cell_length_c   12.64287502
_cell_angle_alpha   89.97384648
_cell_angle_beta   89.97654644
_cell_angle_gamma   90.00978919
_symmetry_Int_Tables_number   1
_chemical_formula_structural   HfZr7Si16(Mo2W)4
_chemical_formula_sum   'Hf1 Zr7 Si16 Mo8 W4'
_cell_volume   567.93631003
_cell_formula_units_Z   1
loop_
 _symmetry_equiv_pos_site_id
 _symmetry_equiv_pos_as_xyz
  1  'x, y, z'
loop_
 _atom_site_type_symbol
 _atom_site_label
 _atom_site_symmetry_multiplicity
 _atom_site_fract_x
 _atom_site_fract_y
 _atom_site_fract_z
 _atom_site_occupancy
  Hf  Hf0  1  0.506723  0.672060  0.593534  1
  Zr  Zr1  1  0.994294  0.172147  0.093597  1
  Zr  Zr2  1  0.005830  0.827711  0.906390  1
  Zr  Zr3  1  0.505627  0.672176  0.906811  1
  Zr  Zr4  1  0.005891  0.827714  0.593439  1
  Zr  Zr5  1  0.494429  0.327674  0.093562  1
  Zr  Zr6  1  0.994493  0.172474  0.406549  1
  Zr  Zr7  1  0.494312  0.327950  0.406790  1
  Si  Si8  1  0.032640  0.123708  0.749821  1
  Si  Si9  1  0.966965  0.876309  0.250124  1
  Si  Si10  1  0.467088  0.623537  0.249958  1
  Si  Si11  1  0.532483  0.376955  0.749749  1
  Si  Si12  1  0.301620  0.862038  0.749531  1
  Si  Si13  1  0.698999  0.137299  0.250206  1
  Si  Si14  1  0.199148  0.362599  0.250031  1
  Si  Si15  1  0.800473  0.637517  0.749743  1
  Si  Si16  1  0.167444  0.459534  0.543294  1
  Si  Si17  1  0.833368  0.541132  0.457022  1
  Si  Si18  1  0.333649  0.958714  0.457140  1
  Si  Si19  1  0.833721  0.541112  0.043181  1
  Si  Si20  1  0.666185  0.040391  0.543362  1
  Si  Si21  1  0.166344  0.458784  0.956764  1
  Si  Si22  1  0.666410  0.041121  0.956765  1
  Si  Si23  1  0.333694  0.958963  0.043225  1
  Mo  Mo24  1  0.330550  0.164507  0.624102  1
  Mo  Mo25  1  0.668521  0.834780  0.376450  1
  Mo  Mo26  1  0.169475  0.664596  0.375945  1
  Mo  Mo27  1  0.669372  0.835333  0.124409  1
  Mo  Mo28  1  0.829585  0.336479  0.624068  1
  Mo  Mo29  1  0.330719  0.164499  0.875507  1
  Mo  Mo30  1  0.830609  0.335797  0.875538  1
  Mo  Mo31  1  0.169170  0.664550  0.124244  1
  W  W32  1  0.167298  0.510966  0.749383  1
  W  W33  1  0.833300  0.489415  0.250195  1
  W  W34  1  0.333226  0.010488  0.250162  1
  W  W35  1  0.666347  0.988973  0.749415  1
