# generated using pymatgen
data_Ho2Er8CoBi5
_symmetry_space_group_name_H-M   'P 1'
_cell_length_a   8.00578700
_cell_length_b   9.34229600
_cell_length_c   12.02514300
_cell_angle_alpha   90.00000000
_cell_angle_beta   90.00000000
_cell_angle_gamma   90.00000000
_symmetry_Int_Tables_number   1
_chemical_formula_structural   Ho2Er8CoBi5
_chemical_formula_sum   'Ho4 Er16 Co2 Bi10'
_cell_volume   899.38968852
_cell_formula_units_Z   2
loop_
 _symmetry_equiv_pos_site_id
 _symmetry_equiv_pos_as_xyz
  1  'x, y, z'
loop_
 _atom_site_type_symbol
 _atom_site_label
 _atom_site_symmetry_multiplicity
 _atom_site_fract_x
 _atom_site_fract_y
 _atom_site_fract_z
 _atom_site_occupancy
  Ho  Ho0  1  0.573092  0.500000  0.772535  1
  Ho  Ho1  1  0.426908  0.500000  0.272535  1
  Ho  Ho2  1  0.259903  0.500000  0.993738  1
  Ho  Ho3  1  0.740097  0.500000  0.493738  1
  Er  Er4  1  0.428990  0.176709  0.563044  1
  Er  Er5  1  0.571010  0.823291  0.063044  1
  Er  Er6  1  0.070631  0.729331  0.436412  1
  Er  Er7  1  0.929369  0.270669  0.936412  1
  Er  Er8  1  0.070631  0.270669  0.436412  1
  Er  Er9  1  0.929369  0.729331  0.936412  1
  Er  Er10  1  0.428990  0.823291  0.563044  1
  Er  Er11  1  0.571010  0.176709  0.063044  1
  Er  Er12  1  0.907847  0.000000  0.201036  1
  Er  Er13  1  0.092153  0.000000  0.701036  1
  Er  Er14  1  0.198664  0.000000  0.996543  1
  Er  Er15  1  0.801336  0.000000  0.496543  1
  Er  Er16  1  0.089883  0.500000  0.718525  1
  Er  Er17  1  0.910117  0.500000  0.218525  1
  Er  Er18  1  0.371586  0.000000  0.308646  1
  Er  Er19  1  0.628414  0.000000  0.808646  1
  Co  Co20  1  0.172161  0.000000  0.488335  1
  Co  Co21  1  0.827839  0.000000  0.988335  1
  Bi  Bi22  1  0.814165  0.741757  0.672168  1
  Bi  Bi23  1  0.185835  0.258243  0.172168  1
  Bi  Bi24  1  0.680096  0.241448  0.325078  1
  Bi  Bi25  1  0.319904  0.758552  0.825078  1
  Bi  Bi26  1  0.680096  0.758552  0.325078  1
  Bi  Bi27  1  0.319904  0.241448  0.825078  1
  Bi  Bi28  1  0.814165  0.258243  0.672168  1
  Bi  Bi29  1  0.185835  0.741757  0.172168  1
  Bi  Bi30  1  0.345337  0.500000  0.527239  1
  Bi  Bi31  1  0.654663  0.500000  0.027239  1
