# generated using pymatgen
data_Tb7Y9(ZnCo)4
_symmetry_space_group_name_H-M   'P 1'
_cell_length_a   9.37439560
_cell_length_b   9.37146678
_cell_length_c   9.38411511
_cell_angle_alpha   59.99380199
_cell_angle_beta   60.06323720
_cell_angle_gamma   60.07275664
_symmetry_Int_Tables_number   1
_chemical_formula_structural   Tb7Y9(ZnCo)4
_chemical_formula_sum   'Tb7 Y9 Zn4 Co4'
_cell_volume   583.51815555
_cell_formula_units_Z   1
loop_
 _symmetry_equiv_pos_site_id
 _symmetry_equiv_pos_as_xyz
  1  'x, y, z'
loop_
 _atom_site_type_symbol
 _atom_site_label
 _atom_site_symmetry_multiplicity
 _atom_site_fract_x
 _atom_site_fract_y
 _atom_site_fract_z
 _atom_site_occupancy
  Tb  Tb0  1  0.600031  0.599972  0.600455  1
  Tb  Tb1  1  0.600253  0.599628  0.199749  1
  Tb  Tb2  1  0.600452  0.199780  0.599739  1
  Tb  Tb3  1  0.199705  0.600256  0.600160  1
  Tb  Tb4  1  0.059310  0.440456  0.440349  1
  Tb  Tb5  1  0.440443  0.059873  0.059278  1
  Tb  Tb6  1  0.440496  0.059597  0.440507  1
  Y  Y7  1  0.059273  0.440711  0.059399  1
  Y  Y8  1  0.440708  0.440797  0.059012  1
  Y  Y9  1  0.058873  0.059633  0.440773  1
  Y  Y10  1  0.187653  0.812572  0.812124  1
  Y  Y11  1  0.812289  0.187518  0.187596  1
  Y  Y12  1  0.812265  0.187723  0.812225  1
  Y  Y13  1  0.187760  0.812301  0.187699  1
  Y  Y14  1  0.811879  0.812164  0.187985  1
  Y  Y15  1  0.187902  0.187699  0.812096  1
  Zn  Zn16  1  0.827103  0.826601  0.826664  1
  Zn  Zn17  1  0.827021  0.827006  0.519490  1
  Zn  Zn18  1  0.826660  0.519642  0.827143  1
  Zn  Zn19  1  0.519442  0.826562  0.827049  1
  Co  Co20  1  0.391198  0.391321  0.393022  1
  Co  Co21  1  0.392636  0.390872  0.823670  1
  Co  Co22  1  0.393018  0.824537  0.391175  1
  Co  Co23  1  0.823631  0.392784  0.392642  1
