# generated using pymatgen
data_Pr7Er12ThSn16
_symmetry_space_group_name_H-M   'P 1'
_cell_length_a   8.11931642
_cell_length_b   8.26478031
_cell_length_c   15.58133939
_cell_angle_alpha   90.12848307
_cell_angle_beta   89.96760986
_cell_angle_gamma   89.98268569
_symmetry_Int_Tables_number   1
_chemical_formula_structural   Pr7Er12ThSn16
_chemical_formula_sum   'Pr7 Er12 Th1 Sn16'
_cell_volume   1045.57306349
_cell_formula_units_Z   1
loop_
 _symmetry_equiv_pos_site_id
 _symmetry_equiv_pos_as_xyz
  1  'x, y, z'
loop_
 _atom_site_type_symbol
 _atom_site_label
 _atom_site_symmetry_multiplicity
 _atom_site_fract_x
 _atom_site_fract_y
 _atom_site_fract_z
 _atom_site_occupancy
  Pr  Pr0  1  0.015943  0.177512  0.597020  1
  Pr  Pr1  1  0.484476  0.678226  0.403120  1
  Pr  Pr2  1  0.984498  0.821986  0.096742  1
  Pr  Pr3  1  0.484064  0.677769  0.096946  1
  Pr  Pr4  1  0.984551  0.821662  0.403057  1
  Pr  Pr5  1  0.516487  0.321771  0.597538  1
  Pr  Pr6  1  0.017195  0.178844  0.903109  1
  Er  Er7  1  0.361483  0.836688  0.876652  1
  Er  Er8  1  0.861157  0.663209  0.623713  1
  Er  Er9  1  0.638960  0.163148  0.376911  1
  Er  Er10  1  0.138365  0.337075  0.122620  1
  Er  Er11  1  0.637508  0.163718  0.122965  1
  Er  Er12  1  0.138107  0.336333  0.376984  1
  Er  Er13  1  0.361756  0.836033  0.623936  1
  Er  Er14  1  0.861678  0.663896  0.876914  1
  Er  Er15  1  0.194278  0.503731  0.749674  1
  Er  Er16  1  0.693949  0.997617  0.749964  1
  Er  Er17  1  0.804790  0.496897  0.249620  1
  Er  Er18  1  0.304793  0.003602  0.250368  1
  Th  Th19  1  0.516000  0.321063  0.902730  1
  Sn  Sn20  1  0.303853  0.043220  0.041474  1
  Sn  Sn21  1  0.803296  0.458207  0.457968  1
  Sn  Sn22  1  0.696423  0.958063  0.542548  1
  Sn  Sn23  1  0.200097  0.539395  0.956901  1
  Sn  Sn24  1  0.696923  0.962024  0.956642  1
  Sn  Sn25  1  0.196751  0.541152  0.542584  1
  Sn  Sn26  1  0.303700  0.041417  0.458148  1
  Sn  Sn27  1  0.800169  0.457759  0.041007  1
  Sn  Sn28  1  0.559678  0.624648  0.751669  1
  Sn  Sn29  1  0.059587  0.873802  0.750024  1
  Sn  Sn30  1  0.439146  0.374224  0.250097  1
  Sn  Sn31  1  0.939519  0.126303  0.249754  1
  Sn  Sn32  1  0.325114  0.141999  0.750361  1
  Sn  Sn33  1  0.824752  0.356948  0.750544  1
  Sn  Sn34  1  0.675313  0.858315  0.249840  1
  Sn  Sn35  1  0.175640  0.641744  0.249854  1
