# generated using pymatgen
data_TaNb4(NiP)4
_symmetry_space_group_name_H-M   'P 1'
_cell_length_a   7.25272061
_cell_length_b   7.25272119
_cell_length_c   7.25272066
_cell_angle_alpha   93.39544695
_cell_angle_beta   93.39544759
_cell_angle_gamma   151.82943214
_symmetry_Int_Tables_number   1
_chemical_formula_structural   TaNb4(NiP)4
_chemical_formula_sum   'Ta1 Nb4 Ni4 P4'
_cell_volume   174.69377063
_cell_formula_units_Z   1
loop_
 _symmetry_equiv_pos_site_id
 _symmetry_equiv_pos_as_xyz
  1  'x, y, z'
loop_
 _atom_site_type_symbol
 _atom_site_label
 _atom_site_symmetry_multiplicity
 _atom_site_fract_x
 _atom_site_fract_y
 _atom_site_fract_z
 _atom_site_occupancy
  Ta  Ta0  1  0.500000  0.500000  0.000000  1
  Nb  Nb1  1  0.805441  0.130848  0.936288  1
  Nb  Nb2  1  0.130848  0.194559  0.325407  1
  Nb  Nb3  1  0.869152  0.805441  0.674593  1
  Nb  Nb4  1  0.194559  0.869152  0.063712  1
  Ni  Ni5  1  0.915443  0.390424  0.305867  1
  Ni  Ni6  1  0.084557  0.609576  0.694133  1
  Ni  Ni7  1  0.609576  0.915443  0.525017  1
  Ni  Ni8  1  0.390424  0.084557  0.474983  1
  P  P9  1  0.555825  0.240975  0.796800  1
  P  P10  1  0.240975  0.444175  0.685149  1
  P  P11  1  0.759025  0.555825  0.314851  1
  P  P12  1  0.444175  0.759025  0.203200  1
