# generated using pymatgen
data_Tb3Tm3Al24Os7Pt
_symmetry_space_group_name_H-M   'P 1'
_cell_length_a   8.84050468
_cell_length_b   8.82844796
_cell_length_c   9.54658813
_cell_angle_alpha   89.61349830
_cell_angle_beta   90.36655064
_cell_angle_gamma   119.99559146
_symmetry_Int_Tables_number   1
_chemical_formula_structural   Tb3Tm3Al24Os7Pt
_chemical_formula_sum   'Tb3 Tm3 Al24 Os7 Pt1'
_cell_volume   645.27820734
_cell_formula_units_Z   1
loop_
 _symmetry_equiv_pos_site_id
 _symmetry_equiv_pos_as_xyz
  1  'x, y, z'
loop_
 _atom_site_type_symbol
 _atom_site_label
 _atom_site_symmetry_multiplicity
 _atom_site_fract_x
 _atom_site_fract_y
 _atom_site_fract_z
 _atom_site_occupancy
  Tb  Tb0  1  0.190152  0.386048  0.251422  1
  Tb  Tb1  1  0.809632  0.614170  0.748538  1
  Tb  Tb2  1  0.613732  0.809590  0.251460  1
  Tm  Tm3  1  0.388670  0.191033  0.747949  1
  Tm  Tm4  1  0.195711  0.803724  0.251841  1
  Tm  Tm5  1  0.804032  0.195986  0.748117  1
  Al  Al6  1  0.331274  0.668535  0.020718  1
  Al  Al7  1  0.668115  0.331792  0.978488  1
  Al  Al8  1  0.666236  0.333365  0.517627  1
  Al  Al9  1  0.333184  0.666092  0.483038  1
  Al  Al10  1  0.163861  0.325355  0.577977  1
  Al  Al11  1  0.836485  0.674051  0.422660  1
  Al  Al12  1  0.674387  0.836690  0.578067  1
  Al  Al13  1  0.842391  0.675226  0.077570  1
  Al  Al14  1  0.325384  0.163073  0.423170  1
  Al  Al15  1  0.157872  0.324497  0.921979  1
  Al  Al16  1  0.163769  0.837032  0.575321  1
  Al  Al17  1  0.324455  0.157580  0.076824  1
  Al  Al18  1  0.836195  0.163431  0.425293  1
  Al  Al19  1  0.675397  0.842528  0.921864  1
  Al  Al20  1  0.836523  0.163263  0.074505  1
  Al  Al21  1  0.163479  0.837457  0.924731  1
  Al  Al22  1  0.559526  0.121995  0.248811  1
  Al  Al23  1  0.439880  0.878640  0.750919  1
  Al  Al24  1  0.877820  0.440024  0.249012  1
  Al  Al25  1  0.122053  0.559915  0.751035  1
  Al  Al26  1  0.561810  0.437649  0.252089  1
  Al  Al27  1  0.437801  0.560968  0.748438  1
  Al  Al28  1  0.000810  0.998787  0.250138  1
  Al  Al29  1  0.001528  0.002304  0.749946  1
  Os  Os30  1  0.499654  0.000518  0.999288  1
  Os  Os31  1  0.999696  0.499828  0.999864  1
  Os  Os32  1  0.499659  0.000210  0.500462  1
  Os  Os33  1  0.999668  0.499773  0.500180  1
  Os  Os34  1  0.499732  0.499247  0.500667  1
  Os  Os35  1  0.999797  0.999948  0.999966  1
  Os  Os36  1  0.999794  0.999888  0.500138  1
  Pt  Pt37  1  0.499838  0.499789  0.999887  1
