# generated using pymatgen
data_Tc3Mo3Pd8
_symmetry_space_group_name_H-M   'P 1'
_cell_length_a   7.46785801
_cell_length_b   7.46660502
_cell_length_c   4.42248300
_cell_angle_alpha   90.00000000
_cell_angle_beta   90.00000000
_cell_angle_gamma   59.99870093
_symmetry_Int_Tables_number   1
_chemical_formula_structural   Tc3Mo3Pd8
_chemical_formula_sum   'Tc3 Mo3 Pd8'
_cell_volume   213.55529734
_cell_formula_units_Z   1
loop_
 _symmetry_equiv_pos_site_id
 _symmetry_equiv_pos_as_xyz
  1  'x, y, z'
loop_
 _atom_site_type_symbol
 _atom_site_label
 _atom_site_symmetry_multiplicity
 _atom_site_fract_x
 _atom_site_fract_y
 _atom_site_fract_z
 _atom_site_occupancy
  Tc  Tc0  1  0.525581  0.393943  0.500000  1
  Tc  Tc1  1  0.651992  0.668690  0.500000  1
  Tc  Tc2  1  0.251026  0.794567  0.500000  1
  Mo  Mo3  1  0.704338  0.441483  0.000000  1
  Mo  Mo4  1  0.298270  0.568447  0.000000  1
  Mo  Mo5  1  0.425841  0.847121  0.000000  1
  Pd  Pd6  1  0.572564  0.144409  0.000000  1
  Pd  Pd7  1  0.142739  0.285573  0.000000  1
  Pd  Pd8  1  0.854518  0.715505  0.000000  1
  Pd  Pd9  1  0.001777  0.997195  0.000000  1
  Pd  Pd10  1  0.380553  0.094488  0.500000  1
  Pd  Pd11  1  0.951391  0.239368  0.500000  1
  Pd  Pd12  1  0.096324  0.523288  0.500000  1
  Pd  Pd13  1  0.809646  0.952489  0.500000  1
