# generated using pymatgen
data_Th2Sc3Ga3Si
_symmetry_space_group_name_H-M   'P 1'
_cell_length_a   7.35790500
_cell_length_b   7.65463400
_cell_length_c   14.45125300
_cell_angle_alpha   90.00000000
_cell_angle_beta   90.00000000
_cell_angle_gamma   90.00000000
_symmetry_Int_Tables_number   1
_chemical_formula_structural   Th2Sc3Ga3Si
_chemical_formula_sum   'Th8 Sc12 Ga12 Si4'
_cell_volume   813.92447990
_cell_formula_units_Z   4
loop_
 _symmetry_equiv_pos_site_id
 _symmetry_equiv_pos_as_xyz
  1  'x, y, z'
loop_
 _atom_site_type_symbol
 _atom_site_label
 _atom_site_symmetry_multiplicity
 _atom_site_fract_x
 _atom_site_fract_y
 _atom_site_fract_z
 _atom_site_occupancy
  Th  Th0  1  0.008964  0.179050  0.098344  1
  Th  Th1  1  0.991036  0.820950  0.901656  1
  Th  Th2  1  0.491036  0.679050  0.901656  1
  Th  Th3  1  0.991036  0.820950  0.598344  1
  Th  Th4  1  0.508964  0.320950  0.098344  1
  Th  Th5  1  0.008964  0.179050  0.401656  1
  Th  Th6  1  0.508964  0.320950  0.401656  1
  Th  Th7  1  0.491036  0.679050  0.598344  1
  Sc  Sc8  1  0.161500  0.505160  0.750000  1
  Sc  Sc9  1  0.838500  0.494840  0.250000  1
  Sc  Sc10  1  0.338500  0.005160  0.250000  1
  Sc  Sc11  1  0.661500  0.994840  0.750000  1
  Sc  Sc12  1  0.329102  0.170933  0.625796  1
  Sc  Sc13  1  0.670898  0.829067  0.374204  1
  Sc  Sc14  1  0.170898  0.670933  0.374204  1
  Sc  Sc15  1  0.670898  0.829067  0.125796  1
  Sc  Sc16  1  0.829102  0.329067  0.625796  1
  Sc  Sc17  1  0.329102  0.170933  0.874204  1
  Sc  Sc18  1  0.829102  0.329067  0.874204  1
  Sc  Sc19  1  0.170898  0.670933  0.125796  1
  Ga  Ga20  1  0.031065  0.119812  0.750000  1
  Ga  Ga21  1  0.968935  0.880188  0.250000  1
  Ga  Ga22  1  0.468935  0.619812  0.250000  1
  Ga  Ga23  1  0.531065  0.380188  0.750000  1
  Ga  Ga24  1  0.161056  0.461064  0.540143  1
  Ga  Ga25  1  0.838944  0.538936  0.459857  1
  Ga  Ga26  1  0.338944  0.961064  0.459857  1
  Ga  Ga27  1  0.838944  0.538936  0.040143  1
  Ga  Ga28  1  0.661056  0.038936  0.540143  1
  Ga  Ga29  1  0.161056  0.461064  0.959857  1
  Ga  Ga30  1  0.661056  0.038936  0.959857  1
  Ga  Ga31  1  0.338944  0.961064  0.040143  1
  Si  Si32  1  0.290157  0.877780  0.750000  1
  Si  Si33  1  0.709843  0.122220  0.250000  1
  Si  Si34  1  0.209843  0.377780  0.250000  1
  Si  Si35  1  0.790157  0.622220  0.750000  1
