# generated using pymatgen
data_Cs4Al3Ga(SiSe4)4
_symmetry_space_group_name_H-M   'P 1'
_cell_length_a   17.11678471
_cell_length_b   7.29395552
_cell_length_c   8.26985462
_cell_angle_alpha   70.49477417
_cell_angle_beta   90.12388004
_cell_angle_gamma   89.92238645
_symmetry_Int_Tables_number   1
_chemical_formula_structural   Cs4Al3Ga(SiSe4)4
_chemical_formula_sum   'Cs4 Al3 Ga1 Si4 Se16'
_cell_volume   973.22583196
_cell_formula_units_Z   1
loop_
 _symmetry_equiv_pos_site_id
 _symmetry_equiv_pos_as_xyz
  1  'x, y, z'
loop_
 _atom_site_type_symbol
 _atom_site_label
 _atom_site_symmetry_multiplicity
 _atom_site_fract_x
 _atom_site_fract_y
 _atom_site_fract_z
 _atom_site_occupancy
  Cs  Cs0  1  0.395372  0.943491  0.181154  1
  Cs  Cs1  1  0.896543  0.055158  0.819010  1
  Cs  Cs2  1  0.602159  0.532096  0.833915  1
  Cs  Cs3  1  0.103221  0.471787  0.166004  1
  Al  Al4  1  0.582992  0.168431  0.481325  1
  Al  Al5  1  0.083402  0.831426  0.519368  1
  Al  Al6  1  0.271156  0.583175  0.694340  1
  Ga  Ga7  1  0.770501  0.413777  0.305934  1
  Si  Si8  1  0.421086  0.313424  0.541314  1
  Si  Si9  1  0.921175  0.687441  0.459100  1
  Si  Si10  1  0.726483  0.917977  0.284104  1
  Si  Si11  1  0.227067  0.081482  0.714629  1
  Se  Se12  1  0.600526  0.893133  0.384100  1
  Se  Se13  1  0.100986  0.108455  0.614278  1
  Se  Se14  1  0.408630  0.580920  0.625882  1
  Se  Se15  1  0.909671  0.418940  0.376066  1
  Se  Se16  1  0.802934  0.796049  0.530993  1
  Se  Se17  1  0.303155  0.203876  0.468279  1
  Se  Se18  1  0.199990  0.713992  0.435410  1
  Se  Se19  1  0.699319  0.284471  0.567775  1
  Se  Se20  1  0.763162  0.222766  0.111291  1
  Se  Se21  1  0.263550  0.774229  0.885808  1
  Se  Se22  1  0.236137  0.263397  0.892855  1
  Se  Se23  1  0.735534  0.737805  0.105191  1
  Se  Se24  1  0.997080  0.920826  0.269372  1
  Se  Se25  1  0.497575  0.080685  0.731981  1
  Se  Se26  1  0.990711  0.609034  0.711606  1
  Se  Se27  1  0.489876  0.391758  0.288916  1
