# generated using pymatgen
data_Ti8Al15RuPt6
_symmetry_space_group_name_H-M   'P 1'
_cell_length_a   8.69356067
_cell_length_b   8.69356135
_cell_length_c   8.69356033
_cell_angle_alpha   120.16762432
_cell_angle_beta   119.74930418
_cell_angle_gamma   90.07234396
_symmetry_Int_Tables_number   1
_chemical_formula_structural   Ti8Al15RuPt6
_chemical_formula_sum   'Ti8 Al15 Ru1 Pt6'
_cell_volume   464.88232795
_cell_formula_units_Z   1
loop_
 _symmetry_equiv_pos_site_id
 _symmetry_equiv_pos_as_xyz
  1  'x, y, z'
loop_
 _atom_site_type_symbol
 _atom_site_label
 _atom_site_symmetry_multiplicity
 _atom_site_fract_x
 _atom_site_fract_y
 _atom_site_fract_z
 _atom_site_occupancy
  Ti  Ti0  1  0.786977  0.289285  0.075526  1
  Ti  Ti1  1  0.213759  0.289285  0.502308  1
  Ti  Ti2  1  0.212678  0.712678  0.500000  1
  Ti  Ti3  1  0.213759  0.711451  0.924474  1
  Ti  Ti4  1  0.786977  0.711451  0.497692  1
  Ti  Ti5  1  0.786901  0.286901  0.500000  1
  Ti  Ti6  1  0.381374  0.120632  0.739258  1
  Ti  Ti7  1  0.381374  0.642118  0.260742  1
  Al  Al8  1  0.999715  0.499715  0.500000  1
  Al  Al9  1  0.155595  0.347019  0.191423  1
  Al  Al10  1  0.155595  0.964171  0.808577  1
  Al  Al11  1  0.156693  0.343786  0.812906  1
  Al  Al12  1  0.530879  0.343786  0.187094  1
  Al  Al13  1  0.845610  0.654713  0.809104  1
  Al  Al14  1  0.845610  0.036506  0.190896  1
  Al  Al15  1  0.845206  0.654960  0.190244  1
  Al  Al16  1  0.464716  0.654960  0.809756  1
  Al  Al17  1  0.380937  0.119284  0.261654  1
  Al  Al18  1  0.857630  0.119284  0.738346  1
  Al  Al19  1  0.620297  0.879817  0.259521  1
  Al  Al20  1  0.620297  0.360776  0.740479  1
  Al  Al21  1  0.620637  0.879604  0.741034  1
  Al  Al22  1  0.138568  0.879604  0.258966  1
  Ru  Ru23  1  0.498032  0.998032  0.500000  1
  Pt  Pt24  1  0.998056  0.999619  0.498844  1
  Pt  Pt25  1  0.500774  0.999619  0.001563  1
  Pt  Pt26  1  0.501325  0.501325  0.000000  1
  Pt  Pt27  1  0.500774  0.499212  0.501156  1
  Pt  Pt28  1  0.998056  0.499212  0.998437  1
  Pt  Pt29  1  0.001196  0.001196  0.000000  1
