# generated using pymatgen
data_Li3Ta3RuRh5
_symmetry_space_group_name_H-M   'P 1'
_cell_length_a   4.36331600
_cell_length_b   6.12602000
_cell_length_c   13.02766800
_cell_angle_alpha   89.99917506
_cell_angle_beta   89.99926729
_cell_angle_gamma   90.00055634
_symmetry_Int_Tables_number   1
_chemical_formula_structural   Li3Ta3RuRh5
_chemical_formula_sum   'Li6 Ta6 Ru2 Rh10'
_cell_volume   348.22645306
_cell_formula_units_Z   2
loop_
 _symmetry_equiv_pos_site_id
 _symmetry_equiv_pos_as_xyz
  1  'x, y, z'
loop_
 _atom_site_type_symbol
 _atom_site_label
 _atom_site_symmetry_multiplicity
 _atom_site_fract_x
 _atom_site_fract_y
 _atom_site_fract_z
 _atom_site_occupancy
  Li  Li0  1  0.000002  0.500003  0.999822  1
  Li  Li1  1  0.499780  0.000001  0.166619  1
  Li  Li2  1  0.999779  0.500001  0.333341  1
  Li  Li3  1  0.499996  0.000003  0.500043  1
  Li  Li4  1  0.000210  0.500006  0.666826  1
  Li  Li5  1  0.500222  0.000001  0.833343  1
  Ta  Ta6  1  0.000013  0.999999  0.995475  1
  Ta  Ta7  1  0.499816  0.500000  0.166501  1
  Ta  Ta8  1  0.999817  0.999999  0.333334  1
  Ta  Ta9  1  0.499997  0.500000  0.500159  1
  Ta  Ta10  1  0.000193  0.999999  0.671203  1
  Ta  Ta11  1  0.500181  0.500000  0.833336  1
  Ru  Ru12  1  0.000182  0.250335  0.833320  1
  Ru  Ru13  1  0.000186  0.749662  0.833320  1
  Rh  Rh14  1  0.500010  0.249996  0.000793  1
  Rh  Rh15  1  0.500007  0.750007  0.000801  1
  Rh  Rh16  1  0.999812  0.250147  0.167423  1
  Rh  Rh17  1  0.999814  0.749867  0.167418  1
  Rh  Rh18  1  0.499815  0.249825  0.333333  1
  Rh  Rh19  1  0.499816  0.750146  0.333336  1
  Rh  Rh20  1  0.999991  0.250146  0.499250  1
  Rh  Rh21  1  0.999993  0.749859  0.499254  1
  Rh  Rh22  1  0.500185  0.250006  0.665879  1
  Rh  Rh23  1  0.500185  0.749990  0.665871  1
