# generated using pymatgen
data_TaNi21SnB6
_symmetry_space_group_name_H-M   'P 1'
_cell_length_a   7.46304117
_cell_length_b   7.46304077
_cell_length_c   7.46304100
_cell_angle_alpha   59.99999454
_cell_angle_beta   59.99999631
_cell_angle_gamma   59.99999833
_symmetry_Int_Tables_number   1
_chemical_formula_structural   TaNi21SnB6
_chemical_formula_sum   'Ta1 Ni21 Sn1 B6'
_cell_volume   293.92223784
_cell_formula_units_Z   1
loop_
 _symmetry_equiv_pos_site_id
 _symmetry_equiv_pos_as_xyz
  1  'x, y, z'
loop_
 _atom_site_type_symbol
 _atom_site_label
 _atom_site_symmetry_multiplicity
 _atom_site_fract_x
 _atom_site_fract_y
 _atom_site_fract_z
 _atom_site_occupancy
  Ta  Ta0  1  0.250000  0.250000  0.250000  1
  Ni  Ni1  1  0.000000  0.000000  0.000000  1
  Ni  Ni2  1  0.614105  0.614105  0.157684  1
  Ni  Ni3  1  0.614105  0.157684  0.614105  1
  Ni  Ni4  1  0.157684  0.614105  0.614105  1
  Ni  Ni5  1  0.614105  0.614105  0.614105  1
  Ni  Ni6  1  0.384077  0.384077  0.847769  1
  Ni  Ni7  1  0.384077  0.847769  0.384077  1
  Ni  Ni8  1  0.847769  0.384077  0.384077  1
  Ni  Ni9  1  0.384077  0.384077  0.384077  1
  Ni  Ni10  1  0.003159  0.003159  0.335610  1
  Ni  Ni11  1  0.658072  0.003159  0.335610  1
  Ni  Ni12  1  0.003159  0.658072  0.335610  1
  Ni  Ni13  1  0.658072  0.335610  0.003159  1
  Ni  Ni14  1  0.003159  0.335610  0.003159  1
  Ni  Ni15  1  0.003159  0.335610  0.658072  1
  Ni  Ni16  1  0.335610  0.658072  0.003159  1
  Ni  Ni17  1  0.335610  0.003159  0.658072  1
  Ni  Ni18  1  0.335610  0.003159  0.003159  1
  Ni  Ni19  1  0.003159  0.003159  0.658072  1
  Ni  Ni20  1  0.003159  0.658072  0.003159  1
  Ni  Ni21  1  0.658072  0.003159  0.003159  1
  Sn  Sn22  1  0.750000  0.750000  0.750000  1
  B  B23  1  0.730861  0.730861  0.269139  1
  B  B24  1  0.269139  0.730861  0.269139  1
  B  B25  1  0.730861  0.269139  0.269139  1
  B  B26  1  0.269139  0.269139  0.730861  1
  B  B27  1  0.730861  0.269139  0.730861  1
  B  B28  1  0.269139  0.730861  0.730861  1
