# generated using pymatgen
data_V12Ga4Cu3NiN4
_symmetry_space_group_name_H-M   'P 1'
_cell_length_a   6.51976304
_cell_length_b   6.51976304
_cell_length_c   6.51976304
_cell_angle_alpha   89.99103587
_cell_angle_beta   89.99103587
_cell_angle_gamma   89.99103587
_symmetry_Int_Tables_number   1
_chemical_formula_structural   V12Ga4Cu3NiN4
_chemical_formula_sum   'V12 Ga4 Cu3 Ni1 N4'
_cell_volume   277.13757912
_cell_formula_units_Z   1
loop_
 _symmetry_equiv_pos_site_id
 _symmetry_equiv_pos_as_xyz
  1  'x, y, z'
loop_
 _atom_site_type_symbol
 _atom_site_label
 _atom_site_symmetry_multiplicity
 _atom_site_fract_x
 _atom_site_fract_y
 _atom_site_fract_z
 _atom_site_occupancy
  V  V0  1  0.787221  0.959278  0.376369  1
  V  V1  1  0.711958  0.036767  0.873681  1
  V  V2  1  0.211799  0.461091  0.125440  1
  V  V3  1  0.290318  0.539345  0.625857  1
  V  V4  1  0.959278  0.376369  0.787221  1
  V  V5  1  0.036767  0.873681  0.711958  1
  V  V6  1  0.461091  0.125440  0.211799  1
  V  V7  1  0.539345  0.625857  0.290318  1
  V  V8  1  0.376369  0.787221  0.959278  1
  V  V9  1  0.873681  0.711958  0.036767  1
  V  V10  1  0.125440  0.211799  0.461091  1
  V  V11  1  0.625857  0.290318  0.539345  1
  Ga  Ga12  1  0.574750  0.427692  0.925188  1
  Ga  Ga13  1  0.427692  0.925188  0.574750  1
  Ga  Ga14  1  0.925188  0.574750  0.427692  1
  Ga  Ga15  1  0.073629  0.073629  0.073629  1
  Cu  Cu16  1  0.178308  0.821761  0.322105  1
  Cu  Cu17  1  0.322105  0.178308  0.821761  1
  Cu  Cu18  1  0.821761  0.322105  0.178308  1
  Ni  Ni19  1  0.677516  0.677516  0.677516  1
  N  N20  1  0.875898  0.124102  0.623469  1
  N  N21  1  0.623469  0.875898  0.124102  1
  N  N22  1  0.124102  0.623469  0.875898  1
  N  N23  1  0.376458  0.376458  0.376458  1
