# generated using pymatgen
data_Ca6NpNbO12
_symmetry_space_group_name_H-M   'P 1'
_cell_length_a   5.94872138
_cell_length_b   5.68071237
_cell_length_c   10.01103106
_cell_angle_alpha   55.55456577
_cell_angle_beta   91.05249369
_cell_angle_gamma   90.28713001
_symmetry_Int_Tables_number   1
_chemical_formula_structural   Ca6NpNbO12
_chemical_formula_sum   'Ca6 Np1 Nb1 O12'
_cell_volume   278.93332610
_cell_formula_units_Z   1
loop_
 _symmetry_equiv_pos_site_id
 _symmetry_equiv_pos_as_xyz
  1  'x, y, z'
loop_
 _atom_site_type_symbol
 _atom_site_label
 _atom_site_symmetry_multiplicity
 _atom_site_fract_x
 _atom_site_fract_y
 _atom_site_fract_z
 _atom_site_occupancy
  Ca  Ca0  1  0.048199  0.713071  0.782505  1
  Ca  Ca1  1  0.951801  0.286929  0.217495  1
  Ca  Ca2  1  0.562091  0.251246  0.769572  1
  Ca  Ca3  1  0.437909  0.748754  0.230428  1
  Ca  Ca4  1  0.500000  0.500000  0.000000  1
  Ca  Ca5  1  0.000000  0.500000  0.500000  1
  Np  Np6  1  0.500000  0.000000  0.500000  1
  Nb  Nb7  1  0.000000  0.000000  0.000000  1
  O  O8  1  0.435491  0.903147  0.726105  1
  O  O9  1  0.564509  0.096853  0.273895  1
  O  O10  1  0.937884  0.116729  0.768920  1
  O  O11  1  0.062116  0.883271  0.231080  1
  O  O12  1  0.783175  0.751839  0.583758  1
  O  O13  1  0.216825  0.248161  0.416242  1
  O  O14  1  0.282201  0.243972  0.932190  1
  O  O15  1  0.717799  0.756028  0.067810  1
  O  O16  1  0.329653  0.648183  0.561665  1
  O  O17  1  0.670347  0.351817  0.438335  1
  O  O18  1  0.817319  0.338929  0.952508  1
  O  O19  1  0.182681  0.661071  0.047492  1
