# generated using pymatgen
data_Yb8P5Cl
_symmetry_space_group_name_H-M   'P 1'
_cell_length_a   7.50278930
_cell_length_b   7.50278973
_cell_length_c   7.50278972
_cell_angle_alpha   109.55024312
_cell_angle_beta   109.55023896
_cell_angle_gamma   109.31328550
_symmetry_Int_Tables_number   1
_chemical_formula_structural   Yb8P5Cl
_chemical_formula_sum   'Yb8 P5 Cl1'
_cell_volume   325.12022560
_cell_formula_units_Z   1
loop_
 _symmetry_equiv_pos_site_id
 _symmetry_equiv_pos_as_xyz
  1  'x, y, z'
loop_
 _atom_site_type_symbol
 _atom_site_label
 _atom_site_symmetry_multiplicity
 _atom_site_fract_x
 _atom_site_fract_y
 _atom_site_fract_z
 _atom_site_occupancy
  Yb  Yb0  1  0.742845  0.359554  0.240445  1
  Yb  Yb1  1  0.976147  0.731395  0.097476  1
  Yb  Yb2  1  0.633920  0.878670  0.902524  1
  Yb  Yb3  1  0.119108  0.502400  0.759555  1
  Yb  Yb4  1  0.640446  0.880892  0.383292  1
  Yb  Yb5  1  0.497600  0.257155  0.616708  1
  Yb  Yb6  1  0.268605  0.366080  0.244750  1
  Yb  Yb7  1  0.121330  0.023853  0.755250  1
  P  P8  1  0.748155  0.632177  0.620458  1
  P  P9  1  0.367823  0.988281  0.115978  1
  P  P10  1  0.011719  0.127697  0.379542  1
  P  P11  1  0.500000  0.500000  0.000000  1
  P  P12  1  0.872303  0.251845  0.884022  1
  Cl  Cl13  1  0.250000  0.750000  0.500000  1
