# generated using pymatgen
data_NaFe2Cl7
_symmetry_space_group_name_H-M   'P 1'
_cell_length_a   9.52600928
_cell_length_b   8.73885167
_cell_length_c   6.95527200
_cell_angle_alpha   76.21679334
_cell_angle_beta   47.31326762
_cell_angle_gamma   66.89326909
_symmetry_Int_Tables_number   1
_chemical_formula_structural   NaFe2Cl7
_chemical_formula_sum   'Na1 Fe2 Cl7'
_cell_volume   391.13153070
_cell_formula_units_Z   1
loop_
 _symmetry_equiv_pos_site_id
 _symmetry_equiv_pos_as_xyz
  1  'x, y, z'
loop_
 _atom_site_type_symbol
 _atom_site_label
 _atom_site_symmetry_multiplicity
 _atom_site_fract_x
 _atom_site_fract_y
 _atom_site_fract_z
 _atom_site_occupancy
  Na  Na0  1  0.741989  0.801713  0.713558  1
  Fe  Fe1  1  0.270032  0.543155  0.398528  1
  Fe  Fe2  1  0.511643  0.074943  0.440104  1
  Cl  Cl3  1  0.519309  0.057992  0.124360  1
  Cl  Cl4  1  0.094544  0.522076  0.314895  1
  Cl  Cl5  1  0.279926  0.330474  0.671012  1
  Cl  Cl6  1  0.803845  0.047808  0.309532  1
  Cl  Cl7  1  0.579834  0.535474  0.053552  1
  Cl  Cl8  1  0.404067  0.888165  0.735251  1
  Cl  Cl9  1  0.087511  0.770340  0.646351  1
