# generated using pymatgen
data_Li2CeNdIr2
_symmetry_space_group_name_H-M   'P 1'
_cell_length_a   3.95386300
_cell_length_b   7.11548548
_cell_length_c   8.52403398
_cell_angle_alpha   87.77383527
_cell_angle_beta   90.00000000
_cell_angle_gamma   90.00000000
_symmetry_Int_Tables_number   1
_chemical_formula_structural   Li2CeNdIr2
_chemical_formula_sum   'Li4 Ce2 Nd2 Ir4'
_cell_volume   239.63123847
_cell_formula_units_Z   2
loop_
 _symmetry_equiv_pos_site_id
 _symmetry_equiv_pos_as_xyz
  1  'x, y, z'
loop_
 _atom_site_type_symbol
 _atom_site_label
 _atom_site_symmetry_multiplicity
 _atom_site_fract_x
 _atom_site_fract_y
 _atom_site_fract_z
 _atom_site_occupancy
  Li  Li0  1  0.250000  0.627058  0.554274  1
  Li  Li1  1  0.750000  0.372942  0.445726  1
  Li  Li2  1  0.750000  0.878362  0.051912  1
  Li  Li3  1  0.250000  0.121638  0.948088  1
  Ce  Ce4  1  0.750000  0.951664  0.683038  1
  Ce  Ce5  1  0.250000  0.048336  0.316962  1
  Nd  Nd6  1  0.250000  0.551704  0.179134  1
  Nd  Nd7  1  0.750000  0.448296  0.820866  1
  Ir  Ir8  1  0.250000  0.752501  0.860940  1
  Ir  Ir9  1  0.750000  0.247499  0.139060  1
  Ir  Ir10  1  0.750000  0.777139  0.375497  1
  Ir  Ir11  1  0.250000  0.222861  0.624503  1
