# generated using pymatgen
data_La7PrSe12
_symmetry_space_group_name_H-M   'P 1'
_cell_length_a   7.95393581
_cell_length_b   4.31391600
_cell_length_c   16.53974687
_cell_angle_alpha   90.00000000
_cell_angle_beta   90.09646397
_cell_angle_gamma   90.00000000
_symmetry_Int_Tables_number   1
_chemical_formula_structural   La7PrSe12
_chemical_formula_sum   'La7 Pr1 Se12'
_cell_volume   567.52109554
_cell_formula_units_Z   1
loop_
 _symmetry_equiv_pos_site_id
 _symmetry_equiv_pos_as_xyz
  1  'x, y, z'
loop_
 _atom_site_type_symbol
 _atom_site_label
 _atom_site_symmetry_multiplicity
 _atom_site_fract_x
 _atom_site_fract_y
 _atom_site_fract_z
 _atom_site_occupancy
  La  La0  1  0.143090  0.000000  0.204784  1
  La  La1  1  0.643469  0.000000  0.295063  1
  La  La2  1  0.234921  0.500000  0.456509  1
  La  La3  1  0.764997  0.000000  0.543649  1
  La  La4  1  0.356114  0.500000  0.704937  1
  La  La5  1  0.855918  0.500000  0.795818  1
  La  La6  1  0.266489  0.000000  0.956590  1
  Pr  Pr7  1  0.736022  0.500000  0.043798  1
  Se  Se8  1  0.125858  0.500000  0.067280  1
  Se  Se9  1  0.510034  0.000000  0.108841  1
  Se  Se10  1  0.853106  0.500000  0.218923  1
  Se  Se11  1  0.353977  0.500000  0.280287  1
  Se  Se12  1  0.008394  0.000000  0.390024  1
  Se  Se13  1  0.627663  0.500000  0.432601  1
  Se  Se14  1  0.372155  0.000000  0.567376  1
  Se  Se15  1  0.991510  0.500000  0.609707  1
  Se  Se16  1  0.646024  0.000000  0.719397  1
  Se  Se17  1  0.145679  0.000000  0.780590  1
  Se  Se18  1  0.492167  0.500000  0.890564  1
  Se  Se19  1  0.872415  0.000000  0.933262  1
