# generated using pymatgen
data_Co6Mo6Os
_symmetry_space_group_name_H-M   'P 1'
_cell_length_a   9.14836090
_cell_length_b   9.14836096
_cell_length_c   9.14836146
_cell_angle_alpha   30.10655032
_cell_angle_beta   30.10654983
_cell_angle_gamma   30.10654872
_symmetry_Int_Tables_number   1
_chemical_formula_structural   Co6Mo6Os
_chemical_formula_sum   'Co6 Mo6 Os1'
_cell_volume   170.66999498
_cell_formula_units_Z   1
loop_
 _symmetry_equiv_pos_site_id
 _symmetry_equiv_pos_as_xyz
  1  'x, y, z'
loop_
 _atom_site_type_symbol
 _atom_site_label
 _atom_site_symmetry_multiplicity
 _atom_site_fract_x
 _atom_site_fract_y
 _atom_site_fract_z
 _atom_site_occupancy
  Co  Co0  1  0.090412  0.090412  0.584188  1
  Co  Co1  1  0.415812  0.909588  0.909588  1
  Co  Co2  1  0.584188  0.090412  0.090412  1
  Co  Co3  1  0.909588  0.909588  0.415812  1
  Co  Co4  1  0.909588  0.415812  0.909588  1
  Co  Co5  1  0.090412  0.584188  0.090412  1
  Mo  Mo6  1  0.837730  0.837730  0.837730  1
  Mo  Mo7  1  0.650463  0.650463  0.650463  1
  Mo  Mo8  1  0.451398  0.451398  0.451398  1
  Mo  Mo9  1  0.548602  0.548602  0.548602  1
  Mo  Mo10  1  0.162270  0.162270  0.162270  1
  Mo  Mo11  1  0.349537  0.349537  0.349537  1
  Os  Os12  1  0.000000  0.000000  0.000000  1
