# generated using pymatgen
data_La5Te4P
_symmetry_space_group_name_H-M   'P 1'
_cell_length_a   7.91697541
_cell_length_b   7.91697387
_cell_length_c   11.08349900
_cell_angle_alpha   61.80064100
_cell_angle_beta   61.80064696
_cell_angle_gamma   33.04214124
_symmetry_Int_Tables_number   1
_chemical_formula_structural   La5Te4P
_chemical_formula_sum   'La5 Te4 P1'
_cell_volume   329.57989486
_cell_formula_units_Z   1
loop_
 _symmetry_equiv_pos_site_id
 _symmetry_equiv_pos_as_xyz
  1  'x, y, z'
loop_
 _atom_site_type_symbol
 _atom_site_label
 _atom_site_symmetry_multiplicity
 _atom_site_fract_x
 _atom_site_fract_y
 _atom_site_fract_z
 _atom_site_occupancy
  La  La0  1  0.000000  0.000000  0.500000  1
  La  La1  1  0.583155  0.583155  0.089990  1
  La  La2  1  0.184352  0.184352  0.730909  1
  La  La3  1  0.815648  0.815648  0.269091  1
  La  La4  1  0.416845  0.416845  0.910010  1
  Te  Te5  1  0.608498  0.608498  0.591109  1
  Te  Te6  1  0.195460  0.195460  0.192456  1
  Te  Te7  1  0.804540  0.804540  0.807544  1
  Te  Te8  1  0.391502  0.391502  0.408891  1
  P  P9  1  0.000000  0.000000  0.000000  1
