# generated using pymatgen
data_LiTb16In3Pd4
_symmetry_space_group_name_H-M   'P 1'
_cell_length_a   9.73922825
_cell_length_b   9.73922769
_cell_length_c   9.73922916
_cell_angle_alpha   60.29641256
_cell_angle_beta   60.29641758
_cell_angle_gamma   60.29640699
_symmetry_Int_Tables_number   1
_chemical_formula_structural   LiTb16In3Pd4
_chemical_formula_sum   'Li1 Tb16 In3 Pd4'
_cell_volume   657.60038118
_cell_formula_units_Z   1
loop_
 _symmetry_equiv_pos_site_id
 _symmetry_equiv_pos_as_xyz
  1  'x, y, z'
loop_
 _atom_site_type_symbol
 _atom_site_label
 _atom_site_symmetry_multiplicity
 _atom_site_fract_x
 _atom_site_fract_y
 _atom_site_fract_z
 _atom_site_occupancy
  Li  Li0  1  0.572501  0.572501  0.572501  1
  Tb  Tb1  1  0.351014  0.351014  0.351014  1
  Tb  Tb2  1  0.353296  0.353296  0.939467  1
  Tb  Tb3  1  0.353296  0.939467  0.353296  1
  Tb  Tb4  1  0.939467  0.353296  0.353296  1
  Tb  Tb5  1  0.809350  0.192411  0.192411  1
  Tb  Tb6  1  0.188617  0.812563  0.812563  1
  Tb  Tb7  1  0.192411  0.809350  0.192411  1
  Tb  Tb8  1  0.812563  0.188617  0.812563  1
  Tb  Tb9  1  0.192411  0.192411  0.809350  1
  Tb  Tb10  1  0.812563  0.812563  0.188617  1
  Tb  Tb11  1  0.934997  0.565899  0.565899  1
  Tb  Tb12  1  0.563088  0.935970  0.935970  1
  Tb  Tb13  1  0.565899  0.934997  0.565899  1
  Tb  Tb14  1  0.935970  0.563088  0.935970  1
  Tb  Tb15  1  0.565899  0.565899  0.934997  1
  Tb  Tb16  1  0.935970  0.935970  0.563088  1
  In  In17  1  0.582253  0.582253  0.254725  1
  In  In18  1  0.582253  0.254725  0.582253  1
  In  In19  1  0.254725  0.582253  0.582253  1
  Pd  Pd20  1  0.145655  0.145655  0.145655  1
  Pd  Pd21  1  0.143360  0.143360  0.569083  1
  Pd  Pd22  1  0.143360  0.569083  0.143360  1
  Pd  Pd23  1  0.569083  0.143360  0.143360  1
