# generated using pymatgen
data_LaPrEu2(PIr)4
_symmetry_space_group_name_H-M   'P 1'
_cell_length_a   6.32111491
_cell_length_b   6.29865099
_cell_length_c   6.31547588
_cell_angle_alpha   90.04917035
_cell_angle_beta   90.26849081
_cell_angle_gamma   89.79608050
_symmetry_Int_Tables_number   1
_chemical_formula_structural   LaPrEu2(PIr)4
_chemical_formula_sum   'La1 Pr1 Eu2 P4 Ir4'
_cell_volume   251.44305135
_cell_formula_units_Z   1
loop_
 _symmetry_equiv_pos_site_id
 _symmetry_equiv_pos_as_xyz
  1  'x, y, z'
loop_
 _atom_site_type_symbol
 _atom_site_label
 _atom_site_symmetry_multiplicity
 _atom_site_fract_x
 _atom_site_fract_y
 _atom_site_fract_z
 _atom_site_occupancy
  La  La0  1  0.899255  0.601412  0.396353  1
  Pr  Pr1  1  0.402471  0.904076  0.599113  1
  Eu  Eu2  1  0.598480  0.400130  0.899778  1
  Eu  Eu3  1  0.099373  0.100770  0.099156  1
  P  P4  1  0.673875  0.173321  0.325775  1
  P  P5  1  0.173361  0.325088  0.674305  1
  P  P6  1  0.328872  0.673278  0.171406  1
  P  P7  1  0.826701  0.825732  0.831012  1
  Ir  Ir8  1  0.081555  0.580873  0.919236  1
  Ir  Ir9  1  0.580151  0.918422  0.081395  1
  Ir  Ir10  1  0.917828  0.077176  0.582130  1
  Ir  Ir11  1  0.418079  0.419722  0.420341  1
