# generated using pymatgen
data_Yb2PaTiSb5
_symmetry_space_group_name_H-M   'P 1'
_cell_length_a   9.26475400
_cell_length_b   9.30515737
_cell_length_c   6.18435500
_cell_angle_alpha   90.00000000
_cell_angle_beta   90.00000000
_cell_angle_gamma   119.85641329
_symmetry_Int_Tables_number   1
_chemical_formula_structural   Yb2PaTiSb5
_chemical_formula_sum   'Yb4 Pa2 Ti2 Sb10'
_cell_volume   462.39082835
_cell_formula_units_Z   2
loop_
 _symmetry_equiv_pos_site_id
 _symmetry_equiv_pos_as_xyz
  1  'x, y, z'
loop_
 _atom_site_type_symbol
 _atom_site_label
 _atom_site_symmetry_multiplicity
 _atom_site_fract_x
 _atom_site_fract_y
 _atom_site_fract_z
 _atom_site_occupancy
  Yb  Yb0  1  0.994257  0.612023  0.250000  1
  Yb  Yb1  1  0.005743  0.387977  0.750000  1
  Yb  Yb2  1  0.382234  0.387977  0.250000  1
  Yb  Yb3  1  0.617766  0.612023  0.750000  1
  Pa  Pa4  1  0.619555  0.000000  0.250000  1
  Pa  Pa5  1  0.380445  0.000000  0.750000  1
  Ti  Ti6  1  0.000000  0.000000  0.000000  1
  Ti  Ti7  1  0.000000  0.000000  0.500000  1
  Sb  Sb8  1  0.260614  0.000000  0.250000  1
  Sb  Sb9  1  0.739386  0.000000  0.750000  1
  Sb  Sb10  1  0.997120  0.252324  0.250000  1
  Sb  Sb11  1  0.002880  0.747676  0.750000  1
  Sb  Sb12  1  0.744796  0.747676  0.250000  1
  Sb  Sb13  1  0.255204  0.252324  0.750000  1
  Sb  Sb14  1  0.339795  0.679592  0.000000  1
  Sb  Sb15  1  0.660205  0.320408  0.000000  1
  Sb  Sb16  1  0.660205  0.320408  0.500000  1
  Sb  Sb17  1  0.339795  0.679592  0.500000  1
