# generated using pymatgen
data_Yb2UCo2Si7
_symmetry_space_group_name_H-M   'P 1'
_cell_length_a   4.00858743
_cell_length_b   4.07935900
_cell_length_c   12.29932482
_cell_angle_alpha   90.00000000
_cell_angle_beta   99.37872850
_cell_angle_gamma   90.00000000
_symmetry_Int_Tables_number   1
_chemical_formula_structural   Yb2UCo2Si7
_chemical_formula_sum   'Yb2 U1 Co2 Si7'
_cell_volume   198.43582261
_cell_formula_units_Z   1
loop_
 _symmetry_equiv_pos_site_id
 _symmetry_equiv_pos_as_xyz
  1  'x, y, z'
loop_
 _atom_site_type_symbol
 _atom_site_label
 _atom_site_symmetry_multiplicity
 _atom_site_fract_x
 _atom_site_fract_y
 _atom_site_fract_z
 _atom_site_occupancy
  Yb  Yb0  1  0.318031  0.000000  0.636063  1
  Yb  Yb1  1  0.681969  0.000000  0.363937  1
  U  U2  1  0.000000  0.500000  0.000000  1
  Co  Co3  1  0.125972  0.500000  0.251944  1
  Co  Co4  1  0.874028  0.500000  0.748056  1
  Si  Si5  1  0.500000  0.000000  0.000000  1
  Si  Si6  1  0.414861  0.500000  0.829722  1
  Si  Si7  1  0.585139  0.500000  0.170278  1
  Si  Si8  1  0.085292  0.000000  0.170583  1
  Si  Si9  1  0.914708  0.000000  0.829417  1
  Si  Si10  1  0.220896  0.500000  0.441791  1
  Si  Si11  1  0.779104  0.500000  0.558209  1
