# generated using pymatgen
data_Sc4Co16As11PRu4
_symmetry_space_group_name_H-M   'P 1'
_cell_length_a   3.73386400
_cell_length_b   10.63567870
_cell_length_c   12.10972919
_cell_angle_alpha   90.16953594
_cell_angle_beta   90.00000000
_cell_angle_gamma   90.00000000
_symmetry_Int_Tables_number   1
_chemical_formula_structural   Sc4Co16As11PRu4
_chemical_formula_sum   'Sc4 Co16 As11 P1 Ru4'
_cell_volume   480.90161341
_cell_formula_units_Z   1
loop_
 _symmetry_equiv_pos_site_id
 _symmetry_equiv_pos_as_xyz
  1  'x, y, z'
loop_
 _atom_site_type_symbol
 _atom_site_label
 _atom_site_symmetry_multiplicity
 _atom_site_fract_x
 _atom_site_fract_y
 _atom_site_fract_z
 _atom_site_occupancy
  Sc  Sc0  1  0.250000  0.582064  0.703895  1
  Sc  Sc1  1  0.250000  0.925764  0.198227  1
  Sc  Sc2  1  0.750000  0.417438  0.296336  1
  Sc  Sc3  1  0.750000  0.081644  0.798182  1
  Co  Co4  1  0.250000  0.407658  0.485685  1
  Co  Co5  1  0.250000  0.091084  0.993060  1
  Co  Co6  1  0.750000  0.591621  0.514546  1
  Co  Co7  1  0.750000  0.915404  0.018107  1
  Co  Co8  1  0.250000  0.210104  0.172815  1
  Co  Co9  1  0.250000  0.283905  0.676653  1
  Co  Co10  1  0.750000  0.785700  0.825368  1
  Co  Co11  1  0.750000  0.714773  0.323944  1
  Co  Co12  1  0.250000  0.887508  0.701115  1
  Co  Co13  1  0.250000  0.612596  0.200321  1
  Co  Co14  1  0.750000  0.110718  0.291538  1
  Co  Co15  1  0.750000  0.385700  0.800649  1
  Co  Co16  1  0.250000  0.464194  0.931211  1
  Co  Co17  1  0.250000  0.035344  0.427812  1
  Co  Co18  1  0.750000  0.534745  0.070470  1
  Co  Co19  1  0.750000  0.964957  0.568772  1
  As  As20  1  0.250000  0.414982  0.116850  1
  As  As21  1  0.250000  0.083475  0.615640  1
  As  As22  1  0.750000  0.583595  0.884299  1
  As  As23  1  0.750000  0.916531  0.381467  1
  As  As24  1  0.250000  0.262835  0.866561  1
  As  As25  1  0.250000  0.235553  0.362873  1
  As  As26  1  0.750000  0.737555  0.135158  1
  As  As27  1  0.750000  0.764168  0.635570  1
  As  As28  1  0.250000  0.592408  0.388056  1
  As  As29  1  0.250000  0.908875  0.889480  1
  As  As30  1  0.750000  0.406659  0.612411  1
  P  P31  1  0.750000  0.094927  0.110730  1
  Ru  Ru32  1  0.250000  0.715705  0.993102  1
  Ru  Ru33  1  0.250000  0.787501  0.491442  1
  Ru  Ru34  1  0.750000  0.279390  0.011528  1
  Ru  Ru35  1  0.750000  0.212922  0.506125  1
