# generated using pymatgen
data_Y2Er3Mg3(Ni4P3)4
_symmetry_space_group_name_H-M   'P 1'
_cell_length_a   12.22951200
_cell_length_b   12.22951244
_cell_length_c   3.78335200
_cell_angle_alpha   90.00000000
_cell_angle_beta   90.00000000
_cell_angle_gamma   120.00000422
_symmetry_Int_Tables_number   1
_chemical_formula_structural   Y2Er3Mg3(Ni4P3)4
_chemical_formula_sum   'Y2 Er3 Mg3 Ni16 P12'
_cell_volume   490.03334538
_cell_formula_units_Z   1
loop_
 _symmetry_equiv_pos_site_id
 _symmetry_equiv_pos_as_xyz
  1  'x, y, z'
loop_
 _atom_site_type_symbol
 _atom_site_label
 _atom_site_symmetry_multiplicity
 _atom_site_fract_x
 _atom_site_fract_y
 _atom_site_fract_z
 _atom_site_occupancy
  Y  Y0  1  0.333333  0.666667  0.000000  1
  Y  Y1  1  0.666667  0.333333  0.000000  1
  Er  Er2  1  0.185495  0.185495  0.500000  1
  Er  Er3  1  0.814505  0.000000  0.500000  1
  Er  Er4  1  0.000000  0.814505  0.500000  1
  Mg  Mg5  1  0.562905  0.562905  0.000000  1
  Mg  Mg6  1  0.437095  0.000000  0.000000  1
  Mg  Mg7  1  0.000000  0.437095  0.000000  1
  Ni  Ni8  1  0.720549  0.720549  0.500000  1
  Ni  Ni9  1  0.279451  0.000000  0.500000  1
  Ni  Ni10  1  0.000000  0.279451  0.500000  1
  Ni  Ni11  1  0.183260  0.377880  0.000000  1
  Ni  Ni12  1  0.622120  0.805380  0.000000  1
  Ni  Ni13  1  0.194620  0.816740  0.000000  1
  Ni  Ni14  1  0.805380  0.622120  0.000000  1
  Ni  Ni15  1  0.816740  0.194620  0.000000  1
  Ni  Ni16  1  0.377880  0.183260  0.000000  1
  Ni  Ni17  1  0.363612  0.484441  0.500000  1
  Ni  Ni18  1  0.515559  0.879172  0.500000  1
  Ni  Ni19  1  0.120828  0.636388  0.500000  1
  Ni  Ni20  1  0.879172  0.515559  0.500000  1
  Ni  Ni21  1  0.636388  0.120828  0.500000  1
  Ni  Ni22  1  0.484441  0.363612  0.500000  1
  Ni  Ni23  1  0.000000  0.000000  0.000000  1
  P  P24  1  0.823408  0.823408  0.000000  1
  P  P25  1  0.176592  0.000000  0.000000  1
  P  P26  1  0.000000  0.176592  0.000000  1
  P  P27  1  0.172590  0.476797  0.500000  1
  P  P28  1  0.523203  0.695792  0.500000  1
  P  P29  1  0.304208  0.827410  0.500000  1
  P  P30  1  0.695792  0.523203  0.500000  1
  P  P31  1  0.827410  0.304208  0.500000  1
  P  P32  1  0.476797  0.172590  0.500000  1
  P  P33  1  0.357146  0.357146  0.000000  1
  P  P34  1  0.642854  0.000000  0.000000  1
  P  P35  1  0.000000  0.642854  0.000000  1
