# generated using pymatgen
data_Dy4LuZrGa10
_symmetry_space_group_name_H-M   'P 1'
_cell_length_a   6.10172100
_cell_length_b   9.52699100
_cell_length_c   11.33173900
_cell_angle_alpha   90.00000000
_cell_angle_beta   90.00000000
_cell_angle_gamma   90.00000000
_symmetry_Int_Tables_number   1
_chemical_formula_structural   Dy4LuZrGa10
_chemical_formula_sum   'Dy8 Lu2 Zr2 Ga20'
_cell_volume   658.72578499
_cell_formula_units_Z   2
loop_
 _symmetry_equiv_pos_site_id
 _symmetry_equiv_pos_as_xyz
  1  'x, y, z'
loop_
 _atom_site_type_symbol
 _atom_site_label
 _atom_site_symmetry_multiplicity
 _atom_site_fract_x
 _atom_site_fract_y
 _atom_site_fract_z
 _atom_site_occupancy
  Dy  Dy0  1  0.887039  0.513526  0.352812  1
  Dy  Dy1  1  0.612961  0.986474  0.852812  1
  Dy  Dy2  1  0.110752  0.012002  0.648643  1
  Dy  Dy3  1  0.389248  0.487998  0.148643  1
  Dy  Dy4  1  0.110752  0.487998  0.648643  1
  Dy  Dy5  1  0.389248  0.012002  0.148643  1
  Dy  Dy6  1  0.887039  0.986474  0.352812  1
  Dy  Dy7  1  0.612961  0.513526  0.852812  1
  Lu  Lu8  1  0.152271  0.250000  0.924271  1
  Lu  Lu9  1  0.347729  0.250000  0.424271  1
  Zr  Zr10  1  0.859562  0.750000  0.076403  1
  Zr  Zr11  1  0.640438  0.750000  0.576403  1
  Ga  Ga12  1  0.874013  0.046949  0.089650  1
  Ga  Ga13  1  0.625987  0.453051  0.589650  1
  Ga  Ga14  1  0.125519  0.558413  0.911695  1
  Ga  Ga15  1  0.374481  0.941587  0.411695  1
  Ga  Ga16  1  0.125519  0.941587  0.911695  1
  Ga  Ga17  1  0.374481  0.558413  0.411695  1
  Ga  Ga18  1  0.874013  0.453051  0.089650  1
  Ga  Ga19  1  0.625987  0.046949  0.589650  1
  Ga  Ga20  1  0.169280  0.750000  0.250962  1
  Ga  Ga21  1  0.330720  0.750000  0.750962  1
  Ga  Ga22  1  0.826295  0.250000  0.749680  1
  Ga  Ga23  1  0.673705  0.250000  0.249680  1
  Ga  Ga24  1  0.388929  0.750000  0.006624  1
  Ga  Ga25  1  0.111071  0.750000  0.506624  1
  Ga  Ga26  1  0.629551  0.250000  0.995250  1
  Ga  Ga27  1  0.870449  0.250000  0.495250  1
  Ga  Ga28  1  0.602211  0.750000  0.290506  1
  Ga  Ga29  1  0.897789  0.750000  0.790506  1
  Ga  Ga30  1  0.403599  0.250000  0.700705  1
  Ga  Ga31  1  0.096401  0.250000  0.200705  1
