# generated using pymatgen
data_Tb4U4Re3B24Ru
_symmetry_space_group_name_H-M   'P 1'
_cell_length_a   3.63653200
_cell_length_b   9.32142528
_cell_length_c   11.43978034
_cell_angle_alpha   90.02812237
_cell_angle_beta   90.00000000
_cell_angle_gamma   90.00000000
_symmetry_Int_Tables_number   1
_chemical_formula_structural   Tb4U4Re3B24Ru
_chemical_formula_sum   'Tb4 U4 Re3 B24 Ru1'
_cell_volume   387.78175297
_cell_formula_units_Z   1
loop_
 _symmetry_equiv_pos_site_id
 _symmetry_equiv_pos_as_xyz
  1  'x, y, z'
loop_
 _atom_site_type_symbol
 _atom_site_label
 _atom_site_symmetry_multiplicity
 _atom_site_fract_x
 _atom_site_fract_y
 _atom_site_fract_z
 _atom_site_occupancy
  Tb  Tb0  1  0.000000  0.335792  0.408125  1
  Tb  Tb1  1  0.000000  0.663811  0.594035  1
  Tb  Tb2  1  0.000000  0.837929  0.091022  1
  Tb  Tb3  1  0.000000  0.163476  0.906926  1
  U  U4  1  0.000000  0.958480  0.396888  1
  U  U5  1  0.000000  0.042566  0.602955  1
  U  U6  1  0.000000  0.455168  0.102283  1
  U  U7  1  0.000000  0.543144  0.897120  1
  Re  Re8  1  0.000000  0.354753  0.681119  1
  Re  Re9  1  0.000000  0.146166  0.181787  1
  Re  Re10  1  0.000000  0.854267  0.818673  1
  B  B11  1  0.500000  0.552323  0.430216  1
  B  B12  1  0.500000  0.448087  0.569142  1
  B  B13  1  0.500000  0.052198  0.069436  1
  B  B14  1  0.500000  0.947690  0.930648  1
  B  B15  1  0.500000  0.743212  0.422381  1
  B  B16  1  0.500000  0.256749  0.577152  1
  B  B17  1  0.500000  0.243256  0.077269  1
  B  B18  1  0.500000  0.756672  0.922929  1
  B  B19  1  0.500000  0.801679  0.274668  1
  B  B20  1  0.500000  0.198132  0.724709  1
  B  B21  1  0.500000  0.301989  0.225290  1
  B  B22  1  0.500000  0.698089  0.775217  1
  B  B23  1  0.500000  0.644173  0.188710  1
  B  B24  1  0.500000  0.355964  0.811331  1
  B  B25  1  0.500000  0.143777  0.311662  1
  B  B26  1  0.500000  0.855866  0.688399  1
  B  B27  1  0.500000  0.988630  0.219499  1
  B  B28  1  0.500000  0.010579  0.780001  1
  B  B29  1  0.500000  0.489851  0.280838  1
  B  B30  1  0.500000  0.510815  0.719801  1
  B  B31  1  0.500000  0.640129  0.039374  1
  B  B32  1  0.500000  0.360523  0.961349  1
  B  B33  1  0.500000  0.139642  0.461563  1
  B  B34  1  0.500000  0.859268  0.538228  1
  Ru  Ru35  1  0.000000  0.645159  0.319255  1
