# generated using pymatgen
data_TbEr4Co19(SiP3)3
_symmetry_space_group_name_H-M   'P 1'
_cell_length_a   12.02128600
_cell_length_b   12.02128595
_cell_length_c   3.67424400
_cell_angle_alpha   90.00000000
_cell_angle_beta   90.00000000
_cell_angle_gamma   120.00000015
_symmetry_Int_Tables_number   1
_chemical_formula_structural   TbEr4Co19(SiP3)3
_chemical_formula_sum   'Tb1 Er4 Co19 Si3 P9'
_cell_volume   459.83336713
_cell_formula_units_Z   1
loop_
 _symmetry_equiv_pos_site_id
 _symmetry_equiv_pos_as_xyz
  1  'x, y, z'
loop_
 _atom_site_type_symbol
 _atom_site_label
 _atom_site_symmetry_multiplicity
 _atom_site_fract_x
 _atom_site_fract_y
 _atom_site_fract_z
 _atom_site_occupancy
  Tb  Tb0  1  0.333333  0.666667  0.000000  1
  Er  Er1  1  0.666667  0.333333  0.000000  1
  Er  Er2  1  0.000133  0.184888  0.500000  1
  Er  Er3  1  0.815112  0.815245  0.500000  1
  Er  Er4  1  0.184755  0.999867  0.500000  1
  Co  Co5  1  0.623360  0.825068  0.000000  1
  Co  Co6  1  0.174932  0.798292  0.000000  1
  Co  Co7  1  0.201708  0.376640  0.000000  1
  Co  Co8  1  0.377769  0.202061  0.000000  1
  Co  Co9  1  0.824293  0.622231  0.000000  1
  Co  Co10  1  0.797939  0.175707  0.000000  1
  Co  Co11  1  0.000030  0.556674  0.000000  1
  Co  Co12  1  0.443326  0.443355  0.000000  1
  Co  Co13  1  0.556645  0.999970  0.000000  1
  Co  Co14  1  0.515626  0.642256  0.500000  1
  Co  Co15  1  0.357744  0.873370  0.500000  1
  Co  Co16  1  0.126630  0.484374  0.500000  1
  Co  Co17  1  0.485482  0.127589  0.500000  1
  Co  Co18  1  0.642107  0.514518  0.500000  1
  Co  Co19  1  0.872411  0.357893  0.500000  1
  Co  Co20  1  0.999304  0.716191  0.500000  1
  Co  Co21  1  0.283809  0.283113  0.500000  1
  Co  Co22  1  0.716887  0.000696  0.500000  1
  Co  Co23  1  0.000000  0.000000  0.000000  1
  Si  Si24  1  0.999865  0.368550  0.000000  1
  Si  Si25  1  0.631450  0.631315  0.000000  1
  Si  Si26  1  0.368685  0.000135  0.000000  1
  P  P27  1  0.521295  0.835451  0.500000  1
  P  P28  1  0.164549  0.685845  0.500000  1
  P  P29  1  0.314155  0.478705  0.500000  1
  P  P30  1  0.480087  0.314047  0.500000  1
  P  P31  1  0.833960  0.519913  0.500000  1
  P  P32  1  0.685953  0.166040  0.500000  1
  P  P33  1  0.999590  0.818525  0.000000  1
  P  P34  1  0.181475  0.181065  0.000000  1
  P  P35  1  0.818935  0.000410  0.000000  1
