# generated using pymatgen
data_Lu2CdPtAu
_symmetry_space_group_name_H-M   'P 1'
_cell_length_a   7.71456800
_cell_length_b   7.72398600
_cell_length_c   3.68570500
_cell_angle_alpha   90.00000000
_cell_angle_beta   90.00000000
_cell_angle_gamma   90.00000000
_symmetry_Int_Tables_number   1
_chemical_formula_structural   Lu2CdPtAu
_chemical_formula_sum   'Lu4 Cd2 Pt2 Au2'
_cell_volume   219.62089710
_cell_formula_units_Z   2
loop_
 _symmetry_equiv_pos_site_id
 _symmetry_equiv_pos_as_xyz
  1  'x, y, z'
loop_
 _atom_site_type_symbol
 _atom_site_label
 _atom_site_symmetry_multiplicity
 _atom_site_fract_x
 _atom_site_fract_y
 _atom_site_fract_z
 _atom_site_occupancy
  Lu  Lu0  1  0.164774  0.318455  0.500000  1
  Lu  Lu1  1  0.330492  0.850546  0.500000  1
  Lu  Lu2  1  0.830492  0.649454  0.500000  1
  Lu  Lu3  1  0.664774  0.181545  0.500000  1
  Cd  Cd4  1  0.498033  0.499474  0.000000  1
  Cd  Cd5  1  0.998033  0.000526  0.000000  1
  Pt  Pt6  1  0.871174  0.367923  0.000000  1
  Pt  Pt7  1  0.371174  0.132077  0.000000  1
  Au  Au8  1  0.635527  0.868754  0.000000  1
  Au  Au9  1  0.135527  0.631246  0.000000  1
