# generated using pymatgen
data_Tb2YSn3Ir2Pt
_symmetry_space_group_name_H-M   'P 1'
_cell_length_a   7.58510901
_cell_length_b   7.58532711
_cell_length_c   3.92346200
_cell_angle_alpha   90.00000000
_cell_angle_beta   90.00000000
_cell_angle_gamma   120.00348937
_symmetry_Int_Tables_number   1
_chemical_formula_structural   Tb2YSn3Ir2Pt
_chemical_formula_sum   'Tb2 Y1 Sn3 Ir2 Pt1'
_cell_volume   195.48838175
_cell_formula_units_Z   1
loop_
 _symmetry_equiv_pos_site_id
 _symmetry_equiv_pos_as_xyz
  1  'x, y, z'
loop_
 _atom_site_type_symbol
 _atom_site_label
 _atom_site_symmetry_multiplicity
 _atom_site_fract_x
 _atom_site_fract_y
 _atom_site_fract_z
 _atom_site_occupancy
  Tb  Tb0  1  0.993208  0.590412  0.000000  1
  Tb  Tb1  1  0.409515  0.402648  0.000000  1
  Y  Y2  1  0.597686  0.006824  0.000000  1
  Sn  Sn3  1  0.259762  0.002349  0.500000  1
  Sn  Sn4  1  0.997386  0.257034  0.500000  1
  Sn  Sn5  1  0.742709  0.740564  0.500000  1
  Ir  Ir6  1  0.666632  0.333733  0.500000  1
  Ir  Ir7  1  0.000028  0.999979  0.000000  1
  Pt  Pt8  1  0.333075  0.666457  0.500000  1
