# generated using pymatgen
data_Y3GeSe2
_symmetry_space_group_name_H-M   'P 1'
_cell_length_a   7.17331334
_cell_length_b   7.17331403
_cell_length_c   7.17331366
_cell_angle_alpha   146.57507361
_cell_angle_beta   132.32201743
_cell_angle_gamma   59.47561728
_symmetry_Int_Tables_number   1
_chemical_formula_structural   Y3GeSe2
_chemical_formula_sum   'Y3 Ge1 Se2'
_cell_volume   149.00302317
_cell_formula_units_Z   1
loop_
 _symmetry_equiv_pos_site_id
 _symmetry_equiv_pos_as_xyz
  1  'x, y, z'
loop_
 _atom_site_type_symbol
 _atom_site_label
 _atom_site_symmetry_multiplicity
 _atom_site_fract_x
 _atom_site_fract_y
 _atom_site_fract_z
 _atom_site_occupancy
  Y  Y0  1  0.841959  0.341959  0.500000  1
  Y  Y1  1  0.500000  0.000000  0.500000  1
  Y  Y2  1  0.158041  0.658041  0.500000  1
  Ge  Ge3  1  0.000000  0.000000  0.000000  1
  Se  Se4  1  0.668648  0.668648  0.000000  1
  Se  Se5  1  0.331352  0.331352  0.000000  1
