# generated using pymatgen
data_Nd6LuScO12
_symmetry_space_group_name_H-M   'P 1'
_cell_length_a   6.88286386
_cell_length_b   6.88286274
_cell_length_c   6.88286256
_cell_angle_alpha   92.52454167
_cell_angle_beta   92.52454935
_cell_angle_gamma   92.52455412
_symmetry_Int_Tables_number   1
_chemical_formula_structural   Nd6LuScO12
_chemical_formula_sum   'Nd6 Lu1 Sc1 O12'
_cell_volume   325.08912848
_cell_formula_units_Z   1
loop_
 _symmetry_equiv_pos_site_id
 _symmetry_equiv_pos_as_xyz
  1  'x, y, z'
loop_
 _atom_site_type_symbol
 _atom_site_label
 _atom_site_symmetry_multiplicity
 _atom_site_fract_x
 _atom_site_fract_y
 _atom_site_fract_z
 _atom_site_occupancy
  Nd  Nd0  1  0.743827  0.930780  0.439495  1
  Nd  Nd1  1  0.930780  0.439495  0.743827  1
  Nd  Nd2  1  0.439495  0.743827  0.930780  1
  Nd  Nd3  1  0.256173  0.069220  0.560505  1
  Nd  Nd4  1  0.069220  0.560505  0.256173  1
  Nd  Nd5  1  0.560505  0.256173  0.069220  1
  Lu  Lu6  1  0.000000  0.000000  0.000000  1
  Sc  Sc7  1  0.500000  0.500000  0.500000  1
  O  O8  1  0.589380  0.462623  0.799058  1
  O  O9  1  0.462623  0.799058  0.589380  1
  O  O10  1  0.799058  0.589380  0.462623  1
  O  O11  1  0.410620  0.537377  0.200942  1
  O  O12  1  0.537377  0.200942  0.410620  1
  O  O13  1  0.200942  0.410620  0.537377  1
  O  O14  1  0.066316  0.913053  0.306267  1
  O  O15  1  0.913053  0.306267  0.066316  1
  O  O16  1  0.693733  0.933684  0.086947  1
  O  O17  1  0.086947  0.693733  0.933684  1
  O  O18  1  0.933684  0.086947  0.693733  1
  O  O19  1  0.306267  0.066316  0.913053  1
