# generated using pymatgen
data_NdTh5(Ni3As2)6
_symmetry_space_group_name_H-M   'P 1'
_cell_length_a   4.03735500
_cell_length_b   10.91619904
_cell_length_c   12.94556704
_cell_angle_alpha   89.99067375
_cell_angle_beta   90.00000000
_cell_angle_gamma   90.00000000
_symmetry_Int_Tables_number   1
_chemical_formula_structural   NdTh5(Ni3As2)6
_chemical_formula_sum   'Nd1 Th5 Ni18 As12'
_cell_volume   570.54441196
_cell_formula_units_Z   1
loop_
 _symmetry_equiv_pos_site_id
 _symmetry_equiv_pos_as_xyz
  1  'x, y, z'
loop_
 _atom_site_type_symbol
 _atom_site_label
 _atom_site_symmetry_multiplicity
 _atom_site_fract_x
 _atom_site_fract_y
 _atom_site_fract_z
 _atom_site_occupancy
  Nd  Nd0  1  0.000000  0.310432  0.793835  1
  Th  Th1  1  0.000000  0.499248  0.517897  1
  Th  Th2  1  0.500000  0.999919  0.483097  1
  Th  Th3  1  0.500000  0.811115  0.206577  1
  Th  Th4  1  0.500000  0.189028  0.207028  1
  Th  Th5  1  0.000000  0.688426  0.793348  1
  Ni  Ni6  1  0.500000  0.499726  0.148855  1
  Ni  Ni7  1  0.000000  0.000445  0.852535  1
  Ni  Ni8  1  0.500000  0.502559  0.694354  1
  Ni  Ni9  1  0.000000  0.000042  0.304182  1
  Ni  Ni10  1  0.000000  0.500570  0.973296  1
  Ni  Ni11  1  0.500000  0.001454  0.026203  1
  Ni  Ni12  1  0.500000  0.332851  0.996361  1
  Ni  Ni13  1  0.500000  0.666196  0.994949  1
  Ni  Ni14  1  0.000000  0.166818  0.005305  1
  Ni  Ni15  1  0.000000  0.833134  0.004366  1
  Ni  Ni16  1  0.500000  0.305259  0.425521  1
  Ni  Ni17  1  0.500000  0.693922  0.422771  1
  Ni  Ni18  1  0.000000  0.194724  0.575034  1
  Ni  Ni19  1  0.000000  0.806806  0.576751  1
  Ni  Ni20  1  0.500000  0.879422  0.710161  1
  Ni  Ni21  1  0.500000  0.117794  0.709448  1
  Ni  Ni22  1  0.000000  0.619553  0.289126  1
  Ni  Ni23  1  0.000000  0.380001  0.289117  1
  As  As24  1  0.500000  0.498099  0.874415  1
  As  As25  1  0.000000  0.000075  0.124124  1
  As  As26  1  0.500000  0.499126  0.333173  1
  As  As27  1  0.000000  0.001078  0.668223  1
  As  As28  1  0.500000  0.308699  0.612910  1
  As  As29  1  0.500000  0.692183  0.609252  1
  As  As30  1  0.000000  0.191155  0.390058  1
  As  As31  1  0.000000  0.808724  0.389974  1
  As  As32  1  0.500000  0.853007  0.897035  1
  As  As33  1  0.500000  0.148621  0.895718  1
  As  As34  1  0.000000  0.646754  0.102398  1
  As  As35  1  0.000000  0.353036  0.102604  1
