# generated using pymatgen
data_Nd3Bi2Rh3Pb
_symmetry_space_group_name_H-M   'P 1'
_cell_length_a   7.72010100
_cell_length_b   7.76705709
_cell_length_c   4.10753000
_cell_angle_alpha   90.00000000
_cell_angle_beta   90.00000000
_cell_angle_gamma   119.80021994
_symmetry_Int_Tables_number   1
_chemical_formula_structural   Nd3Bi2Rh3Pb
_chemical_formula_sum   'Nd3 Bi2 Rh3 Pb1'
_cell_volume   213.72810012
_cell_formula_units_Z   1
loop_
 _symmetry_equiv_pos_site_id
 _symmetry_equiv_pos_as_xyz
  1  'x, y, z'
loop_
 _atom_site_type_symbol
 _atom_site_label
 _atom_site_symmetry_multiplicity
 _atom_site_fract_x
 _atom_site_fract_y
 _atom_site_fract_z
 _atom_site_occupancy
  Nd  Nd0  1  0.005054  0.597430  0.000000  1
  Nd  Nd1  1  0.407623  0.402570  0.000000  1
  Nd  Nd2  1  0.589700  0.000000  0.000000  1
  Bi  Bi3  1  0.741112  0.739195  0.500000  1
  Bi  Bi4  1  0.001917  0.260805  0.500000  1
  Rh  Rh5  1  0.996782  0.000000  0.000000  1
  Rh  Rh6  1  0.665008  0.332936  0.500000  1
  Rh  Rh7  1  0.332070  0.667064  0.500000  1
  Pb  Pb8  1  0.260734  0.000000  0.500000  1
