# generated using pymatgen
data_Cs5Cd6
_symmetry_space_group_name_H-M   'P 1'
_cell_length_a   19.89401878
_cell_length_b   19.89401823
_cell_length_c   6.20958100
_cell_angle_alpha   90.00000000
_cell_angle_beta   90.00000000
_cell_angle_gamma   167.02837793
_symmetry_Int_Tables_number   1
_chemical_formula_structural   Cs5Cd6
_chemical_formula_sum   'Cs5 Cd6'
_cell_volume   551.64870873
_cell_formula_units_Z   1
loop_
 _symmetry_equiv_pos_site_id
 _symmetry_equiv_pos_as_xyz
  1  'x, y, z'
loop_
 _atom_site_type_symbol
 _atom_site_label
 _atom_site_symmetry_multiplicity
 _atom_site_fract_x
 _atom_site_fract_y
 _atom_site_fract_z
 _atom_site_occupancy
  Cs  Cs0  1  0.000000  0.000000  0.000000  1
  Cs  Cs1  1  0.614615  0.385385  0.000000  1
  Cs  Cs2  1  0.385385  0.614615  0.000000  1
  Cs  Cs3  1  0.808393  0.191606  0.500000  1
  Cs  Cs4  1  0.191606  0.808393  0.500000  1
  Cd  Cd5  1  0.725481  0.274519  0.000000  1
  Cd  Cd6  1  0.274519  0.725481  0.000000  1
  Cd  Cd7  1  0.912692  0.087308  0.500000  1
  Cd  Cd8  1  0.538372  0.461627  0.500000  1
  Cd  Cd9  1  0.461627  0.538372  0.500000  1
  Cd  Cd10  1  0.087308  0.912692  0.500000  1
