# generated using pymatgen
data_KH4Cl5
_symmetry_space_group_name_H-M   'P 1'
_cell_length_a   10.04332534
_cell_length_b   7.96650202
_cell_length_c   7.96355320
_cell_angle_alpha   89.96730601
_cell_angle_beta   113.44845168
_cell_angle_gamma   113.45712715
_symmetry_Int_Tables_number   1
_chemical_formula_structural   KH4Cl5
_chemical_formula_sum   'K2 H8 Cl10'
_cell_volume   526.72533567
_cell_formula_units_Z   2
loop_
 _symmetry_equiv_pos_site_id
 _symmetry_equiv_pos_as_xyz
  1  'x, y, z'
loop_
 _atom_site_type_symbol
 _atom_site_label
 _atom_site_symmetry_multiplicity
 _atom_site_fract_x
 _atom_site_fract_y
 _atom_site_fract_z
 _atom_site_occupancy
  K  K0  1  0.749974  0.875085  0.124962  1
  K  K1  1  0.250027  0.124917  0.875038  1
  H  H2  1  0.124283  0.730954  0.189181  1
  H  H3  1  0.375712  0.564800  0.269207  1
  H  H4  1  0.624222  0.189229  0.393396  1
  H  H5  1  0.124305  0.393347  0.435012  1
  H  H6  1  0.875697  0.606656  0.564989  1
  H  H7  1  0.375778  0.810773  0.606604  1
  H  H8  1  0.624288  0.435201  0.730793  1
  H  H9  1  0.875716  0.269046  0.810818  1
  Cl  Cl10  1  0.038867  0.802859  0.058695  1
  Cl  Cl11  1  0.461377  0.519679  0.197977  1
  Cl  Cl12  1  0.538727  0.058339  0.236172  1
  Cl  Cl13  1  0.249939  0.624534  0.374494  1
  Cl  Cl14  1  0.038714  0.236341  0.480514  1
  Cl  Cl15  1  0.961288  0.763661  0.519487  1
  Cl  Cl16  1  0.750061  0.375467  0.625506  1
  Cl  Cl17  1  0.461273  0.941661  0.763828  1
  Cl  Cl18  1  0.538623  0.480321  0.802024  1
  Cl  Cl19  1  0.961133  0.197141  0.941305  1
