# generated using pymatgen
data_La2VPdF14
_symmetry_space_group_name_H-M   'P 1'
_cell_length_a   5.73089100
_cell_length_b   9.26270612
_cell_length_c   12.34087114
_cell_angle_alpha   62.41935193
_cell_angle_beta   90.00000000
_cell_angle_gamma   90.00000000
_symmetry_Int_Tables_number   1
_chemical_formula_structural   La2VPdF14
_chemical_formula_sum   'La4 V2 Pd2 F28'
_cell_volume   580.65210514
_cell_formula_units_Z   2
loop_
 _symmetry_equiv_pos_site_id
 _symmetry_equiv_pos_as_xyz
  1  'x, y, z'
loop_
 _atom_site_type_symbol
 _atom_site_label
 _atom_site_symmetry_multiplicity
 _atom_site_fract_x
 _atom_site_fract_y
 _atom_site_fract_z
 _atom_site_occupancy
  La  La0  1  0.759830  0.805380  0.270863  1
  La  La1  1  0.259830  0.194620  0.229137  1
  La  La2  1  0.240755  0.190112  0.736989  1
  La  La3  1  0.740755  0.809888  0.763011  1
  V  V4  1  0.245026  0.725698  0.544080  1
  V  V5  1  0.745026  0.274302  0.955920  1
  Pd  Pd6  1  0.756684  0.273600  0.456604  1
  Pd  Pd7  1  0.256684  0.726400  0.043396  1
  F  F8  1  0.970570  0.716195  0.459165  1
  F  F9  1  0.470570  0.283805  0.040835  1
  F  F10  1  0.038918  0.287042  0.540049  1
  F  F11  1  0.538918  0.712958  0.959951  1
  F  F12  1  0.063249  0.705123  0.921865  1
  F  F13  1  0.563249  0.294877  0.578135  1
  F  F14  1  0.937963  0.288491  0.075297  1
  F  F15  1  0.437963  0.711509  0.424703  1
  F  F16  1  0.736252  0.498489  0.866266  1
  F  F17  1  0.236252  0.501511  0.633734  1
  F  F18  1  0.262925  0.490063  0.138705  1
  F  F19  1  0.762925  0.509937  0.361295  1
  F  F20  1  0.740669  0.052391  0.044184  1
  F  F21  1  0.240669  0.947609  0.455816  1
  F  F22  1  0.258966  0.962949  0.953825  1
  F  F23  1  0.758966  0.037051  0.546175  1
  F  F24  1  0.052163  0.741696  0.665135  1
  F  F25  1  0.552163  0.258304  0.834865  1
  F  F26  1  0.947841  0.256908  0.332129  1
  F  F27  1  0.447841  0.743092  0.167871  1
  F  F28  1  0.012815  0.269749  0.866441  1
  F  F29  1  0.512815  0.730251  0.633559  1
  F  F30  1  0.978051  0.731864  0.131560  1
  F  F31  1  0.478051  0.268136  0.368440  1
  F  F32  1  0.089704  0.969241  0.230114  1
  F  F33  1  0.589704  0.030759  0.269886  1
  F  F34  1  0.907618  0.031760  0.768869  1
  F  F35  1  0.407618  0.968240  0.731131  1
