# generated using pymatgen
data_Er3Tm3Co16(MoP6)2
_symmetry_space_group_name_H-M   'P 1'
_cell_length_a   3.70119200
_cell_length_b   10.53461770
_cell_length_c   12.18797316
_cell_angle_alpha   90.03017247
_cell_angle_beta   90.00000000
_cell_angle_gamma   90.00000000
_symmetry_Int_Tables_number   1
_chemical_formula_structural   Er3Tm3Co16(MoP6)2
_chemical_formula_sum   'Er3 Tm3 Co16 Mo2 P12'
_cell_volume   475.21684152
_cell_formula_units_Z   1
loop_
 _symmetry_equiv_pos_site_id
 _symmetry_equiv_pos_as_xyz
  1  'x, y, z'
loop_
 _atom_site_type_symbol
 _atom_site_label
 _atom_site_symmetry_multiplicity
 _atom_site_fract_x
 _atom_site_fract_y
 _atom_site_fract_z
 _atom_site_occupancy
  Er  Er0  1  0.750000  0.249781  0.475289  1
  Er  Er1  1  0.250000  0.750141  0.524807  1
  Er  Er2  1  0.750000  0.430912  0.205079  1
  Tm  Tm3  1  0.250000  0.930587  0.794801  1
  Tm  Tm4  1  0.250000  0.569327  0.795168  1
  Tm  Tm5  1  0.750000  0.069318  0.205036  1
  Co  Co6  1  0.250000  0.249603  0.298713  1
  Co  Co7  1  0.750000  0.750191  0.701419  1
  Co  Co8  1  0.750000  0.249876  0.013634  1
  Co  Co9  1  0.250000  0.750077  0.986049  1
  Co  Co10  1  0.250000  0.417580  0.009927  1
  Co  Co11  1  0.250000  0.082353  0.009919  1
  Co  Co12  1  0.750000  0.582565  0.989586  1
  Co  Co13  1  0.750000  0.917524  0.989849  1
  Co  Co14  1  0.250000  0.454050  0.568721  1
  Co  Co15  1  0.250000  0.045981  0.568430  1
  Co  Co16  1  0.750000  0.545963  0.431896  1
  Co  Co17  1  0.750000  0.953895  0.431523  1
  Co  Co18  1  0.250000  0.872578  0.293406  1
  Co  Co19  1  0.250000  0.627726  0.293857  1
  Co  Co20  1  0.750000  0.127479  0.706463  1
  Co  Co21  1  0.750000  0.372596  0.706554  1
  Mo  Mo22  1  0.250000  0.250035  0.843134  1
  Mo  Mo23  1  0.750000  0.749990  0.156797  1
  P  P24  1  0.250000  0.249720  0.119708  1
  P  P25  1  0.750000  0.750076  0.880010  1
  P  P26  1  0.250000  0.250055  0.649631  1
  P  P27  1  0.750000  0.749871  0.350401  1
  P  P28  1  0.250000  0.437826  0.383979  1
  P  P29  1  0.250000  0.061972  0.383534  1
  P  P30  1  0.750000  0.562241  0.616708  1
  P  P31  1  0.750000  0.937911  0.616412  1
  P  P32  1  0.250000  0.905976  0.107696  1
  P  P33  1  0.250000  0.594306  0.107477  1
  P  P34  1  0.750000  0.093944  0.892101  1
  P  P35  1  0.750000  0.405974  0.892288  1
