# generated using pymatgen
data_Dy7Tm(AlRh)2
_symmetry_space_group_name_H-M   'P 1'
_cell_length_a   9.52016180
_cell_length_b   9.53113473
_cell_length_c   9.52782564
_cell_angle_alpha   59.98850920
_cell_angle_beta   60.04316858
_cell_angle_gamma   59.96186433
_symmetry_Int_Tables_number   1
_chemical_formula_structural   Dy7Tm(AlRh)2
_chemical_formula_sum   'Dy14 Tm2 Al4 Rh4'
_cell_volume   611.28830878
_cell_formula_units_Z   2
loop_
 _symmetry_equiv_pos_site_id
 _symmetry_equiv_pos_as_xyz
  1  'x, y, z'
loop_
 _atom_site_type_symbol
 _atom_site_label
 _atom_site_symmetry_multiplicity
 _atom_site_fract_x
 _atom_site_fract_y
 _atom_site_fract_z
 _atom_site_occupancy
  Dy  Dy0  1  0.309612  0.691229  0.307930  1
  Dy  Dy1  1  0.935706  0.937450  0.562950  1
  Dy  Dy2  1  0.146063  0.147639  0.558658  1
  Dy  Dy3  1  0.563729  0.937013  0.562246  1
  Dy  Dy4  1  0.146363  0.148604  0.147566  1
  Dy  Dy5  1  0.309293  0.307888  0.691619  1
  Dy  Dy6  1  0.935706  0.563894  0.562950  1
  Dy  Dy7  1  0.563350  0.562722  0.937206  1
  Dy  Dy8  1  0.563350  0.936722  0.937206  1
  Dy  Dy9  1  0.935650  0.563236  0.937877  1
  Dy  Dy10  1  0.146363  0.557467  0.147566  1
  Dy  Dy11  1  0.309293  0.691200  0.691619  1
  Dy  Dy12  1  0.691415  0.309072  0.690440  1
  Dy  Dy13  1  0.559801  0.146937  0.146325  1
  Tm  Tm14  1  0.692029  0.308818  0.308518  1
  Tm  Tm15  1  0.692029  0.690635  0.308518  1
  Al  Al16  1  0.922454  0.922471  0.232602  1
  Al  Al17  1  0.232334  0.922447  0.922771  1
  Al  Al18  1  0.922355  0.232685  0.922787  1
  Al  Al19  1  0.922355  0.922172  0.922787  1
  Rh  Rh20  1  0.358562  0.356619  0.357033  1
  Rh  Rh21  1  0.926671  0.358288  0.356755  1
  Rh  Rh22  1  0.356950  0.357006  0.929039  1
  Rh  Rh23  1  0.358562  0.927787  0.357033  1
