# generated using pymatgen
data_Ho10TcAg3
_symmetry_space_group_name_H-M   'P 1'
_cell_length_a   9.40844445
_cell_length_b   9.40972168
_cell_length_c   9.70559557
_cell_angle_alpha   90.01876292
_cell_angle_beta   90.01175196
_cell_angle_gamma   119.91041022
_symmetry_Int_Tables_number   1
_chemical_formula_structural   Ho10TcAg3
_chemical_formula_sum   'Ho20 Tc2 Ag6'
_cell_volume   744.79837708
_cell_formula_units_Z   2
loop_
 _symmetry_equiv_pos_site_id
 _symmetry_equiv_pos_as_xyz
  1  'x, y, z'
loop_
 _atom_site_type_symbol
 _atom_site_label
 _atom_site_symmetry_multiplicity
 _atom_site_fract_x
 _atom_site_fract_y
 _atom_site_fract_z
 _atom_site_occupancy
  Ho  Ho0  1  0.000010  0.000038  0.500016  1
  Ho  Ho1  1  0.000011  0.000066  0.999994  1
  Ho  Ho2  1  0.208914  0.791068  0.441481  1
  Ho  Ho3  1  0.209072  0.418201  0.441453  1
  Ho  Ho4  1  0.582049  0.791048  0.441384  1
  Ho  Ho5  1  0.791107  0.208918  0.558548  1
  Ho  Ho6  1  0.790937  0.581813  0.558528  1
  Ho  Ho7  1  0.417926  0.208947  0.558647  1
  Ho  Ho8  1  0.791111  0.208894  0.941381  1
  Ho  Ho9  1  0.791049  0.582031  0.941428  1
  Ho  Ho10  1  0.418116  0.209029  0.941453  1
  Ho  Ho11  1  0.208891  0.791102  0.058584  1
  Ho  Ho12  1  0.208958  0.417997  0.058578  1
  Ho  Ho13  1  0.581838  0.790959  0.058535  1
  Ho  Ho14  1  0.539782  0.460150  0.249982  1
  Ho  Ho15  1  0.539669  0.079661  0.249997  1
  Ho  Ho16  1  0.920387  0.460318  0.249940  1
  Ho  Ho17  1  0.460151  0.539861  0.750030  1
  Ho  Ho18  1  0.460348  0.920348  0.750006  1
  Ho  Ho19  1  0.079667  0.539662  0.750044  1
  Tc  Tc20  1  0.333391  0.666558  0.249991  1
  Tc  Tc21  1  0.666586  0.333394  0.750009  1
  Ag  Ag22  1  0.884545  0.115461  0.250051  1
  Ag  Ag23  1  0.884491  0.768960  0.250051  1
  Ag  Ag24  1  0.231053  0.115523  0.250033  1
  Ag  Ag25  1  0.115422  0.884534  0.749947  1
  Ag  Ag26  1  0.115545  0.231018  0.749935  1
  Ag  Ag27  1  0.768973  0.884444  0.749975  1
