# generated using pymatgen
data_Zr5Ti2Co16ReP12
_symmetry_space_group_name_H-M   'P 1'
_cell_length_a   11.93288938
_cell_length_b   11.93289052
_cell_length_c   3.64781000
_cell_angle_alpha   90.00000000
_cell_angle_beta   90.00000000
_cell_angle_gamma   120.02896745
_symmetry_Int_Tables_number   1
_chemical_formula_structural   Zr5Ti2Co16ReP12
_chemical_formula_sum   'Zr5 Ti2 Co16 Re1 P12'
_cell_volume   449.70453744
_cell_formula_units_Z   1
loop_
 _symmetry_equiv_pos_site_id
 _symmetry_equiv_pos_as_xyz
  1  'x, y, z'
loop_
 _atom_site_type_symbol
 _atom_site_label
 _atom_site_symmetry_multiplicity
 _atom_site_fract_x
 _atom_site_fract_y
 _atom_site_fract_z
 _atom_site_occupancy
  Zr  Zr0  1  0.667933  0.333523  0.000000  1
  Zr  Zr1  1  0.333523  0.667933  0.000000  1
  Zr  Zr2  1  0.819157  0.819157  0.500000  1
  Zr  Zr3  1  0.179065  0.998695  0.500000  1
  Zr  Zr4  1  0.998695  0.179065  0.500000  1
  Ti  Ti5  1  0.557926  0.000250  0.000000  1
  Ti  Ti6  1  0.000250  0.557926  0.000000  1
  Co  Co7  1  0.197558  0.374809  0.000000  1
  Co  Co8  1  0.179253  0.805059  0.000000  1
  Co  Co9  1  0.819033  0.623871  0.000000  1
  Co  Co10  1  0.805059  0.179253  0.000000  1
  Co  Co11  1  0.374809  0.197558  0.000000  1
  Co  Co12  1  0.127906  0.482409  0.500000  1
  Co  Co13  1  0.355709  0.874509  0.500000  1
  Co  Co14  1  0.515146  0.642410  0.500000  1
  Co  Co15  1  0.642410  0.515146  0.500000  1
  Co  Co16  1  0.874509  0.355709  0.500000  1
  Co  Co17  1  0.482409  0.127906  0.500000  1
  Co  Co18  1  0.999492  0.999492  0.000000  1
  Co  Co19  1  0.718787  0.000255  0.500000  1
  Co  Co20  1  0.000255  0.718787  0.500000  1
  Co  Co21  1  0.623871  0.819033  0.000000  1
  Co  Co22  1  0.281554  0.281554  0.500000  1
  Re  Re23  1  0.448467  0.448467  0.000000  1
  P  P24  1  0.642874  0.642874  0.000000  1
  P  P25  1  0.355118  0.001810  0.000000  1
  P  P26  1  0.001810  0.355118  0.000000  1
  P  P27  1  0.480963  0.314514  0.500000  1
  P  P28  1  0.687571  0.169395  0.500000  1
  P  P29  1  0.830664  0.517440  0.500000  1
  P  P30  1  0.517440  0.830664  0.500000  1
  P  P31  1  0.169395  0.687571  0.500000  1
  P  P32  1  0.822453  0.998724  0.000000  1
  P  P33  1  0.998724  0.822453  0.000000  1
  P  P34  1  0.314514  0.480963  0.500000  1
  P  P35  1  0.175696  0.175696  0.000000  1
