# generated using pymatgen
data_NaPaPdS3
_symmetry_space_group_name_H-M   'P 1'
_cell_length_a   6.84105364
_cell_length_b   6.84105422
_cell_length_c   10.18746200
_cell_angle_alpha   90.00000000
_cell_angle_beta   90.00000000
_cell_angle_gamma   146.06371652
_symmetry_Int_Tables_number   1
_chemical_formula_structural   NaPaPdS3
_chemical_formula_sum   'Na2 Pa2 Pd2 S6'
_cell_volume   266.16858773
_cell_formula_units_Z   2
loop_
 _symmetry_equiv_pos_site_id
 _symmetry_equiv_pos_as_xyz
  1  'x, y, z'
loop_
 _atom_site_type_symbol
 _atom_site_label
 _atom_site_symmetry_multiplicity
 _atom_site_fract_x
 _atom_site_fract_y
 _atom_site_fract_z
 _atom_site_occupancy
  Na  Na0  1  0.750070  0.249931  0.250000  1
  Na  Na1  1  0.249931  0.750070  0.750000  1
  Pa  Pa2  1  0.000000  0.000000  0.000000  1
  Pa  Pa3  1  0.000000  0.000000  0.500000  1
  Pd  Pd4  1  0.465704  0.534298  0.250000  1
  Pd  Pd5  1  0.534298  0.465704  0.750000  1
  S  S6  1  0.367001  0.633001  0.050329  1
  S  S7  1  0.077695  0.922306  0.250000  1
  S  S8  1  0.367001  0.633001  0.449671  1
  S  S9  1  0.633001  0.367001  0.550329  1
  S  S10  1  0.922306  0.077695  0.750000  1
  S  S11  1  0.633001  0.367001  0.949670  1
