# generated using pymatgen
data_Tb8InPd17Pt7
_symmetry_space_group_name_H-M   'P 1'
_cell_length_a   8.42852100
_cell_length_b   8.44122300
_cell_length_c   8.41214800
_cell_angle_alpha   90.00000000
_cell_angle_beta   90.00000000
_cell_angle_gamma   90.00000000
_symmetry_Int_Tables_number   1
_chemical_formula_structural   Tb8InPd17Pt7
_chemical_formula_sum   'Tb8 In1 Pd17 Pt7'
_cell_volume   598.49930676
_cell_formula_units_Z   1
loop_
 _symmetry_equiv_pos_site_id
 _symmetry_equiv_pos_as_xyz
  1  'x, y, z'
loop_
 _atom_site_type_symbol
 _atom_site_label
 _atom_site_symmetry_multiplicity
 _atom_site_fract_x
 _atom_site_fract_y
 _atom_site_fract_z
 _atom_site_occupancy
  Tb  Tb0  1  0.251593  0.252373  0.251491  1
  Tb  Tb1  1  0.748513  0.748045  0.748808  1
  Tb  Tb2  1  0.748513  0.748045  0.251192  1
  Tb  Tb3  1  0.748513  0.251955  0.748808  1
  Tb  Tb4  1  0.251593  0.252373  0.748509  1
  Tb  Tb5  1  0.251593  0.747627  0.251491  1
  Tb  Tb6  1  0.251593  0.747627  0.748509  1
  Tb  Tb7  1  0.748513  0.251955  0.251192  1
  In  In8  1  0.000120  0.000000  0.000000  1
  Pd  Pd9  1  0.500081  0.000000  0.266808  1
  Pd  Pd10  1  0.266754  0.000000  0.500000  1
  Pd  Pd11  1  0.500081  0.000000  0.733192  1
  Pd  Pd12  1  0.733108  0.000000  0.500000  1
  Pd  Pd13  1  0.999963  0.500000  0.266231  1
  Pd  Pd14  1  0.999963  0.500000  0.733769  1
  Pd  Pd15  1  0.744890  0.500000  0.500000  1
  Pd  Pd16  1  0.499821  0.255285  0.500000  1
  Pd  Pd17  1  0.499821  0.744715  0.500000  1
  Pd  Pd18  1  0.499867  0.500000  0.255706  1
  Pd  Pd19  1  0.499867  0.500000  0.744294  1
  Pd  Pd20  1  0.312636  0.000000  0.000000  1
  Pd  Pd21  1  0.687633  0.000000  0.000000  1
  Pd  Pd22  1  0.999908  0.312244  0.000000  1
  Pd  Pd23  1  0.999908  0.687756  0.000000  1
  Pd  Pd24  1  0.999886  0.000000  0.312689  1
  Pd  Pd25  1  0.999886  0.000000  0.687311  1
  Pt  Pt26  1  0.265531  0.500000  0.000000  1
  Pt  Pt27  1  0.734314  0.500000  0.000000  1
  Pt  Pt28  1  0.000189  0.265756  0.500000  1
  Pt  Pt29  1  0.500074  0.265280  0.000000  1
  Pt  Pt30  1  0.000189  0.734244  0.500000  1
  Pt  Pt31  1  0.500074  0.734720  0.000000  1
  Pt  Pt32  1  0.255011  0.500000  0.500000  1
