# generated using pymatgen
data_Nd7ThCdHgIr2
_symmetry_space_group_name_H-M   'P 1'
_cell_length_a   9.95758601
_cell_length_b   9.95758622
_cell_length_c   9.99974900
_cell_angle_alpha   59.85983013
_cell_angle_beta   59.85982942
_cell_angle_gamma   60.09300983
_symmetry_Int_Tables_number   1
_chemical_formula_structural   Nd7ThCdHgIr2
_chemical_formula_sum   'Nd14 Th2 Cd2 Hg2 Ir4'
_cell_volume   700.10293986
_cell_formula_units_Z   2
loop_
 _symmetry_equiv_pos_site_id
 _symmetry_equiv_pos_as_xyz
  1  'x, y, z'
loop_
 _atom_site_type_symbol
 _atom_site_label
 _atom_site_symmetry_multiplicity
 _atom_site_fract_x
 _atom_site_fract_y
 _atom_site_fract_z
 _atom_site_occupancy
  Nd  Nd0  1  0.351257  0.947606  0.350569  1
  Nd  Nd1  1  0.947606  0.351257  0.350569  1
  Nd  Nd2  1  0.810458  0.189797  0.190549  1
  Nd  Nd3  1  0.189797  0.810458  0.809197  1
  Nd  Nd4  1  0.189797  0.810458  0.190549  1
  Nd  Nd5  1  0.810458  0.189797  0.809197  1
  Nd  Nd6  1  0.189092  0.189092  0.810908  1
  Nd  Nd7  1  0.807742  0.807742  0.192258  1
  Nd  Nd8  1  0.940810  0.560509  0.562499  1
  Nd  Nd9  1  0.560509  0.940810  0.936182  1
  Nd  Nd10  1  0.560509  0.940810  0.562499  1
  Nd  Nd11  1  0.940810  0.560509  0.936182  1
  Nd  Nd12  1  0.561845  0.561845  0.938155  1
  Nd  Nd13  1  0.938926  0.938926  0.561074  1
  Th  Th14  1  0.345554  0.345554  0.346755  1
  Th  Th15  1  0.345554  0.345554  0.962136  1
  Cd  Cd16  1  0.578231  0.258199  0.581784  1
  Cd  Cd17  1  0.258199  0.578231  0.581784  1
  Hg  Hg18  1  0.582540  0.582540  0.586902  1
  Hg  Hg19  1  0.582540  0.582540  0.248018  1
  Ir  Ir20  1  0.145500  0.145500  0.139361  1
  Ir  Ir21  1  0.145500  0.145500  0.569638  1
  Ir  Ir22  1  0.149541  0.567223  0.141618  1
  Ir  Ir23  1  0.567223  0.149541  0.141618  1
