# generated using pymatgen
data_LiLa4Nd12Cd3Ir4
_symmetry_space_group_name_H-M   'P 1'
_cell_length_a   10.00153443
_cell_length_b   10.00153437
_cell_length_c   10.00153502
_cell_angle_alpha   60.16809362
_cell_angle_beta   60.16809105
_cell_angle_gamma   60.16809919
_symmetry_Int_Tables_number   1
_chemical_formula_structural   LiLa4Nd12Cd3Ir4
_chemical_formula_sum   'Li1 La4 Nd12 Cd3 Ir4'
_cell_volume   710.12561287
_cell_formula_units_Z   1
loop_
 _symmetry_equiv_pos_site_id
 _symmetry_equiv_pos_as_xyz
  1  'x, y, z'
loop_
 _atom_site_type_symbol
 _atom_site_label
 _atom_site_symmetry_multiplicity
 _atom_site_fract_x
 _atom_site_fract_y
 _atom_site_fract_z
 _atom_site_occupancy
  Li  Li0  1  0.570792  0.570792  0.570792  1
  La  La1  1  0.348508  0.348508  0.348508  1
  La  La2  1  0.348009  0.348009  0.957037  1
  La  La3  1  0.348009  0.957037  0.348009  1
  La  La4  1  0.957037  0.348009  0.348009  1
  Nd  Nd5  1  0.810950  0.190363  0.190363  1
  Nd  Nd6  1  0.186650  0.812256  0.812256  1
  Nd  Nd7  1  0.190363  0.810950  0.190363  1
  Nd  Nd8  1  0.812256  0.186650  0.812256  1
  Nd  Nd9  1  0.190363  0.190363  0.810950  1
  Nd  Nd10  1  0.812256  0.812256  0.186650  1
  Nd  Nd11  1  0.938053  0.562647  0.562647  1
  Nd  Nd12  1  0.562035  0.937567  0.937567  1
  Nd  Nd13  1  0.562647  0.938053  0.562647  1
  Nd  Nd14  1  0.937567  0.562035  0.937567  1
  Nd  Nd15  1  0.562647  0.562647  0.938053  1
  Nd  Nd16  1  0.937567  0.937567  0.562035  1
  Cd  Cd17  1  0.582028  0.582028  0.256303  1
  Cd  Cd18  1  0.582028  0.256303  0.582028  1
  Cd  Cd19  1  0.256303  0.582028  0.582028  1
  Ir  Ir20  1  0.142331  0.142331  0.142331  1
  Ir  Ir21  1  0.142960  0.142960  0.575681  1
  Ir  Ir22  1  0.142960  0.575681  0.142960  1
  Ir  Ir23  1  0.575681  0.142960  0.142960  1
