# generated using pymatgen
data_Yb11LuSi11Ag12Ge
_symmetry_space_group_name_H-M   'P 1'
_cell_length_a   4.49655700
_cell_length_b   7.71073810
_cell_length_c   21.27991227
_cell_angle_alpha   89.84758346
_cell_angle_beta   90.00000000
_cell_angle_gamma   90.00000000
_symmetry_Int_Tables_number   1
_chemical_formula_structural   Yb11LuSi11Ag12Ge
_chemical_formula_sum   'Yb11 Lu1 Si11 Ag12 Ge1'
_cell_volume   737.80968495
_cell_formula_units_Z   1
loop_
 _symmetry_equiv_pos_site_id
 _symmetry_equiv_pos_as_xyz
  1  'x, y, z'
loop_
 _atom_site_type_symbol
 _atom_site_label
 _atom_site_symmetry_multiplicity
 _atom_site_fract_x
 _atom_site_fract_y
 _atom_site_fract_z
 _atom_site_occupancy
  Yb  Yb0  1  0.250000  0.220614  0.000074  1
  Yb  Yb1  1  0.250000  0.278581  0.499820  1
  Yb  Yb2  1  0.750000  0.777487  0.001066  1
  Yb  Yb3  1  0.750000  0.717634  0.499713  1
  Yb  Yb4  1  0.250000  0.204345  0.333103  1
  Yb  Yb5  1  0.250000  0.290400  0.832356  1
  Yb  Yb6  1  0.750000  0.794897  0.667006  1
  Yb  Yb7  1  0.750000  0.705066  0.166457  1
  Yb  Yb8  1  0.250000  0.209373  0.666663  1
  Yb  Yb9  1  0.250000  0.292441  0.166785  1
  Yb  Yb10  1  0.750000  0.792057  0.332645  1
  Lu  Lu11  1  0.750000  0.710854  0.833782  1
  Si  Si12  1  0.250000  0.581731  0.728550  1
  Si  Si13  1  0.250000  0.918852  0.223925  1
  Si  Si14  1  0.750000  0.418758  0.275569  1
  Si  Si15  1  0.750000  0.075228  0.775918  1
  Si  Si16  1  0.250000  0.913886  0.106023  1
  Si  Si17  1  0.250000  0.587294  0.608733  1
  Si  Si18  1  0.750000  0.084495  0.893628  1
  Si  Si19  1  0.750000  0.412892  0.393498  1
  Si  Si20  1  0.250000  0.595801  0.916286  1
  Si  Si21  1  0.250000  0.908766  0.428553  1
  Si  Si22  1  0.750000  0.410547  0.069948  1
  Ag  Ag23  1  0.250000  0.910252  0.762752  1
  Ag  Ag24  1  0.250000  0.588025  0.262082  1
  Ag  Ag25  1  0.750000  0.088522  0.237915  1
  Ag  Ag26  1  0.750000  0.411712  0.739537  1
  Ag  Ag27  1  0.250000  0.921664  0.906176  1
  Ag  Ag28  1  0.250000  0.581409  0.405768  1
  Ag  Ag29  1  0.750000  0.082676  0.094025  1
  Ag  Ag30  1  0.750000  0.426619  0.596098  1
  Ag  Ag31  1  0.250000  0.908392  0.564075  1
  Ag  Ag32  1  0.250000  0.583995  0.068417  1
  Ag  Ag33  1  0.750000  0.083184  0.432648  1
  Ag  Ag34  1  0.750000  0.417948  0.935597  1
  Ge  Ge35  1  0.750000  0.093596  0.574812  1
