# generated using pymatgen
data_MgZr2ZnCo8
_symmetry_space_group_name_H-M   'P 1'
_cell_length_a   4.81092971
_cell_length_b   4.81093020
_cell_length_c   8.40917577
_cell_angle_alpha   106.62176728
_cell_angle_beta   73.37821900
_cell_angle_gamma   120.00000568
_symmetry_Int_Tables_number   1
_chemical_formula_structural   MgZr2ZnCo8
_chemical_formula_sum   'Mg1 Zr2 Zn1 Co8'
_cell_volume   159.09489447
_cell_formula_units_Z   1
loop_
 _symmetry_equiv_pos_site_id
 _symmetry_equiv_pos_as_xyz
  1  'x, y, z'
loop_
 _atom_site_type_symbol
 _atom_site_label
 _atom_site_symmetry_multiplicity
 _atom_site_fract_x
 _atom_site_fract_y
 _atom_site_fract_z
 _atom_site_occupancy
  Mg  Mg0  1  0.375748  0.624252  0.872754  1
  Zr  Zr1  1  0.997926  0.002074  0.006220  1
  Zr  Zr2  1  0.502243  0.497757  0.493270  1
  Zn  Zn3  1  0.874701  0.125299  0.375898  1
  Co  Co4  1  0.436271  0.563729  0.188483  1
  Co  Co5  1  0.936923  0.063077  0.685985  1
  Co  Co6  1  0.436271  0.061027  0.188483  1
  Co  Co7  1  0.936923  0.559831  0.685985  1
  Co  Co8  1  0.187109  0.812891  0.438671  1
  Co  Co9  1  0.686738  0.313262  0.939787  1
  Co  Co10  1  0.938973  0.563729  0.188483  1
  Co  Co11  1  0.440169  0.063077  0.685985  1
