# generated using pymatgen
data_Sm2Co2Os
_symmetry_space_group_name_H-M   'P 1'
_cell_length_a   5.61420494
_cell_length_b   5.61420582
_cell_length_c   7.15857800
_cell_angle_alpha   90.00000000
_cell_angle_beta   90.00000000
_cell_angle_gamma   122.54289493
_symmetry_Int_Tables_number   1
_chemical_formula_structural   Sm2Co2Os
_chemical_formula_sum   'Sm4 Co4 Os2'
_cell_volume   190.20644949
_cell_formula_units_Z   2
loop_
 _symmetry_equiv_pos_site_id
 _symmetry_equiv_pos_as_xyz
  1  'x, y, z'
loop_
 _atom_site_type_symbol
 _atom_site_label
 _atom_site_symmetry_multiplicity
 _atom_site_fract_x
 _atom_site_fract_y
 _atom_site_fract_z
 _atom_site_occupancy
  Sm  Sm0  1  0.838428  0.161572  0.598816  1
  Sm  Sm1  1  0.161572  0.838428  0.401184  1
  Sm  Sm2  1  0.338428  0.661572  0.901184  1
  Sm  Sm3  1  0.661572  0.338428  0.098816  1
  Co  Co4  1  0.836138  0.663862  0.750000  1
  Co  Co5  1  0.163862  0.336138  0.250000  1
  Co  Co6  1  0.336138  0.163862  0.750000  1
  Co  Co7  1  0.663862  0.836138  0.250000  1
  Os  Os8  1  0.000000  0.000000  0.000000  1
  Os  Os9  1  0.500000  0.500000  0.500000  1
