# generated using pymatgen
data_Y4Ge6Ir6Pd
_symmetry_space_group_name_H-M   'P 1'
_cell_length_a   7.29897321
_cell_length_b   7.29939602
_cell_length_c   7.29897309
_cell_angle_alpha   109.71171710
_cell_angle_beta   109.73387807
_cell_angle_gamma   108.96691947
_symmetry_Int_Tables_number   1
_chemical_formula_structural   Y4Ge6Ir6Pd
_chemical_formula_sum   'Y4 Ge6 Ir6 Pd1'
_cell_volume   299.34764557
_cell_formula_units_Z   1
loop_
 _symmetry_equiv_pos_site_id
 _symmetry_equiv_pos_as_xyz
  1  'x, y, z'
loop_
 _atom_site_type_symbol
 _atom_site_label
 _atom_site_symmetry_multiplicity
 _atom_site_fract_x
 _atom_site_fract_y
 _atom_site_fract_z
 _atom_site_occupancy
  Y  Y0  1  0.001131  0.998842  0.499985  1
  Y  Y1  1  0.001157  0.501144  0.002297  1
  Y  Y2  1  0.498857  0.998842  0.997710  1
  Y  Y3  1  0.498848  0.501144  0.499988  1
  Ge  Ge4  1  0.681171  0.681091  0.999920  1
  Ge  Ge5  1  0.315055  0.997059  0.317999  1
  Ge  Ge6  1  0.003030  0.321001  0.317971  1
  Ge  Ge7  1  0.318831  0.318927  0.000096  1
  Ge  Ge8  1  0.679061  0.997059  0.682004  1
  Ge  Ge9  1  0.002854  0.684874  0.682020  1
  Ir  Ir10  1  0.750395  0.499878  0.250531  1
  Ir  Ir11  1  0.500184  0.249671  0.749487  1
  Ir  Ir12  1  0.249348  0.499878  0.749483  1
  Ir  Ir13  1  0.249999  0.749941  0.499942  1
  Ir  Ir14  1  0.500076  0.750611  0.250535  1
  Ir  Ir15  1  0.000000  0.999989  0.999989  1
  Pd  Pd16  1  0.750005  0.250048  0.500043  1
