# generated using pymatgen
data_Pr4Nd3Th(As2Au)8
_symmetry_space_group_name_H-M   'P 1'
_cell_length_a   5.85798000
_cell_length_b   5.90091084
_cell_length_c   20.63086902
_cell_angle_alpha   90.44007265
_cell_angle_beta   90.00000000
_cell_angle_gamma   90.00000000
_symmetry_Int_Tables_number   1
_chemical_formula_structural   Pr4Nd3Th(As2Au)8
_chemical_formula_sum   'Pr4 Nd3 Th1 As16 Au8'
_cell_volume   713.13483026
_cell_formula_units_Z   1
loop_
 _symmetry_equiv_pos_site_id
 _symmetry_equiv_pos_as_xyz
  1  'x, y, z'
loop_
 _atom_site_type_symbol
 _atom_site_label
 _atom_site_symmetry_multiplicity
 _atom_site_fract_x
 _atom_site_fract_y
 _atom_site_fract_z
 _atom_site_occupancy
  Pr  Pr0  1  0.750000  0.490758  0.616910  1
  Pr  Pr1  1  0.250000  0.510298  0.384692  1
  Pr  Pr2  1  0.250000  0.493509  0.883001  1
  Pr  Pr3  1  0.750000  0.503996  0.111229  1
  Nd  Nd4  1  0.250000  0.990289  0.621237  1
  Nd  Nd5  1  0.750000  0.011041  0.380613  1
  Nd  Nd6  1  0.750000  0.993978  0.882394  1
  Th  Th7  1  0.250000  0.005048  0.119963  1
  As  As8  1  0.750000  0.991862  0.659744  1
  As  As9  1  0.250000  0.008985  0.339429  1
  As  As10  1  0.250000  0.992912  0.840171  1
  As  As11  1  0.750000  0.004143  0.156601  1
  As  As12  1  0.250000  0.491757  0.658841  1
  As  As13  1  0.750000  0.508361  0.340940  1
  As  As14  1  0.750000  0.493274  0.842742  1
  As  As15  1  0.250000  0.505086  0.155706  1
  As  As16  1  0.027842  0.220977  0.500865  1
  As  As17  1  0.527190  0.779325  0.499252  1
  As  As18  1  0.023506  0.222414  0.000897  1
  As  As19  1  0.474600  0.777807  0.001060  1
  As  As20  1  0.972810  0.779325  0.499252  1
  As  As21  1  0.472158  0.220977  0.500865  1
  As  As22  1  0.025400  0.777807  0.001060  1
  As  As23  1  0.476494  0.222414  0.000897  1
  Au  Au24  1  0.501074  0.736843  0.750581  1
  Au  Au25  1  0.999637  0.264621  0.249656  1
  Au  Au26  1  0.500363  0.264621  0.249656  1
  Au  Au27  1  0.998926  0.736843  0.750581  1
  Au  Au28  1  0.500496  0.239033  0.750646  1
  Au  Au29  1  0.999198  0.761333  0.249935  1
  Au  Au30  1  0.500802  0.761333  0.249935  1
  Au  Au31  1  0.999504  0.239033  0.750646  1
