# generated using pymatgen
data_HoTh7(Si3Ni)4
_symmetry_space_group_name_H-M   'P 1'
_cell_length_a   8.02536848
_cell_length_b   8.01092814
_cell_length_c   8.45109800
_cell_angle_alpha   90.00000000
_cell_angle_beta   90.00000000
_cell_angle_gamma   119.94050679
_symmetry_Int_Tables_number   1
_chemical_formula_structural   HoTh7(Si3Ni)4
_chemical_formula_sum   'Ho1 Th7 Si12 Ni4'
_cell_volume   470.81645408
_cell_formula_units_Z   1
loop_
 _symmetry_equiv_pos_site_id
 _symmetry_equiv_pos_as_xyz
  1  'x, y, z'
loop_
 _atom_site_type_symbol
 _atom_site_label
 _atom_site_symmetry_multiplicity
 _atom_site_fract_x
 _atom_site_fract_y
 _atom_site_fract_z
 _atom_site_occupancy
  Ho  Ho0  1  0.999865  0.499932  0.750000  1
  Th  Th1  1  0.000006  0.000003  0.250000  1
  Th  Th2  1  0.000007  0.000004  0.750000  1
  Th  Th3  1  0.500001  0.500005  0.250000  1
  Th  Th4  1  0.500001  0.999996  0.250000  1
  Th  Th5  1  0.999998  0.499999  0.250000  1
  Th  Th6  1  0.500004  0.499990  0.750000  1
  Th  Th7  1  0.500004  0.000014  0.750000  1
  Si  Si8  1  0.170347  0.827401  0.503092  1
  Si  Si9  1  0.170347  0.342945  0.503092  1
  Si  Si10  1  0.659895  0.829947  0.499540  1
  Si  Si11  1  0.829646  0.172589  0.503089  1
  Si  Si12  1  0.829646  0.657059  0.503089  1
  Si  Si13  1  0.340128  0.170064  0.499549  1
  Si  Si14  1  0.829646  0.172589  0.996911  1
  Si  Si15  1  0.829646  0.657059  0.996911  1
  Si  Si16  1  0.340128  0.170064  0.000451  1
  Si  Si17  1  0.170347  0.827401  0.996908  1
  Si  Si18  1  0.170347  0.342945  0.996908  1
  Si  Si19  1  0.659895  0.829947  0.000460  1
  Ni  Ni20  1  0.334215  0.667108  0.502440  1
  Ni  Ni21  1  0.665830  0.332915  0.502323  1
  Ni  Ni22  1  0.665830  0.332915  0.997677  1
  Ni  Ni23  1  0.334215  0.667108  0.997560  1
