# generated using pymatgen
data_Pr3SiS2
_symmetry_space_group_name_H-M   'P 1'
_cell_length_a   7.26231793
_cell_length_b   7.26231852
_cell_length_c   7.26231868
_cell_angle_alpha   146.36131323
_cell_angle_beta   132.00606624
_cell_angle_gamma   59.88370800
_symmetry_Int_Tables_number   1
_chemical_formula_structural   Pr3SiS2
_chemical_formula_sum   'Pr3 Si1 S2'
_cell_volume   156.22957605
_cell_formula_units_Z   1
loop_
 _symmetry_equiv_pos_site_id
 _symmetry_equiv_pos_as_xyz
  1  'x, y, z'
loop_
 _atom_site_type_symbol
 _atom_site_label
 _atom_site_symmetry_multiplicity
 _atom_site_fract_x
 _atom_site_fract_y
 _atom_site_fract_z
 _atom_site_occupancy
  Pr  Pr0  1  0.834122  0.334122  0.500000  1
  Pr  Pr1  1  0.500000  0.000000  0.500000  1
  Pr  Pr2  1  0.165878  0.665878  0.500000  1
  Si  Si3  1  0.000000  0.000000  0.000000  1
  S  S4  1  0.665957  0.665957  0.000000  1
  S  S5  1  0.334043  0.334043  0.000000  1
