# generated using pymatgen
data_Ac2YbRuO6
_symmetry_space_group_name_H-M   'P 1'
_cell_length_a   5.74389530
_cell_length_b   6.05835700
_cell_length_c   8.27220900
_cell_angle_alpha   90.00000000
_cell_angle_beta   90.21988109
_cell_angle_gamma   90.00000000
_symmetry_Int_Tables_number   1
_chemical_formula_structural   Ac2YbRuO6
_chemical_formula_sum   'Ac4 Yb2 Ru2 O12'
_cell_volume   287.85890996
_cell_formula_units_Z   2
loop_
 _symmetry_equiv_pos_site_id
 _symmetry_equiv_pos_as_xyz
  1  'x, y, z'
loop_
 _atom_site_type_symbol
 _atom_site_label
 _atom_site_symmetry_multiplicity
 _atom_site_fract_x
 _atom_site_fract_y
 _atom_site_fract_z
 _atom_site_occupancy
  Ac  Ac0  1  0.985698  0.056250  0.248965  1
  Ac  Ac1  1  0.514303  0.556251  0.251035  1
  Ac  Ac2  1  0.485698  0.443748  0.748964  1
  Ac  Ac3  1  0.014303  0.943750  0.751035  1
  Yb  Yb4  1  0.000000  0.500001  0.000000  1
  Yb  Yb5  1  0.500001  0.000000  0.500000  1
  Ru  Ru6  1  0.500000  0.000000  0.000000  1
  Ru  Ru7  1  0.000000  0.500001  0.499999  1
  O  O8  1  0.784610  0.808548  0.043205  1
  O  O9  1  0.688480  0.279746  0.051522  1
  O  O10  1  0.411404  0.973613  0.235906  1
  O  O11  1  0.088594  0.473611  0.264095  1
  O  O12  1  0.811521  0.779746  0.448479  1
  O  O13  1  0.715391  0.308550  0.456795  1
  O  O14  1  0.284610  0.691452  0.543205  1
  O  O15  1  0.188480  0.220254  0.551522  1
  O  O16  1  0.911405  0.526388  0.735906  1
  O  O17  1  0.588595  0.026388  0.764095  1
  O  O18  1  0.311521  0.720253  0.948480  1
  O  O19  1  0.215391  0.191451  0.956795  1
