# generated using pymatgen
data_CeY2Ho5(CdIr)2
_symmetry_space_group_name_H-M   'P 1'
_cell_length_a   9.62431551
_cell_length_b   9.61122969
_cell_length_c   9.63711295
_cell_angle_alpha   60.00081645
_cell_angle_beta   59.86615501
_cell_angle_gamma   59.85691953
_symmetry_Int_Tables_number   1
_chemical_formula_structural   CeY2Ho5(CdIr)2
_chemical_formula_sum   'Ce2 Y4 Ho10 Cd4 Ir4'
_cell_volume   629.02995199
_cell_formula_units_Z   2
loop_
 _symmetry_equiv_pos_site_id
 _symmetry_equiv_pos_as_xyz
  1  'x, y, z'
loop_
 _atom_site_type_symbol
 _atom_site_label
 _atom_site_symmetry_multiplicity
 _atom_site_fract_x
 _atom_site_fract_y
 _atom_site_fract_z
 _atom_site_occupancy
  Ce  Ce0  1  0.345967  0.346234  0.349211  1
  Ce  Ce1  1  0.346234  0.345967  0.958588  1
  Y  Y2  1  0.562699  0.938753  0.562925  1
  Y  Y3  1  0.938753  0.562699  0.935623  1
  Y  Y4  1  0.562684  0.562684  0.937316  1
  Y  Y5  1  0.938997  0.938997  0.561003  1
  Ho  Ho6  1  0.351817  0.948013  0.350034  1
  Ho  Ho7  1  0.948013  0.351817  0.350134  1
  Ho  Ho8  1  0.811939  0.188667  0.189595  1
  Ho  Ho9  1  0.188667  0.811939  0.809798  1
  Ho  Ho10  1  0.188683  0.811950  0.189579  1
  Ho  Ho11  1  0.811950  0.188683  0.809789  1
  Ho  Ho12  1  0.187907  0.187907  0.812093  1
  Ho  Ho13  1  0.811844  0.811844  0.188156  1
  Ho  Ho14  1  0.939710  0.561620  0.562099  1
  Ho  Ho15  1  0.561620  0.939710  0.936572  1
  Cd  Cd16  1  0.580317  0.580244  0.581212  1
  Cd  Cd17  1  0.580244  0.580317  0.258228  1
  Cd  Cd18  1  0.579715  0.255934  0.582242  1
  Cd  Cd19  1  0.255934  0.579715  0.582110  1
  Ir  Ir20  1  0.143814  0.143239  0.140507  1
  Ir  Ir21  1  0.143239  0.143814  0.572441  1
  Ir  Ir22  1  0.146104  0.573152  0.140603  1
  Ir  Ir23  1  0.573152  0.146104  0.140140  1
