# generated using pymatgen
data_Sm2AlTc3
_symmetry_space_group_name_H-M   'P 1'
_cell_length_a   5.53069355
_cell_length_b   5.53069331
_cell_length_c   5.53069302
_cell_angle_alpha   58.33291404
_cell_angle_beta   58.33291579
_cell_angle_gamma   58.33290350
_symmetry_Int_Tables_number   1
_chemical_formula_structural   Sm2AlTc3
_chemical_formula_sum   'Sm2 Al1 Tc3'
_cell_volume   115.05918953
_cell_formula_units_Z   1
loop_
 _symmetry_equiv_pos_site_id
 _symmetry_equiv_pos_as_xyz
  1  'x, y, z'
loop_
 _atom_site_type_symbol
 _atom_site_label
 _atom_site_symmetry_multiplicity
 _atom_site_fract_x
 _atom_site_fract_y
 _atom_site_fract_z
 _atom_site_occupancy
  Sm  Sm0  1  0.878272  0.878272  0.878272  1
  Sm  Sm1  1  0.121728  0.121728  0.121728  1
  Al  Al2  1  0.500000  0.500000  0.500000  1
  Tc  Tc3  1  0.500000  0.500000  0.000000  1
  Tc  Tc4  1  0.000000  0.500000  0.500000  1
  Tc  Tc5  1  0.500000  0.000000  0.500000  1
