# generated using pymatgen
data_NaPr(GaSe2)4
_symmetry_space_group_name_H-M   'P 1'
_cell_length_a   12.48232384
_cell_length_b   12.48232405
_cell_length_c   12.50918900
_cell_angle_alpha   105.30986089
_cell_angle_beta   105.30986115
_cell_angle_gamma   118.08528787
_symmetry_Int_Tables_number   1
_chemical_formula_structural   NaPr(GaSe2)4
_chemical_formula_sum   'Na4 Pr4 Ga16 Se32'
_cell_volume   1475.72439633
_cell_formula_units_Z   4
loop_
 _symmetry_equiv_pos_site_id
 _symmetry_equiv_pos_as_xyz
  1  'x, y, z'
loop_
 _atom_site_type_symbol
 _atom_site_label
 _atom_site_symmetry_multiplicity
 _atom_site_fract_x
 _atom_site_fract_y
 _atom_site_fract_z
 _atom_site_occupancy
  Na  Na0  1  0.871894  0.621894  0.243788  1
  Na  Na1  1  0.378106  0.128106  0.256213  1
  Na  Na2  1  0.621894  0.871894  0.743787  1
  Na  Na3  1  0.128105  0.378106  0.756213  1
  Pr  Pr4  1  0.875000  0.125000  0.250000  1
  Pr  Pr5  1  0.375000  0.625000  0.250000  1
  Pr  Pr6  1  0.625000  0.375000  0.750000  1
  Pr  Pr7  1  0.125000  0.875000  0.750000  1
  Ga  Ga8  1  0.971487  0.361597  0.001396  1
  Ga  Ga9  1  0.529909  0.639799  0.001396  1
  Ga  Ga10  1  0.115838  0.136705  0.004755  1
  Ga  Ga11  1  0.388918  0.868049  0.004755  1
  Ga  Ga12  1  0.131951  0.611083  0.495245  1
  Ga  Ga13  1  0.863295  0.884162  0.495245  1
  Ga  Ga14  1  0.638403  0.028513  0.498604  1
  Ga  Ga15  1  0.360201  0.470091  0.498604  1
  Ga  Ga16  1  0.639799  0.529910  0.501396  1
  Ga  Ga17  1  0.361597  0.971487  0.501396  1
  Ga  Ga18  1  0.136705  0.115838  0.504755  1
  Ga  Ga19  1  0.868049  0.388918  0.504755  1
  Ga  Ga20  1  0.611082  0.131951  0.995244  1
  Ga  Ga21  1  0.884162  0.863295  0.995244  1
  Ga  Ga22  1  0.470091  0.360201  0.998604  1
  Ga  Ga23  1  0.028513  0.638403  0.998604  1
  Se  Se24  1  0.318605  0.150480  0.002128  1
  Se  Se25  1  0.183523  0.851648  0.002128  1
  Se  Se26  1  0.162642  0.348212  0.004766  1
  Se  Se27  1  0.342124  0.656553  0.004766  1
  Se  Se28  1  0.079194  0.083069  0.173177  1
  Se  Se29  1  0.593982  0.090108  0.173177  1
  Se  Se30  1  0.582156  0.586196  0.173996  1
  Se  Se31  1  0.091839  0.587799  0.173996  1
  Se  Se32  1  0.413804  0.417844  0.326004  1
  Se  Se33  1  0.412201  0.908161  0.326004  1
  Se  Se34  1  0.909892  0.406017  0.326823  1
  Se  Se35  1  0.916930  0.920805  0.326823  1
  Se  Se36  1  0.343447  0.657876  0.495235  1
  Se  Se37  1  0.651788  0.837358  0.495235  1
  Se  Se38  1  0.849520  0.681395  0.497872  1
  Se  Se39  1  0.148352  0.816477  0.497872  1
  Se  Se40  1  0.851649  0.183523  0.502128  1
  Se  Se41  1  0.150480  0.318605  0.502128  1
  Se  Se42  1  0.348212  0.162642  0.504766  1
  Se  Se43  1  0.656554  0.342124  0.504766  1
  Se  Se44  1  0.083069  0.079195  0.673177  1
  Se  Se45  1  0.090108  0.593983  0.673177  1
  Se  Se46  1  0.587799  0.091839  0.673995  1
  Se  Se47  1  0.586196  0.582156  0.673995  1
  Se  Se48  1  0.908161  0.412202  0.826005  1
  Se  Se49  1  0.417844  0.413804  0.826005  1
  Se  Se50  1  0.406018  0.909892  0.826823  1
  Se  Se51  1  0.920805  0.916930  0.826823  1
  Se  Se52  1  0.657876  0.343446  0.995234  1
  Se  Se53  1  0.837358  0.651788  0.995234  1
  Se  Se54  1  0.816477  0.148351  0.997873  1
  Se  Se55  1  0.681395  0.849520  0.997873  1
