# generated using pymatgen
data_Yb3Ce(Ga12Pt)2
_symmetry_space_group_name_H-M   'P 1'
_cell_length_a   6.11119900
_cell_length_b   6.11119997
_cell_length_c   15.76261400
_cell_angle_alpha   90.00000000
_cell_angle_beta   90.00000000
_cell_angle_gamma   89.59328580
_symmetry_Int_Tables_number   1
_chemical_formula_structural   Yb3Ce(Ga12Pt)2
_chemical_formula_sum   'Yb3 Ce1 Ga24 Pt2'
_cell_volume   588.66771687
_cell_formula_units_Z   1
loop_
 _symmetry_equiv_pos_site_id
 _symmetry_equiv_pos_as_xyz
  1  'x, y, z'
loop_
 _atom_site_type_symbol
 _atom_site_label
 _atom_site_symmetry_multiplicity
 _atom_site_fract_x
 _atom_site_fract_y
 _atom_site_fract_z
 _atom_site_occupancy
  Yb  Yb0  1  0.750000  0.250000  0.244833  1
  Yb  Yb1  1  0.250000  0.750000  0.244833  1
  Yb  Yb2  1  0.250000  0.750000  0.754412  1
  Ce  Ce3  1  0.750000  0.250000  0.758247  1
  Ga  Ga4  1  0.250000  0.250000  0.189595  1
  Ga  Ga5  1  0.750000  0.750000  0.189595  1
  Ga  Ga6  1  0.750000  0.750000  0.810109  1
  Ga  Ga7  1  0.250000  0.250000  0.810109  1
  Ga  Ga8  1  0.250000  0.250000  0.345330  1
  Ga  Ga9  1  0.750000  0.750000  0.345330  1
  Ga  Ga10  1  0.750000  0.750000  0.654285  1
  Ga  Ga11  1  0.250000  0.250000  0.654285  1
  Ga  Ga12  1  0.499480  0.999480  0.909099  1
  Ga  Ga13  1  0.000565  0.999435  0.908273  1
  Ga  Ga14  1  0.499435  0.500565  0.908273  1
  Ga  Ga15  1  0.000520  0.500520  0.909099  1
  Ga  Ga16  1  0.500227  0.000227  0.090220  1
  Ga  Ga17  1  0.999896  0.000104  0.091070  1
  Ga  Ga18  1  0.500104  0.499896  0.091070  1
  Ga  Ga19  1  0.999773  0.499773  0.090220  1
  Ga  Ga20  1  0.580634  0.080634  0.432111  1
  Ga  Ga21  1  0.079390  0.920610  0.431422  1
  Ga  Ga22  1  0.420610  0.579390  0.431422  1
  Ga  Ga23  1  0.919366  0.419366  0.432111  1
  Ga  Ga24  1  0.415220  0.915220  0.568117  1
  Ga  Ga25  1  0.916982  0.083018  0.570665  1
  Ga  Ga26  1  0.583018  0.416982  0.570665  1
  Ga  Ga27  1  0.084780  0.584780  0.568117  1
  Pt  Pt28  1  0.750000  0.250000  0.998564  1
  Pt  Pt29  1  0.250000  0.750000  0.998513  1
