# generated using pymatgen
data_Gd4ZnCuSi6
_symmetry_space_group_name_H-M   'P 1'
_cell_length_a   8.16040117
_cell_length_b   8.09870767
_cell_length_c   5.82394900
_cell_angle_alpha   69.57831368
_cell_angle_beta   68.44493972
_cell_angle_gamma   41.97675569
_symmetry_Int_Tables_number   1
_chemical_formula_structural   Gd4ZnCuSi6
_chemical_formula_sum   'Gd4 Zn1 Cu1 Si6'
_cell_volume   237.64287021
_cell_formula_units_Z   1
loop_
 _symmetry_equiv_pos_site_id
 _symmetry_equiv_pos_as_xyz
  1  'x, y, z'
loop_
 _atom_site_type_symbol
 _atom_site_label
 _atom_site_symmetry_multiplicity
 _atom_site_fract_x
 _atom_site_fract_y
 _atom_site_fract_z
 _atom_site_occupancy
  Gd  Gd0  1  0.750428  0.750428  0.749572  1
  Gd  Gd1  1  0.755853  0.243598  0.756402  1
  Gd  Gd2  1  0.250428  0.250428  0.249572  1
  Gd  Gd3  1  0.243598  0.755853  0.244147  1
  Zn  Zn4  1  0.666314  0.666314  0.333686  1
  Cu  Cu5  1  0.333311  0.333311  0.666689  1
  Si  Si6  1  0.833658  0.331371  0.166342  1
  Si  Si7  1  0.657533  0.172300  0.342467  1
  Si  Si8  1  0.172300  0.657533  0.827700  1
  Si  Si9  1  0.331371  0.833658  0.668629  1
  Si  Si10  1  0.170184  0.170184  0.829816  1
  Si  Si11  1  0.835022  0.835022  0.164978  1
