# generated using pymatgen
data_La3Y(Er3Pt4)2
_symmetry_space_group_name_H-M   'P 1'
_cell_length_a   7.62664800
_cell_length_b   7.68446501
_cell_length_c   14.69161902
_cell_angle_alpha   90.00516771
_cell_angle_beta   90.00000000
_cell_angle_gamma   90.00000000
_symmetry_Int_Tables_number   1
_chemical_formula_structural   La3Y(Er3Pt4)2
_chemical_formula_sum   'La6 Y2 Er12 Pt16'
_cell_volume   861.02744688
_cell_formula_units_Z   2
loop_
 _symmetry_equiv_pos_site_id
 _symmetry_equiv_pos_as_xyz
  1  'x, y, z'
loop_
 _atom_site_type_symbol
 _atom_site_label
 _atom_site_symmetry_multiplicity
 _atom_site_fract_x
 _atom_site_fract_y
 _atom_site_fract_z
 _atom_site_occupancy
  La  La0  1  0.998410  0.820994  0.404873  1
  La  La1  1  0.498410  0.679006  0.095127  1
  La  La2  1  0.501995  0.326155  0.593820  1
  La  La3  1  0.001995  0.173845  0.906180  1
  La  La4  1  0.002823  0.176507  0.595629  1
  La  La5  1  0.502823  0.323493  0.904371  1
  Y  Y6  1  0.497329  0.676699  0.400503  1
  Y  Y7  1  0.997329  0.823301  0.099497  1
  Er  Er8  1  0.679103  0.993422  0.249846  1
  Er  Er9  1  0.179103  0.506578  0.250154  1
  Er  Er10  1  0.822328  0.495001  0.750088  1
  Er  Er11  1  0.322328  0.004999  0.749912  1
  Er  Er12  1  0.654231  0.830377  0.620967  1
  Er  Er13  1  0.154231  0.669623  0.879033  1
  Er  Er14  1  0.840235  0.334105  0.376529  1
  Er  Er15  1  0.340235  0.165895  0.123471  1
  Er  Er16  1  0.341797  0.166357  0.375495  1
  Er  Er17  1  0.841797  0.333643  0.124505  1
  Er  Er18  1  0.159257  0.665476  0.623297  1
  Er  Er19  1  0.659257  0.834524  0.876703  1
  Pt  Pt20  1  0.812919  0.638963  0.249606  1
  Pt  Pt21  1  0.312919  0.861037  0.250394  1
  Pt  Pt22  1  0.688273  0.136580  0.749372  1
  Pt  Pt23  1  0.188273  0.363420  0.750628  1
  Pt  Pt24  1  0.544944  0.377011  0.251073  1
  Pt  Pt25  1  0.044944  0.122989  0.248927  1
  Pt  Pt26  1  0.953616  0.871365  0.749122  1
  Pt  Pt27  1  0.453616  0.628635  0.750878  1
  Pt  Pt28  1  0.822781  0.537933  0.542574  1
  Pt  Pt29  1  0.322781  0.962067  0.957426  1
  Pt  Pt30  1  0.672546  0.030730  0.452958  1
  Pt  Pt31  1  0.172546  0.469270  0.047042  1
  Pt  Pt32  1  0.183857  0.467101  0.454399  1
  Pt  Pt33  1  0.683857  0.032899  0.045601  1
  Pt  Pt34  1  0.323557  0.959430  0.542425  1
  Pt  Pt35  1  0.823557  0.540570  0.957575  1
