# generated using pymatgen
data_Ca2AsO4F
_symmetry_space_group_name_H-M   'P 1'
_cell_length_a   8.20156558
_cell_length_b   8.20156540
_cell_length_c   10.95931883
_cell_angle_alpha   62.26747169
_cell_angle_beta   62.26747554
_cell_angle_gamma   51.24559621
_symmetry_Int_Tables_number   1
_chemical_formula_structural   Ca2AsO4F
_chemical_formula_sum   'Ca8 As4 O16 F4'
_cell_volume   492.40574302
_cell_formula_units_Z   4
loop_
 _symmetry_equiv_pos_site_id
 _symmetry_equiv_pos_as_xyz
  1  'x, y, z'
loop_
 _atom_site_type_symbol
 _atom_site_label
 _atom_site_symmetry_multiplicity
 _atom_site_fract_x
 _atom_site_fract_y
 _atom_site_fract_z
 _atom_site_occupancy
  Ca  Ca0  1  0.207907  0.694909  0.984321  1
  Ca  Ca1  1  0.305091  0.792093  0.515679  1
  Ca  Ca2  1  0.792093  0.305091  0.015679  1
  Ca  Ca3  1  0.694909  0.207907  0.484321  1
  Ca  Ca4  1  0.044675  0.255675  0.654115  1
  Ca  Ca5  1  0.744325  0.955325  0.845885  1
  Ca  Ca6  1  0.955325  0.744325  0.345885  1
  Ca  Ca7  1  0.255675  0.044675  0.154115  1
  As  As8  1  0.232406  0.409904  0.806843  1
  As  As9  1  0.590096  0.767594  0.693157  1
  As  As10  1  0.767594  0.590096  0.193157  1
  As  As11  1  0.409904  0.232406  0.306843  1
  O  O12  1  0.783446  0.613545  0.573020  1
  O  O13  1  0.386455  0.216554  0.926980  1
  O  O14  1  0.216554  0.386455  0.426980  1
  O  O15  1  0.613545  0.783446  0.073020  1
  O  O16  1  0.938455  0.652451  0.183291  1
  O  O17  1  0.347549  0.061545  0.316709  1
  O  O18  1  0.061545  0.347549  0.816709  1
  O  O19  1  0.652451  0.938455  0.683291  1
  O  O20  1  0.605240  0.564517  0.362556  1
  O  O21  1  0.435483  0.394760  0.137444  1
  O  O22  1  0.394760  0.435483  0.637444  1
  O  O23  1  0.564517  0.605240  0.862556  1
  O  O24  1  0.909399  0.345737  0.153939  1
  O  O25  1  0.654263  0.090601  0.346061  1
  O  O26  1  0.090601  0.654263  0.846061  1
  O  O27  1  0.345737  0.909399  0.653939  1
  F  F28  1  0.071867  0.904526  0.389829  1
  F  F29  1  0.095474  0.928133  0.110171  1
  F  F30  1  0.928133  0.095474  0.610171  1
  F  F31  1  0.904526  0.071867  0.889829  1
