# generated using pymatgen
data_Tb4Y12Cd4TcPd3
_symmetry_space_group_name_H-M   'P 1'
_cell_length_a   9.77248426
_cell_length_b   9.77248508
_cell_length_c   9.77248326
_cell_angle_alpha   59.27536887
_cell_angle_beta   59.27536794
_cell_angle_gamma   59.27536874
_symmetry_Int_Tables_number   1
_chemical_formula_structural   Tb4Y12Cd4TcPd3
_chemical_formula_sum   'Tb4 Y12 Cd4 Tc1 Pd3'
_cell_volume   649.04268694
_cell_formula_units_Z   1
loop_
 _symmetry_equiv_pos_site_id
 _symmetry_equiv_pos_as_xyz
  1  'x, y, z'
loop_
 _atom_site_type_symbol
 _atom_site_label
 _atom_site_symmetry_multiplicity
 _atom_site_fract_x
 _atom_site_fract_y
 _atom_site_fract_z
 _atom_site_occupancy
  Tb  Tb0  1  0.353325  0.353325  0.353325  1
  Tb  Tb1  1  0.351117  0.351117  0.944953  1
  Tb  Tb2  1  0.351117  0.944953  0.351117  1
  Tb  Tb3  1  0.944953  0.351117  0.351117  1
  Y  Y4  1  0.817246  0.187694  0.187694  1
  Y  Y5  1  0.188846  0.809983  0.809983  1
  Y  Y6  1  0.187694  0.817246  0.187694  1
  Y  Y7  1  0.809983  0.188846  0.809983  1
  Y  Y8  1  0.187694  0.187694  0.817246  1
  Y  Y9  1  0.809983  0.809983  0.188846  1
  Y  Y10  1  0.935101  0.565207  0.565207  1
  Y  Y11  1  0.557093  0.937202  0.937202  1
  Y  Y12  1  0.565207  0.935101  0.565207  1
  Y  Y13  1  0.937202  0.557093  0.937202  1
  Y  Y14  1  0.565207  0.565207  0.935101  1
  Y  Y15  1  0.937202  0.937202  0.557093  1
  Cd  Cd16  1  0.579817  0.579817  0.579817  1
  Cd  Cd17  1  0.581145  0.581145  0.253796  1
  Cd  Cd18  1  0.581145  0.253796  0.581145  1
  Cd  Cd19  1  0.253796  0.581145  0.581145  1
  Tc  Tc20  1  0.145706  0.145706  0.145706  1
  Pd  Pd21  1  0.145558  0.145558  0.568305  1
  Pd  Pd22  1  0.145558  0.568305  0.145558  1
  Pd  Pd23  1  0.568305  0.145558  0.145558  1
