# generated using pymatgen
data_Y5ErMn2(Co4P3)4
_symmetry_space_group_name_H-M   'P 1'
_cell_length_a   3.68945200
_cell_length_b   10.53161600
_cell_length_c   12.18554400
_cell_angle_alpha   90.00099892
_cell_angle_beta   90.00000000
_cell_angle_gamma   90.00000000
_symmetry_Int_Tables_number   1
_chemical_formula_structural   Y5ErMn2(Co4P3)4
_chemical_formula_sum   'Y5 Er1 Mn2 Co16 P12'
_cell_volume   473.48017811
_cell_formula_units_Z   1
loop_
 _symmetry_equiv_pos_site_id
 _symmetry_equiv_pos_as_xyz
  1  'x, y, z'
loop_
 _atom_site_type_symbol
 _atom_site_label
 _atom_site_symmetry_multiplicity
 _atom_site_fract_x
 _atom_site_fract_y
 _atom_site_fract_z
 _atom_site_occupancy
  Y  Y0  1  0.000000  0.499859  0.522281  1
  Y  Y1  1  0.500000  0.000122  0.477318  1
  Y  Y2  1  0.500000  0.181754  0.205233  1
  Y  Y3  1  0.000000  0.681946  0.794970  1
  Y  Y4  1  0.000000  0.317977  0.794872  1
  Er  Er5  1  0.500000  0.818084  0.204976  1
  Mn  Mn6  1  0.500000  0.500352  0.158765  1
  Mn  Mn7  1  0.000000  0.999887  0.841432  1
  Co  Co8  1  0.500000  0.500060  0.702814  1
  Co  Co9  1  0.000000  0.998807  0.296663  1
  Co  Co10  1  0.000000  0.500532  0.986798  1
  Co  Co11  1  0.500000  0.999527  0.014084  1
  Co  Co12  1  0.500000  0.333142  0.994046  1
  Co  Co13  1  0.500000  0.667285  0.994531  1
  Co  Co14  1  0.000000  0.166442  0.006307  1
  Co  Co15  1  0.000000  0.833041  0.006768  1
  Co  Co16  1  0.500000  0.296528  0.430345  1
  Co  Co17  1  0.500000  0.703701  0.429663  1
  Co  Co18  1  0.000000  0.203391  0.569558  1
  Co  Co19  1  0.000000  0.796561  0.569208  1
  Co  Co20  1  0.500000  0.879715  0.709346  1
  Co  Co21  1  0.500000  0.120339  0.709418  1
  Co  Co22  1  0.000000  0.621209  0.290036  1
  Co  Co23  1  0.000000  0.379845  0.290648  1
  P  P24  1  0.500000  0.500169  0.883171  1
  P  P25  1  0.000000  0.998997  0.117499  1
  P  P26  1  0.500000  0.500003  0.344515  1
  P  P27  1  0.000000  0.000034  0.655376  1
  P  P28  1  0.500000  0.310786  0.616023  1
  P  P29  1  0.500000  0.689283  0.615808  1
  P  P30  1  0.000000  0.188974  0.383879  1
  P  P31  1  0.000000  0.810759  0.382740  1
  P  P32  1  0.500000  0.847497  0.893194  1
  P  P33  1  0.500000  0.152345  0.893373  1
  P  P34  1  0.000000  0.653605  0.107470  1
  P  P35  1  0.000000  0.347442  0.106873  1
