# generated using pymatgen
data_Y3Fe7(P3Rh)2
_symmetry_space_group_name_H-M   'P 1'
_cell_length_a   3.75121200
_cell_length_b   10.71095900
_cell_length_c   12.23695800
_cell_angle_alpha   90.00000000
_cell_angle_beta   90.00000000
_cell_angle_gamma   90.00000000
_symmetry_Int_Tables_number   1
_chemical_formula_structural   Y3Fe7(P3Rh)2
_chemical_formula_sum   'Y6 Fe14 P12 Rh4'
_cell_volume   491.66968914
_cell_formula_units_Z   2
loop_
 _symmetry_equiv_pos_site_id
 _symmetry_equiv_pos_as_xyz
  1  'x, y, z'
loop_
 _atom_site_type_symbol
 _atom_site_label
 _atom_site_symmetry_multiplicity
 _atom_site_fract_x
 _atom_site_fract_y
 _atom_site_fract_z
 _atom_site_occupancy
  Y  Y0  1  0.000000  0.500000  0.523313  1
  Y  Y1  1  0.500000  0.000000  0.476687  1
  Y  Y2  1  0.500000  0.816046  0.203799  1
  Y  Y3  1  0.500000  0.183954  0.203799  1
  Y  Y4  1  0.000000  0.683954  0.796201  1
  Y  Y5  1  0.000000  0.316046  0.796201  1
  Fe  Fe6  1  0.000000  0.500000  0.990676  1
  Fe  Fe7  1  0.500000  0.000000  0.009324  1
  Fe  Fe8  1  0.500000  0.331100  0.994840  1
  Fe  Fe9  1  0.500000  0.668900  0.994840  1
  Fe  Fe10  1  0.000000  0.168900  0.005160  1
  Fe  Fe11  1  0.000000  0.831100  0.005160  1
  Fe  Fe12  1  0.500000  0.300792  0.430474  1
  Fe  Fe13  1  0.500000  0.699208  0.430474  1
  Fe  Fe14  1  0.000000  0.199208  0.569526  1
  Fe  Fe15  1  0.000000  0.800792  0.569526  1
  Fe  Fe16  1  0.500000  0.883145  0.710924  1
  Fe  Fe17  1  0.500000  0.116855  0.710924  1
  Fe  Fe18  1  0.000000  0.616855  0.289076  1
  Fe  Fe19  1  0.000000  0.383145  0.289076  1
  P  P20  1  0.500000  0.500000  0.891947  1
  P  P21  1  0.000000  0.000000  0.108053  1
  P  P22  1  0.500000  0.500000  0.345714  1
  P  P23  1  0.000000  0.000000  0.654286  1
  P  P24  1  0.500000  0.295964  0.613460  1
  P  P25  1  0.500000  0.704036  0.613460  1
  P  P26  1  0.000000  0.204036  0.386540  1
  P  P27  1  0.000000  0.795964  0.386540  1
  P  P28  1  0.500000  0.842824  0.897060  1
  P  P29  1  0.500000  0.157176  0.897060  1
  P  P30  1  0.000000  0.657176  0.102940  1
  P  P31  1  0.000000  0.342824  0.102940  1
  Rh  Rh32  1  0.500000  0.500000  0.155805  1
  Rh  Rh33  1  0.000000  0.000000  0.844195  1
  Rh  Rh34  1  0.500000  0.500000  0.699095  1
  Rh  Rh35  1  0.000000  0.000000  0.300905  1
