# generated using pymatgen
data_Y2Th3Sb3C
_symmetry_space_group_name_H-M   'P 1'
_cell_length_a   9.17591100
_cell_length_b   9.17591036
_cell_length_c   6.42397500
_cell_angle_alpha   90.00000000
_cell_angle_beta   90.00000000
_cell_angle_gamma   120.00000592
_symmetry_Int_Tables_number   1
_chemical_formula_structural   Y2Th3Sb3C
_chemical_formula_sum   'Y4 Th6 Sb6 C2'
_cell_volume   468.41716656
_cell_formula_units_Z   2
loop_
 _symmetry_equiv_pos_site_id
 _symmetry_equiv_pos_as_xyz
  1  'x, y, z'
loop_
 _atom_site_type_symbol
 _atom_site_label
 _atom_site_symmetry_multiplicity
 _atom_site_fract_x
 _atom_site_fract_y
 _atom_site_fract_z
 _atom_site_occupancy
  Y  Y0  1  0.666667  0.333333  0.000000  1
  Y  Y1  1  0.333333  0.666667  0.000000  1
  Y  Y2  1  0.333333  0.666667  0.500000  1
  Y  Y3  1  0.666667  0.333333  0.500000  1
  Th  Th4  1  0.775521  0.775521  0.750000  1
  Th  Th5  1  0.224479  0.000000  0.750000  1
  Th  Th6  1  0.000000  0.224479  0.750000  1
  Th  Th7  1  0.224479  0.224479  0.250000  1
  Th  Th8  1  0.775521  0.000000  0.250000  1
  Th  Th9  1  0.000000  0.775521  0.250000  1
  Sb  Sb10  1  0.403657  0.403657  0.750000  1
  Sb  Sb11  1  0.596343  0.000000  0.750000  1
  Sb  Sb12  1  0.000000  0.596343  0.750000  1
  Sb  Sb13  1  0.596343  0.596343  0.250000  1
  Sb  Sb14  1  0.403657  0.000000  0.250000  1
  Sb  Sb15  1  0.000000  0.403657  0.250000  1
  C  C16  1  0.000000  0.000000  0.000000  1
  C  C17  1  0.000000  0.000000  0.500000  1
