# generated using pymatgen
data_DyHo19(Bi2Ir)4
_symmetry_space_group_name_H-M   'P 1'
_cell_length_a   7.97882003
_cell_length_b   8.99133700
_cell_length_c   12.48124805
_cell_angle_alpha   90.00000000
_cell_angle_beta   90.00985381
_cell_angle_gamma   90.00000000
_symmetry_Int_Tables_number   1
_chemical_formula_structural   DyHo19(Bi2Ir)4
_chemical_formula_sum   'Dy1 Ho19 Bi8 Ir4'
_cell_volume   895.40796356
_cell_formula_units_Z   1
loop_
 _symmetry_equiv_pos_site_id
 _symmetry_equiv_pos_as_xyz
  1  'x, y, z'
loop_
 _atom_site_type_symbol
 _atom_site_label
 _atom_site_symmetry_multiplicity
 _atom_site_fract_x
 _atom_site_fract_y
 _atom_site_fract_z
 _atom_site_occupancy
  Dy  Dy0  1  0.838983  0.750000  0.793880  1
  Ho  Ho1  1  0.160932  0.250000  0.205877  1
  Ho  Ho2  1  0.339120  0.250000  0.705829  1
  Ho  Ho3  1  0.660892  0.750000  0.294145  1
  Ho  Ho4  1  0.375717  0.750000  0.691070  1
  Ho  Ho5  1  0.624191  0.250000  0.308909  1
  Ho  Ho6  1  0.875790  0.250000  0.808901  1
  Ho  Ho7  1  0.124148  0.750000  0.191066  1
  Ho  Ho8  1  0.947544  0.750000  0.501591  1
  Ho  Ho9  1  0.052509  0.250000  0.498340  1
  Ho  Ho10  1  0.447534  0.250000  0.998344  1
  Ho  Ho11  1  0.552342  0.750000  0.001746  1
  Ho  Ho12  1  0.675786  0.041958  0.566054  1
  Ho  Ho13  1  0.324189  0.958079  0.433919  1
  Ho  Ho14  1  0.175944  0.958153  0.933975  1
  Ho  Ho15  1  0.324189  0.541921  0.433919  1
  Ho  Ho16  1  0.824115  0.041966  0.066136  1
  Ho  Ho17  1  0.675786  0.458042  0.566054  1
  Ho  Ho18  1  0.824115  0.458034  0.066136  1
  Ho  Ho19  1  0.175944  0.541847  0.933975  1
  Bi  Bi20  1  0.566354  0.491405  0.826650  1
  Bi  Bi21  1  0.433478  0.508421  0.173387  1
  Bi  Bi22  1  0.066759  0.508243  0.673270  1
  Bi  Bi23  1  0.433478  0.991579  0.173387  1
  Bi  Bi24  1  0.933414  0.491555  0.326617  1
  Bi  Bi25  1  0.566354  0.008595  0.826650  1
  Bi  Bi26  1  0.933414  0.008445  0.326617  1
  Bi  Bi27  1  0.066759  0.991757  0.673270  1
  Ir  Ir28  1  0.571463  0.750000  0.508759  1
  Ir  Ir29  1  0.428568  0.250000  0.491252  1
  Ir  Ir30  1  0.071491  0.250000  0.991264  1
  Ir  Ir31  1  0.928696  0.750000  0.009008  1
