# generated using pymatgen
data_TbCe3Au5
_symmetry_space_group_name_H-M   'P 1'
_cell_length_a   8.24506034
_cell_length_b   8.24506076
_cell_length_c   8.24506100
_cell_angle_alpha   65.49256913
_cell_angle_beta   65.49256780
_cell_angle_gamma   65.49254798
_symmetry_Int_Tables_number   1
_chemical_formula_structural   TbCe3Au5
_chemical_formula_sum   'Tb2 Ce6 Au10'
_cell_volume   443.66812043
_cell_formula_units_Z   2
loop_
 _symmetry_equiv_pos_site_id
 _symmetry_equiv_pos_as_xyz
  1  'x, y, z'
loop_
 _atom_site_type_symbol
 _atom_site_label
 _atom_site_symmetry_multiplicity
 _atom_site_fract_x
 _atom_site_fract_y
 _atom_site_fract_z
 _atom_site_occupancy
  Tb  Tb0  1  0.656956  0.656956  0.656956  1
  Tb  Tb1  1  0.343044  0.343044  0.343044  1
  Ce  Ce2  1  0.892898  0.183073  0.623167  1
  Ce  Ce3  1  0.623167  0.892898  0.183073  1
  Ce  Ce4  1  0.183073  0.623167  0.892898  1
  Ce  Ce5  1  0.107102  0.816927  0.376833  1
  Ce  Ce6  1  0.376833  0.107102  0.816927  1
  Ce  Ce7  1  0.816927  0.376833  0.107102  1
  Au  Au8  1  0.000000  0.000000  0.000000  1
  Au  Au9  1  0.500000  0.500000  0.500000  1
  Au  Au10  1  0.806355  0.806355  0.806355  1
  Au  Au11  1  0.193645  0.193645  0.193645  1
  Au  Au12  1  0.939275  0.547325  0.317727  1
  Au  Au13  1  0.317727  0.939275  0.547325  1
  Au  Au14  1  0.547325  0.317727  0.939275  1
  Au  Au15  1  0.060725  0.452675  0.682273  1
  Au  Au16  1  0.682273  0.060725  0.452675  1
  Au  Au17  1  0.452675  0.682273  0.060725  1
