# generated using pymatgen
data_CaTh(Ga2Ir3)2
_symmetry_space_group_name_H-M   'P 1'
_cell_length_a   6.84418645
_cell_length_b   6.84418537
_cell_length_c   6.84418700
_cell_angle_alpha   131.22714484
_cell_angle_beta   110.88172611
_cell_angle_gamma   89.11269245
_symmetry_Int_Tables_number   1
_chemical_formula_structural   CaTh(Ga2Ir3)2
_chemical_formula_sum   'Ca1 Th1 Ga4 Ir6'
_cell_volume   214.02272625
_cell_formula_units_Z   1
loop_
 _symmetry_equiv_pos_site_id
 _symmetry_equiv_pos_as_xyz
  1  'x, y, z'
loop_
 _atom_site_type_symbol
 _atom_site_label
 _atom_site_symmetry_multiplicity
 _atom_site_fract_x
 _atom_site_fract_y
 _atom_site_fract_z
 _atom_site_occupancy
  Ca  Ca0  1  0.750000  0.033267  0.283267  1
  Th  Th1  1  0.250000  0.952144  0.702144  1
  Ga  Ga2  1  0.073543  0.284155  0.210612  1
  Ga  Ga3  1  0.908091  0.689419  0.781327  1
  Ga  Ga4  1  0.426457  0.637067  0.210612  1
  Ga  Ga5  1  0.591909  0.373237  0.781327  1
  Ir  Ir6  1  0.488356  0.500799  0.489155  1
  Ir  Ir7  1  0.011644  0.500799  0.012442  1
  Ir  Ir8  1  0.263034  0.001138  0.276451  1
  Ir  Ir9  1  0.724688  0.001138  0.738106  1
  Ir  Ir10  1  0.236966  0.513418  0.738106  1
  Ir  Ir11  1  0.775312  0.513418  0.276451  1
