# generated using pymatgen
data_Rb12Nb2As7H
_symmetry_space_group_name_H-M   'P 1'
_cell_length_a   10.87519131
_cell_length_b   10.88190042
_cell_length_c   8.58005394
_cell_angle_alpha   89.95317967
_cell_angle_beta   89.98479192
_cell_angle_gamma   119.95188681
_symmetry_Int_Tables_number   1
_chemical_formula_structural   Rb12Nb2As7H
_chemical_formula_sum   'Rb12 Nb2 As7 H1'
_cell_volume   879.77654049
_cell_formula_units_Z   1
loop_
 _symmetry_equiv_pos_site_id
 _symmetry_equiv_pos_as_xyz
  1  'x, y, z'
loop_
 _atom_site_type_symbol
 _atom_site_label
 _atom_site_symmetry_multiplicity
 _atom_site_fract_x
 _atom_site_fract_y
 _atom_site_fract_z
 _atom_site_occupancy
  Rb  Rb0  1  0.461411  0.538678  0.602468  1
  Rb  Rb1  1  0.076515  0.538501  0.602836  1
  Rb  Rb2  1  0.521190  0.478795  0.124228  1
  Rb  Rb3  1  0.520887  0.041716  0.124704  1
  Rb  Rb4  1  0.859727  0.139861  0.793819  1
  Rb  Rb5  1  0.283857  0.142008  0.797346  1
  Rb  Rb6  1  0.859498  0.719617  0.791572  1
  Rb  Rb7  1  0.144518  0.854420  0.292858  1
  Rb  Rb8  1  0.709846  0.854571  0.291236  1
  Rb  Rb9  1  0.146224  0.292789  0.296078  1
  Rb  Rb10  1  0.461132  0.922831  0.601917  1
  Rb  Rb11  1  0.956230  0.478013  0.122753  1
  Nb  Nb12  1  0.666756  0.332871  0.494674  1
  Nb  Nb13  1  0.332860  0.666626  0.996419  1
  As  As14  1  0.333765  0.667737  0.288937  1
  As  As15  1  0.203253  0.795567  0.906992  1
  As  As16  1  0.591110  0.795407  0.906196  1
  As  As17  1  0.203701  0.408041  0.908532  1
  As  As18  1  0.792878  0.206284  0.418329  1
  As  As19  1  0.413781  0.206708  0.419994  1
  As  As20  1  0.792531  0.585141  0.417295  1
  H  H21  1  0.668328  0.333816  0.715215  1
