# generated using pymatgen
data_Ti3GaMoC3
_symmetry_space_group_name_H-M   'P 1'
_cell_length_a   3.05898600
_cell_length_b   3.05898586
_cell_length_c   23.40803500
_cell_angle_alpha   90.00000000
_cell_angle_beta   90.00000000
_cell_angle_gamma   119.99997990
_symmetry_Int_Tables_number   1
_chemical_formula_structural   Ti3GaMoC3
_chemical_formula_sum   'Ti6 Ga2 Mo2 C6'
_cell_volume   189.69270801
_cell_formula_units_Z   2
loop_
 _symmetry_equiv_pos_site_id
 _symmetry_equiv_pos_as_xyz
  1  'x, y, z'
loop_
 _atom_site_type_symbol
 _atom_site_label
 _atom_site_symmetry_multiplicity
 _atom_site_fract_x
 _atom_site_fract_y
 _atom_site_fract_z
 _atom_site_occupancy
  Ti  Ti0  1  0.000000  0.000000  0.844666  1
  Ti  Ti1  1  0.000000  0.000000  0.155334  1
  Ti  Ti2  1  0.333333  0.666667  0.446726  1
  Ti  Ti3  1  0.666667  0.333333  0.553274  1
  Ti  Ti4  1  0.666667  0.333333  0.948339  1
  Ti  Ti5  1  0.333333  0.666667  0.051661  1
  Ga  Ga6  1  0.333333  0.666667  0.249879  1
  Ga  Ga7  1  0.666667  0.333333  0.750121  1
  Mo  Mo8  1  0.000000  0.000000  0.342086  1
  Mo  Mo9  1  0.000000  0.000000  0.657914  1
  C  C10  1  0.000000  0.000000  0.500000  1
  C  C11  1  0.000000  0.000000  0.000000  1
  C  C12  1  0.666667  0.333333  0.392417  1
  C  C13  1  0.333333  0.666667  0.607583  1
  C  C14  1  0.333333  0.666667  0.890571  1
  C  C15  1  0.666667  0.333333  0.109429  1
