# generated using pymatgen
data_KSrWN3
_symmetry_space_group_name_H-M   'P 1'
_cell_length_a   6.56166502
_cell_length_b   6.56166494
_cell_length_c   12.82247400
_cell_angle_alpha   90.03794797
_cell_angle_beta   90.03795030
_cell_angle_gamma   124.71825943
_symmetry_Int_Tables_number   1
_chemical_formula_structural   KSrWN3
_chemical_formula_sum   'K4 Sr4 W4 N12'
_cell_volume   453.78646198
_cell_formula_units_Z   4
loop_
 _symmetry_equiv_pos_site_id
 _symmetry_equiv_pos_as_xyz
  1  'x, y, z'
loop_
 _atom_site_type_symbol
 _atom_site_label
 _atom_site_symmetry_multiplicity
 _atom_site_fract_x
 _atom_site_fract_y
 _atom_site_fract_z
 _atom_site_occupancy
  K  K0  1  0.963046  0.549781  0.363908  1
  K  K1  1  0.450219  0.036954  0.136092  1
  K  K2  1  0.036954  0.450219  0.636092  1
  K  K3  1  0.549781  0.963046  0.863908  1
  Sr  Sr4  1  0.131209  0.348645  0.080726  1
  Sr  Sr5  1  0.651355  0.868791  0.419274  1
  Sr  Sr6  1  0.868791  0.651355  0.919274  1
  Sr  Sr7  1  0.348645  0.131209  0.580726  1
  W  W8  1  0.769062  0.726070  0.163945  1
  W  W9  1  0.273930  0.230938  0.336055  1
  W  W10  1  0.230938  0.273930  0.836055  1
  W  W11  1  0.726070  0.769062  0.663945  1
  N  N12  1  0.477184  0.522816  0.250000  1
  N  N13  1  0.522816  0.477184  0.750000  1
  N  N14  1  0.911636  0.568012  0.118971  1
  N  N15  1  0.431988  0.088364  0.381029  1
  N  N16  1  0.088364  0.431988  0.881029  1
  N  N17  1  0.568012  0.911636  0.618971  1
  N  N18  1  0.829183  0.690453  0.547791  1
  N  N19  1  0.309547  0.170817  0.952209  1
  N  N20  1  0.170817  0.309547  0.452209  1
  N  N21  1  0.690453  0.829183  0.047791  1
  N  N22  1  0.988613  0.011387  0.250000  1
  N  N23  1  0.011387  0.988613  0.750000  1
