# generated using pymatgen
data_Ta6CrCo4ReN2
_symmetry_space_group_name_H-M   'P 1'
_cell_length_a   8.07091259
_cell_length_b   8.04259225
_cell_length_c   8.04259089
_cell_angle_alpha   59.77362819
_cell_angle_beta   59.88344537
_cell_angle_gamma   59.88345259
_symmetry_Int_Tables_number   1
_chemical_formula_structural   Ta6CrCo4ReN2
_chemical_formula_sum   'Ta12 Cr2 Co8 Re2 N4'
_cell_volume   367.86329337
_cell_formula_units_Z   2
loop_
 _symmetry_equiv_pos_site_id
 _symmetry_equiv_pos_as_xyz
  1  'x, y, z'
loop_
 _atom_site_type_symbol
 _atom_site_label
 _atom_site_symmetry_multiplicity
 _atom_site_fract_x
 _atom_site_fract_y
 _atom_site_fract_z
 _atom_site_occupancy
  Ta  Ta0  1  0.806002  0.805496  0.193910  1
  Ta  Ta1  1  0.194590  0.193910  0.805496  1
  Ta  Ta2  1  0.806002  0.193910  0.805496  1
  Ta  Ta3  1  0.194590  0.805496  0.193910  1
  Ta  Ta4  1  0.195030  0.804970  0.804970  1
  Ta  Ta5  1  0.805121  0.194879  0.194879  1
  Ta  Ta6  1  0.443998  0.444504  0.056090  1
  Ta  Ta7  1  0.055410  0.056090  0.444504  1
  Ta  Ta8  1  0.443998  0.056090  0.444504  1
  Ta  Ta9  1  0.055410  0.444504  0.056090  1
  Ta  Ta10  1  0.054970  0.445030  0.445030  1
  Ta  Ta11  1  0.444879  0.055121  0.055121  1
  Cr  Cr12  1  0.625000  0.125000  0.625000  1
  Cr  Cr13  1  0.625000  0.625000  0.125000  1
  Co  Co14  1  0.730872  0.418605  0.418605  1
  Co  Co15  1  0.427676  0.732477  0.412171  1
  Co  Co16  1  0.427676  0.412171  0.732477  1
  Co  Co17  1  0.431921  0.418605  0.418605  1
  Co  Co18  1  0.519128  0.831395  0.831395  1
  Co  Co19  1  0.822324  0.517523  0.837829  1
  Co  Co20  1  0.822324  0.837829  0.517523  1
  Co  Co21  1  0.818079  0.831395  0.831395  1
  Re  Re22  1  0.125000  0.625000  0.625000  1
  Re  Re23  1  0.625000  0.625000  0.625000  1
  N  N24  1  0.625000  0.125000  0.125000  1
  N  N25  1  0.125000  0.625000  0.125000  1
  N  N26  1  0.125000  0.125000  0.625000  1
  N  N27  1  0.125000  0.125000  0.125000  1
