# generated using pymatgen
data_HoLu4(Hg2Pt)2
_symmetry_space_group_name_H-M   'P 1'
_cell_length_a   3.53628100
_cell_length_b   7.89229900
_cell_length_c   18.14005300
_cell_angle_alpha   90.00000000
_cell_angle_beta   90.00000000
_cell_angle_gamma   90.00000000
_symmetry_Int_Tables_number   1
_chemical_formula_structural   HoLu4(Hg2Pt)2
_chemical_formula_sum   'Ho2 Lu8 Hg8 Pt4'
_cell_volume   506.27775938
_cell_formula_units_Z   2
loop_
 _symmetry_equiv_pos_site_id
 _symmetry_equiv_pos_as_xyz
  1  'x, y, z'
loop_
 _atom_site_type_symbol
 _atom_site_label
 _atom_site_symmetry_multiplicity
 _atom_site_fract_x
 _atom_site_fract_y
 _atom_site_fract_z
 _atom_site_occupancy
  Ho  Ho0  1  0.000000  0.000000  0.000000  1
  Ho  Ho1  1  0.000000  0.500000  0.500000  1
  Lu  Lu2  1  0.000000  0.114759  0.414702  1
  Lu  Lu3  1  0.000000  0.885241  0.585298  1
  Lu  Lu4  1  0.000000  0.385241  0.914702  1
  Lu  Lu5  1  0.000000  0.614759  0.085298  1
  Lu  Lu6  1  0.000000  0.243478  0.218487  1
  Lu  Lu7  1  0.000000  0.756522  0.781513  1
  Lu  Lu8  1  0.000000  0.256522  0.718487  1
  Lu  Lu9  1  0.000000  0.743478  0.281513  1
  Hg  Hg10  1  0.500000  0.424629  0.353600  1
  Hg  Hg11  1  0.500000  0.575371  0.646400  1
  Hg  Hg12  1  0.500000  0.075371  0.853600  1
  Hg  Hg13  1  0.500000  0.924629  0.146400  1
  Hg  Hg14  1  0.500000  0.290475  0.063944  1
  Hg  Hg15  1  0.500000  0.709525  0.936056  1
  Hg  Hg16  1  0.500000  0.209525  0.563944  1
  Hg  Hg17  1  0.500000  0.790475  0.436056  1
  Pt  Pt18  1  0.500000  0.029119  0.303650  1
  Pt  Pt19  1  0.500000  0.970881  0.696350  1
  Pt  Pt20  1  0.500000  0.470881  0.803650  1
  Pt  Pt21  1  0.500000  0.529119  0.196350  1
