# generated using pymatgen
data_HoTm5Al24IrRu7
_symmetry_space_group_name_H-M   'P 1'
_cell_length_a   8.76898446
_cell_length_b   8.76898443
_cell_length_c   9.56482513
_cell_angle_alpha   89.91430293
_cell_angle_beta   90.08569854
_cell_angle_gamma   120.01271872
_symmetry_Int_Tables_number   1
_chemical_formula_structural   HoTm5Al24IrRu7
_chemical_formula_sum   'Ho1 Tm5 Al24 Ir1 Ru7'
_cell_volume   636.86875578
_cell_formula_units_Z   1
loop_
 _symmetry_equiv_pos_site_id
 _symmetry_equiv_pos_as_xyz
  1  'x, y, z'
loop_
 _atom_site_type_symbol
 _atom_site_label
 _atom_site_symmetry_multiplicity
 _atom_site_fract_x
 _atom_site_fract_y
 _atom_site_fract_z
 _atom_site_occupancy
  Ho  Ho0  1  0.806239  0.193761  0.749706  1
  Tm  Tm1  1  0.194245  0.805755  0.250201  1
  Tm  Tm2  1  0.387764  0.193590  0.749293  1
  Tm  Tm3  1  0.612449  0.806734  0.250737  1
  Tm  Tm4  1  0.806410  0.612236  0.749293  1
  Tm  Tm5  1  0.193266  0.387551  0.250737  1
  Al  Al6  1  0.667347  0.332653  0.979767  1
  Al  Al7  1  0.332425  0.667575  0.020507  1
  Al  Al8  1  0.333434  0.666566  0.479862  1
  Al  Al9  1  0.666356  0.333644  0.519866  1
  Al  Al10  1  0.837078  0.162922  0.421939  1
  Al  Al11  1  0.162958  0.837042  0.577673  1
  Al  Al12  1  0.325500  0.163077  0.421961  1
  Al  Al13  1  0.162599  0.837401  0.921836  1
  Al  Al14  1  0.674414  0.836650  0.577776  1
  Al  Al15  1  0.837453  0.162547  0.078572  1
  Al  Al16  1  0.836923  0.674500  0.421961  1
  Al  Al17  1  0.674648  0.838095  0.922510  1
  Al  Al18  1  0.163350  0.325586  0.577776  1
  Al  Al19  1  0.325265  0.161617  0.077776  1
  Al  Al20  1  0.161905  0.325352  0.922510  1
  Al  Al21  1  0.838383  0.674735  0.077776  1
  Al  Al22  1  0.438218  0.561782  0.748896  1
  Al  Al23  1  0.561814  0.438186  0.251081  1
  Al  Al24  1  0.123495  0.561697  0.750178  1
  Al  Al25  1  0.877039  0.438922  0.249818  1
  Al  Al26  1  0.438303  0.876505  0.750178  1
  Al  Al27  1  0.561078  0.122961  0.249818  1
  Al  Al28  1  0.000366  0.999634  0.750081  1
  Al  Al29  1  0.999890  0.000110  0.249920  1
  Ir  Ir30  1  0.499897  0.500103  0.999978  1
  Ru  Ru31  1  0.000268  0.500446  0.000231  1
  Ru  Ru32  1  0.499910  0.500090  0.500038  1
  Ru  Ru33  1  0.499554  0.999732  0.000231  1
  Ru  Ru34  1  0.000289  0.500502  0.499763  1
  Ru  Ru35  1  0.499498  0.999711  0.499763  1
  Ru  Ru36  1  0.999979  0.000021  0.999803  1
  Ru  Ru37  1  0.999992  0.000008  0.500188  1
