# generated using pymatgen
data_Ho5MnPtO12
_symmetry_space_group_name_H-M   'P 1'
_cell_length_a   6.82530312
_cell_length_b   6.82530241
_cell_length_c   7.21909444
_cell_angle_alpha   74.55788503
_cell_angle_beta   74.55788821
_cell_angle_gamma   50.70131746
_symmetry_Int_Tables_number   1
_chemical_formula_structural   Ho5MnPtO12
_chemical_formula_sum   'Ho5 Mn1 Pt1 O12'
_cell_volume   248.69461724
_cell_formula_units_Z   1
loop_
 _symmetry_equiv_pos_site_id
 _symmetry_equiv_pos_as_xyz
  1  'x, y, z'
loop_
 _atom_site_type_symbol
 _atom_site_label
 _atom_site_symmetry_multiplicity
 _atom_site_fract_x
 _atom_site_fract_y
 _atom_site_fract_z
 _atom_site_occupancy
  Ho  Ho0  1  0.295642  0.306815  0.360103  1
  Ho  Ho1  1  0.693185  0.704358  0.639897  1
  Ho  Ho2  1  0.307566  0.306089  0.832225  1
  Ho  Ho3  1  0.693911  0.692434  0.167775  1
  Ho  Ho4  1  0.001418  0.998582  0.500000  1
  Mn  Mn5  1  0.248062  0.751938  0.000000  1
  Pt  Pt6  1  0.755259  0.244741  0.000000  1
  O  O7  1  0.904905  0.429743  0.915504  1
  O  O8  1  0.425034  0.899837  0.917451  1
  O  O9  1  0.100163  0.574966  0.082549  1
  O  O10  1  0.570257  0.095095  0.084496  1
  O  O11  1  0.095690  0.598503  0.574419  1
  O  O12  1  0.598013  0.098789  0.573364  1
  O  O13  1  0.901211  0.401987  0.426636  1
  O  O14  1  0.401497  0.904310  0.425581  1
  O  O15  1  0.011646  0.988232  0.817296  1
  O  O16  1  0.011768  0.988354  0.182704  1
  O  O17  1  0.492424  0.507650  0.814158  1
  O  O18  1  0.492350  0.507576  0.185842  1
