# generated using pymatgen
data_Tm6NbCo14(NiP4)3
_symmetry_space_group_name_H-M   'P 1'
_cell_length_a   3.69557300
_cell_length_b   10.54124900
_cell_length_c   12.23894400
_cell_angle_alpha   90.00000000
_cell_angle_beta   90.00000000
_cell_angle_gamma   90.00000000
_symmetry_Int_Tables_number   1
_chemical_formula_structural   Tm6NbCo14(NiP4)3
_chemical_formula_sum   'Tm6 Nb1 Co14 Ni3 P12'
_cell_volume   476.77975405
_cell_formula_units_Z   1
loop_
 _symmetry_equiv_pos_site_id
 _symmetry_equiv_pos_as_xyz
  1  'x, y, z'
loop_
 _atom_site_type_symbol
 _atom_site_label
 _atom_site_symmetry_multiplicity
 _atom_site_fract_x
 _atom_site_fract_y
 _atom_site_fract_z
 _atom_site_occupancy
  Tm  Tm0  1  0.000000  0.500000  0.525346  1
  Tm  Tm1  1  0.500000  0.000000  0.478461  1
  Tm  Tm2  1  0.500000  0.817897  0.206836  1
  Tm  Tm3  1  0.500000  0.182103  0.206836  1
  Tm  Tm4  1  0.000000  0.682630  0.796435  1
  Tm  Tm5  1  0.000000  0.317370  0.796435  1
  Nb  Nb6  1  0.500000  0.500000  0.155982  1
  Co  Co7  1  0.000000  0.500000  0.984886  1
  Co  Co8  1  0.500000  0.000000  0.014658  1
  Co  Co9  1  0.500000  0.330418  0.989646  1
  Co  Co10  1  0.500000  0.669582  0.989646  1
  Co  Co11  1  0.000000  0.164390  0.003461  1
  Co  Co12  1  0.000000  0.835610  0.003461  1
  Co  Co13  1  0.500000  0.295860  0.433305  1
  Co  Co14  1  0.500000  0.704140  0.433305  1
  Co  Co15  1  0.000000  0.201338  0.568868  1
  Co  Co16  1  0.000000  0.798662  0.568868  1
  Co  Co17  1  0.500000  0.877885  0.708323  1
  Co  Co18  1  0.500000  0.122115  0.708323  1
  Co  Co19  1  0.000000  0.623680  0.294310  1
  Co  Co20  1  0.000000  0.376320  0.294310  1
  Ni  Ni21  1  0.000000  0.000000  0.837274  1
  Ni  Ni22  1  0.500000  0.500000  0.701782  1
  Ni  Ni23  1  0.000000  0.000000  0.296972  1
  P  P24  1  0.500000  0.500000  0.880725  1
  P  P25  1  0.000000  0.000000  0.117003  1
  P  P26  1  0.500000  0.500000  0.357018  1
  P  P27  1  0.000000  0.000000  0.653227  1
  P  P28  1  0.500000  0.310380  0.617605  1
  P  P29  1  0.500000  0.689620  0.617605  1
  P  P30  1  0.000000  0.188159  0.385495  1
  P  P31  1  0.000000  0.811841  0.385495  1
  P  P32  1  0.500000  0.849299  0.890163  1
  P  P33  1  0.500000  0.150701  0.890163  1
  P  P34  1  0.000000  0.661613  0.103886  1
  P  P35  1  0.000000  0.338387  0.103886  1
