# generated using pymatgen
data_CsHo3S5
_symmetry_space_group_name_H-M   'P 1'
_cell_length_a   3.98812400
_cell_length_b   11.96532600
_cell_length_c   21.31473900
_cell_angle_alpha   90.00000000
_cell_angle_beta   90.00000000
_cell_angle_gamma   90.00000000
_symmetry_Int_Tables_number   1
_chemical_formula_structural   CsHo3S5
_chemical_formula_sum   'Cs4 Ho12 S20'
_cell_volume   1017.12237404
_cell_formula_units_Z   4
loop_
 _symmetry_equiv_pos_site_id
 _symmetry_equiv_pos_as_xyz
  1  'x, y, z'
loop_
 _atom_site_type_symbol
 _atom_site_label
 _atom_site_symmetry_multiplicity
 _atom_site_fract_x
 _atom_site_fract_y
 _atom_site_fract_z
 _atom_site_occupancy
  Cs  Cs0  1  0.250000  0.854232  0.092598  1
  Cs  Cs1  1  0.750000  0.145768  0.907402  1
  Cs  Cs2  1  0.750000  0.354232  0.407402  1
  Cs  Cs3  1  0.250000  0.645768  0.592598  1
  Ho  Ho4  1  0.750000  0.797605  0.825400  1
  Ho  Ho5  1  0.250000  0.202395  0.174600  1
  Ho  Ho6  1  0.250000  0.297605  0.674600  1
  Ho  Ho7  1  0.750000  0.702395  0.325400  1
  Ho  Ho8  1  0.250000  0.957383  0.697540  1
  Ho  Ho9  1  0.750000  0.042617  0.302460  1
  Ho  Ho10  1  0.750000  0.457383  0.802460  1
  Ho  Ho11  1  0.250000  0.542617  0.197540  1
  Ho  Ho12  1  0.750000  0.391036  0.053146  1
  Ho  Ho13  1  0.250000  0.608964  0.946854  1
  Ho  Ho14  1  0.250000  0.891036  0.446854  1
  Ho  Ho15  1  0.750000  0.108964  0.553146  1
  S  S16  1  0.250000  0.951047  0.568750  1
  S  S17  1  0.750000  0.048953  0.431250  1
  S  S18  1  0.750000  0.451047  0.931250  1
  S  S19  1  0.250000  0.548953  0.068750  1
  S  S20  1  0.750000  0.762102  0.951416  1
  S  S21  1  0.250000  0.237898  0.048584  1
  S  S22  1  0.250000  0.262102  0.548584  1
  S  S23  1  0.750000  0.737898  0.451416  1
  S  S24  1  0.250000  0.946719  0.824409  1
  S  S25  1  0.750000  0.053281  0.175591  1
  S  S26  1  0.750000  0.446719  0.675591  1
  S  S27  1  0.250000  0.553281  0.324409  1
  S  S28  1  0.750000  0.125974  0.683063  1
  S  S29  1  0.250000  0.874026  0.316937  1
  S  S30  1  0.250000  0.625974  0.816937  1
  S  S31  1  0.750000  0.374026  0.183063  1
  S  S32  1  0.750000  0.690284  0.198693  1
  S  S33  1  0.250000  0.309716  0.801307  1
  S  S34  1  0.250000  0.190284  0.301307  1
  S  S35  1  0.750000  0.809716  0.698693  1
