# generated using pymatgen
data_TmLu11Ni4
_symmetry_space_group_name_H-M   'P 1'
_cell_length_a   6.18514807
_cell_length_b   6.68910607
_cell_length_c   9.38050100
_cell_angle_alpha   90.00000000
_cell_angle_beta   90.00000000
_cell_angle_gamma   90.01669916
_symmetry_Int_Tables_number   1
_chemical_formula_structural   TmLu11Ni4
_chemical_formula_sum   'Tm1 Lu11 Ni4'
_cell_volume   388.10049709
_cell_formula_units_Z   1
loop_
 _symmetry_equiv_pos_site_id
 _symmetry_equiv_pos_as_xyz
  1  'x, y, z'
loop_
 _atom_site_type_symbol
 _atom_site_label
 _atom_site_symmetry_multiplicity
 _atom_site_fract_x
 _atom_site_fract_y
 _atom_site_fract_z
 _atom_site_occupancy
  Tm  Tm0  1  0.862654  0.532465  0.250000  1
  Lu  Lu1  1  0.637302  0.032899  0.250000  1
  Lu  Lu2  1  0.362570  0.967079  0.750000  1
  Lu  Lu3  1  0.137459  0.467224  0.750000  1
  Lu  Lu4  1  0.180717  0.179035  0.065628  1
  Lu  Lu5  1  0.819290  0.821029  0.934027  1
  Lu  Lu6  1  0.680421  0.320689  0.934080  1
  Lu  Lu7  1  0.819290  0.821029  0.565973  1
  Lu  Lu8  1  0.319777  0.679265  0.065610  1
  Lu  Lu9  1  0.180717  0.179035  0.434372  1
  Lu  Lu10  1  0.319777  0.679265  0.434390  1
  Lu  Lu11  1  0.680421  0.320689  0.565920  1
  Ni  Ni12  1  0.446126  0.392949  0.250000  1
  Ni  Ni13  1  0.553229  0.606714  0.750000  1
  Ni  Ni14  1  0.946875  0.106785  0.750000  1
  Ni  Ni15  1  0.053375  0.893850  0.250000  1
