# generated using pymatgen
data_Nd3Th3Si4
_symmetry_space_group_name_H-M   'P 1'
_cell_length_a   7.81881073
_cell_length_b   7.81881133
_cell_length_c   4.22283200
_cell_angle_alpha   90.00000000
_cell_angle_beta   90.00000000
_cell_angle_gamma   89.62555599
_symmetry_Int_Tables_number   1
_chemical_formula_structural   Nd3Th3Si4
_chemical_formula_sum   'Nd3 Th3 Si4'
_cell_volume   258.15227870
_cell_formula_units_Z   1
loop_
 _symmetry_equiv_pos_site_id
 _symmetry_equiv_pos_as_xyz
  1  'x, y, z'
loop_
 _atom_site_type_symbol
 _atom_site_label
 _atom_site_symmetry_multiplicity
 _atom_site_fract_x
 _atom_site_fract_y
 _atom_site_fract_z
 _atom_site_occupancy
  Nd  Nd0  1  0.499798  0.002084  0.000000  1
  Nd  Nd1  1  0.002084  0.499798  0.000000  1
  Nd  Nd2  1  0.677380  0.677380  0.500000  1
  Th  Th3  1  0.320633  0.320633  0.500000  1
  Th  Th4  1  0.179068  0.820766  0.500000  1
  Th  Th5  1  0.820766  0.179068  0.500000  1
  Si  Si6  1  0.113319  0.113319  0.000000  1
  Si  Si7  1  0.889602  0.889602  0.000000  1
  Si  Si8  1  0.611781  0.385568  0.000000  1
  Si  Si9  1  0.385568  0.611781  0.000000  1
