# generated using pymatgen
data_Tm7Zr13Si16
_symmetry_space_group_name_H-M   'P 1'
_cell_length_a   7.28044473
_cell_length_b   7.28014639
_cell_length_c   13.37241319
_cell_angle_alpha   89.95143237
_cell_angle_beta   89.99552035
_cell_angle_gamma   90.05115386
_symmetry_Int_Tables_number   1
_chemical_formula_structural   Tm7Zr13Si16
_chemical_formula_sum   'Tm7 Zr13 Si16'
_cell_volume   708.77351118
_cell_formula_units_Z   1
loop_
 _symmetry_equiv_pos_site_id
 _symmetry_equiv_pos_as_xyz
  1  'x, y, z'
loop_
 _atom_site_type_symbol
 _atom_site_label
 _atom_site_symmetry_multiplicity
 _atom_site_fract_x
 _atom_site_fract_y
 _atom_site_fract_z
 _atom_site_occupancy
  Tm  Tm0  1  0.995843  0.347761  0.214488  1
  Tm  Tm1  1  0.003967  0.652619  0.714294  1
  Tm  Tm2  1  0.495168  0.153682  0.534323  1
  Tm  Tm3  1  0.503268  0.847467  0.036902  1
  Tm  Tm4  1  0.651922  0.003811  0.286937  1
  Tm  Tm5  1  0.348153  0.995890  0.785172  1
  Tm  Tm6  1  0.846925  0.504300  0.963912  1
  Zr  Zr7  1  0.177080  0.176675  0.000019  1
  Zr  Zr8  1  0.825565  0.822527  0.499921  1
  Zr  Zr9  1  0.676817  0.323504  0.749394  1
  Zr  Zr10  1  0.321956  0.674669  0.251378  1
  Zr  Zr11  1  0.147267  0.500703  0.461923  1
  Zr  Zr12  1  0.999329  0.145344  0.623104  1
  Zr  Zr13  1  0.002984  0.854297  0.125074  1
  Zr  Zr14  1  0.496549  0.353907  0.126901  1
  Zr  Zr15  1  0.503918  0.643351  0.624053  1
  Zr  Zr16  1  0.853848  0.002884  0.875512  1
  Zr  Zr17  1  0.145702  0.997313  0.376575  1
  Zr  Zr18  1  0.646498  0.502394  0.374882  1
  Zr  Zr19  1  0.354600  0.497209  0.874062  1
  Si  Si20  1  0.292913  0.358333  0.679104  1
  Si  Si21  1  0.706539  0.641749  0.183100  1
  Si  Si22  1  0.794220  0.142038  0.067723  1
  Si  Si23  1  0.204381  0.852743  0.567050  1
  Si  Si24  1  0.642408  0.705811  0.816892  1
  Si  Si25  1  0.353789  0.297451  0.321398  1
  Si  Si26  1  0.860475  0.209028  0.431799  1
  Si  Si27  1  0.142796  0.795087  0.932337  1
  Si  Si28  1  0.051896  0.296139  0.812175  1
  Si  Si29  1  0.950371  0.701317  0.314401  1
  Si  Si30  1  0.551688  0.203852  0.937303  1
  Si  Si31  1  0.446166  0.794287  0.437650  1
  Si  Si32  1  0.704000  0.948293  0.686763  1
  Si  Si33  1  0.295868  0.052213  0.188346  1
  Si  Si34  1  0.801198  0.449349  0.562333  1
  Si  Si35  1  0.203934  0.552006  0.062802  1
