# generated using pymatgen
data_Mg2ScP6BrN12
_symmetry_space_group_name_H-M   'P 1'
_cell_length_a   7.33220967
_cell_length_b   7.30395654
_cell_length_c   7.33220941
_cell_angle_alpha   109.46029232
_cell_angle_beta   110.10472053
_cell_angle_gamma   109.46027050
_symmetry_Int_Tables_number   1
_chemical_formula_structural   Mg2ScP6BrN12
_chemical_formula_sum   'Mg2 Sc1 P6 Br1 N12'
_cell_volume   299.96481163
_cell_formula_units_Z   1
loop_
 _symmetry_equiv_pos_site_id
 _symmetry_equiv_pos_as_xyz
  1  'x, y, z'
loop_
 _atom_site_type_symbol
 _atom_site_label
 _atom_site_symmetry_multiplicity
 _atom_site_fract_x
 _atom_site_fract_y
 _atom_site_fract_z
 _atom_site_occupancy
  Mg  Mg0  1  0.003954  0.000333  0.377415  1
  Mg  Mg1  1  0.377415  0.000333  0.003954  1
  Sc  Sc2  1  0.028961  0.387013  0.028961  1
  P  P3  1  0.504393  0.257467  0.751029  1
  P  P4  1  0.250333  0.749054  0.497281  1
  P  P5  1  0.739224  0.498792  0.256359  1
  P  P6  1  0.751029  0.257467  0.504393  1
  P  P7  1  0.497281  0.749054  0.250333  1
  P  P8  1  0.256359  0.498792  0.739224  1
  Br  Br9  1  0.008189  0.000570  0.008189  1
  N  N10  1  0.380696  0.665840  0.380696  1
  N  N11  1  0.706285  0.427061  0.430023  1
  N  N12  1  0.430023  0.427061  0.706285  1
  N  N13  1  0.733281  0.292225  0.733281  1
  N  N14  1  0.989564  0.572715  0.282054  1
  N  N15  1  0.282054  0.572715  0.989564  1
  N  N16  1  0.288351  0.000696  0.562233  1
  N  N17  1  0.999026  0.277703  0.565053  1
  N  N18  1  0.717853  0.723354  0.288442  1
  N  N19  1  0.562233  0.000696  0.288351  1
  N  N20  1  0.288442  0.723354  0.717853  1
  N  N21  1  0.565053  0.277703  0.999026  1
