# generated using pymatgen
data_Er12Tc3Hg2
_symmetry_space_group_name_H-M   'P 1'
_cell_length_a   8.34702843
_cell_length_b   8.34702915
_cell_length_c   8.34702977
_cell_angle_alpha   109.23717421
_cell_angle_beta   109.23719299
_cell_angle_gamma   109.94032445
_symmetry_Int_Tables_number   1
_chemical_formula_structural   Er12Tc3Hg2
_chemical_formula_sum   'Er12 Tc3 Hg2'
_cell_volume   447.66381526
_cell_formula_units_Z   1
loop_
 _symmetry_equiv_pos_site_id
 _symmetry_equiv_pos_as_xyz
  1  'x, y, z'
loop_
 _atom_site_type_symbol
 _atom_site_label
 _atom_site_symmetry_multiplicity
 _atom_site_fract_x
 _atom_site_fract_y
 _atom_site_fract_z
 _atom_site_occupancy
  Er  Er0  1  0.308293  0.308293  0.616589  1
  Er  Er1  1  0.691707  0.691707  0.383411  1
  Er  Er2  1  0.691707  0.308293  0.000000  1
  Er  Er3  1  0.308293  0.691707  0.000000  1
  Er  Er4  1  0.188950  0.431348  0.242397  1
  Er  Er5  1  0.811050  0.568652  0.757603  1
  Er  Er6  1  0.188950  0.946552  0.757603  1
  Er  Er7  1  0.946552  0.188950  0.757603  1
  Er  Er8  1  0.811050  0.053448  0.242397  1
  Er  Er9  1  0.053448  0.811050  0.242397  1
  Er  Er10  1  0.431348  0.188950  0.242397  1
  Er  Er11  1  0.568652  0.811050  0.757603  1
  Tc  Tc12  1  0.366527  0.366527  0.000000  1
  Tc  Tc13  1  0.633473  0.633473  0.000000  1
  Tc  Tc14  1  0.000000  0.000000  0.000000  1
  Hg  Hg15  1  0.000000  0.500000  0.500000  1
  Hg  Hg16  1  0.500000  0.000000  0.500000  1
