# generated using pymatgen
data_Tb3Dy5(PI6)2
_symmetry_space_group_name_H-M   'P 1'
_cell_length_a   4.20389000
_cell_length_b   13.86052019
_cell_length_c   14.64842720
_cell_angle_alpha   90.01910381
_cell_angle_beta   90.00000000
_cell_angle_gamma   90.00000000
_symmetry_Int_Tables_number   1
_chemical_formula_structural   Tb3Dy5(PI6)2
_chemical_formula_sum   'Tb3 Dy5 P2 I12'
_cell_volume   853.53600640
_cell_formula_units_Z   1
loop_
 _symmetry_equiv_pos_site_id
 _symmetry_equiv_pos_as_xyz
  1  'x, y, z'
loop_
 _atom_site_type_symbol
 _atom_site_label
 _atom_site_symmetry_multiplicity
 _atom_site_fract_x
 _atom_site_fract_y
 _atom_site_fract_z
 _atom_site_occupancy
  Tb  Tb0  1  0.000000  0.893322  0.428312  1
  Tb  Tb1  1  0.000000  0.607016  0.928079  1
  Tb  Tb2  1  0.000000  0.392976  0.071911  1
  Dy  Dy3  1  0.500000  0.113040  0.350749  1
  Dy  Dy4  1  0.500000  0.886961  0.649224  1
  Dy  Dy5  1  0.500000  0.613073  0.149255  1
  Dy  Dy6  1  0.500000  0.386943  0.850791  1
  Dy  Dy7  1  0.000000  0.106722  0.571683  1
  P  P8  1  0.500000  0.000814  0.500533  1
  P  P9  1  0.500000  0.500010  0.000009  1
  I  I10  1  0.500000  0.246448  0.162262  1
  I  I11  1  0.500000  0.753613  0.837772  1
  I  I12  1  0.500000  0.746692  0.337973  1
  I  I13  1  0.500000  0.252252  0.661453  1
  I  I14  1  0.000000  0.259007  0.415560  1
  I  I15  1  0.000000  0.740562  0.585180  1
  I  I16  1  0.000000  0.759478  0.085251  1
  I  I17  1  0.000000  0.240506  0.914715  1
  I  I18  1  0.000000  0.000744  0.240255  1
  I  I19  1  0.000000  0.999929  0.759060  1
  I  I20  1  0.000000  0.500794  0.259806  1
  I  I21  1  0.000000  0.499098  0.740167  1
