# generated using pymatgen
data_Hf5Zr4Ta(ReO)3
_symmetry_space_group_name_H-M   'P 1'
_cell_length_a   8.62335203
_cell_length_b   8.61177256
_cell_length_c   8.50197070
_cell_angle_alpha   89.87411197
_cell_angle_beta   89.98622632
_cell_angle_gamma   120.19029586
_symmetry_Int_Tables_number   1
_chemical_formula_structural   Hf5Zr4Ta(ReO)3
_chemical_formula_sum   'Hf10 Zr8 Ta2 Re6 O6'
_cell_volume   545.73442571
_cell_formula_units_Z   2
loop_
 _symmetry_equiv_pos_site_id
 _symmetry_equiv_pos_as_xyz
  1  'x, y, z'
loop_
 _atom_site_type_symbol
 _atom_site_label
 _atom_site_symmetry_multiplicity
 _atom_site_fract_x
 _atom_site_fract_y
 _atom_site_fract_z
 _atom_site_occupancy
  Hf  Hf0  1  0.453321  0.906351  0.249717  1
  Hf  Hf1  1  0.547381  0.093689  0.750293  1
  Hf  Hf2  1  0.093099  0.546659  0.249872  1
  Hf  Hf3  1  0.906218  0.452686  0.750209  1
  Hf  Hf4  1  0.453664  0.546950  0.249866  1
  Hf  Hf5  1  0.546399  0.453886  0.750157  1
  Hf  Hf6  1  0.797182  0.202628  0.436712  1
  Hf  Hf7  1  0.594532  0.797416  0.937654  1
  Hf  Hf8  1  0.797401  0.202575  0.063693  1
  Hf  Hf9  1  0.202986  0.797120  0.937494  1
  Zr  Zr10  1  0.203432  0.406969  0.563503  1
  Zr  Zr11  1  0.795945  0.591893  0.436564  1
  Zr  Zr12  1  0.592112  0.796023  0.564873  1
  Zr  Zr13  1  0.795929  0.591765  0.063904  1
  Zr  Zr14  1  0.408477  0.204195  0.436502  1
  Zr  Zr15  1  0.204617  0.409366  0.936109  1
  Zr  Zr16  1  0.204089  0.795738  0.564937  1
  Zr  Zr17  1  0.408386  0.204110  0.063861  1
  Ta  Ta18  1  0.999588  0.000034  0.999871  1
  Ta  Ta19  1  0.999508  0.999989  0.499878  1
  Re  Re20  1  0.109030  0.224416  0.249676  1
  Re  Re21  1  0.888008  0.775603  0.750887  1
  Re  Re22  1  0.774868  0.890768  0.248523  1
  Re  Re23  1  0.223698  0.110015  0.750466  1
  Re  Re24  1  0.112044  0.888239  0.248405  1
  Re  Re25  1  0.885779  0.110888  0.750497  1
  O  O26  1  0.500906  0.997436  0.999032  1
  O  O27  1  0.999842  0.499937  0.999926  1
  O  O28  1  0.503711  0.002684  0.498973  1
  O  O29  1  0.500899  0.503855  0.999048  1
  O  O30  1  0.997050  0.496111  0.499004  1
  O  O31  1  0.499900  0.500005  0.499893  1
