# generated using pymatgen
data_Gd3Dy3Y2(ReB6)4
_symmetry_space_group_name_H-M   'P 1'
_cell_length_a   3.69810600
_cell_length_b   9.20893404
_cell_length_c   11.60476400
_cell_angle_alpha   89.99489366
_cell_angle_beta   90.00000000
_cell_angle_gamma   90.00000000
_symmetry_Int_Tables_number   1
_chemical_formula_structural   Gd3Dy3Y2(ReB6)4
_chemical_formula_sum   'Gd3 Dy3 Y2 Re4 B24'
_cell_volume   395.20736453
_cell_formula_units_Z   1
loop_
 _symmetry_equiv_pos_site_id
 _symmetry_equiv_pos_as_xyz
  1  'x, y, z'
loop_
 _atom_site_type_symbol
 _atom_site_label
 _atom_site_symmetry_multiplicity
 _atom_site_fract_x
 _atom_site_fract_y
 _atom_site_fract_z
 _atom_site_occupancy
  Gd  Gd0  1  0.000000  0.323556  0.413815  1
  Gd  Gd1  1  0.000000  0.676392  0.586329  1
  Gd  Gd2  1  0.000000  0.823719  0.085988  1
  Dy  Dy3  1  0.000000  0.056767  0.630405  1
  Dy  Dy4  1  0.000000  0.443158  0.129994  1
  Dy  Dy5  1  0.000000  0.556783  0.869864  1
  Y  Y6  1  0.000000  0.176180  0.913947  1
  Y  Y7  1  0.000000  0.943298  0.369744  1
  Re  Re8  1  0.000000  0.639074  0.320317  1
  Re  Re9  1  0.000000  0.360735  0.679931  1
  Re  Re10  1  0.000000  0.139082  0.178852  1
  Re  Re11  1  0.000000  0.861187  0.820842  1
  B  B12  1  0.500000  0.553807  0.432515  1
  B  B13  1  0.500000  0.446237  0.567761  1
  B  B14  1  0.500000  0.053643  0.067282  1
  B  B15  1  0.500000  0.946544  0.932545  1
  B  B16  1  0.500000  0.748932  0.418373  1
  B  B17  1  0.500000  0.250923  0.581994  1
  B  B18  1  0.500000  0.249153  0.081412  1
  B  B19  1  0.500000  0.751119  0.918162  1
  B  B20  1  0.500000  0.791882  0.265711  1
  B  B21  1  0.500000  0.207798  0.734452  1
  B  B22  1  0.500000  0.291963  0.234038  1
  B  B23  1  0.500000  0.708187  0.765726  1
  B  B24  1  0.500000  0.631071  0.186008  1
  B  B25  1  0.500000  0.368767  0.814295  1
  B  B26  1  0.500000  0.131288  0.313784  1
  B  B27  1  0.500000  0.869004  0.686160  1
  B  B28  1  0.500000  0.983384  0.211710  1
  B  B29  1  0.500000  0.017020  0.788034  1
  B  B30  1  0.500000  0.483200  0.287922  1
  B  B31  1  0.500000  0.516673  0.712137  1
  B  B32  1  0.500000  0.599699  0.027853  1
  B  B33  1  0.500000  0.399755  0.971966  1
  B  B34  1  0.500000  0.099767  0.472163  1
  B  B35  1  0.500000  0.900255  0.527969  1
