# generated using pymatgen
data_Sm2Ho4FeCo17P12
_symmetry_space_group_name_H-M   'P 1'
_cell_length_a   3.70775600
_cell_length_b   10.53396000
_cell_length_c   12.21391800
_cell_angle_alpha   90.00000000
_cell_angle_beta   90.00000000
_cell_angle_gamma   90.00000000
_symmetry_Int_Tables_number   1
_chemical_formula_structural   Sm2Ho4FeCo17P12
_chemical_formula_sum   'Sm2 Ho4 Fe1 Co17 P12'
_cell_volume   477.04331165
_cell_formula_units_Z   1
loop_
 _symmetry_equiv_pos_site_id
 _symmetry_equiv_pos_as_xyz
  1  'x, y, z'
loop_
 _atom_site_type_symbol
 _atom_site_label
 _atom_site_symmetry_multiplicity
 _atom_site_fract_x
 _atom_site_fract_y
 _atom_site_fract_z
 _atom_site_occupancy
  Sm  Sm0  1  0.000000  0.500000  0.522063  1
  Sm  Sm1  1  0.500000  0.000000  0.477751  1
  Ho  Ho2  1  0.500000  0.817739  0.205128  1
  Ho  Ho3  1  0.500000  0.182261  0.205128  1
  Ho  Ho4  1  0.000000  0.682383  0.795149  1
  Ho  Ho5  1  0.000000  0.317617  0.795149  1
  Fe  Fe6  1  0.500000  0.500000  0.156605  1
  Co  Co7  1  0.000000  0.500000  0.986494  1
  Co  Co8  1  0.500000  0.000000  0.013320  1
  Co  Co9  1  0.500000  0.296754  0.429670  1
  Co  Co10  1  0.500000  0.703246  0.429670  1
  Co  Co11  1  0.000000  0.203149  0.570498  1
  Co  Co12  1  0.000000  0.796851  0.570498  1
  Co  Co13  1  0.500000  0.879468  0.711605  1
  Co  Co14  1  0.500000  0.120532  0.711605  1
  Co  Co15  1  0.000000  0.621146  0.288495  1
  Co  Co16  1  0.000000  0.378854  0.288495  1
  Co  Co17  1  0.500000  0.332921  0.994883  1
  Co  Co18  1  0.500000  0.667079  0.994883  1
  Co  Co19  1  0.000000  0.166712  0.005222  1
  Co  Co20  1  0.000000  0.833288  0.005222  1
  Co  Co21  1  0.000000  0.000000  0.842551  1
  Co  Co22  1  0.500000  0.500000  0.705218  1
  Co  Co23  1  0.000000  0.000000  0.294569  1
  P  P24  1  0.500000  0.308722  0.617131  1
  P  P25  1  0.500000  0.691278  0.617131  1
  P  P26  1  0.000000  0.191501  0.382848  1
  P  P27  1  0.000000  0.808499  0.382848  1
  P  P28  1  0.500000  0.500000  0.883315  1
  P  P29  1  0.000000  0.000000  0.116621  1
  P  P30  1  0.500000  0.846678  0.893621  1
  P  P31  1  0.500000  0.153322  0.893621  1
  P  P32  1  0.000000  0.653205  0.106501  1
  P  P33  1  0.000000  0.346795  0.106501  1
  P  P34  1  0.500000  0.500000  0.340900  1
  P  P35  1  0.000000  0.000000  0.659092  1
