# generated using pymatgen
data_Hf8Ti12Si15Ge
_symmetry_space_group_name_H-M   'P 1'
_cell_length_a   6.63135384
_cell_length_b   6.77053438
_cell_length_c   12.93826784
_cell_angle_alpha   90.00129115
_cell_angle_beta   90.07604547
_cell_angle_gamma   89.96159864
_symmetry_Int_Tables_number   1
_chemical_formula_structural   Hf8Ti12Si15Ge
_chemical_formula_sum   'Hf8 Ti12 Si15 Ge1'
_cell_volume   580.89923792
_cell_formula_units_Z   1
loop_
 _symmetry_equiv_pos_site_id
 _symmetry_equiv_pos_as_xyz
  1  'x, y, z'
loop_
 _atom_site_type_symbol
 _atom_site_label
 _atom_site_symmetry_multiplicity
 _atom_site_fract_x
 _atom_site_fract_y
 _atom_site_fract_z
 _atom_site_occupancy
  Hf  Hf0  1  0.497864  0.676742  0.597426  1
  Hf  Hf1  1  0.996269  0.825225  0.904307  1
  Hf  Hf2  1  0.503912  0.325825  0.095698  1
  Hf  Hf3  1  0.003066  0.172005  0.403899  1
  Hf  Hf4  1  0.508461  0.322593  0.403111  1
  Hf  Hf5  1  0.003821  0.174762  0.095497  1
  Hf  Hf6  1  0.495957  0.674361  0.904063  1
  Hf  Hf7  1  0.993988  0.826889  0.596832  1
  Ti  Ti8  1  0.657490  0.172739  0.626222  1
  Ti  Ti9  1  0.157917  0.326554  0.874154  1
  Ti  Ti10  1  0.341882  0.826201  0.125690  1
  Ti  Ti11  1  0.840084  0.673403  0.374051  1
  Ti  Ti12  1  0.344663  0.830280  0.372755  1
  Ti  Ti13  1  0.842109  0.673467  0.125713  1
  Ti  Ti14  1  0.657274  0.174213  0.874632  1
  Ti  Ti15  1  0.155529  0.324752  0.626878  1
  Ti  Ti16  1  0.831070  0.495930  0.750232  1
  Ti  Ti17  1  0.330915  0.004255  0.750182  1
  Ti  Ti18  1  0.168890  0.504330  0.247982  1
  Ti  Ti19  1  0.668883  0.995790  0.249950  1
  Si  Si20  1  0.672654  0.961625  0.461666  1
  Si  Si21  1  0.171799  0.537246  0.038647  1
  Si  Si22  1  0.327998  0.036990  0.961016  1
  Si  Si23  1  0.823385  0.462054  0.539474  1
  Si  Si24  1  0.327448  0.037404  0.538789  1
  Si  Si25  1  0.828041  0.463052  0.961122  1
  Si  Si26  1  0.671851  0.962631  0.039050  1
  Si  Si27  1  0.455719  0.381896  0.749985  1
  Si  Si28  1  0.955685  0.117997  0.750881  1
  Si  Si29  1  0.543787  0.617794  0.249633  1
  Si  Si30  1  0.043416  0.881728  0.249871  1
  Si  Si31  1  0.698913  0.865772  0.751078  1
  Si  Si32  1  0.198609  0.634808  0.750021  1
  Si  Si33  1  0.300776  0.135587  0.249282  1
  Si  Si34  1  0.802297  0.365174  0.249726  1
  Ge  Ge35  1  0.177579  0.537922  0.460486  1
