# generated using pymatgen
data_Lu6Al7Pd16S
_symmetry_space_group_name_H-M   'P 1'
_cell_length_a   8.82225306
_cell_length_b   8.82225282
_cell_length_c   8.82225200
_cell_angle_alpha   59.99998806
_cell_angle_beta   59.99999648
_cell_angle_gamma   60.00000597
_symmetry_Int_Tables_number   1
_chemical_formula_structural   Lu6Al7Pd16S
_chemical_formula_sum   'Lu6 Al7 Pd16 S1'
_cell_volume   485.53824046
_cell_formula_units_Z   1
loop_
 _symmetry_equiv_pos_site_id
 _symmetry_equiv_pos_as_xyz
  1  'x, y, z'
loop_
 _atom_site_type_symbol
 _atom_site_label
 _atom_site_symmetry_multiplicity
 _atom_site_fract_x
 _atom_site_fract_y
 _atom_site_fract_z
 _atom_site_occupancy
  Lu  Lu0  1  0.713189  0.286811  0.286811  1
  Lu  Lu1  1  0.286811  0.713189  0.713189  1
  Lu  Lu2  1  0.286811  0.713189  0.286811  1
  Lu  Lu3  1  0.713189  0.286811  0.713189  1
  Lu  Lu4  1  0.286811  0.286811  0.713189  1
  Lu  Lu5  1  0.713189  0.713189  0.286811  1
  Al  Al6  1  0.000000  0.000000  0.000000  1
  Al  Al7  1  0.500000  0.000000  0.000000  1
  Al  Al8  1  0.000000  0.500000  0.500000  1
  Al  Al9  1  0.000000  0.500000  0.000000  1
  Al  Al10  1  0.500000  0.000000  0.500000  1
  Al  Al11  1  0.000000  0.000000  0.500000  1
  Al  Al12  1  0.500000  0.500000  0.000000  1
  Pd  Pd13  1  0.118540  0.118540  0.118540  1
  Pd  Pd14  1  0.881460  0.881460  0.881460  1
  Pd  Pd15  1  0.118540  0.118540  0.644379  1
  Pd  Pd16  1  0.118540  0.644378  0.118540  1
  Pd  Pd17  1  0.881460  0.881460  0.355621  1
  Pd  Pd18  1  0.881460  0.355622  0.881460  1
  Pd  Pd19  1  0.644378  0.118540  0.118540  1
  Pd  Pd20  1  0.355622  0.881460  0.881460  1
  Pd  Pd21  1  0.334669  0.334669  0.334669  1
  Pd  Pd22  1  0.665331  0.665331  0.665331  1
  Pd  Pd23  1  0.334669  0.334669  0.995993  1
  Pd  Pd24  1  0.334669  0.995993  0.334669  1
  Pd  Pd25  1  0.665331  0.665331  0.004007  1
  Pd  Pd26  1  0.665331  0.004007  0.665331  1
  Pd  Pd27  1  0.995993  0.334669  0.334669  1
  Pd  Pd28  1  0.004007  0.665331  0.665331  1
  S  S29  1  0.500000  0.500000  0.500000  1
