# generated using pymatgen
data_Hf5Zr5GaCuSb6
_symmetry_space_group_name_H-M   'P 1'
_cell_length_a   8.63893710
_cell_length_b   8.63893932
_cell_length_c   5.81951500
_cell_angle_alpha   90.00047866
_cell_angle_beta   90.00047499
_cell_angle_gamma   120.01745384
_symmetry_Int_Tables_number   1
_chemical_formula_structural   Hf5Zr5GaCuSb6
_chemical_formula_sum   'Hf5 Zr5 Ga1 Cu1 Sb6'
_cell_volume   376.06399043
_cell_formula_units_Z   1
loop_
 _symmetry_equiv_pos_site_id
 _symmetry_equiv_pos_as_xyz
  1  'x, y, z'
loop_
 _atom_site_type_symbol
 _atom_site_label
 _atom_site_symmetry_multiplicity
 _atom_site_fract_x
 _atom_site_fract_y
 _atom_site_fract_z
 _atom_site_occupancy
  Hf  Hf0  1  0.666707  0.333593  0.999808  1
  Hf  Hf1  1  0.333593  0.666707  0.999808  1
  Hf  Hf2  1  0.333710  0.666778  0.500204  1
  Hf  Hf3  1  0.666778  0.333710  0.500204  1
  Hf  Hf4  1  0.732806  0.732806  0.752106  1
  Zr  Zr5  1  0.267620  0.000014  0.751900  1
  Zr  Zr6  1  0.000014  0.267620  0.751900  1
  Zr  Zr7  1  0.267676  0.267676  0.248266  1
  Zr  Zr8  1  0.732595  0.999620  0.248147  1
  Zr  Zr9  1  0.999620  0.732595  0.248147  1
  Ga  Ga10  1  0.999542  0.999542  0.500542  1
  Cu  Cu11  1  0.999204  0.999204  0.999141  1
  Sb  Sb12  1  0.387609  0.387609  0.750352  1
  Sb  Sb13  1  0.612948  0.999468  0.750263  1
  Sb  Sb14  1  0.999468  0.612948  0.750263  1
  Sb  Sb15  1  0.612895  0.612895  0.249556  1
  Sb  Sb16  1  0.387142  0.000070  0.249697  1
  Sb  Sb17  1  0.000070  0.387142  0.249697  1
