# generated using pymatgen
data_Ba5Sb2Br2O9
_symmetry_space_group_name_H-M   'P 1'
_cell_length_a   6.04819600
_cell_length_b   6.04819567
_cell_length_c   25.93988600
_cell_angle_alpha   90.00000000
_cell_angle_beta   90.00000000
_cell_angle_gamma   120.00000181
_symmetry_Int_Tables_number   1
_chemical_formula_structural   Ba5Sb2Br2O9
_chemical_formula_sum   'Ba10 Sb4 Br4 O18'
_cell_volume   821.77017728
_cell_formula_units_Z   2
loop_
 _symmetry_equiv_pos_site_id
 _symmetry_equiv_pos_as_xyz
  1  'x, y, z'
loop_
 _atom_site_type_symbol
 _atom_site_label
 _atom_site_symmetry_multiplicity
 _atom_site_fract_x
 _atom_site_fract_y
 _atom_site_fract_z
 _atom_site_occupancy
  Ba  Ba0  1  0.333333  0.666667  0.913129  1
  Ba  Ba1  1  0.666667  0.333333  0.413129  1
  Ba  Ba2  1  0.666667  0.333333  0.086871  1
  Ba  Ba3  1  0.333333  0.666667  0.171796  1
  Ba  Ba4  1  0.666667  0.333333  0.671796  1
  Ba  Ba5  1  0.333333  0.666667  0.328204  1
  Ba  Ba6  1  0.666667  0.333333  0.828204  1
  Ba  Ba7  1  0.666667  0.333333  0.250000  1
  Ba  Ba8  1  0.333333  0.666667  0.586871  1
  Ba  Ba9  1  0.333333  0.666667  0.750000  1
  Sb  Sb10  1  0.000000  0.000000  0.807386  1
  Sb  Sb11  1  0.000000  0.000000  0.307386  1
  Sb  Sb12  1  0.000000  0.000000  0.692614  1
  Sb  Sb13  1  0.000000  0.000000  0.192614  1
  Br  Br14  1  0.333333  0.666667  0.453887  1
  Br  Br15  1  0.333333  0.666667  0.046113  1
  Br  Br16  1  0.666667  0.333333  0.546113  1
  Br  Br17  1  0.666667  0.333333  0.953887  1
  O  O18  1  0.164811  0.835189  0.658184  1
  O  O19  1  0.670379  0.835189  0.841816  1
  O  O20  1  0.164811  0.329621  0.658184  1
  O  O21  1  0.853630  0.146370  0.750000  1
  O  O22  1  0.292739  0.146370  0.750000  1
  O  O23  1  0.146370  0.292739  0.250000  1
  O  O24  1  0.146370  0.853630  0.250000  1
  O  O25  1  0.707261  0.853630  0.250000  1
  O  O26  1  0.835189  0.164811  0.341816  1
  O  O27  1  0.329621  0.164811  0.158184  1
  O  O28  1  0.853630  0.707261  0.750000  1
  O  O29  1  0.835189  0.670379  0.158184  1
  O  O30  1  0.329621  0.164811  0.341816  1
  O  O31  1  0.835189  0.164811  0.158184  1
  O  O32  1  0.164811  0.329621  0.841816  1
  O  O33  1  0.835189  0.670379  0.341816  1
  O  O34  1  0.670379  0.835189  0.658184  1
  O  O35  1  0.164811  0.835189  0.841816  1
