# generated using pymatgen
data_YMnCuO5
_symmetry_space_group_name_H-M   'P 1'
_cell_length_a   5.64840000
_cell_length_b   7.51826600
_cell_length_c   8.47499000
_cell_angle_alpha   90.00000000
_cell_angle_beta   90.00000000
_cell_angle_gamma   90.00000000
_symmetry_Int_Tables_number   1
_chemical_formula_structural   YMnCuO5
_chemical_formula_sum   'Y4 Mn4 Cu4 O20'
_cell_volume   359.90039723
_cell_formula_units_Z   4
loop_
 _symmetry_equiv_pos_site_id
 _symmetry_equiv_pos_as_xyz
  1  'x, y, z'
loop_
 _atom_site_type_symbol
 _atom_site_label
 _atom_site_symmetry_multiplicity
 _atom_site_fract_x
 _atom_site_fract_y
 _atom_site_fract_z
 _atom_site_occupancy
  Y  Y0  1  0.500000  0.351766  0.325959  1
  Y  Y1  1  0.500000  0.648234  0.674041  1
  Y  Y2  1  0.500000  0.148234  0.825959  1
  Y  Y3  1  0.500000  0.851766  0.174041  1
  Mn  Mn4  1  0.240524  0.000000  0.500000  1
  Mn  Mn5  1  0.759476  0.000000  0.500000  1
  Mn  Mn6  1  0.759476  0.500000  0.000000  1
  Mn  Mn7  1  0.240524  0.500000  0.000000  1
  Cu  Cu8  1  0.000000  0.072045  0.150318  1
  Cu  Cu9  1  0.000000  0.927955  0.849682  1
  Cu  Cu10  1  0.000000  0.427955  0.650318  1
  Cu  Cu11  1  0.000000  0.572045  0.349682  1
  O  O12  1  0.226992  0.000000  0.000000  1
  O  O13  1  0.773008  0.000000  0.000000  1
  O  O14  1  0.773008  0.500000  0.500000  1
  O  O15  1  0.226992  0.500000  0.500000  1
  O  O16  1  0.000000  0.347935  0.062812  1
  O  O17  1  0.000000  0.652065  0.937188  1
  O  O18  1  0.000000  0.152065  0.562812  1
  O  O19  1  0.000000  0.847935  0.437188  1
  O  O20  1  0.257761  0.096303  0.287047  1
  O  O21  1  0.742239  0.903697  0.712953  1
  O  O22  1  0.257761  0.903697  0.712953  1
  O  O23  1  0.742239  0.403697  0.787047  1
  O  O24  1  0.742239  0.096303  0.287047  1
  O  O25  1  0.257761  0.596303  0.212953  1
  O  O26  1  0.742239  0.596303  0.212953  1
  O  O27  1  0.257761  0.403697  0.787047  1
  O  O28  1  0.500000  0.335639  0.051984  1
  O  O29  1  0.500000  0.664361  0.948016  1
  O  O30  1  0.500000  0.164361  0.551984  1
  O  O31  1  0.500000  0.835639  0.448016  1
