# generated using pymatgen
data_Y8Sc12Si15P
_symmetry_space_group_name_H-M   'P 1'
_cell_length_a   7.10175620
_cell_length_b   7.38552790
_cell_length_c   13.99191100
_cell_angle_alpha   90.00000000
_cell_angle_beta   90.00000000
_cell_angle_gamma   90.11188097
_symmetry_Int_Tables_number   1
_chemical_formula_structural   Y8Sc12Si15P
_chemical_formula_sum   'Y8 Sc12 Si15 P1'
_cell_volume   733.87739007
_cell_formula_units_Z   1
loop_
 _symmetry_equiv_pos_site_id
 _symmetry_equiv_pos_as_xyz
  1  'x, y, z'
loop_
 _atom_site_type_symbol
 _atom_site_label
 _atom_site_symmetry_multiplicity
 _atom_site_fract_x
 _atom_site_fract_y
 _atom_site_fract_z
 _atom_site_occupancy
  Y  Y0  1  0.010492  0.174949  0.096653  1
  Y  Y1  1  0.990737  0.827015  0.900369  1
  Y  Y2  1  0.489983  0.674778  0.903796  1
  Y  Y3  1  0.990737  0.827015  0.599631  1
  Y  Y4  1  0.511470  0.324645  0.096249  1
  Y  Y5  1  0.010492  0.174949  0.403347  1
  Y  Y6  1  0.511470  0.324645  0.403751  1
  Y  Y7  1  0.489983  0.674778  0.596204  1
  Sc  Sc8  1  0.159682  0.501099  0.750000  1
  Sc  Sc9  1  0.838978  0.498104  0.250000  1
  Sc  Sc10  1  0.339496  0.001792  0.250000  1
  Sc  Sc11  1  0.662428  0.999481  0.750000  1
  Sc  Sc12  1  0.326774  0.173134  0.627353  1
  Sc  Sc13  1  0.668410  0.823556  0.375371  1
  Sc  Sc14  1  0.168372  0.677537  0.375249  1
  Sc  Sc15  1  0.668410  0.823556  0.124629  1
  Sc  Sc16  1  0.832266  0.322721  0.626449  1
  Sc  Sc17  1  0.326774  0.173134  0.872647  1
  Sc  Sc18  1  0.832266  0.322721  0.873551  1
  Sc  Sc19  1  0.168372  0.677537  0.124751  1
  Si  Si20  1  0.965181  0.882524  0.250000  1
  Si  Si21  1  0.465920  0.616514  0.250000  1
  Si  Si22  1  0.531485  0.381579  0.750000  1
  Si  Si23  1  0.296008  0.864306  0.750000  1
  Si  Si24  1  0.714375  0.125383  0.250000  1
  Si  Si25  1  0.214782  0.374467  0.250000  1
  Si  Si26  1  0.786906  0.627497  0.750000  1
  Si  Si27  1  0.157011  0.463458  0.540165  1
  Si  Si28  1  0.842774  0.536174  0.461410  1
  Si  Si29  1  0.341066  0.964930  0.460828  1
  Si  Si30  1  0.842774  0.536174  0.038590  1
  Si  Si31  1  0.658592  0.036840  0.540460  1
  Si  Si32  1  0.157011  0.463458  0.959835  1
  Si  Si33  1  0.658592  0.036840  0.959540  1
  Si  Si34  1  0.341066  0.964930  0.039172  1
  P  P35  1  0.028864  0.127782  0.750000  1
