# generated using pymatgen
data_Y3LuMnRu7
_symmetry_space_group_name_H-M   'P 1'
_cell_length_a   5.32161700
_cell_length_b   5.22424104
_cell_length_c   8.93045335
_cell_angle_alpha   89.90219092
_cell_angle_beta   90.00000000
_cell_angle_gamma   120.61851474
_symmetry_Int_Tables_number   1
_chemical_formula_structural   Y3LuMnRu7
_chemical_formula_sum   'Y3 Lu1 Mn1 Ru7'
_cell_volume   213.66306520
_cell_formula_units_Z   1
loop_
 _symmetry_equiv_pos_site_id
 _symmetry_equiv_pos_as_xyz
  1  'x, y, z'
loop_
 _atom_site_type_symbol
 _atom_site_label
 _atom_site_symmetry_multiplicity
 _atom_site_fract_x
 _atom_site_fract_y
 _atom_site_fract_z
 _atom_site_occupancy
  Y  Y0  1  0.331273  0.662548  0.432084  1
  Y  Y1  1  0.667627  0.335253  0.565757  1
  Y  Y2  1  0.667716  0.335431  0.935299  1
  Lu  Lu3  1  0.330771  0.661543  0.067381  1
  Mn  Mn4  1  0.166225  0.332451  0.751397  1
  Ru  Ru5  1  0.173576  0.826572  0.751793  1
  Ru  Ru6  1  0.346719  0.172523  0.247618  1
  Ru  Ru7  1  0.835678  0.671356  0.248042  1
  Ru  Ru8  1  0.652995  0.826572  0.751793  1
  Ru  Ru9  1  0.001123  0.002247  0.998978  1
  Ru  Ru10  1  0.825804  0.172523  0.247618  1
  Ru  Ru11  1  0.000493  0.000985  0.502240  1
