# generated using pymatgen
data_Nd3Tc(P3Ir4)2
_symmetry_space_group_name_H-M   'P 1'
_cell_length_a   4.01764900
_cell_length_b   11.26915400
_cell_length_c   12.90712900
_cell_angle_alpha   90.00000000
_cell_angle_beta   90.00000000
_cell_angle_gamma   90.00000000
_symmetry_Int_Tables_number   1
_chemical_formula_structural   Nd3Tc(P3Ir4)2
_chemical_formula_sum   'Nd6 Tc2 P12 Ir16'
_cell_volume   584.37678743
_cell_formula_units_Z   2
loop_
 _symmetry_equiv_pos_site_id
 _symmetry_equiv_pos_as_xyz
  1  'x, y, z'
loop_
 _atom_site_type_symbol
 _atom_site_label
 _atom_site_symmetry_multiplicity
 _atom_site_fract_x
 _atom_site_fract_y
 _atom_site_fract_z
 _atom_site_occupancy
  Nd  Nd0  1  0.000000  0.500000  0.519922  1
  Nd  Nd1  1  0.500000  0.000000  0.480078  1
  Nd  Nd2  1  0.500000  0.819277  0.204959  1
  Nd  Nd3  1  0.500000  0.180723  0.204959  1
  Nd  Nd4  1  0.000000  0.680723  0.795041  1
  Nd  Nd5  1  0.000000  0.319277  0.795041  1
  Tc  Tc6  1  0.500000  0.500000  0.162118  1
  Tc  Tc7  1  0.000000  0.000000  0.837882  1
  P  P8  1  0.500000  0.500000  0.879670  1
  P  P9  1  0.000000  0.000000  0.120330  1
  P  P10  1  0.500000  0.500000  0.345466  1
  P  P11  1  0.000000  0.000000  0.654534  1
  P  P12  1  0.500000  0.313891  0.616993  1
  P  P13  1  0.500000  0.686109  0.616993  1
  P  P14  1  0.000000  0.186109  0.383007  1
  P  P15  1  0.000000  0.813891  0.383007  1
  P  P16  1  0.500000  0.843974  0.888469  1
  P  P17  1  0.500000  0.156026  0.888469  1
  P  P18  1  0.000000  0.656026  0.111531  1
  P  P19  1  0.000000  0.343974  0.111531  1
  Ir  Ir20  1  0.500000  0.500000  0.701584  1
  Ir  Ir21  1  0.000000  0.000000  0.298416  1
  Ir  Ir22  1  0.000000  0.500000  0.997488  1
  Ir  Ir23  1  0.500000  0.000000  0.002512  1
  Ir  Ir24  1  0.500000  0.332402  0.986450  1
  Ir  Ir25  1  0.500000  0.667598  0.986450  1
  Ir  Ir26  1  0.000000  0.167598  0.013550  1
  Ir  Ir27  1  0.000000  0.832402  0.013550  1
  Ir  Ir28  1  0.500000  0.293396  0.429871  1
  Ir  Ir29  1  0.500000  0.706604  0.429871  1
  Ir  Ir30  1  0.000000  0.206604  0.570129  1
  Ir  Ir31  1  0.000000  0.793396  0.570129  1
  Ir  Ir32  1  0.500000  0.874715  0.712148  1
  Ir  Ir33  1  0.500000  0.125285  0.712148  1
  Ir  Ir34  1  0.000000  0.625285  0.287852  1
  Ir  Ir35  1  0.000000  0.374715  0.287852  1
