# generated using pymatgen
data_HoTh7(Si3Pd)4
_symmetry_space_group_name_H-M   'P 1'
_cell_length_a   8.23540800
_cell_length_b   8.23540840
_cell_length_c   8.46969500
_cell_angle_alpha   90.00000000
_cell_angle_beta   90.00000000
_cell_angle_gamma   119.99999839
_symmetry_Int_Tables_number   1
_chemical_formula_structural   HoTh7(Si3Pd)4
_chemical_formula_sum   'Ho1 Th7 Si12 Pd4'
_cell_volume   497.47203358
_cell_formula_units_Z   1
loop_
 _symmetry_equiv_pos_site_id
 _symmetry_equiv_pos_as_xyz
  1  'x, y, z'
loop_
 _atom_site_type_symbol
 _atom_site_label
 _atom_site_symmetry_multiplicity
 _atom_site_fract_x
 _atom_site_fract_y
 _atom_site_fract_z
 _atom_site_occupancy
  Ho  Ho0  1  0.000000  0.000000  0.750000  1
  Th  Th1  1  0.500179  0.000357  0.250000  1
  Th  Th2  1  0.499884  0.999769  0.750000  1
  Th  Th3  1  0.999643  0.499821  0.250000  1
  Th  Th4  1  0.000231  0.500116  0.750000  1
  Th  Th5  1  0.500179  0.499821  0.250000  1
  Th  Th6  1  0.499884  0.500116  0.750000  1
  Th  Th7  1  0.000000  0.000000  0.250000  1
  Si  Si8  1  0.165184  0.330367  0.997089  1
  Si  Si9  1  0.834842  0.669685  0.996362  1
  Si  Si10  1  0.669633  0.834816  0.997089  1
  Si  Si11  1  0.834842  0.669685  0.503638  1
  Si  Si12  1  0.330315  0.165158  0.996362  1
  Si  Si13  1  0.165184  0.330367  0.502911  1
  Si  Si14  1  0.165184  0.834816  0.997089  1
  Si  Si15  1  0.330315  0.165158  0.503638  1
  Si  Si16  1  0.834842  0.165158  0.996362  1
  Si  Si17  1  0.669633  0.834816  0.502911  1
  Si  Si18  1  0.834842  0.165158  0.503638  1
  Si  Si19  1  0.165184  0.834816  0.502911  1
  Pd  Pd20  1  0.333333  0.666667  0.001631  1
  Pd  Pd21  1  0.666667  0.333333  0.001423  1
  Pd  Pd22  1  0.666667  0.333333  0.498577  1
  Pd  Pd23  1  0.333333  0.666667  0.498369  1
