# generated using pymatgen
data_Eu(SiTc2)2
_symmetry_space_group_name_H-M   'P 1'
_cell_length_a   7.36623800
_cell_length_b   7.36623800
_cell_length_c   4.16646700
_cell_angle_alpha   90.00000000
_cell_angle_beta   90.00000000
_cell_angle_gamma   90.00000000
_symmetry_Int_Tables_number   1
_chemical_formula_structural   Eu(SiTc2)2
_chemical_formula_sum   'Eu2 Si4 Tc8'
_cell_volume   226.07859193
_cell_formula_units_Z   2
loop_
 _symmetry_equiv_pos_site_id
 _symmetry_equiv_pos_as_xyz
  1  'x, y, z'
loop_
 _atom_site_type_symbol
 _atom_site_label
 _atom_site_symmetry_multiplicity
 _atom_site_fract_x
 _atom_site_fract_y
 _atom_site_fract_z
 _atom_site_occupancy
  Eu  Eu0  1  0.500000  0.500000  0.500000  1
  Eu  Eu1  1  0.000000  0.000000  0.000000  1
  Si  Si2  1  0.790475  0.209525  0.500000  1
  Si  Si3  1  0.209525  0.790475  0.500000  1
  Si  Si4  1  0.290475  0.290475  0.000000  1
  Si  Si5  1  0.709525  0.709525  0.000000  1
  Tc  Tc6  1  0.655225  0.905992  0.500000  1
  Tc  Tc7  1  0.344775  0.094008  0.500000  1
  Tc  Tc8  1  0.155225  0.594008  0.000000  1
  Tc  Tc9  1  0.844775  0.405992  0.000000  1
  Tc  Tc10  1  0.905992  0.655225  0.500000  1
  Tc  Tc11  1  0.094008  0.344775  0.500000  1
  Tc  Tc12  1  0.594008  0.155225  0.000000  1
  Tc  Tc13  1  0.405992  0.844775  0.000000  1
