# generated using pymatgen
data_Tm3Al10(SiOs2)2
_symmetry_space_group_name_H-M   'P 1'
_cell_length_a   8.65528300
_cell_length_b   8.65528242
_cell_length_c   9.58528600
_cell_angle_alpha   90.00000000
_cell_angle_beta   90.00000000
_cell_angle_gamma   120.00000603
_symmetry_Int_Tables_number   1
_chemical_formula_structural   Tm3Al10(SiOs2)2
_chemical_formula_sum   'Tm6 Al20 Si4 Os8'
_cell_volume   621.86798200
_cell_formula_units_Z   2
loop_
 _symmetry_equiv_pos_site_id
 _symmetry_equiv_pos_as_xyz
  1  'x, y, z'
loop_
 _atom_site_type_symbol
 _atom_site_label
 _atom_site_symmetry_multiplicity
 _atom_site_fract_x
 _atom_site_fract_y
 _atom_site_fract_z
 _atom_site_occupancy
  Tm  Tm0  1  0.803571  0.196429  0.750000  1
  Tm  Tm1  1  0.196429  0.803571  0.250000  1
  Tm  Tm2  1  0.392858  0.196429  0.750000  1
  Tm  Tm3  1  0.607142  0.803571  0.250000  1
  Tm  Tm4  1  0.803571  0.607142  0.750000  1
  Tm  Tm5  1  0.196429  0.392858  0.250000  1
  Al  Al6  1  0.835187  0.164813  0.422028  1
  Al  Al7  1  0.164813  0.835187  0.577972  1
  Al  Al8  1  0.329625  0.164813  0.422028  1
  Al  Al9  1  0.164813  0.835187  0.922028  1
  Al  Al10  1  0.670375  0.835187  0.577972  1
  Al  Al11  1  0.835187  0.164813  0.077972  1
  Al  Al12  1  0.835187  0.670375  0.422028  1
  Al  Al13  1  0.670375  0.835187  0.922028  1
  Al  Al14  1  0.164813  0.329625  0.577972  1
  Al  Al15  1  0.329625  0.164813  0.077972  1
  Al  Al16  1  0.164813  0.329625  0.922028  1
  Al  Al17  1  0.835187  0.670375  0.077972  1
  Al  Al18  1  0.436764  0.563236  0.750000  1
  Al  Al19  1  0.563236  0.436764  0.250000  1
  Al  Al20  1  0.126472  0.563236  0.750000  1
  Al  Al21  1  0.873528  0.436764  0.250000  1
  Al  Al22  1  0.436764  0.873528  0.750000  1
  Al  Al23  1  0.563236  0.126472  0.250000  1
  Al  Al24  1  0.000000  0.000000  0.750000  1
  Al  Al25  1  0.000000  0.000000  0.250000  1
  Si  Si26  1  0.666667  0.333333  0.961983  1
  Si  Si27  1  0.333333  0.666667  0.038017  1
  Si  Si28  1  0.333333  0.666667  0.461983  1
  Si  Si29  1  0.666667  0.333333  0.538017  1
  Os  Os30  1  0.500000  0.500000  0.000000  1
  Os  Os31  1  0.000000  0.500000  0.000000  1
  Os  Os32  1  0.500000  0.500000  0.500000  1
  Os  Os33  1  0.500000  0.000000  0.000000  1
  Os  Os34  1  0.000000  0.500000  0.500000  1
  Os  Os35  1  0.500000  0.000000  0.500000  1
  Os  Os36  1  0.000000  0.000000  0.000000  1
  Os  Os37  1  0.000000  0.000000  0.500000  1
