# generated using pymatgen
data_Dy3Er8ThCo4
_symmetry_space_group_name_H-M   'P 1'
_cell_length_a   6.18078811
_cell_length_b   6.86891486
_cell_length_c   9.38597700
_cell_angle_alpha   90.00000000
_cell_angle_beta   90.00000000
_cell_angle_gamma   91.23431306
_symmetry_Int_Tables_number   1
_chemical_formula_structural   Dy3Er8ThCo4
_chemical_formula_sum   'Dy3 Er8 Th1 Co4'
_cell_volume   398.39207434
_cell_formula_units_Z   1
loop_
 _symmetry_equiv_pos_site_id
 _symmetry_equiv_pos_as_xyz
  1  'x, y, z'
loop_
 _atom_site_type_symbol
 _atom_site_label
 _atom_site_symmetry_multiplicity
 _atom_site_fract_x
 _atom_site_fract_y
 _atom_site_fract_z
 _atom_site_occupancy
  Dy  Dy0  1  0.638958  0.041828  0.250000  1
  Dy  Dy1  1  0.143312  0.456562  0.750000  1
  Dy  Dy2  1  0.358846  0.957449  0.750000  1
  Er  Er3  1  0.327096  0.674242  0.066834  1
  Er  Er4  1  0.173098  0.175012  0.431319  1
  Er  Er5  1  0.676108  0.325052  0.568673  1
  Er  Er6  1  0.824150  0.827623  0.930360  1
  Er  Er7  1  0.676108  0.325052  0.931327  1
  Er  Er8  1  0.824150  0.827623  0.569640  1
  Er  Er9  1  0.327096  0.674242  0.433166  1
  Er  Er10  1  0.173098  0.175012  0.068681  1
  Th  Th11  1  0.848354  0.553078  0.250000  1
  Co  Co12  1  0.045274  0.870755  0.250000  1
  Co  Co13  1  0.465226  0.388593  0.250000  1
  Co  Co14  1  0.950885  0.114746  0.750000  1
  Co  Co15  1  0.548240  0.613131  0.750000  1
