# generated using pymatgen
data_Yb5CdRh2
_symmetry_space_group_name_H-M   'P 1'
_cell_length_a   8.89951735
_cell_length_b   8.89951763
_cell_length_c   8.89951758
_cell_angle_alpha   128.61602701
_cell_angle_beta   128.61602806
_cell_angle_gamma   75.62918969
_symmetry_Int_Tables_number   1
_chemical_formula_structural   Yb5CdRh2
_chemical_formula_sum   'Yb10 Cd2 Rh4'
_cell_volume   418.62992151
_cell_formula_units_Z   2
loop_
 _symmetry_equiv_pos_site_id
 _symmetry_equiv_pos_as_xyz
  1  'x, y, z'
loop_
 _atom_site_type_symbol
 _atom_site_label
 _atom_site_symmetry_multiplicity
 _atom_site_fract_x
 _atom_site_fract_y
 _atom_site_fract_z
 _atom_site_occupancy
  Yb  Yb0  1  0.500000  0.500000  0.000000  1
  Yb  Yb1  1  0.000000  0.000000  0.000000  1
  Yb  Yb2  1  0.534100  0.034100  0.819597  1
  Yb  Yb3  1  0.214504  0.714504  0.180403  1
  Yb  Yb4  1  0.034100  0.214504  0.500000  1
  Yb  Yb5  1  0.714504  0.534100  0.500000  1
  Yb  Yb6  1  0.465900  0.965900  0.180403  1
  Yb  Yb7  1  0.785496  0.285496  0.819597  1
  Yb  Yb8  1  0.965900  0.785496  0.500000  1
  Yb  Yb9  1  0.285496  0.465900  0.500000  1
  Cd  Cd10  1  0.250000  0.250000  0.000000  1
  Cd  Cd11  1  0.750000  0.750000  0.000000  1
  Rh  Rh12  1  0.137538  0.637538  0.775076  1
  Rh  Rh13  1  0.862462  0.362462  0.224924  1
  Rh  Rh14  1  0.637538  0.862462  0.500000  1
  Rh  Rh15  1  0.362462  0.137538  0.500000  1
