# generated using pymatgen
data_Rb2LiHoBi2
_symmetry_space_group_name_H-M   'P 1'
_cell_length_a   11.37830257
_cell_length_b   11.37830379
_cell_length_c   7.36329400
_cell_angle_alpha   90.00000000
_cell_angle_beta   90.00000000
_cell_angle_gamma   99.41935548
_symmetry_Int_Tables_number   1
_chemical_formula_structural   Rb2LiHoBi2
_chemical_formula_sum   'Rb8 Li4 Ho4 Bi8'
_cell_volume   940.44128792
_cell_formula_units_Z   4
loop_
 _symmetry_equiv_pos_site_id
 _symmetry_equiv_pos_as_xyz
  1  'x, y, z'
loop_
 _atom_site_type_symbol
 _atom_site_label
 _atom_site_symmetry_multiplicity
 _atom_site_fract_x
 _atom_site_fract_y
 _atom_site_fract_z
 _atom_site_occupancy
  Rb  Rb0  1  0.571856  0.928144  0.750000  1
  Rb  Rb1  1  0.928144  0.571856  0.250000  1
  Rb  Rb2  1  0.428144  0.071856  0.250000  1
  Rb  Rb3  1  0.071856  0.428144  0.750000  1
  Rb  Rb4  1  0.674626  0.325374  0.782329  1
  Rb  Rb5  1  0.825374  0.174626  0.282329  1
  Rb  Rb6  1  0.325374  0.674626  0.217671  1
  Rb  Rb7  1  0.174626  0.825374  0.717671  1
  Li  Li8  1  0.620856  0.620856  0.000000  1
  Li  Li9  1  0.879144  0.879144  0.500000  1
  Li  Li10  1  0.379144  0.379144  0.000000  1
  Li  Li11  1  0.120856  0.120856  0.500000  1
  Ho  Ho12  1  0.870086  0.870086  0.000000  1
  Ho  Ho13  1  0.629914  0.629914  0.500000  1
  Ho  Ho14  1  0.129914  0.129914  0.000000  1
  Ho  Ho15  1  0.370086  0.370086  0.500000  1
  Bi  Bi16  1  0.347884  0.152116  0.750000  1
  Bi  Bi17  1  0.152116  0.347884  0.250000  1
  Bi  Bi18  1  0.652116  0.847884  0.250000  1
  Bi  Bi19  1  0.847884  0.652116  0.750000  1
  Bi  Bi20  1  0.903925  0.096075  0.758976  1
  Bi  Bi21  1  0.596075  0.403925  0.258976  1
  Bi  Bi22  1  0.096075  0.903925  0.241024  1
  Bi  Bi23  1  0.403925  0.596075  0.741024  1
