# generated using pymatgen
data_Hf12Th8Si15Pb
_symmetry_space_group_name_H-M   'P 1'
_cell_length_a   7.45607617
_cell_length_b   7.43214002
_cell_length_c   13.68769211
_cell_angle_alpha   89.99968789
_cell_angle_beta   89.70247690
_cell_angle_gamma   90.06004224
_symmetry_Int_Tables_number   1
_chemical_formula_structural   Hf12Th8Si15Pb
_chemical_formula_sum   'Hf12 Th8 Si15 Pb1'
_cell_volume   758.48736895
_cell_formula_units_Z   1
loop_
 _symmetry_equiv_pos_site_id
 _symmetry_equiv_pos_as_xyz
  1  'x, y, z'
loop_
 _atom_site_type_symbol
 _atom_site_label
 _atom_site_symmetry_multiplicity
 _atom_site_fract_x
 _atom_site_fract_y
 _atom_site_fract_z
 _atom_site_occupancy
  Hf  Hf0  1  0.674035  0.326903  0.748717  1
  Hf  Hf1  1  0.327644  0.673110  0.251343  1
  Hf  Hf2  1  0.826471  0.826845  0.500704  1
  Hf  Hf3  1  0.183482  0.173283  0.997615  1
  Hf  Hf4  1  0.488001  0.351966  0.126269  1
  Hf  Hf5  1  0.502260  0.654181  0.624721  1
  Hf  Hf6  1  0.845249  0.001865  0.867372  1
  Hf  Hf7  1  0.155742  0.997156  0.376371  1
  Hf  Hf8  1  0.655206  0.503887  0.375722  1
  Hf  Hf9  1  0.343203  0.498218  0.872372  1
  Hf  Hf10  1  0.016631  0.829670  0.129425  1
  Hf  Hf11  1  0.996675  0.155573  0.624599  1
  Th  Th12  1  0.496698  0.158476  0.534117  1
  Th  Th13  1  0.494302  0.834861  0.031653  1
  Th  Th14  1  0.655164  0.999784  0.289382  1
  Th  Th15  1  0.340124  0.995910  0.781444  1
  Th  Th16  1  0.841544  0.511762  0.962900  1
  Th  Th17  1  0.158293  0.496979  0.467849  1
  Th  Th18  1  0.002889  0.658469  0.714714  1
  Th  Th19  1  0.007729  0.350647  0.223638  1
  Si  Si20  1  0.201999  0.868873  0.566050  1
  Si  Si21  1  0.629635  0.702743  0.814045  1
  Si  Si22  1  0.371541  0.298201  0.318137  1
  Si  Si23  1  0.868869  0.202538  0.434743  1
  Si  Si24  1  0.129585  0.800743  0.932441  1
  Si  Si25  1  0.702777  0.631378  0.183653  1
  Si  Si26  1  0.297256  0.368567  0.683070  1
  Si  Si27  1  0.537238  0.211007  0.929673  1
  Si  Si28  1  0.452404  0.789017  0.436891  1
  Si  Si29  1  0.708260  0.954884  0.682920  1
  Si  Si30  1  0.292293  0.045494  0.185302  1
  Si  Si31  1  0.790050  0.454770  0.564847  1
  Si  Si32  1  0.206815  0.540533  0.063426  1
  Si  Si33  1  0.954957  0.711852  0.318036  1
  Si  Si34  1  0.044364  0.292100  0.814639  1
  Pb  Pb35  1  0.800613  0.127756  0.071203  1
