# generated using pymatgen
data_Ho7Sn23Ir5Ru
_symmetry_space_group_name_H-M   'P 1'
_cell_length_a   9.87488531
_cell_length_b   9.87488345
_cell_length_c   10.05134335
_cell_angle_alpha   90.05131321
_cell_angle_beta   89.94868469
_cell_angle_gamma   119.97087736
_symmetry_Int_Tables_number   1
_chemical_formula_structural   Ho7Sn23Ir5Ru
_chemical_formula_sum   'Ho7 Sn23 Ir5 Ru1'
_cell_volume   849.07473734
_cell_formula_units_Z   1
loop_
 _symmetry_equiv_pos_site_id
 _symmetry_equiv_pos_as_xyz
  1  'x, y, z'
loop_
 _atom_site_type_symbol
 _atom_site_label
 _atom_site_symmetry_multiplicity
 _atom_site_fract_x
 _atom_site_fract_y
 _atom_site_fract_z
 _atom_site_occupancy
  Ho  Ho0  1  0.999059  0.000941  0.000951  1
  Ho  Ho1  1  0.517045  0.482955  0.694111  1
  Ho  Ho2  1  0.517372  0.034454  0.694197  1
  Ho  Ho3  1  0.965546  0.482628  0.694197  1
  Ho  Ho4  1  0.033857  0.516947  0.306024  1
  Ho  Ho5  1  0.483053  0.966143  0.306024  1
  Ho  Ho6  1  0.483244  0.516756  0.306067  1
  Sn  Sn7  1  0.668001  0.331999  0.175732  1
  Sn  Sn8  1  0.666617  0.333383  0.874291  1
  Sn  Sn9  1  0.333285  0.666715  0.124651  1
  Sn  Sn10  1  0.353052  0.353212  0.000060  1
  Sn  Sn11  1  0.000030  0.646575  0.999996  1
  Sn  Sn12  1  0.649768  0.001648  0.001247  1
  Sn  Sn13  1  0.646788  0.646948  0.000060  1
  Sn  Sn14  1  0.333297  0.666703  0.826169  1
  Sn  Sn15  1  0.442493  0.221220  0.460717  1
  Sn  Sn16  1  0.221181  0.778819  0.539312  1
  Sn  Sn17  1  0.221300  0.442319  0.539048  1
  Sn  Sn18  1  0.557681  0.778700  0.539048  1
  Sn  Sn19  1  0.118285  0.881715  0.280830  1
  Sn  Sn20  1  0.778780  0.557507  0.460717  1
  Sn  Sn21  1  0.779298  0.220702  0.459080  1
  Sn  Sn22  1  0.353425  0.999970  0.999996  1
  Sn  Sn23  1  0.116435  0.236060  0.278921  1
  Sn  Sn24  1  0.763940  0.883565  0.278921  1
  Sn  Sn25  1  0.236763  0.118447  0.718979  1
  Sn  Sn26  1  0.881553  0.763237  0.718979  1
  Sn  Sn27  1  0.881151  0.118849  0.719000  1
  Sn  Sn28  1  0.999876  0.000124  0.500974  1
  Sn  Sn29  1  0.998352  0.350232  0.001247  1
  Ir  Ir30  1  0.169868  0.830132  0.800566  1
  Ir  Ir31  1  0.169884  0.340123  0.800652  1
  Ir  Ir32  1  0.659877  0.830116  0.800652  1
  Ir  Ir33  1  0.339492  0.170412  0.199627  1
  Ir  Ir34  1  0.829588  0.660508  0.199627  1
  Ru  Ru35  1  0.830765  0.169235  0.199332  1
