# generated using pymatgen
data_U4Ga2Tc7Sb4
_symmetry_space_group_name_H-M   'P 1'
_cell_length_a   7.45284145
_cell_length_b   7.46420185
_cell_length_c   7.46420101
_cell_angle_alpha   109.64710427
_cell_angle_beta   109.41409284
_cell_angle_gamma   109.41407417
_symmetry_Int_Tables_number   1
_chemical_formula_structural   U4Ga2Tc7Sb4
_chemical_formula_sum   'U4 Ga2 Tc7 Sb4'
_cell_volume   319.39950903
_cell_formula_units_Z   1
loop_
 _symmetry_equiv_pos_site_id
 _symmetry_equiv_pos_as_xyz
  1  'x, y, z'
loop_
 _atom_site_type_symbol
 _atom_site_label
 _atom_site_symmetry_multiplicity
 _atom_site_fract_x
 _atom_site_fract_y
 _atom_site_fract_z
 _atom_site_occupancy
  U  U0  1  0.500000  0.488466  0.511534  1
  U  U1  1  0.000000  0.987117  0.478234  1
  U  U2  1  0.500000  0.988466  0.011534  1
  U  U3  1  0.000000  0.521766  0.012883  1
  Ga  Ga4  1  0.313979  0.002361  0.311618  1
  Ga  Ga5  1  0.686021  0.688382  0.997639  1
  Tc  Tc6  1  0.745385  0.249101  0.496285  1
  Tc  Tc7  1  0.500000  0.254901  0.745099  1
  Tc  Tc8  1  0.500000  0.754901  0.245099  1
  Tc  Tc9  1  0.254615  0.503715  0.750899  1
  Tc  Tc10  1  0.749148  0.505633  0.243515  1
  Tc  Tc11  1  0.250852  0.756485  0.494367  1
  Tc  Tc12  1  0.000000  0.990434  0.009566  1
  Sb  Sb13  1  0.302919  0.304157  0.998762  1
  Sb  Sb14  1  0.000000  0.308810  0.305933  1
  Sb  Sb15  1  0.000000  0.694067  0.691190  1
  Sb  Sb16  1  0.697081  0.001238  0.695843  1
