# generated using pymatgen
data_Pr4Ag2PtAu
_symmetry_space_group_name_H-M   'P 1'
_cell_length_a   4.83398300
_cell_length_b   5.93907084
_cell_length_c   7.52344300
_cell_angle_alpha   90.89074342
_cell_angle_beta   90.00000000
_cell_angle_gamma   90.00000000
_symmetry_Int_Tables_number   1
_chemical_formula_structural   Pr4Ag2PtAu
_chemical_formula_sum   'Pr4 Ag2 Pt1 Au1'
_cell_volume   215.96718838
_cell_formula_units_Z   1
loop_
 _symmetry_equiv_pos_site_id
 _symmetry_equiv_pos_as_xyz
  1  'x, y, z'
loop_
 _atom_site_type_symbol
 _atom_site_label
 _atom_site_symmetry_multiplicity
 _atom_site_fract_x
 _atom_site_fract_y
 _atom_site_fract_z
 _atom_site_occupancy
  Pr  Pr0  1  0.250000  0.361927  0.698083  1
  Pr  Pr1  1  0.250000  0.152644  0.167824  1
  Pr  Pr2  1  0.750000  0.630132  0.306897  1
  Pr  Pr3  1  0.750000  0.858861  0.829092  1
  Ag  Ag4  1  0.250000  0.863015  0.533262  1
  Ag  Ag5  1  0.750000  0.132522  0.463846  1
  Pt  Pt6  1  0.750000  0.343809  0.956039  1
  Au  Au7  1  0.250000  0.657090  0.044956  1
