# generated using pymatgen
data_HfZr9SiNiSb6
_symmetry_space_group_name_H-M   'P 1'
_cell_length_a   8.64031615
_cell_length_b   8.64536792
_cell_length_c   5.84605110
_cell_angle_alpha   90.01070788
_cell_angle_beta   89.97857835
_cell_angle_gamma   119.98067231
_symmetry_Int_Tables_number   1
_chemical_formula_structural   HfZr9SiNiSb6
_chemical_formula_sum   'Hf1 Zr9 Si1 Ni1 Sb6'
_cell_volume   378.26039562
_cell_formula_units_Z   1
loop_
 _symmetry_equiv_pos_site_id
 _symmetry_equiv_pos_as_xyz
  1  'x, y, z'
loop_
 _atom_site_type_symbol
 _atom_site_label
 _atom_site_symmetry_multiplicity
 _atom_site_fract_x
 _atom_site_fract_y
 _atom_site_fract_z
 _atom_site_occupancy
  Hf  Hf0  1  0.258853  0.000000  0.247854  1
  Zr  Zr1  1  0.258699  0.258030  0.751116  1
  Zr  Zr2  1  0.000669  0.741970  0.751116  1
  Zr  Zr3  1  0.999725  0.260111  0.248533  1
  Zr  Zr4  1  0.739613  0.739889  0.248533  1
  Zr  Zr5  1  0.741309  0.000000  0.750366  1
  Zr  Zr6  1  0.333186  0.666697  0.000272  1
  Zr  Zr7  1  0.666123  0.333089  0.499748  1
  Zr  Zr8  1  0.666489  0.333303  0.000272  1
  Zr  Zr9  1  0.333033  0.666911  0.499748  1
  Si  Si10  1  0.000628  0.000000  0.496606  1
  Ni  Ni11  1  0.002224  0.000000  0.005554  1
  Sb  Sb12  1  0.608641  0.000000  0.248495  1
  Sb  Sb13  1  0.609317  0.609420  0.751456  1
  Sb  Sb14  1  0.999898  0.390580  0.751456  1
  Sb  Sb15  1  0.000564  0.610684  0.248572  1
  Sb  Sb16  1  0.389880  0.389316  0.248572  1
  Sb  Sb17  1  0.391149  0.000000  0.751732  1
