# generated using pymatgen
data_Ho8Tl3Ru
_symmetry_space_group_name_H-M   'P 1'
_cell_length_a   10.37513800
_cell_length_b   10.37513880
_cell_length_c   7.02110000
_cell_angle_alpha   90.00000000
_cell_angle_beta   90.00000000
_cell_angle_gamma   119.99999745
_symmetry_Int_Tables_number   1
_chemical_formula_structural   Ho8Tl3Ru
_chemical_formula_sum   'Ho16 Tl6 Ru2'
_cell_volume   654.52102070
_cell_formula_units_Z   2
loop_
 _symmetry_equiv_pos_site_id
 _symmetry_equiv_pos_as_xyz
  1  'x, y, z'
loop_
 _atom_site_type_symbol
 _atom_site_label
 _atom_site_symmetry_multiplicity
 _atom_site_fract_x
 _atom_site_fract_y
 _atom_site_fract_z
 _atom_site_occupancy
  Ho  Ho0  1  0.533581  0.067153  0.508468  1
  Ho  Ho1  1  0.932847  0.466420  0.508467  1
  Ho  Ho2  1  0.533579  0.466420  0.508453  1
  Ho  Ho3  1  0.466419  0.932847  0.008468  1
  Ho  Ho4  1  0.067153  0.533580  0.008467  1
  Ho  Ho5  1  0.466421  0.533580  0.008453  1
  Ho  Ho6  1  0.177197  0.354403  0.711346  1
  Ho  Ho7  1  0.645597  0.822802  0.711346  1
  Ho  Ho8  1  0.177207  0.822791  0.711338  1
  Ho  Ho9  1  0.822803  0.645597  0.211346  1
  Ho  Ho10  1  0.354403  0.177198  0.211346  1
  Ho  Ho11  1  0.822793  0.177209  0.211338  1
  Ho  Ho12  1  0.666669  0.333330  0.884750  1
  Ho  Ho13  1  0.333331  0.666670  0.384750  1
  Ho  Ho14  1  0.999998  0.000003  0.492328  1
  Ho  Ho15  1  0.000002  0.999997  0.992328  1
  Tl  Tl16  1  0.837373  0.674750  0.753465  1
  Tl  Tl17  1  0.325248  0.162629  0.753467  1
  Tl  Tl18  1  0.837375  0.162625  0.753486  1
  Tl  Tl19  1  0.162627  0.325250  0.253465  1
  Tl  Tl20  1  0.674752  0.837371  0.253467  1
  Tl  Tl21  1  0.162625  0.837375  0.253486  1
  Ru  Ru22  1  0.666658  0.333340  0.282108  1
  Ru  Ru23  1  0.333342  0.666660  0.782108  1
