# generated using pymatgen
data_Rb9Na11(HfP3)4
_symmetry_space_group_name_H-M   'P 1'
_cell_length_a   10.64806415
_cell_length_b   10.64650763
_cell_length_c   15.22091418
_cell_angle_alpha   90.21337201
_cell_angle_beta   89.43088039
_cell_angle_gamma   142.60613186
_symmetry_Int_Tables_number   1
_chemical_formula_structural   Rb9Na11(HfP3)4
_chemical_formula_sum   'Rb9 Na11 Hf4 P12'
_cell_volume   1047.81262778
_cell_formula_units_Z   1
loop_
 _symmetry_equiv_pos_site_id
 _symmetry_equiv_pos_as_xyz
  1  'x, y, z'
loop_
 _atom_site_type_symbol
 _atom_site_label
 _atom_site_symmetry_multiplicity
 _atom_site_fract_x
 _atom_site_fract_y
 _atom_site_fract_z
 _atom_site_occupancy
  Rb  Rb0  1  0.105802  0.450015  0.681083  1
  Rb  Rb1  1  0.711903  0.712454  0.689213  1
  Rb  Rb2  1  0.213018  0.212598  0.811047  1
  Rb  Rb3  1  0.779819  0.779557  0.187774  1
  Rb  Rb4  1  0.951150  0.606759  0.819025  1
  Rb  Rb5  1  0.552889  0.889517  0.320022  1
  Rb  Rb6  1  0.390213  0.054309  0.177628  1
  Rb  Rb7  1  0.052986  0.389941  0.177326  1
  Rb  Rb8  1  0.889604  0.552086  0.320366  1
  Na  Na9  1  0.433123  0.088639  0.680231  1
  Na  Na10  1  0.584377  0.929172  0.822137  1
  Na  Na11  1  0.247010  0.247464  0.329644  1
  Na  Na12  1  0.920790  0.082862  0.997602  1
  Na  Na13  1  0.583341  0.422502  0.501180  1
  Na  Na14  1  0.081948  0.920588  0.998797  1
  Na  Na15  1  0.422697  0.582806  0.499981  1
  Na  Na16  1  0.754784  0.241788  0.994744  1
  Na  Na17  1  0.745428  0.257571  0.503306  1
  Na  Na18  1  0.248276  0.759173  0.996973  1
  Na  Na19  1  0.262111  0.752185  0.501395  1
  Hf  Hf20  1  0.092227  0.921938  0.500680  1
  Hf  Hf21  1  0.418429  0.589222  0.999513  1
  Hf  Hf22  1  0.917308  0.088602  0.502993  1
  Hf  Hf23  1  0.585204  0.413140  0.996868  1
  P  P24  1  0.867217  0.554585  0.092042  1
  P  P25  1  0.446910  0.133812  0.893951  1
  P  P26  1  0.632329  0.947607  0.603590  1
  P  P27  1  0.949956  0.637390  0.596349  1
  P  P28  1  0.140608  0.450897  0.901532  1
  P  P29  1  0.559230  0.872728  0.094917  1
  P  P30  1  0.375156  0.070047  0.399757  1
  P  P31  1  0.202484  0.203445  0.588135  1
  P  P32  1  0.704443  0.703367  0.912902  1
  P  P33  1  0.303486  0.302865  0.090551  1
  P  P34  1  0.066284  0.370517  0.402348  1
  P  P35  1  0.807459  0.807856  0.414395  1
