# generated using pymatgen
data_Nd4SiOs3Br2
_symmetry_space_group_name_H-M   'P 1'
_cell_length_a   4.23544000
_cell_length_b   4.23543895
_cell_length_c   16.97836000
_cell_angle_alpha   90.00000000
_cell_angle_beta   90.00000000
_cell_angle_gamma   119.99999259
_symmetry_Int_Tables_number   1
_chemical_formula_structural   Nd4SiOs3Br2
_chemical_formula_sum   'Nd4 Si1 Os3 Br2'
_cell_volume   263.76876257
_cell_formula_units_Z   1
loop_
 _symmetry_equiv_pos_site_id
 _symmetry_equiv_pos_as_xyz
  1  'x, y, z'
loop_
 _atom_site_type_symbol
 _atom_site_label
 _atom_site_symmetry_multiplicity
 _atom_site_fract_x
 _atom_site_fract_y
 _atom_site_fract_z
 _atom_site_occupancy
  Nd  Nd0  1  0.000000  0.000000  0.115585  1
  Nd  Nd1  1  0.000000  0.000000  0.883270  1
  Nd  Nd2  1  0.000000  0.000000  0.610090  1
  Nd  Nd3  1  0.000000  0.000000  0.392617  1
  Si  Si4  1  0.333333  0.666667  0.501905  1
  Os  Os5  1  0.666667  0.333333  0.499053  1
  Os  Os6  1  0.666667  0.333333  0.010548  1
  Os  Os7  1  0.333333  0.666667  0.988276  1
  Br  Br8  1  0.333333  0.666667  0.250598  1
  Br  Br9  1  0.666667  0.333333  0.748057  1
