# generated using pymatgen
data_Pr4Nd6InSi4Ge
_symmetry_space_group_name_H-M   'P 1'
_cell_length_a   7.81664700
_cell_length_b   9.23222412
_cell_length_c   7.81664700
_cell_angle_alpha   115.04532252
_cell_angle_beta   90.00000000
_cell_angle_gamma   115.04532252
_symmetry_Int_Tables_number   1
_chemical_formula_structural   Pr4Nd6InSi4Ge
_chemical_formula_sum   'Pr4 Nd6 In1 Si4 Ge1'
_cell_volume   451.82578764
_cell_formula_units_Z   1
loop_
 _symmetry_equiv_pos_site_id
 _symmetry_equiv_pos_as_xyz
  1  'x, y, z'
loop_
 _atom_site_type_symbol
 _atom_site_label
 _atom_site_symmetry_multiplicity
 _atom_site_fract_x
 _atom_site_fract_y
 _atom_site_fract_z
 _atom_site_occupancy
  Pr  Pr0  1  0.451681  0.278846  0.302794  1
  Pr  Pr1  1  0.827164  0.278846  0.976050  1
  Pr  Pr2  1  0.302794  0.278846  0.827164  1
  Pr  Pr3  1  0.976050  0.278846  0.451681  1
  Nd  Nd4  1  0.974361  0.948722  0.974361  1
  Nd  Nd5  1  0.524691  0.049383  0.524691  1
  Nd  Nd6  1  0.524512  0.722309  0.672944  1
  Nd  Nd7  1  0.197799  0.722309  0.049366  1
  Nd  Nd8  1  0.672944  0.722309  0.197799  1
  Nd  Nd9  1  0.049366  0.722309  0.524512  1
  In  In10  1  0.750528  0.501055  0.750528  1
  Si  Si11  1  0.883204  0.998248  0.615148  1
  Si  Si12  1  0.115044  0.998248  0.383100  1
  Si  Si13  1  0.615148  0.998248  0.115044  1
  Si  Si14  1  0.383100  0.998248  0.883204  1
  Ge  Ge15  1  0.251614  0.503228  0.251614  1
