# generated using pymatgen
data_NaCrSnO4
_symmetry_space_group_name_H-M   'P 1'
_cell_length_a   3.11319500
_cell_length_b   9.38648500
_cell_length_c   11.08928400
_cell_angle_alpha   90.00000000
_cell_angle_beta   90.00000000
_cell_angle_gamma   90.00000000
_symmetry_Int_Tables_number   1
_chemical_formula_structural   NaCrSnO4
_chemical_formula_sum   'Na4 Cr4 Sn4 O16'
_cell_volume   324.05059318
_cell_formula_units_Z   4
loop_
 _symmetry_equiv_pos_site_id
 _symmetry_equiv_pos_as_xyz
  1  'x, y, z'
loop_
 _atom_site_type_symbol
 _atom_site_label
 _atom_site_symmetry_multiplicity
 _atom_site_fract_x
 _atom_site_fract_y
 _atom_site_fract_z
 _atom_site_occupancy
  Na  Na0  1  0.000000  0.758803  0.101461  1
  Na  Na1  1  0.000000  0.258803  0.898539  1
  Na  Na2  1  0.500000  0.241718  0.405775  1
  Na  Na3  1  0.500000  0.741718  0.594225  1
  Cr  Cr4  1  0.000000  0.419870  0.645966  1
  Cr  Cr5  1  0.000000  0.919870  0.354034  1
  Cr  Cr6  1  0.000000  0.438603  0.135864  1
  Cr  Cr7  1  0.000000  0.938603  0.864136  1
  Sn  Sn8  1  0.500000  0.586263  0.851850  1
  Sn  Sn9  1  0.500000  0.086263  0.148150  1
  Sn  Sn10  1  0.500000  0.561679  0.362797  1
  Sn  Sn11  1  0.500000  0.061679  0.637203  1
  O  O12  1  0.000000  0.417727  0.318918  1
  O  O13  1  0.000000  0.917727  0.681082  1
  O  O14  1  0.500000  0.573708  0.173472  1
  O  O15  1  0.500000  0.073708  0.826528  1
  O  O16  1  0.000000  0.205241  0.594137  1
  O  O17  1  0.000000  0.705241  0.405863  1
  O  O18  1  0.500000  0.799677  0.904542  1
  O  O19  1  0.500000  0.299677  0.095458  1
  O  O20  1  0.000000  0.522659  0.964432  1
  O  O21  1  0.000000  0.022659  0.035568  1
  O  O22  1  0.500000  0.472084  0.534806  1
  O  O23  1  0.500000  0.972084  0.465194  1
  O  O24  1  0.000000  0.116548  0.275462  1
  O  O25  1  0.000000  0.616548  0.724538  1
  O  O26  1  0.500000  0.885420  0.237495  1
  O  O27  1  0.500000  0.385420  0.762505  1
