# generated using pymatgen
data_Dy2Ho2Si6IrRh
_symmetry_space_group_name_H-M   'P 1'
_cell_length_a   8.16154106
_cell_length_b   8.16328218
_cell_length_c   7.90439400
_cell_angle_alpha   90.00001522
_cell_angle_beta   90.00134801
_cell_angle_gamma   120.00690440
_symmetry_Int_Tables_number   1
_chemical_formula_structural   Dy2Ho2Si6IrRh
_chemical_formula_sum   'Dy4 Ho4 Si12 Ir2 Rh2'
_cell_volume   456.04318601
_cell_formula_units_Z   2
loop_
 _symmetry_equiv_pos_site_id
 _symmetry_equiv_pos_as_xyz
  1  'x, y, z'
loop_
 _atom_site_type_symbol
 _atom_site_label
 _atom_site_symmetry_multiplicity
 _atom_site_fract_x
 _atom_site_fract_y
 _atom_site_fract_z
 _atom_site_occupancy
  Dy  Dy0  1  0.999950  0.999973  0.248604  1
  Dy  Dy1  1  0.000062  0.000029  0.751371  1
  Dy  Dy2  1  0.509414  0.490705  0.250257  1
  Dy  Dy3  1  0.509414  0.018715  0.250257  1
  Ho  Ho4  1  0.981548  0.490770  0.250301  1
  Ho  Ho5  1  0.490673  0.509291  0.749692  1
  Ho  Ho6  1  0.490675  0.981386  0.749684  1
  Ho  Ho7  1  0.018608  0.509303  0.749705  1
  Si  Si8  1  0.166747  0.833113  0.499204  1
  Si  Si9  1  0.166748  0.333638  0.499204  1
  Si  Si10  1  0.666368  0.833187  0.499252  1
  Si  Si11  1  0.833284  0.166933  0.501113  1
  Si  Si12  1  0.833284  0.666351  0.501114  1
  Si  Si13  1  0.333556  0.166778  0.501307  1
  Si  Si14  1  0.833038  0.167196  0.999951  1
  Si  Si15  1  0.833039  0.665842  0.999949  1
  Si  Si16  1  0.334038  0.167017  0.999760  1
  Si  Si17  1  0.166999  0.832855  0.999704  1
  Si  Si18  1  0.166997  0.334144  0.999703  1
  Si  Si19  1  0.665911  0.832957  0.999648  1
  Ir  Ir20  1  0.332984  0.666487  0.469194  1
  Ir  Ir21  1  0.666839  0.333423  0.531986  1
  Rh  Rh22  1  0.666817  0.333409  0.962647  1
  Rh  Rh23  1  0.333008  0.666499  0.036392  1
