# generated using pymatgen
data_Rb2Si3SnO9
_symmetry_space_group_name_H-M   'P 1'
_cell_length_a   7.78409408
_cell_length_b   7.78409408
_cell_length_c   7.78409416
_cell_angle_alpha   83.12306168
_cell_angle_beta   83.12306168
_cell_angle_gamma   83.12306793
_symmetry_Int_Tables_number   1
_chemical_formula_structural   Rb2Si3SnO9
_chemical_formula_sum   'Rb4 Si6 Sn2 O18'
_cell_volume   462.22705457
_cell_formula_units_Z   2
loop_
 _symmetry_equiv_pos_site_id
 _symmetry_equiv_pos_as_xyz
  1  'x, y, z'
loop_
 _atom_site_type_symbol
 _atom_site_label
 _atom_site_symmetry_multiplicity
 _atom_site_fract_x
 _atom_site_fract_y
 _atom_site_fract_z
 _atom_site_occupancy
  Rb  Rb0  1  0.009482  0.223900  0.774704  1
  Rb  Rb1  1  0.503122  0.503122  0.503122  1
  Rb  Rb2  1  0.774704  0.009482  0.223900  1
  Rb  Rb3  1  0.223900  0.774704  0.009482  1
  Si  Si4  1  0.450270  0.982450  0.555994  1
  Si  Si5  1  0.555994  0.450270  0.982450  1
  Si  Si6  1  0.487844  0.105028  0.898176  1
  Si  Si7  1  0.105028  0.898176  0.487844  1
  Si  Si8  1  0.982450  0.555994  0.450270  1
  Si  Si9  1  0.898176  0.487844  0.105028  1
  Sn  Sn10  1  0.254717  0.254717  0.254717  1
  Sn  Sn11  1  0.772529  0.772529  0.772529  1
  O  O12  1  0.895971  0.676940  0.991161  1
  O  O13  1  0.558348  0.641551  0.874631  1
  O  O14  1  0.081771  0.366655  0.079905  1
  O  O15  1  0.150568  0.411023  0.449900  1
  O  O16  1  0.518829  0.312677  0.847578  1
  O  O17  1  0.874631  0.558348  0.641551  1
  O  O18  1  0.991161  0.895971  0.676940  1
  O  O19  1  0.079905  0.081771  0.366655  1
  O  O20  1  0.366655  0.079905  0.081771  1
  O  O21  1  0.676940  0.991161  0.895971  1
  O  O22  1  0.748921  0.376868  0.049183  1
  O  O23  1  0.411023  0.449900  0.150568  1
  O  O24  1  0.641551  0.874631  0.558348  1
  O  O25  1  0.049183  0.748921  0.376868  1
  O  O26  1  0.449900  0.150568  0.411023  1
  O  O27  1  0.312677  0.847578  0.518829  1
  O  O28  1  0.847578  0.518829  0.312677  1
  O  O29  1  0.376868  0.049183  0.748921  1
