# generated using pymatgen
data_TmLu(NbS2)8
_symmetry_space_group_name_H-M   'P 1'
_cell_length_a   6.68663600
_cell_length_b   6.68663631
_cell_length_c   13.46047400
_cell_angle_alpha   90.00000000
_cell_angle_beta   90.00000000
_cell_angle_gamma   119.99999847
_symmetry_Int_Tables_number   1
_chemical_formula_structural   TmLu(NbS2)8
_chemical_formula_sum   'Tm1 Lu1 Nb8 S16'
_cell_volume   521.20236346
_cell_formula_units_Z   1
loop_
 _symmetry_equiv_pos_site_id
 _symmetry_equiv_pos_as_xyz
  1  'x, y, z'
loop_
 _atom_site_type_symbol
 _atom_site_label
 _atom_site_symmetry_multiplicity
 _atom_site_fract_x
 _atom_site_fract_y
 _atom_site_fract_z
 _atom_site_occupancy
  Tm  Tm0  1  0.000000  0.000000  0.500000  1
  Lu  Lu1  1  0.000000  0.000000  0.000000  1
  Nb  Nb2  1  0.000000  0.000000  0.248874  1
  Nb  Nb3  1  0.000000  0.000000  0.751126  1
  Nb  Nb4  1  0.504824  0.009648  0.248353  1
  Nb  Nb5  1  0.990352  0.495176  0.248353  1
  Nb  Nb6  1  0.504824  0.495176  0.248353  1
  Nb  Nb7  1  0.495176  0.990352  0.751647  1
  Nb  Nb8  1  0.009648  0.504824  0.751647  1
  Nb  Nb9  1  0.495176  0.504824  0.751647  1
  S  S10  1  0.333333  0.666667  0.871127  1
  S  S11  1  0.666667  0.333333  0.128873  1
  S  S12  1  0.666667  0.333333  0.367583  1
  S  S13  1  0.333333  0.666667  0.632417  1
  S  S14  1  0.169017  0.830983  0.365341  1
  S  S15  1  0.169017  0.338034  0.365341  1
  S  S16  1  0.661966  0.830983  0.365341  1
  S  S17  1  0.830983  0.169017  0.634659  1
  S  S18  1  0.830983  0.661966  0.634659  1
  S  S19  1  0.338034  0.169017  0.634659  1
  S  S20  1  0.831285  0.168715  0.868132  1
  S  S21  1  0.831285  0.662571  0.868132  1
  S  S22  1  0.337429  0.168715  0.868132  1
  S  S23  1  0.168715  0.831285  0.131868  1
  S  S24  1  0.168715  0.337429  0.131868  1
  S  S25  1  0.662571  0.831285  0.131868  1
