# generated using pymatgen
data_Nb2SiRu4Rh
_symmetry_space_group_name_H-M   'P 1'
_cell_length_a   4.04234400
_cell_length_b   5.44661723
_cell_length_c   10.73771000
_cell_angle_alpha   89.37966252
_cell_angle_beta   90.00000000
_cell_angle_gamma   90.00000000
_symmetry_Int_Tables_number   1
_chemical_formula_structural   Nb2SiRu4Rh
_chemical_formula_sum   'Nb4 Si2 Ru8 Rh2'
_cell_volume   236.39938365
_cell_formula_units_Z   2
loop_
 _symmetry_equiv_pos_site_id
 _symmetry_equiv_pos_as_xyz
  1  'x, y, z'
loop_
 _atom_site_type_symbol
 _atom_site_label
 _atom_site_symmetry_multiplicity
 _atom_site_fract_x
 _atom_site_fract_y
 _atom_site_fract_z
 _atom_site_occupancy
  Nb  Nb0  1  0.500000  0.831420  0.360977  1
  Nb  Nb1  1  0.500000  0.168580  0.639023  1
  Nb  Nb2  1  0.500000  0.321136  0.138782  1
  Nb  Nb3  1  0.500000  0.678864  0.861218  1
  Si  Si4  1  0.000000  0.500000  0.500000  1
  Si  Si5  1  0.000000  0.000000  0.000000  1
  Ru  Ru6  1  0.000000  0.500000  0.000000  1
  Ru  Ru7  1  0.000000  0.000000  0.500000  1
  Ru  Ru8  1  0.000000  0.076565  0.249038  1
  Ru  Ru9  1  0.000000  0.923435  0.750962  1
  Ru  Ru10  1  0.500000  0.819559  0.105748  1
  Ru  Ru11  1  0.500000  0.180441  0.894252  1
  Ru  Ru12  1  0.500000  0.322149  0.394133  1
  Ru  Ru13  1  0.500000  0.677851  0.605867  1
  Rh  Rh14  1  0.000000  0.575850  0.249335  1
  Rh  Rh15  1  0.000000  0.424150  0.750665  1
