# generated using pymatgen
data_Dy3Ho2Bi3
_symmetry_space_group_name_H-M   'P 1'
_cell_length_a   8.26217400
_cell_length_b   9.51582300
_cell_length_c   12.04671300
_cell_angle_alpha   90.00000000
_cell_angle_beta   90.00000000
_cell_angle_gamma   90.00000000
_symmetry_Int_Tables_number   1
_chemical_formula_structural   Dy3Ho2Bi3
_chemical_formula_sum   'Dy12 Ho8 Bi12'
_cell_volume   947.12926533
_cell_formula_units_Z   4
loop_
 _symmetry_equiv_pos_site_id
 _symmetry_equiv_pos_as_xyz
  1  'x, y, z'
loop_
 _atom_site_type_symbol
 _atom_site_label
 _atom_site_symmetry_multiplicity
 _atom_site_fract_x
 _atom_site_fract_y
 _atom_site_fract_z
 _atom_site_occupancy
  Dy  Dy0  1  0.352519  0.750000  0.215192  1
  Dy  Dy1  1  0.852519  0.750000  0.284808  1
  Dy  Dy2  1  0.647481  0.250000  0.784808  1
  Dy  Dy3  1  0.147481  0.250000  0.715192  1
  Dy  Dy4  1  0.475519  0.250000  0.488230  1
  Dy  Dy5  1  0.975519  0.250000  0.011770  1
  Dy  Dy6  1  0.524481  0.750000  0.511770  1
  Dy  Dy7  1  0.024481  0.750000  0.988230  1
  Dy  Dy8  1  0.312579  0.250000  0.218623  1
  Dy  Dy9  1  0.812579  0.250000  0.281377  1
  Dy  Dy10  1  0.687421  0.750000  0.781377  1
  Dy  Dy11  1  0.187421  0.750000  0.718623  1
  Ho  Ho12  1  0.692702  0.564116  0.058485  1
  Ho  Ho13  1  0.192702  0.935884  0.441515  1
  Ho  Ho14  1  0.307298  0.064116  0.941515  1
  Ho  Ho15  1  0.807298  0.435884  0.558485  1
  Ho  Ho16  1  0.307298  0.435884  0.941515  1
  Ho  Ho17  1  0.807298  0.064116  0.558485  1
  Ho  Ho18  1  0.692702  0.935884  0.058485  1
  Ho  Ho19  1  0.192702  0.564116  0.441515  1
  Bi  Bi20  1  0.407432  0.750000  0.956789  1
  Bi  Bi21  1  0.907432  0.750000  0.543211  1
  Bi  Bi22  1  0.592568  0.250000  0.043211  1
  Bi  Bi23  1  0.092568  0.250000  0.456789  1
  Bi  Bi24  1  0.564743  0.995537  0.325230  1
  Bi  Bi25  1  0.064743  0.504463  0.174770  1
  Bi  Bi26  1  0.435257  0.495537  0.674770  1
  Bi  Bi27  1  0.935257  0.004463  0.825230  1
  Bi  Bi28  1  0.435257  0.004463  0.674770  1
  Bi  Bi29  1  0.935257  0.495537  0.825230  1
  Bi  Bi30  1  0.564743  0.504463  0.325230  1
  Bi  Bi31  1  0.064743  0.995537  0.174770  1
