# generated using pymatgen
data_Na2PPdPt2
_symmetry_space_group_name_H-M   'P 1'
_cell_length_a   7.36635199
_cell_length_b   7.34636507
_cell_length_c   7.35610200
_cell_angle_alpha   90.01478729
_cell_angle_beta   89.42110176
_cell_angle_gamma   89.64414735
_symmetry_Int_Tables_number   1
_chemical_formula_structural   Na2PPdPt2
_chemical_formula_sum   'Na8 P4 Pd4 Pt8'
_cell_volume   398.05414402
_cell_formula_units_Z   4
loop_
 _symmetry_equiv_pos_site_id
 _symmetry_equiv_pos_as_xyz
  1  'x, y, z'
loop_
 _atom_site_type_symbol
 _atom_site_label
 _atom_site_symmetry_multiplicity
 _atom_site_fract_x
 _atom_site_fract_y
 _atom_site_fract_z
 _atom_site_occupancy
  Na  Na0  1  0.288658  0.288240  0.288046  1
  Na  Na1  1  0.037206  0.463455  0.538307  1
  Na  Na2  1  0.537586  0.037826  0.462836  1
  Na  Na3  1  0.461604  0.537315  0.036452  1
  Na  Na4  1  0.212057  0.712649  0.787592  1
  Na  Na5  1  0.960704  0.962373  0.961352  1
  Na  Na6  1  0.786097  0.213970  0.711596  1
  Na  Na7  1  0.711273  0.787309  0.211324  1
  P  P8  1  0.865960  0.374191  0.115205  1
  P  P9  1  0.374421  0.125411  0.883340  1
  P  P10  1  0.630261  0.628674  0.619703  1
  P  P11  1  0.131154  0.869744  0.382580  1
  Pd  Pd12  1  0.174278  0.078707  0.628293  1
  Pd  Pd13  1  0.421610  0.376209  0.673545  1
  Pd  Pd14  1  0.074268  0.623740  0.173265  1
  Pd  Pd15  1  0.928246  0.125191  0.324498  1
  Pt  Pt16  1  0.325035  0.919001  0.126933  1
  Pt  Pt17  1  0.672290  0.420979  0.372804  1
  Pt  Pt18  1  0.578893  0.875711  0.828736  1
  Pt  Pt19  1  0.623084  0.169537  0.081466  1
  Pt  Pt20  1  0.378037  0.668407  0.422037  1
  Pt  Pt21  1  0.875111  0.833257  0.575264  1
  Pt  Pt22  1  0.123439  0.327125  0.922441  1
  Pt  Pt23  1  0.828727  0.580978  0.872383  1
