# generated using pymatgen
data_CeNd3Cd2Pt3Au
_symmetry_space_group_name_H-M   'P 1'
_cell_length_a   7.92535631
_cell_length_b   7.96499414
_cell_length_c   3.84765000
_cell_angle_alpha   90.00000000
_cell_angle_beta   90.00000000
_cell_angle_gamma   91.40578041
_symmetry_Int_Tables_number   1
_chemical_formula_structural   CeNd3Cd2Pt3Au
_chemical_formula_sum   'Ce1 Nd3 Cd2 Pt3 Au1'
_cell_volume   242.81140565
_cell_formula_units_Z   1
loop_
 _symmetry_equiv_pos_site_id
 _symmetry_equiv_pos_as_xyz
  1  'x, y, z'
loop_
 _atom_site_type_symbol
 _atom_site_label
 _atom_site_symmetry_multiplicity
 _atom_site_fract_x
 _atom_site_fract_y
 _atom_site_fract_z
 _atom_site_occupancy
  Ce  Ce0  1  0.664688  0.184387  0.500000  1
  Nd  Nd1  1  0.172584  0.327914  0.500000  1
  Nd  Nd2  1  0.317791  0.833208  0.500000  1
  Nd  Nd3  1  0.839699  0.661198  0.500000  1
  Cd  Cd4  1  0.498213  0.502898  0.000000  1
  Cd  Cd5  1  0.998316  0.003101  0.000000  1
  Pt  Pt6  1  0.129363  0.623091  0.000000  1
  Pt  Pt7  1  0.864381  0.359840  0.000000  1
  Pt  Pt8  1  0.382326  0.132369  0.000000  1
  Au  Au9  1  0.632637  0.871996  0.000000  1
