# generated using pymatgen
data_La3Cd2Mo3O14
_symmetry_space_group_name_H-M   'P 1'
_cell_length_a   7.39776880
_cell_length_b   7.39784553
_cell_length_c   7.39782168
_cell_angle_alpha   116.87694055
_cell_angle_beta   63.12344283
_cell_angle_gamma   116.87596495
_symmetry_Int_Tables_number   1
_chemical_formula_structural   La3Cd2Mo3O14
_chemical_formula_sum   'La3 Cd2 Mo3 O14'
_cell_volume   306.11535897
_cell_formula_units_Z   1
loop_
 _symmetry_equiv_pos_site_id
 _symmetry_equiv_pos_as_xyz
  1  'x, y, z'
loop_
 _atom_site_type_symbol
 _atom_site_label
 _atom_site_symmetry_multiplicity
 _atom_site_fract_x
 _atom_site_fract_y
 _atom_site_fract_z
 _atom_site_occupancy
  La  La0  1  0.999991  0.500002  0.000006  1
  La  La1  1  0.500003  0.000002  0.999988  1
  La  La2  1  0.500001  0.499994  0.500000  1
  Cd  Cd3  1  0.499999  0.500003  0.000001  1
  Cd  Cd4  1  0.000001  0.999999  0.500001  1
  Mo  Mo5  1  0.500001  0.999997  0.499996  1
  Mo  Mo6  1  0.000000  0.499998  0.500000  1
  Mo  Mo7  1  0.000000  0.000000  0.000000  1
  O  O8  1  0.621710  0.378308  0.121694  1
  O  O9  1  0.378287  0.621696  0.878309  1
  O  O10  1  0.077141  0.313861  0.186123  1
  O  O11  1  0.686128  0.922939  0.186192  1
  O  O12  1  0.686170  0.313838  0.577046  1
  O  O13  1  0.922860  0.686139  0.813879  1
  O  O14  1  0.313874  0.077059  0.813808  1
  O  O15  1  0.313830  0.686162  0.422956  1
  O  O16  1  0.636495  0.905100  0.594920  1
  O  O17  1  0.094889  0.363492  0.594871  1
  O  O18  1  0.094865  0.905124  0.136509  1
  O  O19  1  0.363508  0.094900  0.405078  1
  O  O20  1  0.905112  0.636507  0.405129  1
  O  O21  1  0.905135  0.094876  0.863493  1
