# generated using pymatgen
data_Zr4CdNi4Ir
_symmetry_space_group_name_H-M   'P 1'
_cell_length_a   7.15415700
_cell_length_b   7.15415700
_cell_length_c   3.27711500
_cell_angle_alpha   90.00000000
_cell_angle_beta   90.00000000
_cell_angle_gamma   90.00000000
_symmetry_Int_Tables_number   1
_chemical_formula_structural   Zr4CdNi4Ir
_chemical_formula_sum   'Zr4 Cd1 Ni4 Ir1'
_cell_volume   167.72917665
_cell_formula_units_Z   1
loop_
 _symmetry_equiv_pos_site_id
 _symmetry_equiv_pos_as_xyz
  1  'x, y, z'
loop_
 _atom_site_type_symbol
 _atom_site_label
 _atom_site_symmetry_multiplicity
 _atom_site_fract_x
 _atom_site_fract_y
 _atom_site_fract_z
 _atom_site_occupancy
  Zr  Zr0  1  0.806166  0.648961  0.500000  1
  Zr  Zr1  1  0.351039  0.806166  0.500000  1
  Zr  Zr2  1  0.648961  0.193834  0.500000  1
  Zr  Zr3  1  0.193834  0.351039  0.500000  1
  Cd  Cd4  1  0.000000  0.000000  0.000000  1
  Ni  Ni5  1  0.119260  0.631597  0.000000  1
  Ni  Ni6  1  0.631597  0.880740  0.000000  1
  Ni  Ni7  1  0.880740  0.368403  0.000000  1
  Ni  Ni8  1  0.368403  0.119260  0.000000  1
  Ir  Ir9  1  0.500000  0.500000  0.000000  1
