# generated using pymatgen
data_TmLu3(HfGa5)2
_symmetry_space_group_name_H-M   'P 1'
_cell_length_a   5.84716801
_cell_length_b   9.33978602
_cell_length_c   11.30545600
_cell_angle_alpha   90.00000000
_cell_angle_beta   90.00000000
_cell_angle_gamma   90.00742154
_symmetry_Int_Tables_number   1
_chemical_formula_structural   TmLu3(HfGa5)2
_chemical_formula_sum   'Tm2 Lu6 Hf4 Ga20'
_cell_volume   617.40562209
_cell_formula_units_Z   2
loop_
 _symmetry_equiv_pos_site_id
 _symmetry_equiv_pos_as_xyz
  1  'x, y, z'
loop_
 _atom_site_type_symbol
 _atom_site_label
 _atom_site_symmetry_multiplicity
 _atom_site_fract_x
 _atom_site_fract_y
 _atom_site_fract_z
 _atom_site_occupancy
  Tm  Tm0  1  0.885709  0.500764  0.352946  1
  Tm  Tm1  1  0.614291  0.999236  0.852946  1
  Lu  Lu2  1  0.114239  0.000687  0.646856  1
  Lu  Lu3  1  0.385761  0.499313  0.146856  1
  Lu  Lu4  1  0.114244  0.499287  0.647180  1
  Lu  Lu5  1  0.385756  0.000713  0.147180  1
  Lu  Lu6  1  0.885867  0.999299  0.353069  1
  Lu  Lu7  1  0.614133  0.500701  0.853069  1
  Hf  Hf8  1  0.857287  0.749937  0.071698  1
  Hf  Hf9  1  0.642713  0.750063  0.571698  1
  Hf  Hf10  1  0.142551  0.249938  0.928356  1
  Hf  Hf11  1  0.357449  0.250062  0.428356  1
  Ga  Ga12  1  0.875171  0.052444  0.090944  1
  Ga  Ga13  1  0.624829  0.447556  0.590944  1
  Ga  Ga14  1  0.124791  0.552393  0.909172  1
  Ga  Ga15  1  0.375209  0.947607  0.409172  1
  Ga  Ga16  1  0.124693  0.947470  0.909224  1
  Ga  Ga17  1  0.375307  0.552530  0.409224  1
  Ga  Ga18  1  0.875169  0.447543  0.090596  1
  Ga  Ga19  1  0.624831  0.052457  0.590596  1
  Ga  Ga20  1  0.151926  0.750196  0.256436  1
  Ga  Ga21  1  0.348074  0.749804  0.756436  1
  Ga  Ga22  1  0.848467  0.250227  0.743403  1
  Ga  Ga23  1  0.651533  0.249773  0.243403  1
  Ga  Ga24  1  0.396506  0.749922  0.998885  1
  Ga  Ga25  1  0.103494  0.750078  0.498885  1
  Ga  Ga26  1  0.603354  0.250280  0.001378  1
  Ga  Ga27  1  0.896646  0.249720  0.501378  1
  Ga  Ga28  1  0.614302  0.750267  0.293427  1
  Ga  Ga29  1  0.885698  0.749733  0.793427  1
  Ga  Ga30  1  0.385278  0.250093  0.706431  1
  Ga  Ga31  1  0.114722  0.249907  0.206431  1
