# generated using pymatgen
data_LaThZn5Sn
_symmetry_space_group_name_H-M   'P 1'
_cell_length_a   8.64653223
_cell_length_b   8.64653346
_cell_length_c   9.10934400
_cell_angle_alpha   89.99929741
_cell_angle_beta   90.00070338
_cell_angle_gamma   149.47721577
_symmetry_Int_Tables_number   1
_chemical_formula_structural   LaThZn5Sn
_chemical_formula_sum   'La2 Th2 Zn10 Sn2'
_cell_volume   345.88603209
_cell_formula_units_Z   2
loop_
 _symmetry_equiv_pos_site_id
 _symmetry_equiv_pos_as_xyz
  1  'x, y, z'
loop_
 _atom_site_type_symbol
 _atom_site_label
 _atom_site_symmetry_multiplicity
 _atom_site_fract_x
 _atom_site_fract_y
 _atom_site_fract_z
 _atom_site_occupancy
  La  La0  1  0.000000  0.000000  0.500000  1
  La  La1  1  0.000000  0.000000  0.000000  1
  Th  Th2  1  0.206542  0.793458  0.250019  1
  Th  Th3  1  0.793458  0.206542  0.749981  1
  Zn  Zn4  1  0.813952  0.186048  0.392059  1
  Zn  Zn5  1  0.186048  0.813952  0.607941  1
  Zn  Zn6  1  0.813948  0.186052  0.107946  1
  Zn  Zn7  1  0.186052  0.813948  0.892054  1
  Zn  Zn8  1  0.658078  0.341922  0.484003  1
  Zn  Zn9  1  0.341922  0.658078  0.515997  1
  Zn  Zn10  1  0.658078  0.341922  0.015996  1
  Zn  Zn11  1  0.341922  0.658078  0.984004  1
  Zn  Zn12  1  0.396382  0.603618  0.250002  1
  Zn  Zn13  1  0.603618  0.396382  0.749998  1
  Sn  Sn14  1  0.557464  0.442536  0.250011  1
  Sn  Sn15  1  0.442536  0.557464  0.749989  1
