# generated using pymatgen
data_Tb5Dy(Ni3As2)6
_symmetry_space_group_name_H-M   'P 1'
_cell_length_a   3.91297900
_cell_length_b   10.85957243
_cell_length_c   12.74428651
_cell_angle_alpha   90.03242969
_cell_angle_beta   90.00000000
_cell_angle_gamma   90.00000000
_symmetry_Int_Tables_number   1
_chemical_formula_structural   Tb5Dy(Ni3As2)6
_chemical_formula_sum   'Tb5 Dy1 Ni18 As12'
_cell_volume   541.54643415
_cell_formula_units_Z   1
loop_
 _symmetry_equiv_pos_site_id
 _symmetry_equiv_pos_as_xyz
  1  'x, y, z'
loop_
 _atom_site_type_symbol
 _atom_site_label
 _atom_site_symmetry_multiplicity
 _atom_site_fract_x
 _atom_site_fract_y
 _atom_site_fract_z
 _atom_site_occupancy
  Tb  Tb0  1  0.000000  0.500000  0.523602  1
  Tb  Tb1  1  0.500000  0.999988  0.476534  1
  Tb  Tb2  1  0.500000  0.184043  0.206393  1
  Tb  Tb3  1  0.000000  0.684322  0.793465  1
  Tb  Tb4  1  0.000000  0.315642  0.793479  1
  Dy  Dy5  1  0.500000  0.815976  0.206462  1
  Ni  Ni6  1  0.500000  0.500007  0.156503  1
  Ni  Ni7  1  0.000000  0.999977  0.843566  1
  Ni  Ni8  1  0.500000  0.500043  0.699243  1
  Ni  Ni9  1  0.000000  0.999853  0.300730  1
  Ni  Ni10  1  0.000000  0.499993  0.982161  1
  Ni  Ni11  1  0.500000  0.999963  0.017854  1
  Ni  Ni12  1  0.500000  0.333111  0.997659  1
  Ni  Ni13  1  0.500000  0.666988  0.997718  1
  Ni  Ni14  1  0.000000  0.166894  0.002322  1
  Ni  Ni15  1  0.000000  0.833030  0.002368  1
  Ni  Ni16  1  0.500000  0.303197  0.426110  1
  Ni  Ni17  1  0.500000  0.696911  0.426091  1
  Ni  Ni18  1  0.000000  0.196834  0.573856  1
  Ni  Ni19  1  0.000000  0.803177  0.573812  1
  Ni  Ni20  1  0.500000  0.880135  0.707316  1
  Ni  Ni21  1  0.500000  0.119892  0.707266  1
  Ni  Ni22  1  0.000000  0.620120  0.292694  1
  Ni  Ni23  1  0.000000  0.379988  0.292754  1
  As  As24  1  0.500000  0.500018  0.876678  1
  As  As25  1  0.000000  0.999842  0.123389  1
  As  As26  1  0.500000  0.499945  0.344734  1
  As  As27  1  0.000000  0.000033  0.655258  1
  As  As28  1  0.500000  0.314056  0.613258  1
  As  As29  1  0.500000  0.685898  0.613293  1
  As  As30  1  0.000000  0.185935  0.386754  1
  As  As31  1  0.000000  0.814031  0.386577  1
  As  As32  1  0.500000  0.847605  0.890703  1
  As  As33  1  0.500000  0.152360  0.890774  1
  As  As34  1  0.000000  0.652546  0.109346  1
  As  As35  1  0.000000  0.347650  0.109279  1
