# generated using pymatgen
data_Pr2(NdTe3)3
_symmetry_space_group_name_H-M   'P 1'
_cell_length_a   13.53656834
_cell_length_b   13.54278651
_cell_length_c   11.18177311
_cell_angle_alpha   79.67073535
_cell_angle_beta   79.65972456
_cell_angle_gamma   26.78977262
_symmetry_Int_Tables_number   1
_chemical_formula_structural   Pr2(NdTe3)3
_chemical_formula_sum   'Pr4 Nd6 Te18'
_cell_volume   908.06896354
_cell_formula_units_Z   2
loop_
 _symmetry_equiv_pos_site_id
 _symmetry_equiv_pos_as_xyz
  1  'x, y, z'
loop_
 _atom_site_type_symbol
 _atom_site_label
 _atom_site_symmetry_multiplicity
 _atom_site_fract_x
 _atom_site_fract_y
 _atom_site_fract_z
 _atom_site_occupancy
  Pr  Pr0  1  0.550498  0.654672  0.562447  1
  Pr  Pr1  1  0.752843  0.853443  0.158410  1
  Pr  Pr2  1  0.954673  0.053570  0.758886  1
  Pr  Pr3  1  0.162654  0.247373  0.363467  1
  Nd  Nd4  1  0.946612  0.044831  0.241247  1
  Nd  Nd5  1  0.146610  0.247199  0.841633  1
  Nd  Nd6  1  0.345079  0.449834  0.437286  1
  Nd  Nd7  1  0.540008  0.651655  0.036923  1
  Nd  Nd8  1  0.752901  0.836910  0.636562  1
  Nd  Nd9  1  0.348266  0.460052  0.963111  1
  Te  Te10  1  0.473224  0.571996  0.822399  1
  Te  Te11  1  0.072436  0.177249  0.621922  1
  Te  Te12  1  0.869437  0.979696  0.020499  1
  Te  Te13  1  0.681839  0.763711  0.422421  1
  Te  Te14  1  0.274352  0.375705  0.221459  1
  Te  Te15  1  0.020457  0.130825  0.980212  1
  Te  Te16  1  0.624781  0.726209  0.778879  1
  Te  Te17  1  0.427930  0.526607  0.178426  1
  Te  Te18  1  0.236756  0.318429  0.578432  1
  Te  Te19  1  0.822933  0.927945  0.379092  1
  Te  Te20  1  0.699335  0.300248  0.499381  1
  Te  Te21  1  0.299674  0.901617  0.298775  1
  Te  Te22  1  0.098508  0.699489  0.700527  1
  Te  Te23  1  0.894189  0.494339  0.111441  1
  Te  Te24  1  0.505385  0.105795  0.887621  1
  Te  Te25  1  0.002510  0.602512  0.893849  1
  Te  Te26  1  0.199112  0.800505  0.499453  1
  Te  Te27  1  0.396996  0.997587  0.105240  1
