# generated using pymatgen
data_IrRu4PtW2
_symmetry_space_group_name_H-M   'P 1'
_cell_length_a   5.56657100
_cell_length_b   5.51418640
_cell_length_c   4.41203800
_cell_angle_alpha   90.00000000
_cell_angle_beta   90.00000000
_cell_angle_gamma   120.31476321
_symmetry_Int_Tables_number   1
_chemical_formula_structural   IrRu4PtW2
_chemical_formula_sum   'Ir1 Ru4 Pt1 W2'
_cell_volume   116.91031634
_cell_formula_units_Z   1
loop_
 _symmetry_equiv_pos_site_id
 _symmetry_equiv_pos_as_xyz
  1  'x, y, z'
loop_
 _atom_site_type_symbol
 _atom_site_label
 _atom_site_symmetry_multiplicity
 _atom_site_fract_x
 _atom_site_fract_y
 _atom_site_fract_z
 _atom_site_occupancy
  Ir  Ir0  1  0.166049  0.332097  0.250000  1
  Ru  Ru1  1  0.668693  0.838711  0.250000  1
  Ru  Ru2  1  0.170020  0.838711  0.250000  1
  Ru  Ru3  1  0.333615  0.163898  0.750000  1
  Ru  Ru4  1  0.830283  0.163898  0.750000  1
  Pt  Pt5  1  0.834560  0.669118  0.750000  1
  W  W6  1  0.335664  0.671329  0.750000  1
  W  W7  1  0.661119  0.322237  0.250000  1
