# generated using pymatgen
data_La2PrEr2Sn3Cl
_symmetry_space_group_name_H-M   'P 1'
_cell_length_a   9.43195607
_cell_length_b   9.42417702
_cell_length_c   6.71119000
_cell_angle_alpha   90.00000000
_cell_angle_beta   90.00000000
_cell_angle_gamma   119.97271520
_symmetry_Int_Tables_number   1
_chemical_formula_structural   La2PrEr2Sn3Cl
_chemical_formula_sum   'La4 Pr2 Er4 Sn6 Cl2'
_cell_volume   516.76692500
_cell_formula_units_Z   2
loop_
 _symmetry_equiv_pos_site_id
 _symmetry_equiv_pos_as_xyz
  1  'x, y, z'
loop_
 _atom_site_type_symbol
 _atom_site_label
 _atom_site_symmetry_multiplicity
 _atom_site_fract_x
 _atom_site_fract_y
 _atom_site_fract_z
 _atom_site_occupancy
  La  La0  1  0.999888  0.261409  0.250000  1
  La  La1  1  0.999888  0.738479  0.750000  1
  La  La2  1  0.261309  0.261279  0.750000  1
  La  La3  1  0.261309  0.000031  0.250000  1
  Pr  Pr4  1  0.738784  0.999843  0.750000  1
  Pr  Pr5  1  0.738784  0.738941  0.250000  1
  Er  Er6  1  0.666854  0.333427  0.000000  1
  Er  Er7  1  0.334224  0.667112  0.500000  1
  Er  Er8  1  0.666854  0.333427  0.500000  1
  Er  Er9  1  0.334224  0.667112  0.000000  1
  Sn  Sn10  1  0.606861  0.608174  0.750000  1
  Sn  Sn11  1  0.998132  0.606700  0.250000  1
  Sn  Sn12  1  0.606861  0.998688  0.250000  1
  Sn  Sn13  1  0.394918  0.999332  0.750000  1
  Sn  Sn14  1  0.998132  0.391432  0.750000  1
  Sn  Sn15  1  0.394918  0.395586  0.250000  1
  Cl  Cl16  1  0.999028  0.999514  0.500000  1
  Cl  Cl17  1  0.999028  0.999514  0.000000  1
