# generated using pymatgen
data_Tb2Y2ReOs7
_symmetry_space_group_name_H-M   'P 1'
_cell_length_a   5.40873600
_cell_length_b   5.29666593
_cell_length_c   8.95800176
_cell_angle_alpha   90.00879531
_cell_angle_beta   90.00000000
_cell_angle_gamma   120.70242458
_symmetry_Int_Tables_number   1
_chemical_formula_structural   Tb2Y2ReOs7
_chemical_formula_sum   'Tb2 Y2 Re1 Os7'
_cell_volume   220.65939978
_cell_formula_units_Z   1
loop_
 _symmetry_equiv_pos_site_id
 _symmetry_equiv_pos_as_xyz
  1  'x, y, z'
loop_
 _atom_site_type_symbol
 _atom_site_label
 _atom_site_symmetry_multiplicity
 _atom_site_fract_x
 _atom_site_fract_y
 _atom_site_fract_z
 _atom_site_occupancy
  Tb  Tb0  1  0.664112  0.328223  0.434901  1
  Tb  Tb1  1  0.328881  0.657764  0.563954  1
  Y  Y2  1  0.328713  0.657426  0.935536  1
  Y  Y3  1  0.664205  0.328410  0.065438  1
  Re  Re4  1  0.841671  0.683341  0.750419  1
  Os  Os5  1  0.987714  0.975428  0.499876  1
  Os  Os6  1  0.988025  0.976051  0.000121  1
  Os  Os7  1  0.667670  0.836612  0.249677  1
  Os  Os8  1  0.168942  0.836612  0.249677  1
  Os  Os9  1  0.178513  0.357026  0.249741  1
  Os  Os10  1  0.355775  0.181554  0.750331  1
  Os  Os11  1  0.825778  0.181554  0.750331  1
