# generated using pymatgen
data_Ho3TmCuOs7
_symmetry_space_group_name_H-M   'P 1'
_cell_length_a   5.30715261
_cell_length_b   5.30765590
_cell_length_c   8.80429108
_cell_angle_alpha   89.93410099
_cell_angle_beta   89.93404065
_cell_angle_gamma   59.50389484
_symmetry_Int_Tables_number   1
_chemical_formula_structural   Ho3TmCuOs7
_chemical_formula_sum   'Ho3 Tm1 Cu1 Os7'
_cell_volume   213.69586730
_cell_formula_units_Z   1
loop_
 _symmetry_equiv_pos_site_id
 _symmetry_equiv_pos_as_xyz
  1  'x, y, z'
loop_
 _atom_site_type_symbol
 _atom_site_label
 _atom_site_symmetry_multiplicity
 _atom_site_fract_x
 _atom_site_fract_y
 _atom_site_fract_z
 _atom_site_occupancy
  Ho  Ho0  1  0.665402  0.665705  0.435841  1
  Ho  Ho1  1  0.665135  0.665282  0.064130  1
  Ho  Ho2  1  0.331060  0.331079  0.936223  1
  Tm  Tm3  1  0.331428  0.331594  0.563812  1
  Cu  Cu4  1  0.171737  0.172306  0.250574  1
  Os  Os5  1  0.990365  0.990680  0.498900  1
  Os  Os6  1  0.990156  0.990324  0.001510  1
  Os  Os7  1  0.827577  0.348271  0.749261  1
  Os  Os8  1  0.349305  0.826903  0.749260  1
  Os  Os9  1  0.835582  0.835300  0.749495  1
  Os  Os10  1  0.179854  0.662575  0.250491  1
  Os  Os11  1  0.662403  0.179977  0.250499  1
