# generated using pymatgen
data_CeDyTm2(CoSn)4
_symmetry_space_group_name_H-M   'P 1'
_cell_length_a   7.29987957
_cell_length_b   4.63940700
_cell_length_c   7.23299943
_cell_angle_alpha   90.00000000
_cell_angle_beta   90.12755232
_cell_angle_gamma   90.00000000
_symmetry_Int_Tables_number   1
_chemical_formula_structural   CeDyTm2(CoSn)4
_chemical_formula_sum   'Ce1 Dy1 Tm2 Co4 Sn4'
_cell_volume   244.96019763
_cell_formula_units_Z   1
loop_
 _symmetry_equiv_pos_site_id
 _symmetry_equiv_pos_as_xyz
  1  'x, y, z'
loop_
 _atom_site_type_symbol
 _atom_site_label
 _atom_site_symmetry_multiplicity
 _atom_site_fract_x
 _atom_site_fract_y
 _atom_site_fract_z
 _atom_site_occupancy
  Ce  Ce0  1  0.475973  0.250000  0.696175  1
  Dy  Dy1  1  0.975171  0.250000  0.806101  1
  Tm  Tm2  1  0.029949  0.750000  0.203653  1
  Tm  Tm3  1  0.529164  0.750000  0.295622  1
  Co  Co4  1  0.160876  0.250000  0.447092  1
  Co  Co5  1  0.653253  0.250000  0.054084  1
  Co  Co6  1  0.833596  0.750000  0.552745  1
  Co  Co7  1  0.340203  0.750000  0.940768  1
  Sn  Sn8  1  0.803490  0.250000  0.386810  1
  Sn  Sn9  1  0.298221  0.250000  0.114161  1
  Sn  Sn10  1  0.195438  0.750000  0.608437  1
  Sn  Sn11  1  0.704666  0.750000  0.894351  1
