# generated using pymatgen
data_CaNp6(NCl)6
_symmetry_space_group_name_H-M   'P 1'
_cell_length_a   6.59636240
_cell_length_b   6.59636195
_cell_length_c   10.65872272
_cell_angle_alpha   84.07416840
_cell_angle_beta   84.07416845
_cell_angle_gamma   119.99213465
_symmetry_Int_Tables_number   1
_chemical_formula_structural   CaNp6(NCl)6
_chemical_formula_sum   'Ca1 Np6 N6 Cl6'
_cell_volume   393.02512428
_cell_formula_units_Z   1
loop_
 _symmetry_equiv_pos_site_id
 _symmetry_equiv_pos_as_xyz
  1  'x, y, z'
loop_
 _atom_site_type_symbol
 _atom_site_label
 _atom_site_symmetry_multiplicity
 _atom_site_fract_x
 _atom_site_fract_y
 _atom_site_fract_z
 _atom_site_occupancy
  Ca  Ca0  1  0.000000  0.000000  0.000000  1
  Np  Np1  1  0.211099  0.211099  0.366201  1
  Np  Np2  1  0.544818  0.878012  0.366251  1
  Np  Np3  1  0.878012  0.544818  0.366251  1
  Np  Np4  1  0.121988  0.455182  0.633749  1
  Np  Np5  1  0.455182  0.121988  0.633749  1
  Np  Np6  1  0.788901  0.788901  0.633799  1
  N  N7  1  0.139424  0.139424  0.582207  1
  N  N8  1  0.471922  0.805439  0.583632  1
  N  N9  1  0.805439  0.471922  0.583632  1
  N  N10  1  0.194561  0.528078  0.416368  1
  N  N11  1  0.528078  0.194561  0.416368  1
  N  N12  1  0.860576  0.860576  0.417793  1
  Cl  Cl13  1  0.056104  0.731597  0.831922  1
  Cl  Cl14  1  0.380328  0.380328  0.831849  1
  Cl  Cl15  1  0.731597  0.056104  0.831922  1
  Cl  Cl16  1  0.268403  0.943896  0.168078  1
  Cl  Cl17  1  0.619672  0.619672  0.168151  1
  Cl  Cl18  1  0.943896  0.268403  0.168078  1
