# generated using pymatgen
data_TbGaRu2C
_symmetry_space_group_name_H-M   'P 1'
_cell_length_a   5.89539100
_cell_length_b   5.89539041
_cell_length_c   7.32840500
_cell_angle_alpha   90.00000000
_cell_angle_beta   90.00000000
_cell_angle_gamma   141.61341270
_symmetry_Int_Tables_number   1
_chemical_formula_structural   TbGaRu2C
_chemical_formula_sum   'Tb2 Ga2 Ru4 C2'
_cell_volume   158.16168470
_cell_formula_units_Z   2
loop_
 _symmetry_equiv_pos_site_id
 _symmetry_equiv_pos_as_xyz
  1  'x, y, z'
loop_
 _atom_site_type_symbol
 _atom_site_label
 _atom_site_symmetry_multiplicity
 _atom_site_fract_x
 _atom_site_fract_y
 _atom_site_fract_z
 _atom_site_occupancy
  Tb  Tb0  1  0.544954  0.455046  0.250000  1
  Tb  Tb1  1  0.455046  0.544954  0.750000  1
  Ga  Ga2  1  0.268387  0.731613  0.250000  1
  Ga  Ga3  1  0.731613  0.268387  0.750000  1
  Ru  Ru4  1  0.836988  0.163012  0.055926  1
  Ru  Ru5  1  0.163012  0.836988  0.944074  1
  Ru  Ru6  1  0.163012  0.836988  0.555926  1
  Ru  Ru7  1  0.836988  0.163012  0.444074  1
  C  C8  1  0.000000  0.000000  0.000000  1
  C  C9  1  0.000000  0.000000  0.500000  1
