# generated using pymatgen
data_KU3F12
_symmetry_space_group_name_H-M   'P 1'
_cell_length_a   7.01218655
_cell_length_b   7.01218759
_cell_length_c   7.01218706
_cell_angle_alpha   108.74796626
_cell_angle_beta   108.74797391
_cell_angle_gamma   110.92761636
_symmetry_Int_Tables_number   1
_chemical_formula_structural   KU3F12
_chemical_formula_sum   'K1 U3 F12'
_cell_volume   265.29401547
_cell_formula_units_Z   1
loop_
 _symmetry_equiv_pos_site_id
 _symmetry_equiv_pos_as_xyz
  1  'x, y, z'
loop_
 _atom_site_type_symbol
 _atom_site_label
 _atom_site_symmetry_multiplicity
 _atom_site_fract_x
 _atom_site_fract_y
 _atom_site_fract_z
 _atom_site_occupancy
  K  K0  1  0.000000  0.000000  0.000000  1
  U  U1  1  0.250000  0.750000  0.500000  1
  U  U2  1  0.500000  0.500000  0.000000  1
  U  U3  1  0.750000  0.250000  0.500000  1
  F  F4  1  0.554667  0.343241  0.249662  1
  F  F5  1  0.305004  0.554667  0.211426  1
  F  F6  1  0.343241  0.093579  0.788574  1
  F  F7  1  0.093579  0.305004  0.750338  1
  F  F8  1  0.339638  0.012796  0.352435  1
  F  F9  1  0.987204  0.339638  0.326842  1
  F  F10  1  0.012796  0.660362  0.673158  1
  F  F11  1  0.660362  0.987204  0.647565  1
  F  F12  1  0.906421  0.694996  0.249662  1
  F  F13  1  0.656759  0.906421  0.211426  1
  F  F14  1  0.694996  0.445333  0.788574  1
  F  F15  1  0.445333  0.656759  0.750338  1
