# generated using pymatgen
data_Sc3NiB2(IrRh)2
_symmetry_space_group_name_H-M   'P 1'
_cell_length_a   3.12628000
_cell_length_b   9.39171317
_cell_length_c   9.36617922
_cell_angle_alpha   89.90544463
_cell_angle_beta   90.00000000
_cell_angle_gamma   90.00000000
_symmetry_Int_Tables_number   1
_chemical_formula_structural   Sc3NiB2(IrRh)2
_chemical_formula_sum   'Sc6 Ni2 B4 Ir4 Rh4'
_cell_volume   275.00118471
_cell_formula_units_Z   2
loop_
 _symmetry_equiv_pos_site_id
 _symmetry_equiv_pos_as_xyz
  1  'x, y, z'
loop_
 _atom_site_type_symbol
 _atom_site_label
 _atom_site_symmetry_multiplicity
 _atom_site_fract_x
 _atom_site_fract_y
 _atom_site_fract_z
 _atom_site_occupancy
  Sc  Sc0  1  0.000000  0.178313  0.678307  1
  Sc  Sc1  1  0.000000  0.820659  0.322260  1
  Sc  Sc2  1  0.000000  0.321038  0.178106  1
  Sc  Sc3  1  0.000000  0.678299  0.822085  1
  Sc  Sc4  1  0.000000  0.997364  0.000111  1
  Sc  Sc5  1  0.000000  0.499454  0.502779  1
  Ni  Ni6  1  0.500000  0.001853  0.498541  1
  Ni  Ni7  1  0.500000  0.499708  0.001150  1
  B  B8  1  0.000000  0.609317  0.110688  1
  B  B9  1  0.000000  0.388770  0.892151  1
  B  B10  1  0.000000  0.891191  0.609069  1
  B  B11  1  0.000000  0.110295  0.389423  1
  Ir  Ir12  1  0.500000  0.229665  0.934202  1
  Ir  Ir13  1  0.500000  0.563670  0.271155  1
  Ir  Ir14  1  0.500000  0.731559  0.564606  1
  Ir  Ir15  1  0.500000  0.270358  0.434108  1
  Rh  Rh16  1  0.500000  0.063038  0.227282  1
  Rh  Rh17  1  0.500000  0.937263  0.770521  1
  Rh  Rh18  1  0.500000  0.769915  0.063734  1
  Rh  Rh19  1  0.500000  0.438271  0.729720  1
