# generated using pymatgen
data_YHo7Ti11Si16Ru
_symmetry_space_group_name_H-M   'P 1'
_cell_length_a   7.02627678
_cell_length_b   7.02614263
_cell_length_c   12.88342557
_cell_angle_alpha   90.01949621
_cell_angle_beta   89.97116616
_cell_angle_gamma   89.90924648
_symmetry_Int_Tables_number   1
_chemical_formula_structural   YHo7Ti11Si16Ru
_chemical_formula_sum   'Y1 Ho7 Ti11 Si16 Ru1'
_cell_volume   636.02317851
_cell_formula_units_Z   1
loop_
 _symmetry_equiv_pos_site_id
 _symmetry_equiv_pos_as_xyz
  1  'x, y, z'
loop_
 _atom_site_type_symbol
 _atom_site_label
 _atom_site_symmetry_multiplicity
 _atom_site_fract_x
 _atom_site_fract_y
 _atom_site_fract_z
 _atom_site_occupancy
  Y  Y0  1  0.340568  0.003958  0.467351  1
  Ho  Ho1  1  0.496852  0.841289  0.717992  1
  Ho  Ho2  1  0.500372  0.159295  0.215177  1
  Ho  Ho3  1  0.841356  0.496842  0.282022  1
  Ho  Ho4  1  0.159300  0.500373  0.784778  1
  Ho  Ho5  1  0.658169  0.998532  0.968110  1
  Ho  Ho6  1  0.003601  0.340766  0.532694  1
  Ho  Ho7  1  0.998541  0.658170  0.031980  1
  Ti  Ti8  1  0.174721  0.827455  0.248690  1
  Ti  Ti9  1  0.827480  0.174816  0.751209  1
  Ti  Ti10  1  0.673883  0.673600  0.500026  1
  Ti  Ti11  1  0.150379  0.004256  0.875595  1
  Ti  Ti12  1  0.493093  0.654731  0.125348  1
  Ti  Ti13  1  0.506887  0.349138  0.627490  1
  Ti  Ti14  1  0.654725  0.493096  0.874647  1
  Ti  Ti15  1  0.349043  0.506846  0.372557  1
  Ti  Ti16  1  0.848691  0.993801  0.375318  1
  Ti  Ti17  1  0.004238  0.150402  0.124412  1
  Ti  Ti18  1  0.993695  0.848678  0.624729  1
  Si  Si19  1  0.202696  0.131936  0.684801  1
  Si  Si20  1  0.372047  0.700613  0.933782  1
  Si  Si21  1  0.631666  0.296209  0.434022  1
  Si  Si22  1  0.700627  0.372036  0.066213  1
  Si  Si23  1  0.295967  0.631097  0.566078  1
  Si  Si24  1  0.796639  0.868749  0.183885  1
  Si  Si25  1  0.131624  0.202917  0.315115  1
  Si  Si26  1  0.868753  0.796608  0.816119  1
  Si  Si27  1  0.287789  0.953300  0.064695  1
  Si  Si28  1  0.547177  0.792045  0.315432  1
  Si  Si29  1  0.449811  0.209350  0.817580  1
  Si  Si30  1  0.792222  0.546937  0.684387  1
  Si  Si31  1  0.209315  0.449813  0.182401  1
  Si  Si32  1  0.708637  0.048012  0.565576  1
  Si  Si33  1  0.953299  0.287797  0.935313  1
  Si  Si34  1  0.047722  0.708124  0.434479  1
  Ru  Ru35  1  0.328416  0.328412  0.999995  1
