# generated using pymatgen
data_Pr5Nd(In3Sn2)2
_symmetry_space_group_name_H-M   'P 1'
_cell_length_a   6.67169606
_cell_length_b   6.67169592
_cell_length_c   10.44367900
_cell_angle_alpha   90.00000000
_cell_angle_beta   90.00000000
_cell_angle_gamma   102.72783991
_symmetry_Int_Tables_number   1
_chemical_formula_structural   Pr5Nd(In3Sn2)2
_chemical_formula_sum   'Pr5 Nd1 In6 Sn4'
_cell_volume   453.44128011
_cell_formula_units_Z   1
loop_
 _symmetry_equiv_pos_site_id
 _symmetry_equiv_pos_as_xyz
  1  'x, y, z'
loop_
 _atom_site_type_symbol
 _atom_site_label
 _atom_site_symmetry_multiplicity
 _atom_site_fract_x
 _atom_site_fract_y
 _atom_site_fract_z
 _atom_site_occupancy
  Pr  Pr0  1  0.367732  0.367732  0.750000  1
  Pr  Pr1  1  0.206012  0.794359  0.499914  1
  Pr  Pr2  1  0.206012  0.794359  0.000086  1
  Pr  Pr3  1  0.794359  0.206012  0.499914  1
  Pr  Pr4  1  0.794359  0.206012  0.000086  1
  Nd  Nd5  1  0.632541  0.632541  0.250000  1
  In  In6  1  0.018583  0.018583  0.250000  1
  In  In7  1  0.980327  0.980327  0.750000  1
  In  In8  1  0.307608  0.307608  0.048711  1
  In  In9  1  0.692688  0.692688  0.952508  1
  In  In10  1  0.307608  0.307608  0.451289  1
  In  In11  1  0.692688  0.692688  0.547492  1
  Sn  Sn12  1  0.495993  0.073128  0.250000  1
  Sn  Sn13  1  0.925917  0.504444  0.750000  1
  Sn  Sn14  1  0.504444  0.925917  0.750000  1
  Sn  Sn15  1  0.073128  0.495993  0.250000  1
