# generated using pymatgen
data_Ce6Co20As7P6
_symmetry_space_group_name_H-M   'P 1'
_cell_length_a   12.94901900
_cell_length_b   12.94901803
_cell_length_c   3.79546800
_cell_angle_alpha   90.00000000
_cell_angle_beta   90.00000000
_cell_angle_gamma   120.00000503
_symmetry_Int_Tables_number   1
_chemical_formula_structural   Ce6Co20As7P6
_chemical_formula_sum   'Ce6 Co20 As7 P6'
_cell_volume   551.14979165
_cell_formula_units_Z   1
loop_
 _symmetry_equiv_pos_site_id
 _symmetry_equiv_pos_as_xyz
  1  'x, y, z'
loop_
 _atom_site_type_symbol
 _atom_site_label
 _atom_site_symmetry_multiplicity
 _atom_site_fract_x
 _atom_site_fract_y
 _atom_site_fract_z
 _atom_site_occupancy
  Ce  Ce0  1  0.521841  0.805438  0.000000  1
  Ce  Ce1  1  0.283597  0.478159  0.000000  1
  Ce  Ce2  1  0.194562  0.716403  0.000000  1
  Ce  Ce3  1  0.805122  0.281777  0.500000  1
  Ce  Ce4  1  0.476656  0.194878  0.500000  1
  Ce  Ce5  1  0.718223  0.523344  0.500000  1
  Co  Co6  1  0.799760  0.908158  0.000000  1
  Co  Co7  1  0.108399  0.200240  0.000000  1
  Co  Co8  1  0.091842  0.891601  0.000000  1
  Co  Co9  1  0.333333  0.666667  0.500000  1
  Co  Co10  1  0.924121  0.089240  0.500000  1
  Co  Co11  1  0.165119  0.075879  0.500000  1
  Co  Co12  1  0.910760  0.834881  0.500000  1
  Co  Co13  1  0.666667  0.333333  0.000000  1
  Co  Co14  1  0.557212  0.581470  0.000000  1
  Co  Co15  1  0.024256  0.442788  0.000000  1
  Co  Co16  1  0.418530  0.975744  0.000000  1
  Co  Co17  1  0.675142  0.748006  0.500000  1
  Co  Co18  1  0.072864  0.324858  0.500000  1
  Co  Co19  1  0.251994  0.927136  0.500000  1
  Co  Co20  1  0.975580  0.554967  0.500000  1
  Co  Co21  1  0.579387  0.024420  0.500000  1
  Co  Co22  1  0.445033  0.420613  0.500000  1
  Co  Co23  1  0.748755  0.077144  0.000000  1
  Co  Co24  1  0.328389  0.251245  0.000000  1
  Co  Co25  1  0.922856  0.671611  0.000000  1
  As  As26  1  0.718105  0.952463  0.500000  1
  As  As27  1  0.234358  0.281895  0.500000  1
  As  As28  1  0.047537  0.765642  0.500000  1
  As  As29  1  0.949514  0.231421  0.000000  1
  As  As30  1  0.281907  0.050486  0.000000  1
  As  As31  1  0.768579  0.718093  0.000000  1
  As  As32  1  0.000000  0.000000  0.000000  1
  P  P33  1  0.481241  0.611724  0.500000  1
  P  P34  1  0.130483  0.518759  0.500000  1
  P  P35  1  0.388276  0.869517  0.500000  1
  P  P36  1  0.868636  0.478985  0.000000  1
  P  P37  1  0.610349  0.131364  0.000000  1
  P  P38  1  0.521015  0.389651  0.000000  1
