# generated using pymatgen
data_LuZrCuNi2P3
_symmetry_space_group_name_H-M   'P 1'
_cell_length_a   3.70648200
_cell_length_b   10.23301200
_cell_length_c   12.39929400
_cell_angle_alpha   90.00000000
_cell_angle_beta   90.00000000
_cell_angle_gamma   90.00000000
_symmetry_Int_Tables_number   1
_chemical_formula_structural   LuZrCuNi2P3
_chemical_formula_sum   'Lu4 Zr4 Cu4 Ni8 P12'
_cell_volume   470.28630982
_cell_formula_units_Z   4
loop_
 _symmetry_equiv_pos_site_id
 _symmetry_equiv_pos_as_xyz
  1  'x, y, z'
loop_
 _atom_site_type_symbol
 _atom_site_label
 _atom_site_symmetry_multiplicity
 _atom_site_fract_x
 _atom_site_fract_y
 _atom_site_fract_z
 _atom_site_occupancy
  Lu  Lu0  1  0.250000  0.071096  0.206423  1
  Lu  Lu1  1  0.750000  0.928904  0.793577  1
  Lu  Lu2  1  0.750000  0.571096  0.293577  1
  Lu  Lu3  1  0.250000  0.428904  0.706423  1
  Zr  Zr4  1  0.250000  0.162060  0.496875  1
  Zr  Zr5  1  0.750000  0.837940  0.503125  1
  Zr  Zr6  1  0.750000  0.662060  0.003125  1
  Zr  Zr7  1  0.250000  0.337940  0.996875  1
  Cu  Cu8  1  0.250000  0.728271  0.665583  1
  Cu  Cu9  1  0.750000  0.271729  0.334417  1
  Cu  Cu10  1  0.750000  0.228271  0.834417  1
  Cu  Cu11  1  0.250000  0.771729  0.165583  1
  Ni  Ni12  1  0.250000  0.364526  0.219667  1
  Ni  Ni13  1  0.750000  0.635474  0.780333  1
  Ni  Ni14  1  0.750000  0.864526  0.280333  1
  Ni  Ni15  1  0.250000  0.135474  0.719667  1
  Ni  Ni16  1  0.250000  0.599783  0.483361  1
  Ni  Ni17  1  0.750000  0.400217  0.516639  1
  Ni  Ni18  1  0.750000  0.099783  0.016639  1
  Ni  Ni19  1  0.250000  0.900217  0.983361  1
  P  P20  1  0.250000  0.948789  0.625711  1
  P  P21  1  0.750000  0.051211  0.374289  1
  P  P22  1  0.750000  0.448789  0.874289  1
  P  P23  1  0.250000  0.551211  0.125711  1
  P  P24  1  0.250000  0.399341  0.403110  1
  P  P25  1  0.750000  0.600659  0.596890  1
  P  P26  1  0.750000  0.899341  0.096890  1
  P  P27  1  0.250000  0.100659  0.903110  1
  P  P28  1  0.250000  0.766261  0.357717  1
  P  P29  1  0.750000  0.233739  0.642283  1
  P  P30  1  0.750000  0.266261  0.142283  1
  P  P31  1  0.250000  0.733739  0.857717  1
