# generated using pymatgen
data_Tb3CdAg2HgGe2
_symmetry_space_group_name_H-M   'P 1'
_cell_length_a   7.30423945
_cell_length_b   7.30737289
_cell_length_c   4.33788500
_cell_angle_alpha   90.00000000
_cell_angle_beta   90.00000000
_cell_angle_gamma   120.01418280
_symmetry_Int_Tables_number   1
_chemical_formula_structural   Tb3CdAg2HgGe2
_chemical_formula_sum   'Tb3 Cd1 Ag2 Hg1 Ge2'
_cell_volume   200.48544661
_cell_formula_units_Z   1
loop_
 _symmetry_equiv_pos_site_id
 _symmetry_equiv_pos_as_xyz
  1  'x, y, z'
loop_
 _atom_site_type_symbol
 _atom_site_label
 _atom_site_symmetry_multiplicity
 _atom_site_fract_x
 _atom_site_fract_y
 _atom_site_fract_z
 _atom_site_occupancy
  Tb  Tb0  1  0.425721  0.424303  0.000000  1
  Tb  Tb1  1  0.574279  0.998582  0.000000  1
  Tb  Tb2  1  0.000000  0.581627  0.000000  1
  Cd  Cd3  1  0.000000  0.251387  0.500000  1
  Ag  Ag4  1  0.737456  0.739218  0.500000  1
  Ag  Ag5  1  0.262544  0.001762  0.500000  1
  Hg  Hg6  1  0.000000  0.997706  0.000000  1
  Ge  Ge7  1  0.666185  0.335799  0.500000  1
  Ge  Ge8  1  0.333815  0.669615  0.500000  1
