# generated using pymatgen
data_EuDy5(SbO7)2
_symmetry_space_group_name_H-M   'P 1'
_cell_length_a   6.49609926
_cell_length_b   6.49609910
_cell_length_c   7.56200677
_cell_angle_alpha   90.04251679
_cell_angle_beta   89.95748341
_cell_angle_gamma   109.04524420
_symmetry_Int_Tables_number   1
_chemical_formula_structural   EuDy5(SbO7)2
_chemical_formula_sum   'Eu1 Dy5 Sb2 O14'
_cell_volume   301.64352266
_cell_formula_units_Z   1
loop_
 _symmetry_equiv_pos_site_id
 _symmetry_equiv_pos_as_xyz
  1  'x, y, z'
loop_
 _atom_site_type_symbol
 _atom_site_label
 _atom_site_symmetry_multiplicity
 _atom_site_fract_x
 _atom_site_fract_y
 _atom_site_fract_z
 _atom_site_occupancy
  Eu  Eu0  1  0.500000  0.500000  0.000000  1
  Dy  Dy1  1  0.500000  0.500000  0.500000  1
  Dy  Dy2  1  0.531609  0.000275  0.749031  1
  Dy  Dy3  1  0.000275  0.531609  0.250969  1
  Dy  Dy4  1  0.468391  0.999725  0.250969  1
  Dy  Dy5  1  0.999725  0.468391  0.749031  1
  Sb  Sb6  1  0.000000  0.000000  0.500000  1
  Sb  Sb7  1  0.000000  0.000000  0.000000  1
  O  O8  1  0.679463  0.928962  0.470072  1
  O  O9  1  0.928962  0.679463  0.529928  1
  O  O10  1  0.679832  0.933048  0.030303  1
  O  O11  1  0.933048  0.679832  0.969697  1
  O  O12  1  0.320537  0.071038  0.529928  1
  O  O13  1  0.071038  0.320537  0.470072  1
  O  O14  1  0.320168  0.066952  0.969697  1
  O  O15  1  0.066952  0.320168  0.030303  1
  O  O16  1  0.929809  0.070191  0.749840  1
  O  O17  1  0.070191  0.929809  0.250160  1
  O  O18  1  0.367874  0.632126  0.743044  1
  O  O19  1  0.632126  0.367874  0.256956  1
  O  O20  1  0.638257  0.361743  0.744744  1
  O  O21  1  0.361743  0.638257  0.255256  1
