# generated using pymatgen
data_Tb2V3P7Ir9
_symmetry_space_group_name_H-M   'P 1'
_cell_length_a   3.92144500
_cell_length_b   9.55945993
_cell_length_c   9.55323601
_cell_angle_alpha   120.00348782
_cell_angle_beta   89.99992258
_cell_angle_gamma   90.00013807
_symmetry_Int_Tables_number   1
_chemical_formula_structural   Tb2V3P7Ir9
_chemical_formula_sum   'Tb2 V3 P7 Ir9'
_cell_volume   310.13112865
_cell_formula_units_Z   1
loop_
 _symmetry_equiv_pos_site_id
 _symmetry_equiv_pos_as_xyz
  1  'x, y, z'
loop_
 _atom_site_type_symbol
 _atom_site_label
 _atom_site_symmetry_multiplicity
 _atom_site_fract_x
 _atom_site_fract_y
 _atom_site_fract_z
 _atom_site_occupancy
  Tb  Tb0  1  0.261881  0.666658  0.333344  1
  Tb  Tb1  1  0.761790  0.333318  0.666681  1
  V  V2  1  0.761971  0.092217  0.872983  1
  V  V3  1  0.761971  0.127055  0.219227  1
  V  V4  1  0.761955  0.780712  0.907558  1
  P  P5  1  0.262260  0.999985  0.999963  1
  P  P6  1  0.761883  0.883131  0.596583  1
  P  P7  1  0.761887  0.403649  0.286582  1
  P  P8  1  0.761887  0.713447  0.116925  1
  P  P9  1  0.261818  0.117952  0.414833  1
  P  P10  1  0.261799  0.585249  0.703241  1
  P  P11  1  0.261823  0.296697  0.882026  1
  Ir  Ir12  1  0.261921  0.889549  0.159888  1
  Ir  Ir13  1  0.261914  0.840100  0.729711  1
  Ir  Ir14  1  0.261924  0.270431  0.110466  1
  Ir  Ir15  1  0.761893  0.612140  0.556288  1
  Ir  Ir16  1  0.761905  0.443605  0.055713  1
  Ir  Ir17  1  0.761906  0.944111  0.387885  1
  Ir  Ir18  1  0.261865  0.366192  0.438333  1
  Ir  Ir19  1  0.261871  0.561753  0.927940  1
  Ir  Ir20  1  0.261881  0.072045  0.633830  1
