# generated using pymatgen
data_Ba4Pu(RuO4)3
_symmetry_space_group_name_H-M   'P 1'
_cell_length_a   10.37785509
_cell_length_b   10.37785543
_cell_length_c   10.37785621
_cell_angle_alpha   33.11274936
_cell_angle_beta   33.11274575
_cell_angle_gamma   33.11274517
_symmetry_Int_Tables_number   1
_chemical_formula_structural   Ba4Pu(RuO4)3
_chemical_formula_sum   'Ba4 Pu1 Ru3 O12'
_cell_volume   296.88895846
_cell_formula_units_Z   1
loop_
 _symmetry_equiv_pos_site_id
 _symmetry_equiv_pos_as_xyz
  1  'x, y, z'
loop_
 _atom_site_type_symbol
 _atom_site_label
 _atom_site_symmetry_multiplicity
 _atom_site_fract_x
 _atom_site_fract_y
 _atom_site_fract_z
 _atom_site_occupancy
  Ba  Ba0  1  0.717489  0.717489  0.717489  1
  Ba  Ba1  1  0.282511  0.282511  0.282511  1
  Ba  Ba2  1  0.868208  0.868208  0.868208  1
  Ba  Ba3  1  0.131792  0.131792  0.131792  1
  Pu  Pu4  1  0.000000  0.000000  0.000000  1
  Ru  Ru5  1  0.413153  0.413153  0.413153  1
  Ru  Ru6  1  0.500000  0.500000  0.500000  1
  Ru  Ru7  1  0.586847  0.586847  0.586847  1
  O  O8  1  0.212551  0.212551  0.698596  1
  O  O9  1  0.698596  0.212551  0.212551  1
  O  O10  1  0.212551  0.698596  0.212551  1
  O  O11  1  0.787449  0.301404  0.787449  1
  O  O12  1  0.787449  0.787449  0.301404  1
  O  O13  1  0.301404  0.787449  0.787449  1
  O  O14  1  0.386214  0.386214  0.856017  1
  O  O15  1  0.856017  0.386214  0.386214  1
  O  O16  1  0.143983  0.613786  0.613786  1
  O  O17  1  0.613786  0.613786  0.143983  1
  O  O18  1  0.613786  0.143983  0.613786  1
  O  O19  1  0.386214  0.856017  0.386214  1
