# generated using pymatgen
data_Sc22FeIrRu6
_symmetry_space_group_name_H-M   'P 1'
_cell_length_a   9.40843772
_cell_length_b   9.46440082
_cell_length_c   9.46440205
_cell_angle_alpha   60.13275379
_cell_angle_beta   60.19541065
_cell_angle_gamma   60.19541494
_symmetry_Int_Tables_number   1
_chemical_formula_structural   Sc22FeIrRu6
_chemical_formula_sum   'Sc22 Fe1 Ir1 Ru6'
_cell_volume   598.27613008
_cell_formula_units_Z   1
loop_
 _symmetry_equiv_pos_site_id
 _symmetry_equiv_pos_as_xyz
  1  'x, y, z'
loop_
 _atom_site_type_symbol
 _atom_site_label
 _atom_site_symmetry_multiplicity
 _atom_site_fract_x
 _atom_site_fract_y
 _atom_site_fract_z
 _atom_site_occupancy
  Sc  Sc0  1  0.802072  0.802097  0.197903  1
  Sc  Sc1  1  0.197928  0.802097  0.197903  1
  Sc  Sc2  1  0.802039  0.197961  0.197961  1
  Sc  Sc3  1  0.197928  0.197903  0.802097  1
  Sc  Sc4  1  0.802072  0.197903  0.802097  1
  Sc  Sc5  1  0.197961  0.802039  0.802039  1
  Sc  Sc6  1  0.615062  0.613238  0.156637  1
  Sc  Sc7  1  0.615062  0.156637  0.613238  1
  Sc  Sc8  1  0.155454  0.614192  0.614192  1
  Sc  Sc9  1  0.616163  0.614192  0.614192  1
  Sc  Sc10  1  0.384938  0.386762  0.843363  1
  Sc  Sc11  1  0.384938  0.843363  0.386762  1
  Sc  Sc12  1  0.844546  0.385808  0.385808  1
  Sc  Sc13  1  0.383837  0.385808  0.385808  1
  Sc  Sc14  1  0.842722  0.844352  0.470204  1
  Sc  Sc15  1  0.842722  0.470204  0.844352  1
  Sc  Sc16  1  0.472261  0.842264  0.842264  1
  Sc  Sc17  1  0.843212  0.842264  0.842264  1
  Sc  Sc18  1  0.157278  0.155648  0.529796  1
  Sc  Sc19  1  0.157278  0.529796  0.155648  1
  Sc  Sc20  1  0.527739  0.157736  0.157736  1
  Sc  Sc21  1  0.156788  0.157736  0.157736  1
  Fe  Fe22  1  0.500000  0.500000  0.500000  1
  Ir  Ir23  1  0.500000  0.000000  0.000000  1
  Ru  Ru24  1  0.000000  0.000000  0.000000  1
  Ru  Ru25  1  0.000000  0.000000  0.500000  1
  Ru  Ru26  1  0.500000  0.000000  0.500000  1
  Ru  Ru27  1  0.000000  0.500000  0.500000  1
  Ru  Ru28  1  0.500000  0.500000  0.000000  1
  Ru  Ru29  1  0.000000  0.500000  0.000000  1
