# generated using pymatgen
data_Sr2InPd2Pb
_symmetry_space_group_name_H-M   'P 1'
_cell_length_a   4.62197300
_cell_length_b   7.77817200
_cell_length_c   8.73700400
_cell_angle_alpha   90.00000000
_cell_angle_beta   90.00000000
_cell_angle_gamma   90.00000000
_symmetry_Int_Tables_number   1
_chemical_formula_structural   Sr2InPd2Pb
_chemical_formula_sum   'Sr4 In2 Pd4 Pb2'
_cell_volume   314.09967081
_cell_formula_units_Z   2
loop_
 _symmetry_equiv_pos_site_id
 _symmetry_equiv_pos_as_xyz
  1  'x, y, z'
loop_
 _atom_site_type_symbol
 _atom_site_label
 _atom_site_symmetry_multiplicity
 _atom_site_fract_x
 _atom_site_fract_y
 _atom_site_fract_z
 _atom_site_occupancy
  Sr  Sr0  1  0.250000  0.030478  0.320155  1
  Sr  Sr1  1  0.250000  0.530478  0.179845  1
  Sr  Sr2  1  0.750000  0.969579  0.679470  1
  Sr  Sr3  1  0.750000  0.469579  0.820530  1
  In  In4  1  0.750000  0.850775  0.066024  1
  In  In5  1  0.750000  0.350775  0.433976  1
  Pd  Pd6  1  0.250000  0.278528  0.619549  1
  Pd  Pd7  1  0.250000  0.778528  0.880451  1
  Pd  Pd8  1  0.750000  0.723199  0.373297  1
  Pd  Pd9  1  0.750000  0.223199  0.126703  1
  Pb  Pb10  1  0.250000  0.147441  0.935609  1
  Pb  Pb11  1  0.250000  0.647441  0.564391  1
