# generated using pymatgen
data_SrNdBe2(Cu2Si)8
_symmetry_space_group_name_H-M   'P 1'
_cell_length_a   8.10738893
_cell_length_b   8.10738926
_cell_length_c   8.10738836
_cell_angle_alpha   120.63549336
_cell_angle_beta   120.63549224
_cell_angle_gamma   88.90277713
_symmetry_Int_Tables_number   1
_chemical_formula_structural   SrNdBe2(Cu2Si)8
_chemical_formula_sum   'Sr1 Nd1 Be2 Cu16 Si8'
_cell_volume   373.12115455
_cell_formula_units_Z   1
loop_
 _symmetry_equiv_pos_site_id
 _symmetry_equiv_pos_as_xyz
  1  'x, y, z'
loop_
 _atom_site_type_symbol
 _atom_site_label
 _atom_site_symmetry_multiplicity
 _atom_site_fract_x
 _atom_site_fract_y
 _atom_site_fract_z
 _atom_site_occupancy
  Sr  Sr0  1  0.750000  0.750000  0.000000  1
  Nd  Nd1  1  0.250000  0.250000  0.000000  1
  Be  Be2  1  0.500000  0.000000  0.500000  1
  Be  Be3  1  0.000000  0.500000  0.500000  1
  Cu  Cu4  1  0.943233  0.210357  0.151788  1
  Cu  Cu5  1  0.210357  0.058568  0.267124  1
  Cu  Cu6  1  0.791443  0.943233  0.732876  1
  Cu  Cu7  1  0.441432  0.289643  0.732876  1
  Cu  Cu8  1  0.058568  0.791443  0.848212  1
  Cu  Cu9  1  0.800947  0.058857  0.501194  1
  Cu  Cu10  1  0.557663  0.299753  0.498806  1
  Cu  Cu11  1  0.200247  0.942337  0.501194  1
  Cu  Cu12  1  0.441143  0.699053  0.498806  1
  Cu  Cu13  1  0.942337  0.441143  0.742089  1
  Cu  Cu14  1  0.699053  0.200247  0.257911  1
  Cu  Cu15  1  0.058857  0.557663  0.257911  1
  Cu  Cu16  1  0.708557  0.441432  0.151788  1
  Cu  Cu17  1  0.556767  0.708557  0.267124  1
  Cu  Cu18  1  0.299753  0.800947  0.742089  1
  Cu  Cu19  1  0.289643  0.556767  0.848212  1
  Si  Si20  1  0.793956  0.291487  0.851049  1
  Si  Si21  1  0.557093  0.059562  0.851049  1
  Si  Si22  1  0.059562  0.208513  0.502469  1
  Si  Si23  1  0.291487  0.440438  0.497531  1
  Si  Si24  1  0.942907  0.793956  0.502469  1
  Si  Si25  1  0.440438  0.942907  0.148951  1
  Si  Si26  1  0.208513  0.706044  0.148951  1
  Si  Si27  1  0.706044  0.557093  0.497531  1
