# generated using pymatgen
data_Ho(Cd10Rh)2
_symmetry_space_group_name_H-M   'P 1'
_cell_length_a   11.07658252
_cell_length_b   11.07658289
_cell_length_c   11.07658200
_cell_angle_alpha   60.00000267
_cell_angle_beta   60.00000155
_cell_angle_gamma   59.99999697
_symmetry_Int_Tables_number   1
_chemical_formula_structural   Ho(Cd10Rh)2
_chemical_formula_sum   'Ho2 Cd40 Rh4'
_cell_volume   960.95347647
_cell_formula_units_Z   2
loop_
 _symmetry_equiv_pos_site_id
 _symmetry_equiv_pos_as_xyz
  1  'x, y, z'
loop_
 _atom_site_type_symbol
 _atom_site_label
 _atom_site_symmetry_multiplicity
 _atom_site_fract_x
 _atom_site_fract_y
 _atom_site_fract_z
 _atom_site_occupancy
  Ho  Ho0  1  0.125000  0.125000  0.125000  1
  Ho  Ho1  1  0.875000  0.875000  0.875000  1
  Cd  Cd2  1  0.676368  0.676368  0.943179  1
  Cd  Cd3  1  0.323632  0.056821  0.795917  1
  Cd  Cd4  1  0.056821  0.795917  0.323632  1
  Cd  Cd5  1  0.795917  0.323632  0.323632  1
  Cd  Cd6  1  0.323632  0.056821  0.323632  1
  Cd  Cd7  1  0.204083  0.943179  0.676368  1
  Cd  Cd8  1  0.500000  0.000000  0.000000  1
  Cd  Cd9  1  0.676368  0.676368  0.204083  1
  Cd  Cd10  1  0.512451  0.237549  0.512451  1
  Cd  Cd11  1  0.204083  0.676368  0.943179  1
  Cd  Cd12  1  0.000000  0.500000  0.000000  1
  Cd  Cd13  1  0.487549  0.762451  0.762451  1
  Cd  Cd14  1  0.487549  0.487549  0.762451  1
  Cd  Cd15  1  0.512451  0.512451  0.237549  1
  Cd  Cd16  1  0.762451  0.487549  0.762451  1
  Cd  Cd17  1  0.795917  0.056821  0.323632  1
  Cd  Cd18  1  0.762451  0.762451  0.487549  1
  Cd  Cd19  1  0.795917  0.323632  0.056821  1
  Cd  Cd20  1  0.323632  0.323632  0.795917  1
  Cd  Cd21  1  0.676368  0.943179  0.204083  1
  Cd  Cd22  1  0.056821  0.323632  0.323632  1
  Cd  Cd23  1  0.943179  0.204083  0.676368  1
  Cd  Cd24  1  0.056821  0.323632  0.795917  1
  Cd  Cd25  1  0.237549  0.237549  0.512451  1
  Cd  Cd26  1  0.323632  0.323632  0.056821  1
  Cd  Cd27  1  0.943179  0.676368  0.204083  1
  Cd  Cd28  1  0.323632  0.795917  0.056821  1
  Cd  Cd29  1  0.000000  0.000000  0.500000  1
  Cd  Cd30  1  0.676368  0.943179  0.676368  1
  Cd  Cd31  1  0.237549  0.512451  0.237549  1
  Cd  Cd32  1  0.512451  0.237549  0.237549  1
  Cd  Cd33  1  0.204083  0.676368  0.676368  1
  Cd  Cd34  1  0.762451  0.487549  0.487549  1
  Cd  Cd35  1  0.487549  0.762451  0.487549  1
  Cd  Cd36  1  0.676368  0.204083  0.676368  1
  Cd  Cd37  1  0.237549  0.512451  0.512451  1
  Cd  Cd38  1  0.000000  0.000000  0.000000  1
  Cd  Cd39  1  0.943179  0.676368  0.676368  1
  Cd  Cd40  1  0.323632  0.795917  0.323632  1
  Cd  Cd41  1  0.676368  0.204083  0.943179  1
  Rh  Rh42  1  0.500000  0.500000  0.500000  1
  Rh  Rh43  1  0.500000  0.500000  0.000000  1
  Rh  Rh44  1  0.000000  0.500000  0.500000  1
  Rh  Rh45  1  0.500000  0.000000  0.500000  1
