# generated using pymatgen
data_Tm2CuAs3O
_symmetry_space_group_name_H-M   'P 1'
_cell_length_a   33.64598107
_cell_length_b   3.89506000
_cell_length_c   3.88518902
_cell_angle_alpha   90.00000000
_cell_angle_beta   90.00154290
_cell_angle_gamma   90.00000000
_symmetry_Int_Tables_number   1
_chemical_formula_structural   Tm2CuAs3O
_chemical_formula_sum   'Tm8 Cu4 As12 O4'
_cell_volume   509.16612269
_cell_formula_units_Z   4
loop_
 _symmetry_equiv_pos_site_id
 _symmetry_equiv_pos_as_xyz
  1  'x, y, z'
loop_
 _atom_site_type_symbol
 _atom_site_label
 _atom_site_symmetry_multiplicity
 _atom_site_fract_x
 _atom_site_fract_y
 _atom_site_fract_z
 _atom_site_occupancy
  Tm  Tm0  1  0.468379  0.750002  0.251067  1
  Tm  Tm1  1  0.031603  0.250002  0.750753  1
  Tm  Tm2  1  0.968397  0.750002  0.249248  1
  Tm  Tm3  1  0.531621  0.250002  0.748932  1
  Tm  Tm4  1  0.326460  0.250002  0.804140  1
  Tm  Tm5  1  0.173419  0.750002  0.304029  1
  Tm  Tm6  1  0.826581  0.250002  0.695973  1
  Tm  Tm7  1  0.673540  0.750002  0.195859  1
  Cu  Cu8  1  0.249942  0.250002  0.306564  1
  Cu  Cu9  1  0.249907  0.750002  0.806716  1
  Cu  Cu10  1  0.750093  0.250002  0.193283  1
  Cu  Cu11  1  0.750059  0.750002  0.693437  1
  As  As12  1  0.395181  0.250002  0.306789  1
  As  As13  1  0.104743  0.750002  0.806808  1
  As  As14  1  0.895257  0.250002  0.193194  1
  As  As15  1  0.604819  0.750002  0.693210  1
  As  As16  1  0.395049  0.750002  0.776212  1
  As  As17  1  0.104890  0.250002  0.276096  1
  As  As18  1  0.895110  0.750002  0.723903  1
  As  As19  1  0.604951  0.250002  0.223787  1
  As  As20  1  0.202450  0.250002  0.805598  1
  As  As21  1  0.297371  0.750002  0.305699  1
  As  As22  1  0.702629  0.250002  0.694303  1
  As  As23  1  0.797550  0.750002  0.194403  1
  O  O24  1  0.500056  0.750002  0.751533  1
  O  O25  1  0.999949  0.250002  0.251597  1
  O  O26  1  0.000050  0.750002  0.748402  1
  O  O27  1  0.499944  0.250002  0.248466  1
