# generated using pymatgen
data_Dy15HoIn4Ir3Ru
_symmetry_space_group_name_H-M   'P 1'
_cell_length_a   9.65072388
_cell_length_b   9.66384684
_cell_length_c   9.65939436
_cell_angle_alpha   59.98475001
_cell_angle_beta   59.95413032
_cell_angle_gamma   59.95500460
_symmetry_Int_Tables_number   1
_chemical_formula_structural   Dy15HoIn4Ir3Ru
_chemical_formula_sum   'Dy15 Ho1 In4 Ir3 Ru1'
_cell_volume   636.49682391
_cell_formula_units_Z   1
loop_
 _symmetry_equiv_pos_site_id
 _symmetry_equiv_pos_as_xyz
  1  'x, y, z'
loop_
 _atom_site_type_symbol
 _atom_site_label
 _atom_site_symmetry_multiplicity
 _atom_site_fract_x
 _atom_site_fract_y
 _atom_site_fract_z
 _atom_site_occupancy
  Dy  Dy0  1  0.439159  0.441083  0.059992  1
  Dy  Dy1  1  0.649189  0.651864  0.047082  1
  Dy  Dy2  1  0.192554  0.808981  0.189484  1
  Dy  Dy3  1  0.059872  0.440016  0.060096  1
  Dy  Dy4  1  0.192922  0.808419  0.809880  1
  Dy  Dy5  1  0.060370  0.439735  0.439540  1
  Dy  Dy6  1  0.809857  0.190684  0.191633  1
  Dy  Dy7  1  0.650122  0.652638  0.651457  1
  Dy  Dy8  1  0.809574  0.190765  0.808897  1
  Dy  Dy9  1  0.192922  0.188778  0.809880  1
  Dy  Dy10  1  0.047670  0.651226  0.649878  1
  Dy  Dy11  1  0.439159  0.059767  0.059992  1
  Dy  Dy12  1  0.060370  0.060355  0.439540  1
  Dy  Dy13  1  0.650122  0.045782  0.651457  1
  Dy  Dy14  1  0.809857  0.807828  0.191633  1
  Ho  Ho15  1  0.438996  0.060109  0.440786  1
  In  In16  1  0.417037  0.416833  0.417034  1
  In  In17  1  0.417002  0.417157  0.748686  1
  In  In18  1  0.417037  0.749098  0.417034  1
  In  In19  1  0.747907  0.417351  0.417393  1
  Ir  Ir20  1  0.858825  0.859037  0.858500  1
  Ir  Ir21  1  0.858825  0.423638  0.858500  1
  Ir  Ir22  1  0.858487  0.859197  0.423118  1
  Ru  Ru23  1  0.422166  0.859661  0.858512  1
