# generated using pymatgen
data_Dy2Tm6Re3B24Os
_symmetry_space_group_name_H-M   'P 1'
_cell_length_a   3.64477900
_cell_length_b   9.10999743
_cell_length_c   11.48676901
_cell_angle_alpha   90.07039200
_cell_angle_beta   90.00000000
_cell_angle_gamma   90.00000000
_symmetry_Int_Tables_number   1
_chemical_formula_structural   Dy2Tm6Re3B24Os
_chemical_formula_sum   'Dy2 Tm6 Re3 B24 Os1'
_cell_volume   381.40555582
_cell_formula_units_Z   1
loop_
 _symmetry_equiv_pos_site_id
 _symmetry_equiv_pos_as_xyz
  1  'x, y, z'
loop_
 _atom_site_type_symbol
 _atom_site_label
 _atom_site_symmetry_multiplicity
 _atom_site_fract_x
 _atom_site_fract_y
 _atom_site_fract_z
 _atom_site_occupancy
  Dy  Dy0  1  0.000000  0.321113  0.414072  1
  Dy  Dy1  1  0.000000  0.678055  0.587676  1
  Tm  Tm2  1  0.000000  0.824145  0.084263  1
  Tm  Tm3  1  0.000000  0.177242  0.913612  1
  Tm  Tm4  1  0.000000  0.942393  0.369972  1
  Tm  Tm5  1  0.000000  0.056697  0.629468  1
  Tm  Tm6  1  0.000000  0.442599  0.129401  1
  Tm  Tm7  1  0.000000  0.557148  0.871280  1
  Re  Re8  1  0.000000  0.361622  0.679099  1
  Re  Re9  1  0.000000  0.137952  0.179369  1
  Re  Re10  1  0.000000  0.862074  0.821046  1
  B  B11  1  0.500000  0.553781  0.432656  1
  B  B12  1  0.500000  0.447001  0.566974  1
  B  B13  1  0.500000  0.052774  0.066429  1
  B  B14  1  0.500000  0.947466  0.933336  1
  B  B15  1  0.500000  0.749249  0.418276  1
  B  B16  1  0.500000  0.249908  0.581373  1
  B  B17  1  0.500000  0.249630  0.080771  1
  B  B18  1  0.500000  0.750893  0.919344  1
  B  B19  1  0.500000  0.791301  0.265042  1
  B  B20  1  0.500000  0.207750  0.734795  1
  B  B21  1  0.500000  0.291783  0.234699  1
  B  B22  1  0.500000  0.707977  0.766011  1
  B  B23  1  0.500000  0.630810  0.185089  1
  B  B24  1  0.500000  0.369889  0.814917  1
  B  B25  1  0.500000  0.130039  0.315048  1
  B  B26  1  0.500000  0.869819  0.685384  1
  B  B27  1  0.500000  0.981059  0.211857  1
  B  B28  1  0.500000  0.019001  0.787777  1
  B  B29  1  0.500000  0.482614  0.287634  1
  B  B30  1  0.500000  0.518818  0.712551  1
  B  B31  1  0.500000  0.601232  0.028677  1
  B  B32  1  0.500000  0.399158  0.972131  1
  B  B33  1  0.500000  0.099256  0.471943  1
  B  B34  1  0.500000  0.899150  0.527774  1
  Os  Os35  1  0.000000  0.638607  0.320252  1
