# generated using pymatgen
data_Tb3Sn3Hg2
_symmetry_space_group_name_H-M   'P 1'
_cell_length_a   6.44847248
_cell_length_b   6.44847318
_cell_length_c   10.26199500
_cell_angle_alpha   90.00000000
_cell_angle_beta   90.00000000
_cell_angle_gamma   103.01468308
_symmetry_Int_Tables_number   1
_chemical_formula_structural   Tb3Sn3Hg2
_chemical_formula_sum   'Tb6 Sn6 Hg4'
_cell_volume   415.76102140
_cell_formula_units_Z   2
loop_
 _symmetry_equiv_pos_site_id
 _symmetry_equiv_pos_as_xyz
  1  'x, y, z'
loop_
 _atom_site_type_symbol
 _atom_site_label
 _atom_site_symmetry_multiplicity
 _atom_site_fract_x
 _atom_site_fract_y
 _atom_site_fract_z
 _atom_site_occupancy
  Tb  Tb0  1  0.622172  0.622172  0.250000  1
  Tb  Tb1  1  0.377828  0.377828  0.750000  1
  Tb  Tb2  1  0.795198  0.204802  0.000000  1
  Tb  Tb3  1  0.204802  0.795198  0.000000  1
  Tb  Tb4  1  0.204802  0.795198  0.500000  1
  Tb  Tb5  1  0.795198  0.204802  0.500000  1
  Sn  Sn6  1  0.065009  0.496015  0.250000  1
  Sn  Sn7  1  0.934991  0.503985  0.750000  1
  Sn  Sn8  1  0.496015  0.065009  0.250000  1
  Sn  Sn9  1  0.503985  0.934991  0.750000  1
  Sn  Sn10  1  0.012692  0.012692  0.250000  1
  Sn  Sn11  1  0.987308  0.987308  0.750000  1
  Hg  Hg12  1  0.311900  0.311900  0.038722  1
  Hg  Hg13  1  0.688100  0.688100  0.961278  1
  Hg  Hg14  1  0.688100  0.688100  0.538722  1
  Hg  Hg15  1  0.311900  0.311900  0.461278  1
