# generated using pymatgen
data_Lu12Tc3As
_symmetry_space_group_name_H-M   'P 1'
_cell_length_a   7.42184787
_cell_length_b   8.89750800
_cell_length_c   6.12474360
_cell_angle_alpha   90.00000000
_cell_angle_beta   90.27024912
_cell_angle_gamma   90.00000000
_symmetry_Int_Tables_number   1
_chemical_formula_structural   Lu12Tc3As
_chemical_formula_sum   'Lu12 Tc3 As1'
_cell_volume   404.44876821
_cell_formula_units_Z   1
loop_
 _symmetry_equiv_pos_site_id
 _symmetry_equiv_pos_as_xyz
  1  'x, y, z'
loop_
 _atom_site_type_symbol
 _atom_site_label
 _atom_site_symmetry_multiplicity
 _atom_site_fract_x
 _atom_site_fract_y
 _atom_site_fract_z
 _atom_site_occupancy
  Lu  Lu0  1  0.662846  0.058113  0.350792  1
  Lu  Lu1  1  0.190170  0.440992  0.156674  1
  Lu  Lu2  1  0.322098  0.564359  0.660325  1
  Lu  Lu3  1  0.824014  0.934316  0.834320  1
  Lu  Lu4  1  0.322098  0.935641  0.660325  1
  Lu  Lu5  1  0.824014  0.565684  0.834320  1
  Lu  Lu6  1  0.662846  0.441887  0.350792  1
  Lu  Lu7  1  0.190170  0.059008  0.156674  1
  Lu  Lu8  1  0.528977  0.250000  0.870246  1
  Lu  Lu9  1  0.041930  0.250000  0.621179  1
  Lu  Lu10  1  0.468456  0.750000  0.114424  1
  Lu  Lu11  1  0.960504  0.750000  0.370787  1
  Tc  Tc12  1  0.378732  0.250000  0.455373  1
  Tc  Tc13  1  0.120432  0.750000  0.961998  1
  Tc  Tc14  1  0.620996  0.750000  0.535899  1
  As  As15  1  0.881721  0.250000  0.065872  1
