# generated using pymatgen
data_Tm6Al24Ag2Os5Rh
_symmetry_space_group_name_H-M   'P 1'
_cell_length_a   8.83288738
_cell_length_b   8.84897280
_cell_length_c   9.56013956
_cell_angle_alpha   89.92405890
_cell_angle_beta   90.04409496
_cell_angle_gamma   119.65699706
_symmetry_Int_Tables_number   1
_chemical_formula_structural   Tm6Al24Ag2Os5Rh
_chemical_formula_sum   'Tm6 Al24 Ag2 Os5 Rh1'
_cell_volume   649.35283719
_cell_formula_units_Z   1
loop_
 _symmetry_equiv_pos_site_id
 _symmetry_equiv_pos_as_xyz
  1  'x, y, z'
loop_
 _atom_site_type_symbol
 _atom_site_label
 _atom_site_symmetry_multiplicity
 _atom_site_fract_x
 _atom_site_fract_y
 _atom_site_fract_z
 _atom_site_occupancy
  Tm  Tm0  1  0.189725  0.385768  0.251009  1
  Tm  Tm1  1  0.810275  0.614232  0.748991  1
  Tm  Tm2  1  0.612159  0.812774  0.255923  1
  Tm  Tm3  1  0.387841  0.187226  0.744077  1
  Tm  Tm4  1  0.198647  0.808757  0.247079  1
  Tm  Tm5  1  0.801353  0.191243  0.752921  1
  Al  Al6  1  0.343558  0.670878  0.033182  1
  Al  Al7  1  0.656442  0.329122  0.966818  1
  Al  Al8  1  0.672346  0.329152  0.529890  1
  Al  Al9  1  0.327654  0.670848  0.470110  1
  Al  Al10  1  0.150617  0.322256  0.578976  1
  Al  Al11  1  0.849383  0.677744  0.421024  1
  Al  Al12  1  0.676246  0.847428  0.580356  1
  Al  Al13  1  0.828653  0.677475  0.079274  1
  Al  Al14  1  0.323754  0.152572  0.419644  1
  Al  Al15  1  0.171347  0.322525  0.920726  1
  Al  Al16  1  0.163342  0.835254  0.576033  1
  Al  Al17  1  0.326777  0.161888  0.075694  1
  Al  Al18  1  0.836658  0.164746  0.423967  1
  Al  Al19  1  0.673223  0.838112  0.924306  1
  Al  Al20  1  0.828286  0.153102  0.080489  1
  Al  Al21  1  0.171714  0.846898  0.919511  1
  Al  Al22  1  0.561301  0.124353  0.249495  1
  Al  Al23  1  0.438699  0.875647  0.750505  1
  Al  Al24  1  0.872275  0.436094  0.255996  1
  Al  Al25  1  0.127725  0.563906  0.744004  1
  Al  Al26  1  0.561603  0.437370  0.243129  1
  Al  Al27  1  0.438397  0.562630  0.756871  1
  Al  Al28  1  0.000421  0.002961  0.250028  1
  Al  Al29  1  0.999579  0.997039  0.749972  1
  Ag  Ag30  1  0.000000  0.500000  0.000000  1
  Ag  Ag31  1  0.500000  0.500000  0.500000  1
  Os  Os32  1  0.500000  0.000000  0.000000  1
  Os  Os33  1  0.500000  0.000000  0.500000  1
  Os  Os34  1  0.000000  0.500000  0.500000  1
  Os  Os35  1  0.000000  0.000000  0.000000  1
  Os  Os36  1  0.000000  0.000000  0.500000  1
  Rh  Rh37  1  0.500000  0.500000  0.000000  1
