# generated using pymatgen
data_Y3Ho2Tm3In3Co
_symmetry_space_group_name_H-M   'P 1'
_cell_length_a   10.26174800
_cell_length_b   10.26174711
_cell_length_c   7.06486200
_cell_angle_alpha   90.00000000
_cell_angle_beta   90.00000000
_cell_angle_gamma   119.99999644
_symmetry_Int_Tables_number   1
_chemical_formula_structural   Y3Ho2Tm3In3Co
_chemical_formula_sum   'Y6 Ho4 Tm6 In6 Co2'
_cell_volume   644.28346145
_cell_formula_units_Z   2
loop_
 _symmetry_equiv_pos_site_id
 _symmetry_equiv_pos_as_xyz
  1  'x, y, z'
loop_
 _atom_site_type_symbol
 _atom_site_label
 _atom_site_symmetry_multiplicity
 _atom_site_fract_x
 _atom_site_fract_y
 _atom_site_fract_z
 _atom_site_occupancy
  Y  Y0  1  0.534976  0.069952  0.504392  1
  Y  Y1  1  0.930048  0.465024  0.504392  1
  Y  Y2  1  0.534976  0.465024  0.504392  1
  Y  Y3  1  0.465024  0.930048  0.004392  1
  Y  Y4  1  0.069952  0.534976  0.004392  1
  Y  Y5  1  0.465024  0.534976  0.004392  1
  Ho  Ho6  1  0.666667  0.333333  0.897414  1
  Ho  Ho7  1  0.333333  0.666667  0.397414  1
  Ho  Ho8  1  0.000000  0.000000  0.492460  1
  Ho  Ho9  1  0.000000  0.000000  0.992460  1
  Tm  Tm10  1  0.178618  0.357235  0.710592  1
  Tm  Tm11  1  0.642765  0.821382  0.710592  1
  Tm  Tm12  1  0.178618  0.821382  0.710592  1
  Tm  Tm13  1  0.821382  0.642765  0.210592  1
  Tm  Tm14  1  0.357235  0.178618  0.210592  1
  Tm  Tm15  1  0.821382  0.178618  0.210592  1
  In  In16  1  0.837306  0.674612  0.756373  1
  In  In17  1  0.325388  0.162694  0.756373  1
  In  In18  1  0.837306  0.162694  0.756373  1
  In  In19  1  0.162694  0.325388  0.256373  1
  In  In20  1  0.674612  0.837306  0.256373  1
  In  In21  1  0.162694  0.837306  0.256373  1
  Co  Co22  1  0.666667  0.333333  0.275079  1
  Co  Co23  1  0.333333  0.666667  0.775079  1
