# generated using pymatgen
data_Dy10Al4Ru5Rh
_symmetry_space_group_name_H-M   'P 1'
_cell_length_a   8.35208526
_cell_length_b   8.35333836
_cell_length_c   8.35333868
_cell_angle_alpha   109.45064170
_cell_angle_beta   109.56315468
_cell_angle_gamma   109.40598830
_symmetry_Int_Tables_number   1
_chemical_formula_structural   Dy10Al4Ru5Rh
_chemical_formula_sum   'Dy10 Al4 Ru5 Rh1'
_cell_volume   448.60046521
_cell_formula_units_Z   1
loop_
 _symmetry_equiv_pos_site_id
 _symmetry_equiv_pos_as_xyz
  1  'x, y, z'
loop_
 _atom_site_type_symbol
 _atom_site_label
 _atom_site_symmetry_multiplicity
 _atom_site_fract_x
 _atom_site_fract_y
 _atom_site_fract_z
 _atom_site_occupancy
  Dy  Dy0  1  0.250000  0.680275  0.430275  1
  Dy  Dy1  1  0.750000  0.819024  0.069024  1
  Dy  Dy2  1  0.432829  0.251091  0.679911  1
  Dy  Dy3  1  0.682650  0.432232  0.252008  1
  Dy  Dy4  1  0.067171  0.747082  0.818262  1
  Dy  Dy5  1  0.817350  0.069358  0.749581  1
  Dy  Dy6  1  0.212655  0.214473  0.215695  1
  Dy  Dy7  1  0.500253  0.000058  0.287314  1
  Dy  Dy8  1  0.287345  0.503040  0.001816  1
  Dy  Dy9  1  0.999747  0.287062  0.499805  1
  Al  Al10  1  0.588874  0.588920  0.588630  1
  Al  Al11  1  0.500668  0.998779  0.910706  1
  Al  Al12  1  0.911126  0.499756  0.000046  1
  Al  Al13  1  0.999332  0.910039  0.498112  1
  Ru  Ru14  1  0.750000  0.376885  0.626885  1
  Ru  Ru15  1  0.871939  0.249955  0.122325  1
  Ru  Ru16  1  0.124012  0.874463  0.249885  1
  Ru  Ru17  1  0.628060  0.750385  0.378015  1
  Ru  Ru18  1  0.375988  0.625873  0.750452  1
  Rh  Rh19  1  0.250000  0.121252  0.871252  1
