# generated using pymatgen
data_AlCl13
_symmetry_space_group_name_H-M   'P 1'
_cell_length_a   11.65606573
_cell_length_b   16.22109889
_cell_length_c   10.46804300
_cell_angle_alpha   89.41594455
_cell_angle_beta   120.89887954
_cell_angle_gamma   130.41348583
_symmetry_Int_Tables_number   1
_chemical_formula_structural   AlCl13
_chemical_formula_sum   'Al2 Cl26'
_cell_volume   1124.31129265
_cell_formula_units_Z   2
loop_
 _symmetry_equiv_pos_site_id
 _symmetry_equiv_pos_as_xyz
  1  'x, y, z'
loop_
 _atom_site_type_symbol
 _atom_site_label
 _atom_site_symmetry_multiplicity
 _atom_site_fract_x
 _atom_site_fract_y
 _atom_site_fract_z
 _atom_site_occupancy
  Al  Al0  1  0.863705  0.996654  0.860247  1
  Al  Al1  1  0.386295  0.753346  0.639753  1
  Cl  Cl2  1  0.280876  0.393676  0.644821  1
  Cl  Cl3  1  0.659526  0.336382  0.970964  1
  Cl  Cl4  1  0.862610  0.039898  0.366709  1
  Cl  Cl5  1  0.969124  0.356324  0.855179  1
  Cl  Cl6  1  0.557136  0.137096  0.223015  1
  Cl  Cl7  1  0.692864  0.612904  0.276985  1
  Cl  Cl8  1  0.387390  0.710102  0.133291  1
  Cl  Cl9  1  0.590474  0.413618  0.529036  1
  Cl  Cl10  1  0.029910  0.791229  0.741271  1
  Cl  Cl11  1  0.533757  0.731669  0.366771  1
  Cl  Cl12  1  0.970984  0.072047  0.737136  1
  Cl  Cl13  1  0.752756  0.214062  0.478228  1
  Cl  Cl14  1  0.075842  0.083679  0.126684  1
  Cl  Cl15  1  0.777124  0.557782  0.752948  1
  Cl  Cl16  1  0.216187  0.926415  0.225918  1
  Cl  Cl17  1  0.183313  0.414872  0.439991  1
  Cl  Cl18  1  0.220090  0.958771  0.758729  1
  Cl  Cl19  1  0.716243  0.018331  0.133229  1
  Cl  Cl20  1  0.648241  0.786883  0.744721  1
  Cl  Cl21  1  0.601759  0.963117  0.755279  1
  Cl  Cl22  1  0.033813  0.823585  0.274082  1
  Cl  Cl23  1  0.066687  0.335128  0.060009  1
  Cl  Cl24  1  0.279016  0.677953  0.762864  1
  Cl  Cl25  1  0.472876  0.192218  0.747052  1
  Cl  Cl26  1  0.174158  0.666321  0.373316  1
  Cl  Cl27  1  0.497244  0.535938  0.021772  1
