# generated using pymatgen
data_Tb3Pr2Ta2BiO14
_symmetry_space_group_name_H-M   'P 1'
_cell_length_a   6.57374586
_cell_length_b   6.63134465
_cell_length_c   7.65307200
_cell_angle_alpha   90.00000000
_cell_angle_beta   90.00000000
_cell_angle_gamma   110.56105884
_symmetry_Int_Tables_number   1
_chemical_formula_structural   Tb3Pr2Ta2BiO14
_chemical_formula_sum   'Tb3 Pr2 Ta2 Bi1 O14'
_cell_volume   312.36661662
_cell_formula_units_Z   1
loop_
 _symmetry_equiv_pos_site_id
 _symmetry_equiv_pos_as_xyz
  1  'x, y, z'
loop_
 _atom_site_type_symbol
 _atom_site_label
 _atom_site_symmetry_multiplicity
 _atom_site_fract_x
 _atom_site_fract_y
 _atom_site_fract_z
 _atom_site_occupancy
  Tb  Tb0  1  0.512294  0.056687  0.250000  1
  Tb  Tb1  1  0.950044  0.492704  0.750000  1
  Tb  Tb2  1  0.054398  0.518859  0.250000  1
  Pr  Pr3  1  0.994782  0.004182  0.003216  1
  Pr  Pr4  1  0.994782  0.004182  0.496784  1
  Ta  Ta5  1  0.506180  0.504928  0.001615  1
  Ta  Ta6  1  0.506180  0.504928  0.498385  1
  Bi  Bi7  1  0.473926  0.965757  0.750000  1
  O  O8  1  0.581098  0.538636  0.750000  1
  O  O9  1  0.435303  0.411751  0.250000  1
  O  O10  1  0.837883  0.131576  0.750000  1
  O  O11  1  0.153502  0.881750  0.250000  1
  O  O12  1  0.093192  0.850626  0.750000  1
  O  O13  1  0.879110  0.166367  0.250000  1
  O  O14  1  0.430803  0.172121  0.971651  1
  O  O15  1  0.571511  0.811064  0.453339  1
  O  O16  1  0.189328  0.445369  0.967611  1
  O  O17  1  0.822021  0.554979  0.465921  1
  O  O18  1  0.430803  0.172121  0.528349  1
  O  O19  1  0.571511  0.811064  0.046661  1
  O  O20  1  0.822021  0.554979  0.034079  1
  O  O21  1  0.189328  0.445369  0.532389  1
