# generated using pymatgen
data_Ta12Be5B7Os12
_symmetry_space_group_name_H-M   'P 1'
_cell_length_a   3.18126700
_cell_length_b   9.05800583
_cell_length_c   15.69683600
_cell_angle_alpha   89.94729019
_cell_angle_beta   90.00000000
_cell_angle_gamma   90.00000000
_symmetry_Int_Tables_number   1
_chemical_formula_structural   Ta12Be5B7Os12
_chemical_formula_sum   'Ta12 Be5 B7 Os12'
_cell_volume   452.31881514
_cell_formula_units_Z   1
loop_
 _symmetry_equiv_pos_site_id
 _symmetry_equiv_pos_as_xyz
  1  'x, y, z'
loop_
 _atom_site_type_symbol
 _atom_site_label
 _atom_site_symmetry_multiplicity
 _atom_site_fract_x
 _atom_site_fract_y
 _atom_site_fract_z
 _atom_site_occupancy
  Ta  Ta0  1  0.000000  0.805624  0.495617  1
  Ta  Ta1  1  0.000000  0.198409  0.504628  1
  Ta  Ta2  1  0.000000  0.299949  0.004693  1
  Ta  Ta3  1  0.000000  0.700042  0.995441  1
  Ta  Ta4  1  0.000000  0.515672  0.595767  1
  Ta  Ta5  1  0.000000  0.481285  0.404243  1
  Ta  Ta6  1  0.000000  0.016930  0.906218  1
  Ta  Ta7  1  0.000000  0.983588  0.093514  1
  Ta  Ta8  1  0.000000  0.683431  0.204810  1
  Ta  Ta9  1  0.000000  0.316911  0.795132  1
  Ta  Ta10  1  0.000000  0.182476  0.295256  1
  Ta  Ta11  1  0.000000  0.816933  0.705110  1
  Be  Be12  1  0.500000  0.606653  0.493677  1
  Be  Be13  1  0.000000  0.609987  0.833468  1
  Be  Be14  1  0.000000  0.389973  0.166867  1
  Be  Be15  1  0.000000  0.110286  0.667832  1
  Be  Be16  1  0.000000  0.889587  0.331965  1
  B  B17  1  0.500000  0.389990  0.503829  1
  B  B18  1  0.500000  0.105249  0.004346  1
  B  B19  1  0.500000  0.895208  0.995501  1
  B  B20  1  0.500000  0.717553  0.602323  1
  B  B21  1  0.500000  0.282135  0.400255  1
  B  B22  1  0.500000  0.215552  0.899947  1
  B  B23  1  0.500000  0.785106  0.100091  1
  Os  Os24  1  0.500000  0.713138  0.356140  1
  Os  Os25  1  0.500000  0.286706  0.642553  1
  Os  Os26  1  0.500000  0.213002  0.141498  1
  Os  Os27  1  0.500000  0.787244  0.858578  1
  Os  Os28  1  0.500000  0.521781  0.093172  1
  Os  Os29  1  0.500000  0.478332  0.907129  1
  Os  Os30  1  0.500000  0.020633  0.406171  1
  Os  Os31  1  0.500000  0.979606  0.594311  1
  Os  Os32  1  0.500000  0.569197  0.731229  1
  Os  Os33  1  0.500000  0.430644  0.268987  1
  Os  Os34  1  0.500000  0.068419  0.770286  1
  Os  Os35  1  0.500000  0.932770  0.229414  1
