# generated using pymatgen
data_Nd4Ga4Ir3Pt
_symmetry_space_group_name_H-M   'P 1'
_cell_length_a   4.42784500
_cell_length_b   7.07874700
_cell_length_c   7.91130800
_cell_angle_alpha   89.99746482
_cell_angle_beta   90.00000000
_cell_angle_gamma   90.00000000
_symmetry_Int_Tables_number   1
_chemical_formula_structural   Nd4Ga4Ir3Pt
_chemical_formula_sum   'Nd4 Ga4 Ir3 Pt1'
_cell_volume   247.96882988
_cell_formula_units_Z   1
loop_
 _symmetry_equiv_pos_site_id
 _symmetry_equiv_pos_as_xyz
  1  'x, y, z'
loop_
 _atom_site_type_symbol
 _atom_site_label
 _atom_site_symmetry_multiplicity
 _atom_site_fract_x
 _atom_site_fract_y
 _atom_site_fract_z
 _atom_site_occupancy
  Nd  Nd0  1  0.250000  0.023637  0.685888  1
  Nd  Nd1  1  0.250000  0.528961  0.811344  1
  Nd  Nd2  1  0.750000  0.974726  0.311413  1
  Nd  Nd3  1  0.750000  0.477800  0.191959  1
  Ga  Ga4  1  0.250000  0.152192  0.071866  1
  Ga  Ga5  1  0.250000  0.653947  0.429789  1
  Ga  Ga6  1  0.750000  0.841083  0.930532  1
  Ga  Ga7  1  0.750000  0.347712  0.566522  1
  Ir  Ir8  1  0.250000  0.276547  0.389504  1
  Ir  Ir9  1  0.250000  0.777557  0.109861  1
  Ir  Ir10  1  0.750000  0.723825  0.611156  1
  Pt  Pt11  1  0.750000  0.222012  0.890167  1
