# generated using pymatgen
data_Yb5Y3(Ge4Mo3)4
_symmetry_space_group_name_H-M   'P 1'
_cell_length_a   6.85764877
_cell_length_b   7.06015991
_cell_length_c   13.20487091
_cell_angle_alpha   89.95268536
_cell_angle_beta   89.96219050
_cell_angle_gamma   89.93872709
_symmetry_Int_Tables_number   1
_chemical_formula_structural   Yb5Y3(Ge4Mo3)4
_chemical_formula_sum   'Yb5 Y3 Ge16 Mo12'
_cell_volume   639.32758692
_cell_formula_units_Z   1
loop_
 _symmetry_equiv_pos_site_id
 _symmetry_equiv_pos_as_xyz
  1  'x, y, z'
loop_
 _atom_site_type_symbol
 _atom_site_label
 _atom_site_symmetry_multiplicity
 _atom_site_fract_x
 _atom_site_fract_y
 _atom_site_fract_z
 _atom_site_occupancy
  Yb  Yb0  1  0.493491  0.330536  0.089696  1
  Yb  Yb1  1  0.993101  0.170721  0.408620  1
  Yb  Yb2  1  0.505953  0.671489  0.591379  1
  Yb  Yb3  1  0.006459  0.828253  0.908587  1
  Yb  Yb4  1  0.505954  0.670814  0.910554  1
  Y  Y5  1  0.005223  0.826604  0.592645  1
  Y  Y6  1  0.494505  0.328090  0.408335  1
  Y  Y7  1  0.994580  0.172338  0.090673  1
  Ge  Ge8  1  0.669311  0.043877  0.545412  1
  Ge  Ge9  1  0.170293  0.458093  0.953746  1
  Ge  Ge10  1  0.332182  0.954605  0.045719  1
  Ge  Ge11  1  0.830839  0.544087  0.454077  1
  Ge  Ge12  1  0.329465  0.953937  0.453943  1
  Ge  Ge13  1  0.830056  0.546478  0.045334  1
  Ge  Ge14  1  0.669292  0.042697  0.953369  1
  Ge  Ge15  1  0.170240  0.453977  0.545704  1
  Ge  Ge16  1  0.529555  0.376637  0.750193  1
  Ge  Ge17  1  0.031235  0.124130  0.750461  1
  Ge  Ge18  1  0.469287  0.627974  0.248557  1
  Ge  Ge19  1  0.969906  0.874049  0.250942  1
  Ge  Ge20  1  0.804211  0.642453  0.752301  1
  Ge  Ge21  1  0.310642  0.855093  0.752040  1
  Ge  Ge22  1  0.191989  0.357328  0.250101  1
  Ge  Ge23  1  0.691330  0.143726  0.249007  1
  Mo  Mo24  1  0.833804  0.338071  0.627799  1
  Mo  Mo25  1  0.333952  0.163011  0.871908  1
  Mo  Mo26  1  0.165301  0.661781  0.127584  1
  Mo  Mo27  1  0.666789  0.838848  0.372520  1
  Mo  Mo28  1  0.166287  0.660641  0.372289  1
  Mo  Mo29  1  0.668495  0.840237  0.128217  1
  Mo  Mo30  1  0.835522  0.336728  0.871823  1
  Mo  Mo31  1  0.334194  0.161025  0.627684  1
  Mo  Mo32  1  0.661124  0.012887  0.749456  1
  Mo  Mo33  1  0.159836  0.487550  0.749215  1
  Mo  Mo34  1  0.337686  0.990303  0.250402  1
  Mo  Mo35  1  0.837914  0.510937  0.249709  1
