# generated using pymatgen
data_Hf3Nb2Ga2Si
_symmetry_space_group_name_H-M   'P 1'
_cell_length_a   7.91459063
_cell_length_b   7.89976014
_cell_length_c   5.41377100
_cell_angle_alpha   90.00000000
_cell_angle_beta   90.00000000
_cell_angle_gamma   119.93803859
_symmetry_Int_Tables_number   1
_chemical_formula_structural   Hf3Nb2Ga2Si
_chemical_formula_sum   'Hf6 Nb4 Ga4 Si2'
_cell_volume   293.32136257
_cell_formula_units_Z   2
loop_
 _symmetry_equiv_pos_site_id
 _symmetry_equiv_pos_as_xyz
  1  'x, y, z'
loop_
 _atom_site_type_symbol
 _atom_site_label
 _atom_site_symmetry_multiplicity
 _atom_site_fract_x
 _atom_site_fract_y
 _atom_site_fract_z
 _atom_site_occupancy
  Hf  Hf0  1  0.747250  0.749774  0.250000  1
  Hf  Hf1  1  0.747250  0.997476  0.750000  1
  Hf  Hf2  1  0.996480  0.245681  0.250000  1
  Hf  Hf3  1  0.250995  0.251682  0.750000  1
  Hf  Hf4  1  0.250995  0.999314  0.250000  1
  Hf  Hf5  1  0.996480  0.750799  0.750000  1
  Nb  Nb6  1  0.664995  0.332497  0.000000  1
  Nb  Nb7  1  0.664995  0.332497  0.500000  1
  Nb  Nb8  1  0.340072  0.670036  0.500000  1
  Nb  Nb9  1  0.340072  0.670036  0.000000  1
  Ga  Ga10  1  0.001563  0.398159  0.750000  1
  Ga  Ga11  1  0.001563  0.603404  0.250000  1
  Ga  Ga12  1  0.393546  0.394173  0.250000  1
  Ga  Ga13  1  0.393546  0.999373  0.750000  1
  Si  Si14  1  0.605099  0.001933  0.250000  1
  Si  Si15  1  0.605099  0.603166  0.750000  1
