# generated using pymatgen
data_Rb6InTe4Br
_symmetry_space_group_name_H-M   'P 1'
_cell_length_a   11.85908100
_cell_length_b   11.85908089
_cell_length_c   8.63152900
_cell_angle_alpha   90.00000000
_cell_angle_beta   90.00000000
_cell_angle_gamma   120.00000309
_symmetry_Int_Tables_number   1
_chemical_formula_structural   Rb6InTe4Br
_chemical_formula_sum   'Rb12 In2 Te8 Br2'
_cell_volume   1051.28488200
_cell_formula_units_Z   2
loop_
 _symmetry_equiv_pos_site_id
 _symmetry_equiv_pos_as_xyz
  1  'x, y, z'
loop_
 _atom_site_type_symbol
 _atom_site_label
 _atom_site_symmetry_multiplicity
 _atom_site_fract_x
 _atom_site_fract_y
 _atom_site_fract_z
 _atom_site_occupancy
  Rb  Rb0  1  0.130861  0.869139  0.516909  1
  Rb  Rb1  1  0.738277  0.869139  0.516909  1
  Rb  Rb2  1  0.955667  0.477833  0.319824  1
  Rb  Rb3  1  0.522167  0.477833  0.319824  1
  Rb  Rb4  1  0.869139  0.738277  0.016909  1
  Rb  Rb5  1  0.261723  0.130861  0.016909  1
  Rb  Rb6  1  0.522167  0.044333  0.319824  1
  Rb  Rb7  1  0.130861  0.261723  0.516909  1
  Rb  Rb8  1  0.869139  0.130861  0.016909  1
  Rb  Rb9  1  0.044333  0.522167  0.819824  1
  Rb  Rb10  1  0.477833  0.955667  0.819824  1
  Rb  Rb11  1  0.477833  0.522167  0.819824  1
  In  In12  1  0.666667  0.333333  0.706628  1
  In  In13  1  0.333333  0.666667  0.206628  1
  Te  Te14  1  0.404389  0.202195  0.603848  1
  Te  Te15  1  0.595611  0.797805  0.103848  1
  Te  Te16  1  0.666667  0.333333  0.038430  1
  Te  Te17  1  0.797805  0.595611  0.603848  1
  Te  Te18  1  0.202195  0.404389  0.103848  1
  Te  Te19  1  0.333333  0.666667  0.538430  1
  Te  Te20  1  0.202195  0.797805  0.103848  1
  Te  Te21  1  0.797805  0.202195  0.603848  1
  Br  Br22  1  0.000000  0.000000  0.273799  1
  Br  Br23  1  0.000000  0.000000  0.773799  1
