# generated using pymatgen
data_Er(TiRe6)4
_symmetry_space_group_name_H-M   'P 1'
_cell_length_a   8.40756814
_cell_length_b   8.40784846
_cell_length_c   8.40748701
_cell_angle_alpha   109.47515332
_cell_angle_beta   109.46795467
_cell_angle_gamma   109.46900974
_symmetry_Int_Tables_number   1
_chemical_formula_structural   Er(TiRe6)4
_chemical_formula_sum   'Er1 Ti4 Re24'
_cell_volume   457.51765763
_cell_formula_units_Z   1
loop_
 _symmetry_equiv_pos_site_id
 _symmetry_equiv_pos_as_xyz
  1  'x, y, z'
loop_
 _atom_site_type_symbol
 _atom_site_label
 _atom_site_symmetry_multiplicity
 _atom_site_fract_x
 _atom_site_fract_y
 _atom_site_fract_z
 _atom_site_occupancy
  Er  Er0  1  0.000015  0.000009  0.000030  1
  Ti  Ti1  1  0.629060  0.999990  0.999997  1
  Ti  Ti2  1  0.000011  0.629088  0.000014  1
  Ti  Ti3  1  0.000010  0.000010  0.629080  1
  Ti  Ti4  1  0.370934  0.370928  0.370938  1
  Re  Re5  1  0.400315  0.681645  0.999984  1
  Re  Re6  1  0.718727  0.318376  0.318423  1
  Re  Re7  1  0.400346  0.999957  0.681617  1
  Re  Re8  1  0.681713  0.400381  0.000049  1
  Re  Re9  1  0.999977  0.400381  0.681603  1
  Re  Re10  1  0.318328  0.718662  0.318344  1
  Re  Re11  1  0.318394  0.318460  0.718654  1
  Re  Re12  1  0.999978  0.681495  0.400261  1
  Re  Re13  1  0.681586  0.000051  0.400278  1
  Re  Re14  1  0.599635  0.599617  0.281333  1
  Re  Re15  1  0.281278  0.599589  0.599609  1
  Re  Re16  1  0.599668  0.281343  0.599597  1
  Re  Re17  1  0.378046  0.194535  0.000156  1
  Re  Re18  1  0.183450  0.805397  0.805514  1
  Re  Re19  1  0.377997  0.000047  0.194539  1
  Re  Re20  1  0.194500  0.378012  0.000073  1
  Re  Re21  1  0.000023  0.377983  0.194585  1
  Re  Re22  1  0.805508  0.183507  0.805527  1
  Re  Re23  1  0.805516  0.805523  0.183431  1
  Re  Re24  1  0.999998  0.194582  0.377940  1
  Re  Re25  1  0.194496  0.000012  0.377881  1
  Re  Re26  1  0.622025  0.622037  0.816494  1
  Re  Re27  1  0.816502  0.621926  0.622019  1
  Re  Re28  1  0.621963  0.816457  0.622031  1
