# generated using pymatgen
data_Os3Se4Br3
_symmetry_space_group_name_H-M   'P 1'
_cell_length_a   9.61003893
_cell_length_b   9.58120646
_cell_length_c   13.68206313
_cell_angle_alpha   84.76836887
_cell_angle_beta   83.18672208
_cell_angle_gamma   83.12437711
_symmetry_Int_Tables_number   1
_chemical_formula_structural   Os3Se4Br3
_chemical_formula_sum   'Os12 Se16 Br12'
_cell_volume   1238.10167517
_cell_formula_units_Z   4
loop_
 _symmetry_equiv_pos_site_id
 _symmetry_equiv_pos_as_xyz
  1  'x, y, z'
loop_
 _atom_site_type_symbol
 _atom_site_label
 _atom_site_symmetry_multiplicity
 _atom_site_fract_x
 _atom_site_fract_y
 _atom_site_fract_z
 _atom_site_occupancy
  Os  Os0  1  0.690498  0.471668  0.942950  1
  Os  Os1  1  0.309502  0.528332  0.057050  1
  Os  Os2  1  0.481146  0.684073  0.934561  1
  Os  Os3  1  0.518854  0.315927  0.065439  1
  Os  Os4  1  0.440279  0.425349  0.890341  1
  Os  Os5  1  0.559721  0.574651  0.109659  1
  Os  Os6  1  0.893767  0.179927  0.502197  1
  Os  Os7  1  0.106233  0.820073  0.497803  1
  Os  Os8  1  0.830405  0.913891  0.507095  1
  Os  Os9  1  0.169595  0.086109  0.492905  1
  Os  Os10  1  0.987909  0.986166  0.640258  1
  Os  Os11  1  0.012091  0.013834  0.359742  1
  Se  Se12  1  0.604023  0.575597  0.783056  1
  Se  Se13  1  0.395977  0.424403  0.216944  1
  Se  Se14  1  0.951653  0.764618  0.373868  1
  Se  Se15  1  0.048347  0.235382  0.626132  1
  Se  Se16  1  0.639617  0.232308  0.905345  1
  Se  Se17  1  0.360383  0.767692  0.094655  1
  Se  Se18  1  0.269136  0.924394  0.361335  1
  Se  Se19  1  0.730864  0.075606  0.638665  1
  Se  Se20  1  0.246209  0.899556  0.622380  1
  Se  Se21  1  0.753791  0.100444  0.377620  1
  Se  Se22  1  0.248797  0.628438  0.889622  1
  Se  Se23  1  0.751203  0.371562  0.110378  1
  Se  Se24  1  0.930142  0.738514  0.635252  1
  Se  Se25  1  0.069858  0.261486  0.364748  1
  Se  Se26  1  0.715966  0.714691  0.988608  1
  Se  Se27  1  0.284034  0.285309  0.011392  1
  Br  Br28  1  0.634811  0.673902  0.255500  1
  Br  Br29  1  0.365189  0.326098  0.744500  1
  Br  Br30  1  0.974435  0.967092  0.825637  1
  Br  Br31  1  0.025565  0.032908  0.174363  1
  Br  Br32  1  0.607969  0.798095  0.516594  1
  Br  Br33  1  0.392031  0.201905  0.483406  1
  Br  Br34  1  0.941576  0.430887  0.865742  1
  Br  Br35  1  0.058424  0.569113  0.134258  1
  Br  Br36  1  0.453623  0.927411  0.848272  1
  Br  Br37  1  0.546377  0.072589  0.151728  1
  Br  Br38  1  0.754476  0.418168  0.505492  1
  Br  Br39  1  0.245524  0.581832  0.494508  1
