# generated using pymatgen
data_Zr3Sc13(ZnNi)4
_symmetry_space_group_name_H-M   'P 1'
_cell_length_a   8.78360482
_cell_length_b   8.75987997
_cell_length_c   8.76019405
_cell_angle_alpha   60.00151948
_cell_angle_beta   60.08532985
_cell_angle_gamma   60.09410613
_symmetry_Int_Tables_number   1
_chemical_formula_structural   Zr3Sc13(ZnNi)4
_chemical_formula_sum   'Zr3 Sc13 Zn4 Ni4'
_cell_volume   477.26795907
_cell_formula_units_Z   1
loop_
 _symmetry_equiv_pos_site_id
 _symmetry_equiv_pos_as_xyz
  1  'x, y, z'
loop_
 _atom_site_type_symbol
 _atom_site_label
 _atom_site_symmetry_multiplicity
 _atom_site_fract_x
 _atom_site_fract_y
 _atom_site_fract_z
 _atom_site_occupancy
  Zr  Zr0  1  0.355339  0.355988  0.356243  1
  Zr  Zr1  1  0.355008  0.356316  0.932302  1
  Zr  Zr2  1  0.355435  0.932154  0.356216  1
  Sc  Sc3  1  0.930460  0.356585  0.356516  1
  Sc  Sc4  1  0.810485  0.189575  0.189510  1
  Sc  Sc5  1  0.189843  0.810883  0.810953  1
  Sc  Sc6  1  0.189800  0.810935  0.188353  1
  Sc  Sc7  1  0.810672  0.189526  0.810423  1
  Sc  Sc8  1  0.189788  0.188417  0.810912  1
  Sc  Sc9  1  0.810510  0.810462  0.189552  1
  Sc  Sc10  1  0.937216  0.563534  0.563409  1
  Sc  Sc11  1  0.563107  0.936913  0.936812  1
  Sc  Sc12  1  0.563143  0.936808  0.563240  1
  Sc  Sc13  1  0.937079  0.563524  0.935939  1
  Sc  Sc14  1  0.563017  0.563214  0.936891  1
  Sc  Sc15  1  0.937280  0.936011  0.563351  1
  Zn  Zn16  1  0.580707  0.581238  0.581081  1
  Zn  Zn17  1  0.580812  0.581131  0.256917  1
  Zn  Zn18  1  0.580573  0.257086  0.581090  1
  Zn  Zn19  1  0.257293  0.580768  0.581036  1
  Ni  Ni20  1  0.147027  0.146123  0.146428  1
  Ni  Ni21  1  0.147054  0.146027  0.560492  1
  Ni  Ni22  1  0.147069  0.560540  0.146296  1
  Ni  Ni23  1  0.561278  0.146242  0.146037  1
