# generated using pymatgen
data_MgTa3Pd3(Pt2Rh)3
_symmetry_space_group_name_H-M   'P 1'
_cell_length_a   5.61107800
_cell_length_b   5.61100290
_cell_length_c   9.12019800
_cell_angle_alpha   90.00000000
_cell_angle_beta   90.00000000
_cell_angle_gamma   119.99965385
_symmetry_Int_Tables_number   1
_chemical_formula_structural   MgTa3Pd3(Pt2Rh)3
_chemical_formula_sum   'Mg1 Ta3 Pd3 Pt6 Rh3'
_cell_volume   248.66989584
_cell_formula_units_Z   1
loop_
 _symmetry_equiv_pos_site_id
 _symmetry_equiv_pos_as_xyz
  1  'x, y, z'
loop_
 _atom_site_type_symbol
 _atom_site_label
 _atom_site_symmetry_multiplicity
 _atom_site_fract_x
 _atom_site_fract_y
 _atom_site_fract_z
 _atom_site_occupancy
  Mg  Mg0  1  0.333343  0.666647  0.000000  1
  Ta  Ta1  1  0.666654  0.333342  0.500000  1
  Ta  Ta2  1  0.999996  0.999989  0.740784  1
  Ta  Ta3  1  0.999996  0.999989  0.259216  1
  Pd  Pd4  1  0.832293  0.167701  0.000000  1
  Pd  Pd5  1  0.832378  0.664750  0.000000  1
  Pd  Pd6  1  0.335280  0.167635  0.000000  1
  Pt  Pt7  1  0.997276  0.498671  0.746587  1
  Pt  Pt8  1  0.501358  0.498655  0.746616  1
  Pt  Pt9  1  0.501335  0.002725  0.746573  1
  Pt  Pt10  1  0.997276  0.498671  0.253413  1
  Pt  Pt11  1  0.501358  0.498655  0.253384  1
  Pt  Pt12  1  0.501335  0.002725  0.253427  1
  Rh  Rh13  1  0.167821  0.832215  0.500000  1
  Rh  Rh14  1  0.167692  0.335345  0.500000  1
  Rh  Rh15  1  0.664601  0.832292  0.500000  1
