# generated using pymatgen
data_AlV6Ga(NiN)2
_symmetry_space_group_name_H-M   'P 1'
_cell_length_a   6.50144897
_cell_length_b   6.50291000
_cell_length_c   6.50061296
_cell_angle_alpha   90.00000000
_cell_angle_beta   90.23751961
_cell_angle_gamma   90.00000000
_symmetry_Int_Tables_number   1
_chemical_formula_structural   AlV6Ga(NiN)2
_chemical_formula_sum   'Al2 V12 Ga2 Ni4 N4'
_cell_volume   274.83274729
_cell_formula_units_Z   2
loop_
 _symmetry_equiv_pos_site_id
 _symmetry_equiv_pos_as_xyz
  1  'x, y, z'
loop_
 _atom_site_type_symbol
 _atom_site_label
 _atom_site_symmetry_multiplicity
 _atom_site_fract_x
 _atom_site_fract_y
 _atom_site_fract_z
 _atom_site_occupancy
  Al  Al0  1  0.573139  0.426732  0.926233  1
  Al  Al1  1  0.426861  0.926732  0.573767  1
  V  V2  1  0.791966  0.960434  0.374450  1
  V  V3  1  0.709943  0.039613  0.873602  1
  V  V4  1  0.208034  0.460434  0.125550  1
  V  V5  1  0.290057  0.539613  0.626398  1
  V  V6  1  0.960718  0.373274  0.791171  1
  V  V7  1  0.039282  0.873274  0.708829  1
  V  V8  1  0.460088  0.125392  0.208986  1
  V  V9  1  0.539912  0.625392  0.291014  1
  V  V10  1  0.373964  0.791362  0.960906  1
  V  V11  1  0.873819  0.709207  0.039970  1
  V  V12  1  0.126181  0.209207  0.460030  1
  V  V13  1  0.626036  0.291362  0.539094  1
  Ga  Ga14  1  0.926913  0.573011  0.427504  1
  Ga  Ga15  1  0.073087  0.073011  0.072496  1
  Ni  Ni16  1  0.178776  0.823216  0.324214  1
  Ni  Ni17  1  0.324729  0.177089  0.821916  1
  Ni  Ni18  1  0.821224  0.323216  0.175786  1
  Ni  Ni19  1  0.675271  0.677089  0.678084  1
  N  N20  1  0.876804  0.124298  0.623554  1
  N  N21  1  0.624619  0.876373  0.124355  1
  N  N22  1  0.123196  0.624298  0.876446  1
  N  N23  1  0.375381  0.376373  0.375645  1
