# generated using pymatgen
data_Dy7Ho9(CdIr)4
_symmetry_space_group_name_H-M   'P 1'
_cell_length_a   9.61128204
_cell_length_b   9.61128202
_cell_length_c   9.61710400
_cell_angle_alpha   59.97996012
_cell_angle_beta   59.97996019
_cell_angle_gamma   59.97393532
_symmetry_Int_Tables_number   1
_chemical_formula_structural   Dy7Ho9(CdIr)4
_chemical_formula_sum   'Dy7 Ho9 Cd4 Ir4'
_cell_volume   627.87728538
_cell_formula_units_Z   1
loop_
 _symmetry_equiv_pos_site_id
 _symmetry_equiv_pos_as_xyz
  1  'x, y, z'
loop_
 _atom_site_type_symbol
 _atom_site_label
 _atom_site_symmetry_multiplicity
 _atom_site_fract_x
 _atom_site_fract_y
 _atom_site_fract_z
 _atom_site_occupancy
  Dy  Dy0  1  0.060667  0.060667  0.439333  1
  Dy  Dy1  1  0.188289  0.811910  0.812268  1
  Dy  Dy2  1  0.811910  0.188289  0.187532  1
  Dy  Dy3  1  0.811910  0.188289  0.812268  1
  Dy  Dy4  1  0.188289  0.811910  0.187532  1
  Dy  Dy5  1  0.812190  0.812190  0.187810  1
  Dy  Dy6  1  0.187975  0.187975  0.812025  1
  Ho  Ho7  1  0.599212  0.599212  0.598606  1
  Ho  Ho8  1  0.599212  0.599212  0.202970  1
  Ho  Ho9  1  0.599400  0.202392  0.599104  1
  Ho  Ho10  1  0.202392  0.599400  0.599104  1
  Ho  Ho11  1  0.060378  0.438954  0.439764  1
  Ho  Ho12  1  0.438954  0.060378  0.060904  1
  Ho  Ho13  1  0.438954  0.060378  0.439764  1
  Ho  Ho14  1  0.060378  0.438954  0.060904  1
  Ho  Ho15  1  0.439292  0.439292  0.060708  1
  Cd  Cd16  1  0.830855  0.830855  0.831201  1
  Cd  Cd17  1  0.830855  0.830855  0.507089  1
  Cd  Cd18  1  0.831069  0.506437  0.831247  1
  Cd  Cd19  1  0.506437  0.831069  0.831247  1
  Ir  Ir20  1  0.392116  0.392116  0.391312  1
  Ir  Ir21  1  0.392116  0.392116  0.824456  1
  Ir  Ir22  1  0.392720  0.824430  0.391425  1
  Ir  Ir23  1  0.824430  0.392720  0.391425  1
