# generated using pymatgen
data_Lu4Si4TcIr2Rh
_symmetry_space_group_name_H-M   'P 1'
_cell_length_a   4.21144700
_cell_length_b   6.79990534
_cell_length_c   7.31101642
_cell_angle_alpha   89.90230347
_cell_angle_beta   90.00000000
_cell_angle_gamma   90.00000000
_symmetry_Int_Tables_number   1
_chemical_formula_structural   Lu4Si4TcIr2Rh
_chemical_formula_sum   'Lu4 Si4 Tc1 Ir2 Rh1'
_cell_volume   209.36849676
_cell_formula_units_Z   1
loop_
 _symmetry_equiv_pos_site_id
 _symmetry_equiv_pos_as_xyz
  1  'x, y, z'
loop_
 _atom_site_type_symbol
 _atom_site_label
 _atom_site_symmetry_multiplicity
 _atom_site_fract_x
 _atom_site_fract_y
 _atom_site_fract_z
 _atom_site_occupancy
  Lu  Lu0  1  0.750000  0.498001  0.811068  1
  Lu  Lu1  1  0.250000  0.998835  0.313376  1
  Lu  Lu2  1  0.750000  0.004785  0.686729  1
  Lu  Lu3  1  0.250000  0.504267  0.188089  1
  Si  Si4  1  0.250000  0.702428  0.617446  1
  Si  Si5  1  0.250000  0.204003  0.891124  1
  Si  Si6  1  0.750000  0.295350  0.385875  1
  Si  Si7  1  0.750000  0.795675  0.104362  1
  Tc  Tc8  1  0.250000  0.843745  0.936473  1
  Ir  Ir9  1  0.250000  0.338323  0.562543  1
  Ir  Ir10  1  0.750000  0.160499  0.065634  1
  Rh  Rh11  1  0.750000  0.654092  0.437283  1
