# generated using pymatgen
data_LiNdCo4P3
_symmetry_space_group_name_H-M   'P 1'
_cell_length_a   3.75265300
_cell_length_b   10.44166900
_cell_length_c   12.06020000
_cell_angle_alpha   90.00000000
_cell_angle_beta   90.00000000
_cell_angle_gamma   90.00000000
_symmetry_Int_Tables_number   1
_chemical_formula_structural   LiNdCo4P3
_chemical_formula_sum   'Li4 Nd4 Co16 P12'
_cell_volume   472.56640040
_cell_formula_units_Z   4
loop_
 _symmetry_equiv_pos_site_id
 _symmetry_equiv_pos_as_xyz
  1  'x, y, z'
loop_
 _atom_site_type_symbol
 _atom_site_label
 _atom_site_symmetry_multiplicity
 _atom_site_fract_x
 _atom_site_fract_y
 _atom_site_fract_z
 _atom_site_occupancy
  Li  Li0  1  0.250000  0.700716  0.993277  1
  Li  Li1  1  0.250000  0.799284  0.493277  1
  Li  Li2  1  0.750000  0.299284  0.006723  1
  Li  Li3  1  0.750000  0.200716  0.506723  1
  Nd  Nd4  1  0.250000  0.580927  0.700198  1
  Nd  Nd5  1  0.250000  0.919073  0.200198  1
  Nd  Nd6  1  0.750000  0.419073  0.299802  1
  Nd  Nd7  1  0.750000  0.080927  0.799802  1
  Co  Co8  1  0.250000  0.406879  0.488149  1
  Co  Co9  1  0.250000  0.093121  0.988149  1
  Co  Co10  1  0.750000  0.593121  0.511851  1
  Co  Co11  1  0.750000  0.906879  0.011851  1
  Co  Co12  1  0.250000  0.220694  0.171624  1
  Co  Co13  1  0.250000  0.279306  0.671624  1
  Co  Co14  1  0.750000  0.779306  0.828376  1
  Co  Co15  1  0.750000  0.720694  0.328376  1
  Co  Co16  1  0.250000  0.881343  0.699066  1
  Co  Co17  1  0.250000  0.618657  0.199066  1
  Co  Co18  1  0.750000  0.118657  0.300934  1
  Co  Co19  1  0.750000  0.381343  0.800934  1
  Co  Co20  1  0.250000  0.467845  0.933194  1
  Co  Co21  1  0.250000  0.032155  0.433194  1
  Co  Co22  1  0.750000  0.532155  0.066806  1
  Co  Co23  1  0.750000  0.967845  0.566806  1
  P  P24  1  0.250000  0.423628  0.112724  1
  P  P25  1  0.250000  0.076372  0.612724  1
  P  P26  1  0.750000  0.576372  0.887276  1
  P  P27  1  0.750000  0.923628  0.387276  1
  P  P28  1  0.250000  0.277775  0.857446  1
  P  P29  1  0.250000  0.222225  0.357446  1
  P  P30  1  0.750000  0.722225  0.142554  1
  P  P31  1  0.750000  0.777775  0.642554  1
  P  P32  1  0.250000  0.604539  0.395078  1
  P  P33  1  0.250000  0.895461  0.895078  1
  P  P34  1  0.750000  0.395461  0.604922  1
  P  P35  1  0.750000  0.104539  0.104922  1
