# generated using pymatgen
data_Nd3HoSn10IrRh5
_symmetry_space_group_name_H-M   'P 1'
_cell_length_a   13.56634653
_cell_length_b   13.56634679
_cell_length_c   7.25290638
_cell_angle_alpha   90.10901184
_cell_angle_beta   89.89098806
_cell_angle_gamma   160.84151819
_symmetry_Int_Tables_number   1
_chemical_formula_structural   Nd3HoSn10IrRh5
_chemical_formula_sum   'Nd3 Ho1 Sn10 Ir1 Rh5'
_cell_volume   438.07871838
_cell_formula_units_Z   1
loop_
 _symmetry_equiv_pos_site_id
 _symmetry_equiv_pos_as_xyz
  1  'x, y, z'
loop_
 _atom_site_type_symbol
 _atom_site_label
 _atom_site_symmetry_multiplicity
 _atom_site_fract_x
 _atom_site_fract_y
 _atom_site_fract_z
 _atom_site_occupancy
  Nd  Nd0  1  0.171941  0.828059  0.746105  1
  Nd  Nd1  1  0.827763  0.172237  0.245752  1
  Nd  Nd2  1  0.476845  0.523155  0.763373  1
  Ho  Ho3  1  0.524669  0.475331  0.260311  1
  Sn  Sn4  1  0.879319  0.120681  0.768009  1
  Sn  Sn5  1  0.119924  0.880076  0.268063  1
  Sn  Sn6  1  0.704118  0.295882  0.450748  1
  Sn  Sn7  1  0.295318  0.704682  0.950423  1
  Sn  Sn8  1  0.596562  0.403438  0.888942  1
  Sn  Sn9  1  0.404497  0.595503  0.387549  1
  Sn  Sn10  1  0.953012  0.046988  0.101657  1
  Sn  Sn11  1  0.047872  0.952128  0.597205  1
  Sn  Sn12  1  0.290121  0.709879  0.524255  1
  Sn  Sn13  1  0.709676  0.290324  0.024605  1
  Ir  Ir14  1  0.050554  0.949446  0.985752  1
  Rh  Rh15  1  0.949249  0.050751  0.479127  1
  Rh  Rh16  1  0.777210  0.222790  0.735780  1
  Rh  Rh17  1  0.222348  0.777652  0.235726  1
  Rh  Rh18  1  0.394621  0.605379  0.016796  1
  Rh  Rh19  1  0.604380  0.395620  0.513821  1
