# generated using pymatgen
data_NaHoGaPt3
_symmetry_space_group_name_H-M   'P 1'
_cell_length_a   5.18952209
_cell_length_b   5.18952145
_cell_length_c   5.18952156
_cell_angle_alpha   64.66889849
_cell_angle_beta   64.66890052
_cell_angle_gamma   64.66888434
_symmetry_Int_Tables_number   1
_chemical_formula_structural   NaHoGaPt3
_chemical_formula_sum   'Na1 Ho1 Ga1 Pt3'
_cell_volume   108.92975001
_cell_formula_units_Z   1
loop_
 _symmetry_equiv_pos_site_id
 _symmetry_equiv_pos_as_xyz
  1  'x, y, z'
loop_
 _atom_site_type_symbol
 _atom_site_label
 _atom_site_symmetry_multiplicity
 _atom_site_fract_x
 _atom_site_fract_y
 _atom_site_fract_z
 _atom_site_occupancy
  Na  Na0  1  0.997105  0.997105  0.997105  1
  Ho  Ho1  1  0.246539  0.246539  0.246539  1
  Ga  Ga2  1  0.627270  0.627270  0.627270  1
  Pt  Pt3  1  0.626894  0.626894  0.125300  1
  Pt  Pt4  1  0.626894  0.125300  0.626894  1
  Pt  Pt5  1  0.125300  0.626894  0.626894  1
