# generated using pymatgen
data_Nd4CuNi3
_symmetry_space_group_name_H-M   'P 1'
_cell_length_a   4.35519000
_cell_length_b   5.55640693
_cell_length_c   7.32699674
_cell_angle_alpha   89.80509941
_cell_angle_beta   90.00000000
_cell_angle_gamma   90.00000000
_symmetry_Int_Tables_number   1
_chemical_formula_structural   Nd4CuNi3
_chemical_formula_sum   'Nd4 Cu1 Ni3'
_cell_volume   177.30649153
_cell_formula_units_Z   1
loop_
 _symmetry_equiv_pos_site_id
 _symmetry_equiv_pos_as_xyz
  1  'x, y, z'
loop_
 _atom_site_type_symbol
 _atom_site_label
 _atom_site_symmetry_multiplicity
 _atom_site_fract_x
 _atom_site_fract_y
 _atom_site_fract_z
 _atom_site_occupancy
  Nd  Nd0  1  0.250000  0.368704  0.676697  1
  Nd  Nd1  1  0.750000  0.626747  0.326653  1
  Nd  Nd2  1  0.750000  0.875714  0.814105  1
  Nd  Nd3  1  0.250000  0.129110  0.185016  1
  Cu  Cu4  1  0.250000  0.617622  0.033918  1
  Ni  Ni5  1  0.250000  0.877853  0.534776  1
  Ni  Ni6  1  0.750000  0.120984  0.463471  1
  Ni  Ni7  1  0.750000  0.383265  0.965364  1
