# generated using pymatgen
data_CaYb5(Si3Os)8
_symmetry_space_group_name_H-M   'P 1'
_cell_length_a   10.16868271
_cell_length_b   10.16868231
_cell_length_c   8.17472532
_cell_angle_alpha   89.97048350
_cell_angle_beta   90.02951741
_cell_angle_gamma   132.56066808
_symmetry_Int_Tables_number   1
_chemical_formula_structural   CaYb5(Si3Os)8
_chemical_formula_sum   'Ca1 Yb5 Si24 Os8'
_cell_volume   622.60346267
_cell_formula_units_Z   1
loop_
 _symmetry_equiv_pos_site_id
 _symmetry_equiv_pos_as_xyz
  1  'x, y, z'
loop_
 _atom_site_type_symbol
 _atom_site_label
 _atom_site_symmetry_multiplicity
 _atom_site_fract_x
 _atom_site_fract_y
 _atom_site_fract_z
 _atom_site_occupancy
  Ca  Ca0  1  0.500658  0.000658  0.750000  1
  Yb  Yb1  1  0.999099  0.499099  0.250000  1
  Yb  Yb2  1  0.499047  0.999047  0.250000  1
  Yb  Yb3  1  0.000978  0.500978  0.750000  1
  Yb  Yb4  1  0.000032  0.000022  0.000019  1
  Yb  Yb5  1  0.500022  0.500032  0.499981  1
  Si  Si6  1  0.794960  0.205655  0.499568  1
  Si  Si7  1  0.705655  0.294960  0.000432  1
  Si  Si8  1  0.204807  0.794036  0.499548  1
  Si  Si9  1  0.294036  0.704807  0.000452  1
  Si  Si10  1  0.667729  0.667699  0.167647  1
  Si  Si11  1  0.167699  0.167729  0.332353  1
  Si  Si12  1  0.832205  0.832288  0.667495  1
  Si  Si13  1  0.332288  0.332205  0.832505  1
  Si  Si14  1  0.847585  0.613476  0.991901  1
  Si  Si15  1  0.113476  0.347585  0.508099  1
  Si  Si16  1  0.652304  0.886082  0.491116  1
  Si  Si17  1  0.386082  0.152304  0.008884  1
  Si  Si18  1  0.152315  0.386473  0.008438  1
  Si  Si19  1  0.886473  0.652315  0.491562  1
  Si  Si20  1  0.125579  0.892281  0.731358  1
  Si  Si21  1  0.392281  0.625579  0.768642  1
  Si  Si22  1  0.373923  0.607568  0.231158  1
  Si  Si23  1  0.107568  0.873923  0.268842  1
  Si  Si24  1  0.874001  0.107604  0.268906  1
  Si  Si25  1  0.607604  0.374001  0.231094  1
  Si  Si26  1  0.626375  0.393195  0.768674  1
  Si  Si27  1  0.893195  0.126375  0.731326  1
  Si  Si28  1  0.613849  0.847665  0.992238  1
  Si  Si29  1  0.347665  0.113849  0.507762  1
  Os  Os30  1  0.625996  0.626205  0.874695  1
  Os  Os31  1  0.126205  0.125996  0.625305  1
  Os  Os32  1  0.374118  0.374226  0.125326  1
  Os  Os33  1  0.874226  0.874118  0.374674  1
  Os  Os34  1  0.169230  0.829660  0.000470  1
  Os  Os35  1  0.329660  0.669230  0.499530  1
  Os  Os36  1  0.830735  0.170340  0.000321  1
  Os  Os37  1  0.670340  0.330735  0.499679  1
