# generated using pymatgen
data_Pr13Nd4Pa3Rh16
_symmetry_space_group_name_H-M   'P 1'
_cell_length_a   7.67339964
_cell_length_b   7.69023553
_cell_length_c   14.90641299
_cell_angle_alpha   90.09510120
_cell_angle_beta   89.89474260
_cell_angle_gamma   90.11814854
_symmetry_Int_Tables_number   1
_chemical_formula_structural   Pr13Nd4Pa3Rh16
_chemical_formula_sum   'Pr13 Nd4 Pa3 Rh16'
_cell_volume   879.62660535
_cell_formula_units_Z   1
loop_
 _symmetry_equiv_pos_site_id
 _symmetry_equiv_pos_as_xyz
  1  'x, y, z'
loop_
 _atom_site_type_symbol
 _atom_site_label
 _atom_site_symmetry_multiplicity
 _atom_site_fract_x
 _atom_site_fract_y
 _atom_site_fract_z
 _atom_site_occupancy
  Pr  Pr0  1  0.835217  0.660762  0.379350  1
  Pr  Pr1  1  0.334250  0.838526  0.378991  1
  Pr  Pr2  1  0.836174  0.660614  0.118651  1
  Pr  Pr3  1  0.662244  0.159475  0.880481  1
  Pr  Pr4  1  0.163920  0.337614  0.621743  1
  Pr  Pr5  1  0.513489  0.682517  0.592926  1
  Pr  Pr6  1  0.016023  0.817575  0.906439  1
  Pr  Pr7  1  0.486386  0.319748  0.095131  1
  Pr  Pr8  1  0.986576  0.188372  0.406787  1
  Pr  Pr9  1  0.485685  0.319467  0.408721  1
  Pr  Pr10  1  0.985957  0.178667  0.092500  1
  Pr  Pr11  1  0.510909  0.676834  0.909170  1
  Pr  Pr12  1  0.012493  0.822208  0.591881  1
  Nd  Nd13  1  0.815788  0.516034  0.749011  1
  Nd  Nd14  1  0.317754  0.983073  0.751846  1
  Nd  Nd15  1  0.174331  0.487406  0.249571  1
  Nd  Nd16  1  0.684511  0.011487  0.252013  1
  Pa  Pa17  1  0.660010  0.154494  0.624998  1
  Pa  Pa18  1  0.159558  0.344411  0.876799  1
  Pa  Pa19  1  0.337056  0.843947  0.122121  1
  Rh  Rh20  1  0.694437  0.976259  0.473824  1
  Rh  Rh21  1  0.202733  0.544963  0.029270  1
  Rh  Rh22  1  0.296556  0.051318  0.967493  1
  Rh  Rh23  1  0.797064  0.430283  0.544031  1
  Rh  Rh24  1  0.345682  0.036407  0.549707  1
  Rh  Rh25  1  0.858247  0.457236  0.949989  1
  Rh  Rh26  1  0.635424  0.957481  0.050421  1
  Rh  Rh27  1  0.169086  0.529807  0.455623  1
  Rh  Rh28  1  0.458855  0.362443  0.752332  1
  Rh  Rh29  1  0.964403  0.138363  0.755320  1
  Rh  Rh30  1  0.527266  0.632156  0.238572  1
  Rh  Rh31  1  0.062930  0.877935  0.233433  1
  Rh  Rh32  1  0.702492  0.886040  0.737964  1
  Rh  Rh33  1  0.199415  0.616714  0.762043  1
  Rh  Rh34  1  0.317348  0.132669  0.242137  1
  Rh  Rh35  1  0.789731  0.366698  0.248708  1
