# generated using pymatgen
data_CaPr2Pt9
_symmetry_space_group_name_H-M   'P 1'
_cell_length_a   9.46564227
_cell_length_b   9.46564209
_cell_length_c   9.46564200
_cell_angle_alpha   33.53526112
_cell_angle_beta   33.53526283
_cell_angle_gamma   33.53526151
_symmetry_Int_Tables_number   1
_chemical_formula_structural   CaPr2Pt9
_chemical_formula_sum   'Ca1 Pr2 Pt9'
_cell_volume   230.54914588
_cell_formula_units_Z   1
loop_
 _symmetry_equiv_pos_site_id
 _symmetry_equiv_pos_as_xyz
  1  'x, y, z'
loop_
 _atom_site_type_symbol
 _atom_site_label
 _atom_site_symmetry_multiplicity
 _atom_site_fract_x
 _atom_site_fract_y
 _atom_site_fract_z
 _atom_site_occupancy
  Ca  Ca0  1  0.139529  0.139529  0.139529  1
  Pr  Pr1  1  0.857996  0.857996  0.857996  1
  Pr  Pr2  1  0.003079  0.003079  0.003079  1
  Pt  Pt3  1  0.413991  0.918699  0.413991  1
  Pt  Pt4  1  0.413991  0.413991  0.918699  1
  Pt  Pt5  1  0.918699  0.413991  0.413991  1
  Pt  Pt6  1  0.585697  0.081820  0.585697  1
  Pt  Pt7  1  0.585697  0.585697  0.081820  1
  Pt  Pt8  1  0.081820  0.585697  0.585697  1
  Pt  Pt9  1  0.667228  0.667228  0.667228  1
  Pt  Pt10  1  0.332614  0.332614  0.332614  1
  Pt  Pt11  1  0.499657  0.499657  0.499657  1
