# generated using pymatgen
data_Si2Ni8B3
_symmetry_space_group_name_H-M   'P 1'
_cell_length_a   2.89767700
_cell_length_b   5.96857600
_cell_length_c   14.48925700
_cell_angle_alpha   90.00000000
_cell_angle_beta   90.00000000
_cell_angle_gamma   90.00000000
_symmetry_Int_Tables_number   1
_chemical_formula_structural   Si2Ni8B3
_chemical_formula_sum   'Si4 Ni16 B6'
_cell_volume   250.59177803
_cell_formula_units_Z   2
loop_
 _symmetry_equiv_pos_site_id
 _symmetry_equiv_pos_as_xyz
  1  'x, y, z'
loop_
 _atom_site_type_symbol
 _atom_site_label
 _atom_site_symmetry_multiplicity
 _atom_site_fract_x
 _atom_site_fract_y
 _atom_site_fract_z
 _atom_site_occupancy
  Si  Si0  1  0.000000  0.962810  0.623637  1
  Si  Si1  1  0.500000  0.037190  0.123637  1
  Si  Si2  1  0.000000  0.962810  0.376363  1
  Si  Si3  1  0.500000  0.037190  0.876363  1
  Ni  Ni4  1  0.000000  0.931479  0.000000  1
  Ni  Ni5  1  0.500000  0.642879  0.644284  1
  Ni  Ni6  1  0.000000  0.357121  0.855716  1
  Ni  Ni7  1  0.500000  0.642879  0.355716  1
  Ni  Ni8  1  0.000000  0.707658  0.500000  1
  Ni  Ni9  1  0.500000  0.068521  0.500000  1
  Ni  Ni10  1  0.500000  0.292342  0.000000  1
  Ni  Ni11  1  0.000000  0.814293  0.226680  1
  Ni  Ni12  1  0.000000  0.814293  0.773320  1
  Ni  Ni13  1  0.500000  0.185707  0.726680  1
  Ni  Ni14  1  0.500000  0.663937  0.087965  1
  Ni  Ni15  1  0.500000  0.185707  0.273320  1
  Ni  Ni16  1  0.000000  0.336063  0.587965  1
  Ni  Ni17  1  0.500000  0.663937  0.912035  1
  Ni  Ni18  1  0.000000  0.336063  0.412035  1
  Ni  Ni19  1  0.000000  0.357121  0.144284  1
  B  B20  1  0.000000  0.542134  0.000000  1
  B  B21  1  0.500000  0.457866  0.500000  1
  B  B22  1  0.000000  0.460267  0.282050  1
  B  B23  1  0.500000  0.539733  0.217950  1
  B  B24  1  0.000000  0.460267  0.717950  1
  B  B25  1  0.500000  0.539733  0.782050  1
