# generated using pymatgen
data_LaTb2RuI3
_symmetry_space_group_name_H-M   'P 1'
_cell_length_a   4.27094800
_cell_length_b   9.13136587
_cell_length_c   12.48743972
_cell_angle_alpha   94.07850626
_cell_angle_beta   90.00000000
_cell_angle_gamma   90.00000000
_symmetry_Int_Tables_number   1
_chemical_formula_structural   LaTb2RuI3
_chemical_formula_sum   'La2 Tb4 Ru2 I6'
_cell_volume   485.77169046
_cell_formula_units_Z   2
loop_
 _symmetry_equiv_pos_site_id
 _symmetry_equiv_pos_as_xyz
  1  'x, y, z'
loop_
 _atom_site_type_symbol
 _atom_site_label
 _atom_site_symmetry_multiplicity
 _atom_site_fract_x
 _atom_site_fract_y
 _atom_site_fract_z
 _atom_site_occupancy
  La  La0  1  0.750000  0.277959  0.605047  1
  La  La1  1  0.250000  0.722041  0.394953  1
  Tb  Tb2  1  0.750000  0.884038  0.624425  1
  Tb  Tb3  1  0.250000  0.115962  0.375575  1
  Tb  Tb4  1  0.750000  0.900660  0.181796  1
  Tb  Tb5  1  0.250000  0.099340  0.818204  1
  Ru  Ru6  1  0.750000  0.932070  0.401305  1
  Ru  Ru7  1  0.250000  0.067930  0.598695  1
  I  I8  1  0.750000  0.411454  0.358865  1
  I  I9  1  0.250000  0.588546  0.641135  1
  I  I10  1  0.750000  0.865202  0.890092  1
  I  I11  1  0.250000  0.134798  0.109908  1
  I  I12  1  0.750000  0.344522  0.871847  1
  I  I13  1  0.250000  0.655478  0.128153  1
