# generated using pymatgen
data_CaDyMgRuO6
_symmetry_space_group_name_H-M   'P 1'
_cell_length_a   5.65082500
_cell_length_b   5.38235090
_cell_length_c   9.42110513
_cell_angle_alpha   55.15800824
_cell_angle_beta   90.00000000
_cell_angle_gamma   90.00000000
_symmetry_Int_Tables_number   1
_chemical_formula_structural   CaDyMgRuO6
_chemical_formula_sum   'Ca2 Dy2 Mg2 Ru2 O12'
_cell_volume   235.17242792
_cell_formula_units_Z   2
loop_
 _symmetry_equiv_pos_site_id
 _symmetry_equiv_pos_as_xyz
  1  'x, y, z'
loop_
 _atom_site_type_symbol
 _atom_site_label
 _atom_site_symmetry_multiplicity
 _atom_site_fract_x
 _atom_site_fract_y
 _atom_site_fract_z
 _atom_site_occupancy
  Ca  Ca0  1  0.190886  0.235556  0.250084  1
  Ca  Ca1  1  0.809114  0.235556  0.750084  1
  Dy  Dy2  1  0.318796  0.768177  0.752638  1
  Dy  Dy3  1  0.681204  0.768177  0.252638  1
  Mg  Mg4  1  0.756264  0.500980  0.000462  1
  Mg  Mg5  1  0.243736  0.500980  0.500462  1
  Ru  Ru6  1  0.752986  0.000211  0.500228  1
  Ru  Ru7  1  0.247014  0.000211  0.000228  1
  O  O8  1  0.049933  0.121637  0.559020  1
  O  O9  1  0.950067  0.121637  0.059020  1
  O  O10  1  0.466295  0.860581  0.442153  1
  O  O11  1  0.533705  0.860581  0.942153  1
  O  O12  1  0.785825  0.360924  0.256521  1
  O  O13  1  0.214175  0.360924  0.756521  1
  O  O14  1  0.710078  0.658774  0.743596  1
  O  O15  1  0.289922  0.658774  0.243596  1
  O  O16  1  0.937929  0.753869  0.444112  1
  O  O17  1  0.062071  0.753869  0.944112  1
  O  O18  1  0.549711  0.239293  0.551190  1
  O  O19  1  0.450289  0.239293  0.051190  1
