# generated using pymatgen
data_Dy4YBi2Pt
_symmetry_space_group_name_H-M   'P 1'
_cell_length_a   8.07908200
_cell_length_b   9.02695000
_cell_length_c   12.45540900
_cell_angle_alpha   90.00000000
_cell_angle_beta   90.00000000
_cell_angle_gamma   90.00000000
_symmetry_Int_Tables_number   1
_chemical_formula_structural   Dy4YBi2Pt
_chemical_formula_sum   'Dy16 Y4 Bi8 Pt4'
_cell_volume   908.36636778
_cell_formula_units_Z   4
loop_
 _symmetry_equiv_pos_site_id
 _symmetry_equiv_pos_as_xyz
  1  'x, y, z'
loop_
 _atom_site_type_symbol
 _atom_site_label
 _atom_site_symmetry_multiplicity
 _atom_site_fract_x
 _atom_site_fract_y
 _atom_site_fract_z
 _atom_site_occupancy
  Dy  Dy0  1  0.371542  0.750000  0.697182  1
  Dy  Dy1  1  0.628458  0.250000  0.302818  1
  Dy  Dy2  1  0.871542  0.250000  0.802818  1
  Dy  Dy3  1  0.128458  0.750000  0.197182  1
  Dy  Dy4  1  0.949901  0.750000  0.500005  1
  Dy  Dy5  1  0.050099  0.250000  0.499995  1
  Dy  Dy6  1  0.449901  0.250000  0.999995  1
  Dy  Dy7  1  0.550099  0.750000  0.000005  1
  Dy  Dy8  1  0.679211  0.045745  0.566714  1
  Dy  Dy9  1  0.320789  0.954255  0.433286  1
  Dy  Dy10  1  0.179211  0.954255  0.933286  1
  Dy  Dy11  1  0.320789  0.545745  0.433286  1
  Dy  Dy12  1  0.820789  0.045745  0.066714  1
  Dy  Dy13  1  0.679211  0.454255  0.566714  1
  Dy  Dy14  1  0.820789  0.454255  0.066714  1
  Dy  Dy15  1  0.179211  0.545745  0.933286  1
  Y  Y16  1  0.838212  0.750000  0.789858  1
  Y  Y17  1  0.161788  0.250000  0.210142  1
  Y  Y18  1  0.338212  0.250000  0.710142  1
  Y  Y19  1  0.661788  0.750000  0.289858  1
  Bi  Bi20  1  0.568806  0.491086  0.827402  1
  Bi  Bi21  1  0.431194  0.508914  0.172598  1
  Bi  Bi22  1  0.068806  0.508914  0.672598  1
  Bi  Bi23  1  0.431194  0.991086  0.172598  1
  Bi  Bi24  1  0.931194  0.491086  0.327402  1
  Bi  Bi25  1  0.568806  0.008914  0.827402  1
  Bi  Bi26  1  0.931194  0.008914  0.327402  1
  Bi  Bi27  1  0.068806  0.991086  0.672598  1
  Pt  Pt28  1  0.574791  0.750000  0.512153  1
  Pt  Pt29  1  0.425209  0.250000  0.487847  1
  Pt  Pt30  1  0.074791  0.250000  0.987847  1
  Pt  Pt31  1  0.925209  0.750000  0.012153  1
