# generated using pymatgen
data_Dy4Mg3CdPt4
_symmetry_space_group_name_H-M   'P 1'
_cell_length_a   4.18465100
_cell_length_b   7.12183783
_cell_length_c   8.68958256
_cell_angle_alpha   91.97107980
_cell_angle_beta   90.00000000
_cell_angle_gamma   90.00000000
_symmetry_Int_Tables_number   1
_chemical_formula_structural   Dy4Mg3CdPt4
_chemical_formula_sum   'Dy4 Mg3 Cd1 Pt4'
_cell_volume   258.81723667
_cell_formula_units_Z   1
loop_
 _symmetry_equiv_pos_site_id
 _symmetry_equiv_pos_as_xyz
  1  'x, y, z'
loop_
 _atom_site_type_symbol
 _atom_site_label
 _atom_site_symmetry_multiplicity
 _atom_site_fract_x
 _atom_site_fract_y
 _atom_site_fract_z
 _atom_site_occupancy
  Dy  Dy0  1  0.250000  0.042062  0.329027  1
  Dy  Dy1  1  0.250000  0.537240  0.179026  1
  Dy  Dy2  1  0.750000  0.964913  0.673843  1
  Dy  Dy3  1  0.750000  0.458313  0.820472  1
  Mg  Mg4  1  0.250000  0.133031  0.939772  1
  Mg  Mg5  1  0.250000  0.634403  0.558663  1
  Mg  Mg6  1  0.750000  0.863245  0.060586  1
  Cd  Cd7  1  0.750000  0.363599  0.438032  1
  Pt  Pt8  1  0.250000  0.244825  0.639327  1
  Pt  Pt9  1  0.250000  0.744175  0.874671  1
  Pt  Pt10  1  0.750000  0.761364  0.370192  1
  Pt  Pt11  1  0.750000  0.252829  0.116390  1
