# generated using pymatgen
data_Cs6CePrBr12
_symmetry_space_group_name_H-M   'P 1'
_cell_length_a   10.12331442
_cell_length_b   10.12003443
_cell_length_c   8.42817400
_cell_angle_alpha   90.00000000
_cell_angle_beta   90.00000000
_cell_angle_gamma   90.10710050
_symmetry_Int_Tables_number   1
_chemical_formula_structural   Cs6CePrBr12
_chemical_formula_sum   'Cs6 Ce1 Pr1 Br12'
_cell_volume   863.45050892
_cell_formula_units_Z   1
loop_
 _symmetry_equiv_pos_site_id
 _symmetry_equiv_pos_as_xyz
  1  'x, y, z'
loop_
 _atom_site_type_symbol
 _atom_site_label
 _atom_site_symmetry_multiplicity
 _atom_site_fract_x
 _atom_site_fract_y
 _atom_site_fract_z
 _atom_site_occupancy
  Cs  Cs0  1  0.000000  0.000000  0.500000  1
  Cs  Cs1  1  0.000000  0.000000  0.000000  1
  Cs  Cs2  1  0.234384  0.585807  0.500000  1
  Cs  Cs3  1  0.765616  0.414193  0.500000  1
  Cs  Cs4  1  0.414206  0.234402  0.000000  1
  Cs  Cs5  1  0.585794  0.765598  0.000000  1
  Ce  Ce6  1  0.000000  0.500000  0.000000  1
  Pr  Pr7  1  0.500000  0.000000  0.500000  1
  Br  Br8  1  0.697403  0.059987  0.745949  1
  Br  Br9  1  0.302597  0.940013  0.745949  1
  Br  Br10  1  0.940092  0.697218  0.245604  1
  Br  Br11  1  0.059908  0.302782  0.245604  1
  Br  Br12  1  0.302597  0.940013  0.254051  1
  Br  Br13  1  0.697403  0.059987  0.254051  1
  Br  Br14  1  0.059908  0.302782  0.754396  1
  Br  Br15  1  0.940092  0.697218  0.754396  1
  Br  Br16  1  0.570020  0.720697  0.500000  1
  Br  Br17  1  0.429980  0.279303  0.500000  1
  Br  Br18  1  0.278668  0.569855  0.000000  1
  Br  Br19  1  0.721332  0.430145  0.000000  1
