# generated using pymatgen
data_La8Si12Pd3Au
_symmetry_space_group_name_H-M   'P 1'
_cell_length_a   8.35267300
_cell_length_b   8.35267461
_cell_length_c   8.78088400
_cell_angle_alpha   90.00000000
_cell_angle_beta   90.00000000
_cell_angle_gamma   120.00000551
_symmetry_Int_Tables_number   1
_chemical_formula_structural   La8Si12Pd3Au
_chemical_formula_sum   'La8 Si12 Pd3 Au1'
_cell_volume   530.54214654
_cell_formula_units_Z   1
loop_
 _symmetry_equiv_pos_site_id
 _symmetry_equiv_pos_as_xyz
  1  'x, y, z'
loop_
 _atom_site_type_symbol
 _atom_site_label
 _atom_site_symmetry_multiplicity
 _atom_site_fract_x
 _atom_site_fract_y
 _atom_site_fract_z
 _atom_site_occupancy
  La  La0  1  0.498980  0.501020  0.747466  1
  La  La1  1  0.499274  0.500726  0.252428  1
  La  La2  1  0.002040  0.501020  0.747466  1
  La  La3  1  0.001452  0.500726  0.252428  1
  La  La4  1  0.498980  0.997960  0.747466  1
  La  La5  1  0.499274  0.998548  0.252428  1
  La  La6  1  0.000000  0.000000  0.748374  1
  La  La7  1  0.000000  0.000000  0.251741  1
  Si  Si8  1  0.838160  0.161840  0.999911  1
  Si  Si9  1  0.166654  0.833346  0.000163  1
  Si  Si10  1  0.323680  0.161840  0.999911  1
  Si  Si11  1  0.164994  0.835006  0.499408  1
  Si  Si12  1  0.666690  0.833346  0.000163  1
  Si  Si13  1  0.834670  0.165330  0.500592  1
  Si  Si14  1  0.838160  0.676320  0.999911  1
  Si  Si15  1  0.670013  0.835006  0.499408  1
  Si  Si16  1  0.166654  0.333310  0.000163  1
  Si  Si17  1  0.330660  0.165330  0.500592  1
  Si  Si18  1  0.164994  0.329987  0.499408  1
  Si  Si19  1  0.834670  0.669340  0.500592  1
  Pd  Pd20  1  0.333333  0.666667  0.000662  1
  Pd  Pd21  1  0.333333  0.666667  0.499164  1
  Pd  Pd22  1  0.666667  0.333333  0.500604  1
  Au  Au23  1  0.666667  0.333333  0.999553  1
