# generated using pymatgen
data_Ho7LuSe12
_symmetry_space_group_name_H-M   'P 1'
_cell_length_a   7.06415106
_cell_length_b   7.05160238
_cell_length_c   12.85345843
_cell_angle_alpha   100.67001539
_cell_angle_beta   100.71366021
_cell_angle_gamma   108.91926995
_symmetry_Int_Tables_number   1
_chemical_formula_structural   Ho7LuSe12
_chemical_formula_sum   'Ho7 Lu1 Se12'
_cell_volume   574.00751586
_cell_formula_units_Z   1
loop_
 _symmetry_equiv_pos_site_id
 _symmetry_equiv_pos_as_xyz
  1  'x, y, z'
loop_
 _atom_site_type_symbol
 _atom_site_label
 _atom_site_symmetry_multiplicity
 _atom_site_fract_x
 _atom_site_fract_y
 _atom_site_fract_z
 _atom_site_occupancy
  Ho  Ho0  1  0.622207  0.872201  0.244395  1
  Ho  Ho1  1  0.127500  0.377483  0.254978  1
  Ho  Ho2  1  0.208765  0.958758  0.417538  1
  Ho  Ho3  1  0.791177  0.041175  0.582334  1
  Ho  Ho4  1  0.872628  0.622641  0.745259  1
  Ho  Ho5  1  0.377924  0.127923  0.755853  1
  Ho  Ho6  1  0.959006  0.209007  0.918025  1
  Lu  Lu7  1  0.041436  0.791439  0.082856  1
  Se  Se8  1  0.805774  0.045786  0.087247  1
  Se  Se9  1  0.281572  0.541504  0.087237  1
  Se  Se10  1  0.365322  0.115455  0.248250  1
  Se  Se11  1  0.882821  0.632797  0.248241  1
  Se  Se12  1  0.951177  0.196680  0.412454  1
  Se  Se13  1  0.461306  0.715701  0.412438  1
  Se  Se14  1  0.538571  0.284112  0.587567  1
  Se  Se15  1  0.048989  0.803513  0.587550  1
  Se  Se16  1  0.118327  0.368060  0.750016  1
  Se  Se17  1  0.631681  0.881881  0.749965  1
  Se  Se18  1  0.718128  0.463847  0.913886  1
  Se  Se19  1  0.195689  0.950037  0.913911  1
