# generated using pymatgen
data_Zr2Ta2SiAs
_symmetry_space_group_name_H-M   'P 1'
_cell_length_a   3.64373700
_cell_length_b   7.03006600
_cell_length_c   8.54865800
_cell_angle_alpha   90.00000000
_cell_angle_beta   90.00000000
_cell_angle_gamma   90.00000000
_symmetry_Int_Tables_number   1
_chemical_formula_structural   Zr2Ta2SiAs
_chemical_formula_sum   'Zr4 Ta4 Si2 As2'
_cell_volume   218.97995787
_cell_formula_units_Z   2
loop_
 _symmetry_equiv_pos_site_id
 _symmetry_equiv_pos_as_xyz
  1  'x, y, z'
loop_
 _atom_site_type_symbol
 _atom_site_label
 _atom_site_symmetry_multiplicity
 _atom_site_fract_x
 _atom_site_fract_y
 _atom_site_fract_z
 _atom_site_occupancy
  Zr  Zr0  1  0.250000  0.544330  0.832242  1
  Zr  Zr1  1  0.750000  0.955670  0.332242  1
  Zr  Zr2  1  0.250000  0.033547  0.667931  1
  Zr  Zr3  1  0.750000  0.466453  0.167931  1
  Ta  Ta4  1  0.250000  0.133589  0.060463  1
  Ta  Ta5  1  0.750000  0.863986  0.940290  1
  Ta  Ta6  1  0.250000  0.636014  0.440290  1
  Ta  Ta7  1  0.750000  0.366411  0.560463  1
  Si  Si8  1  0.750000  0.740001  0.640855  1
  Si  Si9  1  0.250000  0.759999  0.140855  1
  As  As10  1  0.750000  0.244162  0.858218  1
  As  As11  1  0.250000  0.255838  0.358218  1
