# generated using pymatgen
data_Th3Ga2Pt3Au
_symmetry_space_group_name_H-M   'P 1'
_cell_length_a   7.41757121
_cell_length_b   7.41757040
_cell_length_c   4.02459400
_cell_angle_alpha   90.00000000
_cell_angle_beta   90.00000000
_cell_angle_gamma   117.39932827
_symmetry_Int_Tables_number   1
_chemical_formula_structural   Th3Ga2Pt3Au
_chemical_formula_sum   'Th3 Ga2 Pt3 Au1'
_cell_volume   196.59423691
_cell_formula_units_Z   1
loop_
 _symmetry_equiv_pos_site_id
 _symmetry_equiv_pos_as_xyz
  1  'x, y, z'
loop_
 _atom_site_type_symbol
 _atom_site_label
 _atom_site_symmetry_multiplicity
 _atom_site_fract_x
 _atom_site_fract_y
 _atom_site_fract_z
 _atom_site_occupancy
  Th  Th0  1  0.412961  0.412961  0.500000  1
  Th  Th1  1  0.596195  0.992841  0.500000  1
  Th  Th2  1  0.992841  0.596195  0.500000  1
  Ga  Ga3  1  0.247357  0.002188  0.000000  1
  Ga  Ga4  1  0.002188  0.247357  0.000000  1
  Pt  Pt5  1  0.663193  0.312229  0.000000  1
  Pt  Pt6  1  0.312229  0.663193  0.000000  1
  Pt  Pt7  1  0.030063  0.030063  0.500000  1
  Au  Au8  1  0.742973  0.742973  0.000000  1
