# generated using pymatgen
data_Er2LuSn3PtRh2
_symmetry_space_group_name_H-M   'P 1'
_cell_length_a   7.59968833
_cell_length_b   7.61096940
_cell_length_c   3.76994600
_cell_angle_alpha   90.00000000
_cell_angle_beta   90.00000000
_cell_angle_gamma   120.05818597
_symmetry_Int_Tables_number   1
_chemical_formula_structural   Er2LuSn3PtRh2
_chemical_formula_sum   'Er2 Lu1 Sn3 Pt1 Rh2'
_cell_volume   188.73245300
_cell_formula_units_Z   1
loop_
 _symmetry_equiv_pos_site_id
 _symmetry_equiv_pos_as_xyz
  1  'x, y, z'
loop_
 _atom_site_type_symbol
 _atom_site_label
 _atom_site_symmetry_multiplicity
 _atom_site_fract_x
 _atom_site_fract_y
 _atom_site_fract_z
 _atom_site_occupancy
  Er  Er0  1  0.402700  0.405842  0.500000  1
  Er  Er1  1  0.593947  0.997156  0.500000  1
  Lu  Lu2  1  0.003002  0.597872  0.500000  1
  Sn  Sn3  1  0.734505  0.738979  0.000000  1
  Sn  Sn4  1  0.261703  0.996612  0.000000  1
  Sn  Sn5  1  0.003760  0.264097  0.000000  1
  Pt  Pt6  1  0.670623  0.336232  0.000000  1
  Rh  Rh7  1  0.329803  0.665613  0.000000  1
  Rh  Rh8  1  0.999957  0.997597  0.500000  1
