# generated using pymatgen
data_Hf3NbSi4IrRh3
_symmetry_space_group_name_H-M   'P 1'
_cell_length_a   3.89877800
_cell_length_b   6.49507070
_cell_length_c   7.41972293
_cell_angle_alpha   90.21698657
_cell_angle_beta   90.00000000
_cell_angle_gamma   90.00000000
_symmetry_Int_Tables_number   1
_chemical_formula_structural   Hf3NbSi4IrRh3
_chemical_formula_sum   'Hf3 Nb1 Si4 Ir1 Rh3'
_cell_volume   187.88709982
_cell_formula_units_Z   1
loop_
 _symmetry_equiv_pos_site_id
 _symmetry_equiv_pos_as_xyz
  1  'x, y, z'
loop_
 _atom_site_type_symbol
 _atom_site_label
 _atom_site_symmetry_multiplicity
 _atom_site_fract_x
 _atom_site_fract_y
 _atom_site_fract_z
 _atom_site_occupancy
  Hf  Hf0  1  0.750000  0.479584  0.320736  1
  Hf  Hf1  1  0.250000  0.021641  0.814387  1
  Hf  Hf2  1  0.750000  0.974534  0.182845  1
  Nb  Nb3  1  0.250000  0.520966  0.678819  1
  Si  Si4  1  0.250000  0.272856  0.119159  1
  Si  Si5  1  0.250000  0.771090  0.387977  1
  Si  Si6  1  0.750000  0.718699  0.873321  1
  Si  Si7  1  0.750000  0.235976  0.620956  1
  Ir  Ir8  1  0.250000  0.652560  0.063399  1
  Rh  Rh9  1  0.250000  0.149193  0.434005  1
  Rh  Rh10  1  0.750000  0.855191  0.565273  1
  Rh  Rh11  1  0.750000  0.347712  0.939124  1
