# generated using pymatgen
data_Y4Al18CuIr3Rh2
_symmetry_space_group_name_H-M   'P 1'
_cell_length_a   7.57123057
_cell_length_b   7.57123183
_cell_length_c   9.46508045
_cell_angle_alpha   90.08476320
_cell_angle_beta   90.08476151
_cell_angle_gamma   119.70959362
_symmetry_Int_Tables_number   1
_chemical_formula_structural   Y4Al18CuIr3Rh2
_chemical_formula_sum   'Y4 Al18 Cu1 Ir3 Rh2'
_cell_volume   471.24801973
_cell_formula_units_Z   1
loop_
 _symmetry_equiv_pos_site_id
 _symmetry_equiv_pos_as_xyz
  1  'x, y, z'
loop_
 _atom_site_type_symbol
 _atom_site_label
 _atom_site_symmetry_multiplicity
 _atom_site_fract_x
 _atom_site_fract_y
 _atom_site_fract_z
 _atom_site_occupancy
  Y  Y0  1  0.995259  0.670885  0.250506  1
  Y  Y1  1  0.004741  0.329115  0.749494  1
  Y  Y2  1  0.670885  0.995259  0.250506  1
  Y  Y3  1  0.329115  0.004741  0.749494  1
  Al  Al4  1  0.128516  0.128516  0.250794  1
  Al  Al5  1  0.871484  0.871484  0.749206  1
  Al  Al6  1  0.000756  0.337714  0.076241  1
  Al  Al7  1  0.999244  0.662286  0.923759  1
  Al  Al8  1  0.999876  0.665937  0.573317  1
  Al  Al9  1  0.334063  0.000124  0.426683  1
  Al  Al10  1  0.000124  0.334063  0.426683  1
  Al  Al11  1  0.665937  0.999876  0.573317  1
  Al  Al12  1  0.662286  0.999244  0.923759  1
  Al  Al13  1  0.337714  0.000756  0.076241  1
  Al  Al14  1  0.333399  0.333399  0.551744  1
  Al  Al15  1  0.666601  0.666601  0.448256  1
  Al  Al16  1  0.663854  0.663854  0.054115  1
  Al  Al17  1  0.336146  0.336146  0.945885  1
  Al  Al18  1  0.338817  0.548247  0.249941  1
  Al  Al19  1  0.661183  0.451753  0.750059  1
  Al  Al20  1  0.548247  0.338817  0.249941  1
  Al  Al21  1  0.451753  0.661183  0.750059  1
  Cu  Cu22  1  0.000000  0.000000  0.000000  1
  Ir  Ir23  1  0.328232  0.671768  0.500000  1
  Ir  Ir24  1  0.671768  0.328232  0.500000  1
  Ir  Ir25  1  0.000000  0.000000  0.500000  1
  Rh  Rh26  1  0.671713  0.328287  0.000000  1
  Rh  Rh27  1  0.328287  0.671713  0.000000  1
