# generated using pymatgen
data_SrBi2IrO7
_symmetry_space_group_name_H-M   'P 1'
_cell_length_a   6.59842173
_cell_length_b   6.59842094
_cell_length_c   7.63728000
_cell_angle_alpha   90.00000000
_cell_angle_beta   90.00000000
_cell_angle_gamma   107.40667169
_symmetry_Int_Tables_number   1
_chemical_formula_structural   SrBi2IrO7
_chemical_formula_sum   'Sr2 Bi4 Ir2 O14'
_cell_volume   317.29316416
_cell_formula_units_Z   2
loop_
 _symmetry_equiv_pos_site_id
 _symmetry_equiv_pos_as_xyz
  1  'x, y, z'
loop_
 _atom_site_type_symbol
 _atom_site_label
 _atom_site_symmetry_multiplicity
 _atom_site_fract_x
 _atom_site_fract_y
 _atom_site_fract_z
 _atom_site_occupancy
  Sr  Sr0  1  0.000000  0.000000  0.500000  1
  Sr  Sr1  1  0.000000  0.000000  0.000000  1
  Bi  Bi2  1  0.501916  0.961403  0.750000  1
  Bi  Bi3  1  0.498084  0.038597  0.250000  1
  Bi  Bi4  1  0.961403  0.501916  0.750000  1
  Bi  Bi5  1  0.038597  0.498084  0.250000  1
  Ir  Ir6  1  0.500000  0.500000  0.500000  1
  Ir  Ir7  1  0.500000  0.500000  0.000000  1
  O  O8  1  0.577385  0.577385  0.750000  1
  O  O9  1  0.422615  0.422615  0.250000  1
  O  O10  1  0.843654  0.146706  0.750000  1
  O  O11  1  0.156346  0.853294  0.250000  1
  O  O12  1  0.146706  0.843654  0.750000  1
  O  O13  1  0.853294  0.156346  0.250000  1
  O  O14  1  0.448259  0.190204  0.972880  1
  O  O15  1  0.551741  0.809796  0.472880  1
  O  O16  1  0.190204  0.448259  0.972880  1
  O  O17  1  0.809796  0.551741  0.472880  1
  O  O18  1  0.448259  0.190204  0.527120  1
  O  O19  1  0.551741  0.809796  0.027120  1
  O  O20  1  0.809796  0.551741  0.027120  1
  O  O21  1  0.190204  0.448259  0.527120  1
