# generated using pymatgen
data_Y8HoLu3Ga20
_symmetry_space_group_name_H-M   'P 1'
_cell_length_a   6.10663960
_cell_length_b   9.62633100
_cell_length_c   11.55615317
_cell_angle_alpha   90.00000000
_cell_angle_beta   90.01539147
_cell_angle_gamma   90.00000000
_symmetry_Int_Tables_number   1
_chemical_formula_structural   Y8HoLu3Ga20
_chemical_formula_sum   'Y8 Ho1 Lu3 Ga20'
_cell_volume   679.32305538
_cell_formula_units_Z   1
loop_
 _symmetry_equiv_pos_site_id
 _symmetry_equiv_pos_as_xyz
  1  'x, y, z'
loop_
 _atom_site_type_symbol
 _atom_site_label
 _atom_site_symmetry_multiplicity
 _atom_site_fract_x
 _atom_site_fract_y
 _atom_site_fract_z
 _atom_site_occupancy
  Y  Y0  1  0.890947  0.509334  0.351323  1
  Y  Y1  1  0.609098  0.990803  0.850596  1
  Y  Y2  1  0.109650  0.010465  0.648590  1
  Y  Y3  1  0.389740  0.490362  0.148720  1
  Y  Y4  1  0.109650  0.489535  0.648590  1
  Y  Y5  1  0.389740  0.009638  0.148720  1
  Y  Y6  1  0.890947  0.990666  0.351323  1
  Y  Y7  1  0.609098  0.509197  0.850596  1
  Ho  Ho8  1  0.849135  0.750000  0.075245  1
  Lu  Lu9  1  0.651943  0.750000  0.574398  1
  Lu  Lu10  1  0.150826  0.250000  0.925047  1
  Lu  Lu11  1  0.348974  0.250000  0.425189  1
  Ga  Ga12  1  0.874665  0.054461  0.089416  1
  Ga  Ga13  1  0.624725  0.446981  0.589070  1
  Ga  Ga14  1  0.124065  0.551975  0.910049  1
  Ga  Ga15  1  0.375543  0.947844  0.411211  1
  Ga  Ga16  1  0.124065  0.948025  0.910049  1
  Ga  Ga17  1  0.375543  0.552156  0.411211  1
  Ga  Ga18  1  0.874665  0.445539  0.089416  1
  Ga  Ga19  1  0.624725  0.053019  0.589070  1
  Ga  Ga20  1  0.173791  0.750000  0.252898  1
  Ga  Ga21  1  0.329758  0.750000  0.750730  1
  Ga  Ga22  1  0.829721  0.250000  0.747926  1
  Ga  Ga23  1  0.670209  0.250000  0.248195  1
  Ga  Ga24  1  0.372784  0.750000  0.002753  1
  Ga  Ga25  1  0.125221  0.750000  0.504804  1
  Ga  Ga26  1  0.622286  0.250000  0.995944  1
  Ga  Ga27  1  0.875959  0.250000  0.496125  1
  Ga  Ga28  1  0.602098  0.750000  0.301600  1
  Ga  Ga29  1  0.899019  0.750000  0.798187  1
  Ga  Ga30  1  0.399011  0.250000  0.701332  1
  Ga  Ga31  1  0.102402  0.250000  0.201680  1
