# generated using pymatgen
data_Zn2BRh2
_symmetry_space_group_name_H-M   'P 1'
_cell_length_a   13.37603444
_cell_length_b   13.37603389
_cell_length_c   10.13628800
_cell_angle_alpha   90.00000000
_cell_angle_beta   90.00000000
_cell_angle_gamma   167.74623372
_symmetry_Int_Tables_number   1
_chemical_formula_structural   Zn2BRh2
_chemical_formula_sum   'Zn12 B6 Rh12'
_cell_volume   384.91498923
_cell_formula_units_Z   6
loop_
 _symmetry_equiv_pos_site_id
 _symmetry_equiv_pos_as_xyz
  1  'x, y, z'
loop_
 _atom_site_type_symbol
 _atom_site_label
 _atom_site_symmetry_multiplicity
 _atom_site_fract_x
 _atom_site_fract_y
 _atom_site_fract_z
 _atom_site_occupancy
  Zn  Zn0  1  0.088620  0.911380  0.118750  1
  Zn  Zn1  1  0.911380  0.088620  0.881250  1
  Zn  Zn2  1  0.911380  0.088620  0.618750  1
  Zn  Zn3  1  0.088620  0.911380  0.381250  1
  Zn  Zn4  1  0.238287  0.761713  0.610716  1
  Zn  Zn5  1  0.761713  0.238287  0.389284  1
  Zn  Zn6  1  0.000000  0.000000  0.000000  1
  Zn  Zn7  1  0.000000  0.000000  0.500000  1
  Zn  Zn8  1  0.819412  0.180588  0.750000  1
  Zn  Zn9  1  0.180588  0.819412  0.250000  1
  Zn  Zn10  1  0.238287  0.761713  0.889284  1
  Zn  Zn11  1  0.761713  0.238287  0.110716  1
  B  B12  1  0.138319  0.861681  0.606244  1
  B  B13  1  0.861681  0.138319  0.393756  1
  B  B14  1  0.861681  0.138319  0.106244  1
  B  B15  1  0.138319  0.861681  0.893756  1
  B  B16  1  0.959018  0.040982  0.250000  1
  B  B17  1  0.040982  0.959018  0.750000  1
  Rh  Rh18  1  0.331845  0.668155  0.527626  1
  Rh  Rh19  1  0.668155  0.331845  0.472374  1
  Rh  Rh20  1  0.668155  0.331845  0.027626  1
  Rh  Rh21  1  0.331845  0.668155  0.972374  1
  Rh  Rh22  1  0.518037  0.481963  0.250000  1
  Rh  Rh23  1  0.481963  0.518037  0.750000  1
  Rh  Rh24  1  0.329381  0.670619  0.250000  1
  Rh  Rh25  1  0.670619  0.329381  0.750000  1
  Rh  Rh26  1  0.575259  0.424741  0.609962  1
  Rh  Rh27  1  0.424741  0.575259  0.390038  1
  Rh  Rh28  1  0.424741  0.575259  0.109962  1
  Rh  Rh29  1  0.575259  0.424741  0.890038  1
