# generated using pymatgen
data_Tm12Fe2ReBi2
_symmetry_space_group_name_H-M   'P 1'
_cell_length_a   8.34453652
_cell_length_b   8.34453572
_cell_length_c   8.34453585
_cell_angle_alpha   108.40715789
_cell_angle_beta   108.40714772
_cell_angle_gamma   111.62098321
_symmetry_Int_Tables_number   1
_chemical_formula_structural   Tm12Fe2ReBi2
_chemical_formula_sum   'Tm12 Fe2 Re1 Bi2'
_cell_volume   446.81113076
_cell_formula_units_Z   1
loop_
 _symmetry_equiv_pos_site_id
 _symmetry_equiv_pos_as_xyz
  1  'x, y, z'
loop_
 _atom_site_type_symbol
 _atom_site_label
 _atom_site_symmetry_multiplicity
 _atom_site_fract_x
 _atom_site_fract_y
 _atom_site_fract_z
 _atom_site_occupancy
  Tm  Tm0  1  0.195205  0.428037  0.232831  1
  Tm  Tm1  1  0.804795  0.571963  0.767169  1
  Tm  Tm2  1  0.195205  0.962375  0.767169  1
  Tm  Tm3  1  0.962375  0.195205  0.767169  1
  Tm  Tm4  1  0.804795  0.037625  0.232831  1
  Tm  Tm5  1  0.037625  0.804795  0.232831  1
  Tm  Tm6  1  0.428037  0.195205  0.232831  1
  Tm  Tm7  1  0.571963  0.804795  0.767169  1
  Tm  Tm8  1  0.308385  0.308385  0.616770  1
  Tm  Tm9  1  0.691615  0.691615  0.383230  1
  Tm  Tm10  1  0.691615  0.308385  0.000000  1
  Tm  Tm11  1  0.308385  0.691615  0.000000  1
  Fe  Fe12  1  0.384296  0.384296  0.000000  1
  Fe  Fe13  1  0.615704  0.615704  0.000000  1
  Re  Re14  1  0.000000  0.000000  0.000000  1
  Bi  Bi15  1  0.000000  0.500000  0.500000  1
  Bi  Bi16  1  0.500000  0.000000  0.500000  1
