# generated using pymatgen
data_Tm7Zr12PaSi16
_symmetry_space_group_name_H-M   'P 1'
_cell_length_a   7.29921403
_cell_length_b   7.29777915
_cell_length_c   13.43441000
_cell_angle_alpha   90.00929573
_cell_angle_beta   89.94777672
_cell_angle_gamma   90.00676044
_symmetry_Int_Tables_number   1
_chemical_formula_structural   Tm7Zr12PaSi16
_chemical_formula_sum   'Tm7 Zr12 Pa1 Si16'
_cell_volume   715.62453815
_cell_formula_units_Z   1
loop_
 _symmetry_equiv_pos_site_id
 _symmetry_equiv_pos_as_xyz
  1  'x, y, z'
loop_
 _atom_site_type_symbol
 _atom_site_label
 _atom_site_symmetry_multiplicity
 _atom_site_fract_x
 _atom_site_fract_y
 _atom_site_fract_z
 _atom_site_occupancy
  Tm  Tm0  1  0.995101  0.346984  0.213572  1
  Tm  Tm1  1  0.004550  0.652536  0.713700  1
  Tm  Tm2  1  0.152780  0.495700  0.464547  1
  Tm  Tm3  1  0.503651  0.846685  0.035620  1
  Tm  Tm4  1  0.847187  0.503729  0.963331  1
  Tm  Tm5  1  0.495623  0.152061  0.535967  1
  Tm  Tm6  1  0.346993  0.995520  0.786186  1
  Zr  Zr7  1  0.175807  0.176074  0.999456  1
  Zr  Zr8  1  0.822872  0.825077  0.498813  1
  Zr  Zr9  1  0.326892  0.678442  0.250008  1
  Zr  Zr10  1  0.676699  0.323561  0.749822  1
  Zr  Zr11  1  0.147009  0.997811  0.375383  1
  Zr  Zr12  1  0.855477  0.003069  0.874880  1
  Zr  Zr13  1  0.501649  0.644463  0.625933  1
  Zr  Zr14  1  0.354648  0.497266  0.874376  1
  Zr  Zr15  1  0.496991  0.352537  0.125259  1
  Zr  Zr16  1  0.645870  0.502951  0.374832  1
  Zr  Zr17  1  0.998393  0.146010  0.625111  1
  Zr  Zr18  1  0.000420  0.854434  0.125047  1
  Pa  Pa19  1  0.651578  0.004814  0.287379  1
  Si  Si20  1  0.357935  0.294967  0.316920  1
  Si  Si21  1  0.642323  0.705146  0.817298  1
  Si  Si22  1  0.205847  0.858544  0.567545  1
  Si  Si23  1  0.141767  0.794105  0.932821  1
  Si  Si24  1  0.793897  0.141394  0.067766  1
  Si  Si25  1  0.858862  0.205264  0.433823  1
  Si  Si26  1  0.294545  0.358208  0.682885  1
  Si  Si27  1  0.704498  0.641966  0.182751  1
  Si  Si28  1  0.296708  0.050212  0.185443  1
  Si  Si29  1  0.702987  0.947870  0.687080  1
  Si  Si30  1  0.449066  0.797607  0.437824  1
  Si  Si31  1  0.202609  0.551800  0.062824  1
  Si  Si32  1  0.551437  0.202947  0.936440  1
  Si  Si33  1  0.797641  0.449543  0.563672  1
  Si  Si34  1  0.051371  0.297529  0.813038  1
  Si  Si35  1  0.948320  0.703178  0.312650  1
