# generated using pymatgen
data_Tb2SiP5Pd20Pb
_symmetry_space_group_name_H-M   'P 1'
_cell_length_a   8.71408613
_cell_length_b   8.69898486
_cell_length_c   8.69898437
_cell_angle_alpha   60.12540408
_cell_angle_beta   59.94255823
_cell_angle_gamma   59.94255907
_symmetry_Int_Tables_number   1
_chemical_formula_structural   Tb2SiP5Pd20Pb
_chemical_formula_sum   'Tb2 Si1 P5 Pd20 Pb1'
_cell_volume   466.31088711
_cell_formula_units_Z   1
loop_
 _symmetry_equiv_pos_site_id
 _symmetry_equiv_pos_as_xyz
  1  'x, y, z'
loop_
 _atom_site_type_symbol
 _atom_site_label
 _atom_site_symmetry_multiplicity
 _atom_site_fract_x
 _atom_site_fract_y
 _atom_site_fract_z
 _atom_site_occupancy
  Tb  Tb0  1  0.750505  0.749495  0.749495  1
  Tb  Tb1  1  0.999714  0.000286  0.000286  1
  Si  Si2  1  0.733538  0.266462  0.266462  1
  P  P3  1  0.263609  0.736391  0.736391  1
  P  P4  1  0.264498  0.735399  0.262703  1
  P  P5  1  0.737401  0.262703  0.735399  1
  P  P6  1  0.264498  0.262703  0.735399  1
  P  P7  1  0.737401  0.735399  0.262703  1
  Pd  Pd8  1  0.383248  0.384536  0.384536  1
  Pd  Pd9  1  0.614795  0.614961  0.614961  1
  Pd  Pd10  1  0.384795  0.384375  0.846035  1
  Pd  Pd11  1  0.384795  0.846035  0.384375  1
  Pd  Pd12  1  0.614413  0.616844  0.154332  1
  Pd  Pd13  1  0.614413  0.154332  0.616844  1
  Pd  Pd14  1  0.847680  0.384536  0.384536  1
  Pd  Pd15  1  0.155283  0.614961  0.614961  1
  Pd  Pd16  1  0.346617  0.997874  0.997874  1
  Pd  Pd17  1  0.657634  0.997874  0.997874  1
  Pd  Pd18  1  0.996102  0.348307  0.659489  1
  Pd  Pd19  1  0.996102  0.659489  0.348307  1
  Pd  Pd20  1  0.997411  0.348559  0.996578  1
  Pd  Pd21  1  0.657452  0.996578  0.348559  1
  Pd  Pd22  1  0.997896  0.656971  0.996538  1
  Pd  Pd23  1  0.348595  0.996538  0.656971  1
  Pd  Pd24  1  0.997411  0.996578  0.348559  1
  Pd  Pd25  1  0.997896  0.996538  0.656971  1
  Pd  Pd26  1  0.657452  0.348559  0.996578  1
  Pd  Pd27  1  0.348595  0.656971  0.996538  1
  Pb  Pb28  1  0.250255  0.249745  0.249745  1
