# generated using pymatgen
data_Hf2CoP2Ir
_symmetry_space_group_name_H-M   'P 1'
_cell_length_a   3.74032500
_cell_length_b   6.41216900
_cell_length_c   7.27856500
_cell_angle_alpha   90.00000000
_cell_angle_beta   90.00000000
_cell_angle_gamma   90.00000000
_symmetry_Int_Tables_number   1
_chemical_formula_structural   Hf2CoP2Ir
_chemical_formula_sum   'Hf4 Co2 P4 Ir2'
_cell_volume   174.56616253
_cell_formula_units_Z   2
loop_
 _symmetry_equiv_pos_site_id
 _symmetry_equiv_pos_as_xyz
  1  'x, y, z'
loop_
 _atom_site_type_symbol
 _atom_site_label
 _atom_site_symmetry_multiplicity
 _atom_site_fract_x
 _atom_site_fract_y
 _atom_site_fract_z
 _atom_site_occupancy
  Hf  Hf0  1  0.250000  0.024426  0.815289  1
  Hf  Hf1  1  0.250000  0.524426  0.684711  1
  Hf  Hf2  1  0.750000  0.974147  0.174502  1
  Hf  Hf3  1  0.750000  0.474147  0.325498  1
  Co  Co4  1  0.750000  0.854627  0.557840  1
  Co  Co5  1  0.750000  0.354627  0.942160  1
  P  P6  1  0.250000  0.765611  0.390900  1
  P  P7  1  0.250000  0.265611  0.109100  1
  P  P8  1  0.750000  0.238096  0.635119  1
  P  P9  1  0.750000  0.738096  0.864881  1
  Ir  Ir10  1  0.250000  0.143093  0.432937  1
  Ir  Ir11  1  0.250000  0.643093  0.067063  1
