# generated using pymatgen
data_LiLaCdAu4
_symmetry_space_group_name_H-M   'P 1'
_cell_length_a   5.80410793
_cell_length_b   5.80410831
_cell_length_c   5.80410700
_cell_angle_alpha   103.11684821
_cell_angle_beta   103.11682881
_cell_angle_gamma   123.10157983
_symmetry_Int_Tables_number   1
_chemical_formula_structural   LiLaCdAu4
_chemical_formula_sum   'Li1 La1 Cd1 Au4'
_cell_volume   144.01379145
_cell_formula_units_Z   1
loop_
 _symmetry_equiv_pos_site_id
 _symmetry_equiv_pos_as_xyz
  1  'x, y, z'
loop_
 _atom_site_type_symbol
 _atom_site_label
 _atom_site_symmetry_multiplicity
 _atom_site_fract_x
 _atom_site_fract_y
 _atom_site_fract_z
 _atom_site_occupancy
  Li  Li0  1  0.249988  0.749990  0.500002  1
  La  La1  1  0.000080  0.000045  0.999965  1
  Cd  Cd2  1  0.749988  0.249985  0.499997  1
  Au  Au3  1  0.301909  0.301914  0.603848  1
  Au  Au4  1  0.698065  0.698076  0.396172  1
  Au  Au5  1  0.698063  0.301914  0.000005  1
  Au  Au6  1  0.301907  0.698076  0.000011  1
