# generated using pymatgen
data_Tm9Lu11Bi11Sb
_symmetry_space_group_name_H-M   'P 1'
_cell_length_a   8.12323255
_cell_length_b   9.37753908
_cell_length_c   11.83111736
_cell_angle_alpha   89.99106596
_cell_angle_beta   89.99318030
_cell_angle_gamma   90.01166458
_symmetry_Int_Tables_number   1
_chemical_formula_structural   Tm9Lu11Bi11Sb
_chemical_formula_sum   'Tm9 Lu11 Bi11 Sb1'
_cell_volume   901.24634001
_cell_formula_units_Z   1
loop_
 _symmetry_equiv_pos_site_id
 _symmetry_equiv_pos_as_xyz
  1  'x, y, z'
loop_
 _atom_site_type_symbol
 _atom_site_label
 _atom_site_symmetry_multiplicity
 _atom_site_fract_x
 _atom_site_fract_y
 _atom_site_fract_z
 _atom_site_occupancy
  Tm  Tm0  1  0.355619  0.250108  0.285853  1
  Tm  Tm1  1  0.645651  0.750205  0.717354  1
  Tm  Tm2  1  0.145145  0.750210  0.782016  1
  Tm  Tm3  1  0.854717  0.250004  0.217708  1
  Tm  Tm4  1  0.189414  0.249994  0.780250  1
  Tm  Tm5  1  0.812193  0.750049  0.217577  1
  Tm  Tm6  1  0.312653  0.750084  0.282397  1
  Tm  Tm7  1  0.682568  0.249996  0.714638  1
  Tm  Tm8  1  0.308170  0.562015  0.559345  1
  Lu  Lu9  1  0.027793  0.249974  0.511243  1
  Lu  Lu10  1  0.976555  0.750134  0.489311  1
  Lu  Lu11  1  0.475600  0.749991  0.011276  1
  Lu  Lu12  1  0.524897  0.250074  0.988635  1
  Lu  Lu13  1  0.193490  0.066655  0.060001  1
  Lu  Lu14  1  0.806648  0.933723  0.940375  1
  Lu  Lu15  1  0.308170  0.937594  0.559373  1
  Lu  Lu16  1  0.806659  0.566287  0.940363  1
  Lu  Lu17  1  0.690519  0.068619  0.442009  1
  Lu  Lu18  1  0.193436  0.433323  0.059969  1
  Lu  Lu19  1  0.690386  0.431270  0.441981  1
  Bi  Bi20  1  0.595637  0.750192  0.457253  1
  Bi  Bi21  1  0.094855  0.749928  0.042498  1
  Bi  Bi22  1  0.905933  0.249992  0.956507  1
  Bi  Bi23  1  0.066179  0.003676  0.326056  1
  Bi  Bi24  1  0.932950  0.996904  0.674058  1
  Bi  Bi25  1  0.433351  0.996086  0.826114  1
  Bi  Bi26  1  0.932903  0.503232  0.674076  1
  Bi  Bi27  1  0.566644  0.004144  0.174188  1
  Bi  Bi28  1  0.066335  0.496485  0.326029  1
  Bi  Bi29  1  0.566688  0.495921  0.174112  1
  Bi  Bi30  1  0.433441  0.504009  0.826159  1
  Sb  Sb31  1  0.404804  0.249122  0.541279  1
