# generated using pymatgen
data_Sc4Zn(SiIr)6
_symmetry_space_group_name_H-M   'P 1'
_cell_length_a   6.98504744
_cell_length_b   6.98504667
_cell_length_c   6.98504775
_cell_angle_alpha   109.63297500
_cell_angle_beta   109.63297302
_cell_angle_gamma   109.14819765
_symmetry_Int_Tables_number   1
_chemical_formula_structural   Sc4Zn(SiIr)6
_chemical_formula_sum   'Sc4 Zn1 Si6 Ir6'
_cell_volume   262.34682074
_cell_formula_units_Z   1
loop_
 _symmetry_equiv_pos_site_id
 _symmetry_equiv_pos_as_xyz
  1  'x, y, z'
loop_
 _atom_site_type_symbol
 _atom_site_label
 _atom_site_symmetry_multiplicity
 _atom_site_fract_x
 _atom_site_fract_y
 _atom_site_fract_z
 _atom_site_occupancy
  Sc  Sc0  1  0.003434  0.996566  0.500000  1
  Sc  Sc1  1  0.003434  0.503434  0.006868  1
  Sc  Sc2  1  0.496566  0.996566  0.993132  1
  Sc  Sc3  1  0.496566  0.503434  0.500000  1
  Zn  Zn4  1  0.750000  0.250000  0.500000  1
  Si  Si5  1  0.679785  0.679785  0.000000  1
  Si  Si6  1  0.303666  0.991366  0.312300  1
  Si  Si7  1  0.008634  0.320935  0.312300  1
  Si  Si8  1  0.320215  0.320215  0.000000  1
  Si  Si9  1  0.679065  0.991366  0.687700  1
  Si  Si10  1  0.008634  0.696334  0.687700  1
  Ir  Ir11  1  0.746859  0.491211  0.255648  1
  Ir  Ir12  1  0.508789  0.253141  0.744352  1
  Ir  Ir13  1  0.235563  0.491211  0.744352  1
  Ir  Ir14  1  0.250000  0.750000  0.500000  1
  Ir  Ir15  1  0.508789  0.764437  0.255648  1
  Ir  Ir16  1  0.000000  0.000000  0.000000  1
