# generated using pymatgen
data_Na3(CoAs)4
_symmetry_space_group_name_H-M   'P 1'
_cell_length_a   6.22913003
_cell_length_b   6.22913028
_cell_length_c   6.22913100
_cell_angle_alpha   109.47122298
_cell_angle_beta   109.47122379
_cell_angle_gamma   109.47122587
_symmetry_Int_Tables_number   1
_chemical_formula_structural   Na3(CoAs)4
_chemical_formula_sum   'Na3 Co4 As4'
_cell_volume   186.06313180
_cell_formula_units_Z   1
loop_
 _symmetry_equiv_pos_site_id
 _symmetry_equiv_pos_as_xyz
  1  'x, y, z'
loop_
 _atom_site_type_symbol
 _atom_site_label
 _atom_site_symmetry_multiplicity
 _atom_site_fract_x
 _atom_site_fract_y
 _atom_site_fract_z
 _atom_site_occupancy
  Na  Na0  1  0.500000  0.500000  0.000000  1
  Na  Na1  1  0.500000  0.000000  0.500000  1
  Na  Na2  1  0.000000  0.500000  0.500000  1
  Co  Co3  1  0.260253  0.000000  0.000000  1
  Co  Co4  1  0.000000  0.260253  0.000000  1
  Co  Co5  1  0.000000  0.000000  0.260253  1
  Co  Co6  1  0.739747  0.739747  0.739747  1
  As  As7  1  0.625093  0.000000  0.000000  1
  As  As8  1  0.000000  0.625093  0.000000  1
  As  As9  1  0.374908  0.374908  0.374908  1
  As  As10  1  0.000000  0.000000  0.625093  1
