# generated using pymatgen
data_TmLu9(Bi3C)2
_symmetry_space_group_name_H-M   'P 1'
_cell_length_a   9.01601600
_cell_length_b   9.01601609
_cell_length_c   6.35183200
_cell_angle_alpha   90.00000000
_cell_angle_beta   90.00000000
_cell_angle_gamma   119.99999967
_symmetry_Int_Tables_number   1
_chemical_formula_structural   TmLu9(Bi3C)2
_chemical_formula_sum   'Tm1 Lu9 Bi6 C2'
_cell_volume   447.15592305
_cell_formula_units_Z   1
loop_
 _symmetry_equiv_pos_site_id
 _symmetry_equiv_pos_as_xyz
  1  'x, y, z'
loop_
 _atom_site_type_symbol
 _atom_site_label
 _atom_site_symmetry_multiplicity
 _atom_site_fract_x
 _atom_site_fract_y
 _atom_site_fract_z
 _atom_site_occupancy
  Tm  Tm0  1  0.666667  0.333333  0.500000  1
  Lu  Lu1  1  0.333333  0.666667  0.500000  1
  Lu  Lu2  1  0.333333  0.666667  0.000000  1
  Lu  Lu3  1  0.666667  0.333333  0.000000  1
  Lu  Lu4  1  0.795821  0.795821  0.250000  1
  Lu  Lu5  1  0.204179  0.000000  0.250000  1
  Lu  Lu6  1  0.000000  0.204179  0.250000  1
  Lu  Lu7  1  0.204179  0.204179  0.750000  1
  Lu  Lu8  1  0.795821  0.000000  0.750000  1
  Lu  Lu9  1  0.000000  0.795821  0.750000  1
  Bi  Bi10  1  0.400043  0.400043  0.250000  1
  Bi  Bi11  1  0.599957  0.000000  0.250000  1
  Bi  Bi12  1  0.000000  0.599957  0.250000  1
  Bi  Bi13  1  0.599957  0.599957  0.750000  1
  Bi  Bi14  1  0.400043  0.000000  0.750000  1
  Bi  Bi15  1  0.000000  0.400043  0.750000  1
  C  C16  1  0.000000  0.000000  0.500000  1
  C  C17  1  0.000000  0.000000  0.000000  1
