# generated using pymatgen
data_DyTm7Re(B8Ir)3
_symmetry_space_group_name_H-M   'P 1'
_cell_length_a   3.62994800
_cell_length_b   9.11808379
_cell_length_c   11.45130704
_cell_angle_alpha   90.14850158
_cell_angle_beta   90.00000000
_cell_angle_gamma   90.00000000
_symmetry_Int_Tables_number   1
_chemical_formula_structural   DyTm7Re(B8Ir)3
_chemical_formula_sum   'Dy1 Tm7 Re1 B24 Ir3'
_cell_volume   379.01603401
_cell_formula_units_Z   1
loop_
 _symmetry_equiv_pos_site_id
 _symmetry_equiv_pos_as_xyz
  1  'x, y, z'
loop_
 _atom_site_type_symbol
 _atom_site_label
 _atom_site_symmetry_multiplicity
 _atom_site_fract_x
 _atom_site_fract_y
 _atom_site_fract_z
 _atom_site_occupancy
  Dy  Dy0  1  0.000000  0.320591  0.413759  1
  Tm  Tm1  1  0.000000  0.683975  0.590680  1
  Tm  Tm2  1  0.000000  0.820122  0.082338  1
  Tm  Tm3  1  0.000000  0.176163  0.912279  1
  Tm  Tm4  1  0.000000  0.943500  0.373237  1
  Tm  Tm5  1  0.000000  0.053485  0.626514  1
  Tm  Tm6  1  0.000000  0.443622  0.125879  1
  Tm  Tm7  1  0.000000  0.557333  0.874966  1
  Re  Re8  1  0.000000  0.862430  0.821619  1
  B  B9  1  0.500000  0.554237  0.434608  1
  B  B10  1  0.500000  0.448029  0.566778  1
  B  B11  1  0.500000  0.053348  0.065882  1
  B  B12  1  0.500000  0.946906  0.933629  1
  B  B13  1  0.500000  0.750622  0.420958  1
  B  B14  1  0.500000  0.249875  0.579533  1
  B  B15  1  0.500000  0.249266  0.078511  1
  B  B16  1  0.500000  0.751515  0.920189  1
  B  B17  1  0.500000  0.792694  0.264440  1
  B  B18  1  0.500000  0.207269  0.734130  1
  B  B19  1  0.500000  0.293188  0.234732  1
  B  B20  1  0.500000  0.707551  0.765830  1
  B  B21  1  0.500000  0.631201  0.183808  1
  B  B22  1  0.500000  0.368329  0.816255  1
  B  B23  1  0.500000  0.131325  0.315585  1
  B  B24  1  0.500000  0.868975  0.685118  1
  B  B25  1  0.500000  0.980870  0.212847  1
  B  B26  1  0.500000  0.017929  0.786625  1
  B  B27  1  0.500000  0.481361  0.286906  1
  B  B28  1  0.500000  0.518790  0.714159  1
  B  B29  1  0.500000  0.607443  0.030705  1
  B  B30  1  0.500000  0.390230  0.970352  1
  B  B31  1  0.500000  0.107611  0.469968  1
  B  B32  1  0.500000  0.892310  0.528519  1
  Ir  Ir33  1  0.000000  0.638045  0.321986  1
  Ir  Ir34  1  0.000000  0.362791  0.678581  1
  Ir  Ir35  1  0.000000  0.137069  0.178095  1
