# generated using pymatgen
data_Tb9TmSi5Sn
_symmetry_space_group_name_H-M   'P 1'
_cell_length_a   8.55067016
_cell_length_b   8.57664780
_cell_length_c   6.41767222
_cell_angle_alpha   90.02762544
_cell_angle_beta   89.99579185
_cell_angle_gamma   119.87775637
_symmetry_Int_Tables_number   1
_chemical_formula_structural   Tb9TmSi5Sn
_chemical_formula_sum   'Tb9 Tm1 Si5 Sn1'
_cell_volume   408.09331968
_cell_formula_units_Z   1
loop_
 _symmetry_equiv_pos_site_id
 _symmetry_equiv_pos_as_xyz
  1  'x, y, z'
loop_
 _atom_site_type_symbol
 _atom_site_label
 _atom_site_symmetry_multiplicity
 _atom_site_fract_x
 _atom_site_fract_y
 _atom_site_fract_z
 _atom_site_occupancy
  Tb  Tb0  1  0.989710  0.748081  0.749552  1
  Tb  Tb1  1  0.999161  0.243705  0.250710  1
  Tb  Tb2  1  0.755090  0.756735  0.250594  1
  Tb  Tb3  1  0.764281  0.999681  0.749449  1
  Tb  Tb4  1  0.241373  0.252164  0.749293  1
  Tb  Tb5  1  0.242015  0.999680  0.250521  1
  Tb  Tb6  1  0.673464  0.342093  0.003113  1
  Tb  Tb7  1  0.673513  0.342021  0.496873  1
  Tb  Tb8  1  0.331518  0.658009  0.003109  1
  Tm  Tm9  1  0.331429  0.657792  0.497002  1
  Si  Si10  1  0.392876  0.392951  0.251712  1
  Si  Si11  1  0.002861  0.608409  0.251458  1
  Si  Si12  1  0.999920  0.395116  0.748470  1
  Si  Si13  1  0.603403  0.606242  0.748442  1
  Si  Si14  1  0.604903  0.998704  0.251295  1
  Sn  Sn15  1  0.394482  0.998617  0.748408  1
