# generated using pymatgen
data_FeI15
_symmetry_space_group_name_H-M   'P 1'
_cell_length_a   7.67103781
_cell_length_b   12.25642759
_cell_length_c   13.14010905
_cell_angle_alpha   56.13051104
_cell_angle_beta   90.01736411
_cell_angle_gamma   96.44064336
_symmetry_Int_Tables_number   1
_chemical_formula_structural   FeI15
_chemical_formula_sum   'Fe1 I15'
_cell_volume   1016.41025552
_cell_formula_units_Z   1
loop_
 _symmetry_equiv_pos_site_id
 _symmetry_equiv_pos_as_xyz
  1  'x, y, z'
loop_
 _atom_site_type_symbol
 _atom_site_label
 _atom_site_symmetry_multiplicity
 _atom_site_fract_x
 _atom_site_fract_y
 _atom_site_fract_z
 _atom_site_occupancy
  Fe  Fe0  1  0.513515  0.164410  0.486505  1
  I  I1  1  0.863656  0.201836  0.989972  1
  I  I2  1  0.540887  0.812079  0.477777  1
  I  I3  1  0.032936  0.711286  0.050931  1
  I  I4  1  0.813028  0.417275  0.743021  1
  I  I5  1  0.388251  0.601069  0.760921  1
  I  I6  1  0.285605  0.760179  0.216536  1
  I  I7  1  0.603035  0.384006  0.290678  1
  I  I8  1  0.259958  0.414527  0.999935  1
  I  I9  1  0.776790  0.637107  0.484168  1
  I  I10  1  0.788236  0.653104  0.922159  1
  I  I11  1  0.315793  0.225882  0.606954  1
  I  I12  1  0.565898  0.987534  0.084820  1
  I  I13  1  0.306577  0.008051  0.444861  1
  I  I14  1  0.189583  0.972706  0.830176  1
  I  I15  1  0.756252  0.048951  0.610586  1
