# generated using pymatgen
data_Ho2TmGa2Ag3Ge
_symmetry_space_group_name_H-M   'P 1'
_cell_length_a   7.20954626
_cell_length_b   7.21534484
_cell_length_c   4.13248200
_cell_angle_alpha   90.00000000
_cell_angle_beta   90.00000000
_cell_angle_gamma   120.04110319
_symmetry_Int_Tables_number   1
_chemical_formula_structural   Ho2TmGa2Ag3Ge
_chemical_formula_sum   'Ho2 Tm1 Ga2 Ag3 Ge1'
_cell_volume   186.09152748
_cell_formula_units_Z   1
loop_
 _symmetry_equiv_pos_site_id
 _symmetry_equiv_pos_as_xyz
  1  'x, y, z'
loop_
 _atom_site_type_symbol
 _atom_site_label
 _atom_site_symmetry_multiplicity
 _atom_site_fract_x
 _atom_site_fract_y
 _atom_site_fract_z
 _atom_site_occupancy
  Ho  Ho0  1  0.417176  0.420148  0.500000  1
  Ho  Ho1  1  0.579954  0.997286  0.500000  1
  Tm  Tm2  1  0.002840  0.582903  0.500000  1
  Ga  Ga3  1  0.667411  0.333792  0.000000  1
  Ga  Ga4  1  0.999992  0.999361  0.500000  1
  Ag  Ag5  1  0.752967  0.749471  0.000000  1
  Ag  Ag6  1  0.250352  0.002874  0.000000  1
  Ag  Ag7  1  0.996873  0.247797  0.000000  1
  Ge  Ge8  1  0.332434  0.666368  0.000000  1
