# generated using pymatgen
data_NaSm(TlBr3)2
_symmetry_space_group_name_H-M   'P 1'
_cell_length_a   7.79940486
_cell_length_b   8.38239300
_cell_length_c   13.74361100
_cell_angle_alpha   90.00000000
_cell_angle_beta   123.81147793
_cell_angle_gamma   90.00000000
_symmetry_Int_Tables_number   1
_chemical_formula_structural   NaSm(TlBr3)2
_chemical_formula_sum   'Na2 Sm2 Tl4 Br12'
_cell_volume   746.56046856
_cell_formula_units_Z   2
loop_
 _symmetry_equiv_pos_site_id
 _symmetry_equiv_pos_as_xyz
  1  'x, y, z'
loop_
 _atom_site_type_symbol
 _atom_site_label
 _atom_site_symmetry_multiplicity
 _atom_site_fract_x
 _atom_site_fract_y
 _atom_site_fract_z
 _atom_site_occupancy
  Na  Na0  1  0.500000  0.500001  0.000000  1
  Na  Na1  1  0.499999  0.000000  0.500000  1
  Sm  Sm2  1  0.000000  0.000000  0.000000  1
  Sm  Sm3  1  0.000000  0.500001  0.500000  1
  Tl  Tl4  1  0.272927  0.418306  0.251522  1
  Tl  Tl5  1  0.727073  0.918307  0.248479  1
  Tl  Tl6  1  0.272926  0.081694  0.751521  1
  Tl  Tl7  1  0.727073  0.581693  0.748479  1
  Br  Br8  1  0.229800  0.707625  0.050075  1
  Br  Br9  1  0.354996  0.181688  0.052131  1
  Br  Br10  1  0.141804  0.029482  0.242886  1
  Br  Br11  1  0.858196  0.529482  0.257114  1
  Br  Br12  1  0.645006  0.681689  0.447869  1
  Br  Br13  1  0.770199  0.207624  0.449925  1
  Br  Br14  1  0.229802  0.792376  0.550075  1
  Br  Br15  1  0.354995  0.318312  0.552131  1
  Br  Br16  1  0.141804  0.470519  0.742886  1
  Br  Br17  1  0.858197  0.970518  0.757114  1
  Br  Br18  1  0.645005  0.818312  0.947869  1
  Br  Br19  1  0.770199  0.292375  0.949925  1
