# generated using pymatgen
data_Hf3NpCN3
_symmetry_space_group_name_H-M   'P 1'
_cell_length_a   11.01827845
_cell_length_b   11.01827856
_cell_length_c   11.01827954
_cell_angle_alpha   17.01872678
_cell_angle_beta   17.01872310
_cell_angle_gamma   17.01871219
_symmetry_Int_Tables_number   1
_chemical_formula_structural   Hf3NpCN3
_chemical_formula_sum   'Hf3 Np1 C1 N3'
_cell_volume   99.96576051
_cell_formula_units_Z   1
loop_
 _symmetry_equiv_pos_site_id
 _symmetry_equiv_pos_as_xyz
  1  'x, y, z'
loop_
 _atom_site_type_symbol
 _atom_site_label
 _atom_site_symmetry_multiplicity
 _atom_site_fract_x
 _atom_site_fract_y
 _atom_site_fract_z
 _atom_site_occupancy
  Hf  Hf0  1  0.124048  0.124048  0.124048  1
  Hf  Hf1  1  0.374250  0.374250  0.374250  1
  Hf  Hf2  1  0.627234  0.627234  0.627234  1
  Np  Np3  1  0.874767  0.874767  0.874767  1
  C  C4  1  0.002060  0.002060  0.002060  1
  N  N5  1  0.254723  0.254723  0.254723  1
  N  N6  1  0.493423  0.493423  0.493423  1
  N  N7  1  0.749496  0.749496  0.749496  1
