# generated using pymatgen
data_Nd5Dy11(CdIr)4
_symmetry_space_group_name_H-M   'P 1'
_cell_length_a   9.73655974
_cell_length_b   9.73171798
_cell_length_c   9.73171761
_cell_angle_alpha   59.96644069
_cell_angle_beta   59.98353829
_cell_angle_gamma   59.98354324
_symmetry_Int_Tables_number   1
_chemical_formula_structural   Nd5Dy11(CdIr)4
_chemical_formula_sum   'Nd5 Dy11 Cd4 Ir4'
_cell_volume   651.70528855
_cell_formula_units_Z   1
loop_
 _symmetry_equiv_pos_site_id
 _symmetry_equiv_pos_as_xyz
  1  'x, y, z'
loop_
 _atom_site_type_symbol
 _atom_site_label
 _atom_site_symmetry_multiplicity
 _atom_site_fract_x
 _atom_site_fract_y
 _atom_site_fract_z
 _atom_site_occupancy
  Nd  Nd0  1  0.558386  0.941614  0.941614  1
  Nd  Nd1  1  0.561942  0.938746  0.558740  1
  Nd  Nd2  1  0.940572  0.558740  0.938746  1
  Nd  Nd3  1  0.561942  0.558740  0.938746  1
  Nd  Nd4  1  0.940572  0.938746  0.558740  1
  Dy  Dy5  1  0.347424  0.348408  0.348408  1
  Dy  Dy6  1  0.346748  0.350091  0.956413  1
  Dy  Dy7  1  0.346748  0.956413  0.350091  1
  Dy  Dy8  1  0.955760  0.348408  0.348408  1
  Dy  Dy9  1  0.812126  0.187874  0.187874  1
  Dy  Dy10  1  0.187635  0.812365  0.812365  1
  Dy  Dy11  1  0.188333  0.811034  0.188373  1
  Dy  Dy12  1  0.812260  0.188373  0.811034  1
  Dy  Dy13  1  0.188333  0.188373  0.811034  1
  Dy  Dy14  1  0.812260  0.811034  0.188373  1
  Dy  Dy15  1  0.942675  0.557325  0.557325  1
  Cd  Cd16  1  0.581979  0.579199  0.579199  1
  Cd  Cd17  1  0.579725  0.579785  0.260763  1
  Cd  Cd18  1  0.579725  0.260763  0.579785  1
  Cd  Cd19  1  0.259622  0.579199  0.579199  1
  Ir  Ir20  1  0.140964  0.141786  0.141786  1
  Ir  Ir21  1  0.139401  0.145303  0.575894  1
  Ir  Ir22  1  0.139401  0.575894  0.145303  1
  Ir  Ir23  1  0.575462  0.141786  0.141786  1
