# generated using pymatgen
data_La4TbSn3
_symmetry_space_group_name_H-M   'P 1'
_cell_length_a   9.50224442
_cell_length_b   9.50224408
_cell_length_c   9.50224444
_cell_angle_alpha   96.20539494
_cell_angle_beta   96.20539845
_cell_angle_gamma   141.61111976
_symmetry_Int_Tables_number   1
_chemical_formula_structural   La4TbSn3
_chemical_formula_sum   'La8 Tb2 Sn6'
_cell_volume   503.18413606
_cell_formula_units_Z   2
loop_
 _symmetry_equiv_pos_site_id
 _symmetry_equiv_pos_as_xyz
  1  'x, y, z'
loop_
 _atom_site_type_symbol
 _atom_site_label
 _atom_site_symmetry_multiplicity
 _atom_site_fract_x
 _atom_site_fract_y
 _atom_site_fract_z
 _atom_site_occupancy
  La  La0  1  0.912149  0.221925  0.134074  1
  La  La1  1  0.221925  0.087851  0.309777  1
  La  La2  1  0.778075  0.912149  0.690223  1
  La  La3  1  0.087851  0.778075  0.865926  1
  La  La4  1  0.721925  0.412149  0.134074  1
  La  La5  1  0.278075  0.587851  0.865926  1
  La  La6  1  0.587851  0.721925  0.309777  1
  La  La7  1  0.412149  0.278075  0.690223  1
  Tb  Tb8  1  0.750000  0.250000  0.500000  1
  Tb  Tb9  1  0.250000  0.750000  0.500000  1
  Sn  Sn10  1  0.750000  0.750000  0.000000  1
  Sn  Sn11  1  0.250000  0.250000  0.000000  1
  Sn  Sn12  1  0.844078  0.655922  0.500000  1
  Sn  Sn13  1  0.655922  0.155922  0.811844  1
  Sn  Sn14  1  0.344078  0.844078  0.188156  1
  Sn  Sn15  1  0.155922  0.344078  0.500000  1
