# generated using pymatgen
data_Ni8Mo3W9N4
_symmetry_space_group_name_H-M   'P 1'
_cell_length_a   6.67697514
_cell_length_b   6.67697514
_cell_length_c   6.67755403
_cell_angle_alpha   90.00754172
_cell_angle_beta   90.00754172
_cell_angle_gamma   90.02244791
_symmetry_Int_Tables_number   1
_chemical_formula_structural   Ni8Mo3W9N4
_chemical_formula_sum   'Ni8 Mo3 W9 N4'
_cell_volume   297.69866604
_cell_formula_units_Z   1
loop_
 _symmetry_equiv_pos_site_id
 _symmetry_equiv_pos_as_xyz
  1  'x, y, z'
loop_
 _atom_site_type_symbol
 _atom_site_label
 _atom_site_symmetry_multiplicity
 _atom_site_fract_x
 _atom_site_fract_y
 _atom_site_fract_z
 _atom_site_occupancy
  Ni  Ni0  1  0.065870  0.065263  0.065649  1
  Ni  Ni1  1  0.434203  0.934463  0.565088  1
  Ni  Ni2  1  0.566778  0.434496  0.934489  1
  Ni  Ni3  1  0.933119  0.566057  0.434335  1
  Ni  Ni4  1  0.684738  0.684131  0.684352  1
  Ni  Ni5  1  0.815537  0.315796  0.184912  1
  Ni  Ni6  1  0.315503  0.183222  0.815511  1
  Ni  Ni7  1  0.183943  0.816881  0.315664  1
  Mo  Mo8  1  0.201231  0.451456  0.124998  1
  Mo  Mo9  1  0.298545  0.548771  0.625004  1
  Mo  Mo10  1  0.701248  0.048752  0.875000  1
  W  W11  1  0.798931  0.951068  0.375000  1
  W  W12  1  0.125649  0.201457  0.449124  1
  W  W13  1  0.450962  0.125525  0.198674  1
  W  W14  1  0.375492  0.798764  0.949285  1
  W  W15  1  0.548545  0.624353  0.300877  1
  W  W16  1  0.624477  0.299039  0.551328  1
  W  W17  1  0.049492  0.875240  0.699548  1
  W  W18  1  0.874760  0.700508  0.050452  1
  W  W19  1  0.951235  0.374508  0.800714  1
  N  N20  1  0.375703  0.374297  0.375000  1
  N  N21  1  0.124314  0.625688  0.875000  1
  N  N22  1  0.875426  0.125698  0.624238  1
  N  N23  1  0.624304  0.874574  0.125764  1
