# generated using pymatgen
data_SrCe3H11
_symmetry_space_group_name_H-M   'P 1'
_cell_length_a   6.69728852
_cell_length_b   6.69728820
_cell_length_c   6.69728824
_cell_angle_alpha   130.82979121
_cell_angle_beta   130.82978555
_cell_angle_gamma   72.08365172
_symmetry_Int_Tables_number   1
_chemical_formula_structural   SrCe3H11
_chemical_formula_sum   'Sr1 Ce3 H11'
_cell_volume   168.17580302
_cell_formula_units_Z   1
loop_
 _symmetry_equiv_pos_site_id
 _symmetry_equiv_pos_as_xyz
  1  'x, y, z'
loop_
 _atom_site_type_symbol
 _atom_site_label
 _atom_site_symmetry_multiplicity
 _atom_site_fract_x
 _atom_site_fract_y
 _atom_site_fract_z
 _atom_site_occupancy
  Sr  Sr0  1  0.257433  0.257433  0.000000  1
  Ce  Ce1  1  0.498280  0.998280  0.500000  1
  Ce  Ce2  1  0.998280  0.498280  0.500000  1
  Ce  Ce3  1  0.740107  0.740107  0.000000  1
  H  H4  1  0.662942  0.107640  0.000000  1
  H  H5  1  0.359273  0.359273  0.488783  1
  H  H6  1  0.107640  0.662942  0.000000  1
  H  H7  1  0.870491  0.870491  0.511217  1
  H  H8  1  0.870491  0.359273  0.000000  1
  H  H9  1  0.662942  0.662942  0.555302  1
  H  H10  1  0.359273  0.870491  0.000000  1
  H  H11  1  0.107640  0.107640  0.444698  1
  H  H12  1  0.751760  0.251760  0.500000  1
  H  H13  1  0.501686  0.501686  0.000000  1
  H  H14  1  0.251760  0.751760  0.500000  1
