# generated using pymatgen
data_Tb7Er9InHg3Rh4
_symmetry_space_group_name_H-M   'P 1'
_cell_length_a   9.58559488
_cell_length_b   9.59926747
_cell_length_c   9.59417893
_cell_angle_alpha   59.88733325
_cell_angle_beta   59.84545352
_cell_angle_gamma   59.90751353
_symmetry_Int_Tables_number   1
_chemical_formula_structural   Tb7Er9InHg3Rh4
_chemical_formula_sum   'Tb7 Er9 In1 Hg3 Rh4'
_cell_volume   622.53907516
_cell_formula_units_Z   1
loop_
 _symmetry_equiv_pos_site_id
 _symmetry_equiv_pos_as_xyz
  1  'x, y, z'
loop_
 _atom_site_type_symbol
 _atom_site_label
 _atom_site_symmetry_multiplicity
 _atom_site_fract_x
 _atom_site_fract_y
 _atom_site_fract_z
 _atom_site_occupancy
  Tb  Tb0  1  0.053947  0.647707  0.649037  1
  Tb  Tb1  1  0.438584  0.063303  0.062407  1
  Tb  Tb2  1  0.437947  0.061554  0.437192  1
  Tb  Tb3  1  0.066312  0.436465  0.061237  1
  Tb  Tb4  1  0.649633  0.647876  0.052725  1
  Tb  Tb5  1  0.188290  0.812907  0.188315  1
  Tb  Tb6  1  0.065000  0.435416  0.436332  1
  Er  Er7  1  0.811297  0.809738  0.190380  1
  Er  Er8  1  0.811489  0.190270  0.809196  1
  Er  Er9  1  0.188465  0.188741  0.811920  1
  Er  Er10  1  0.648958  0.052680  0.648538  1
  Er  Er11  1  0.064580  0.060533  0.438043  1
  Er  Er12  1  0.439047  0.436796  0.060756  1
  Er  Er13  1  0.649707  0.649260  0.649676  1
  Er  Er14  1  0.812068  0.189370  0.189391  1
  Er  Er15  1  0.189144  0.811598  0.810847  1
  In  In16  1  0.742440  0.418318  0.420895  1
  Hg  Hg17  1  0.416021  0.415350  0.415167  1
  Hg  Hg18  1  0.415710  0.414973  0.755519  1
  Hg  Hg19  1  0.414444  0.755677  0.415560  1
  Rh  Rh20  1  0.856396  0.425899  0.857441  1
  Rh  Rh21  1  0.857391  0.859509  0.856634  1
  Rh  Rh22  1  0.854474  0.858403  0.428441  1
  Rh  Rh23  1  0.428658  0.857657  0.854350  1
