# generated using pymatgen
data_Zr2Al(Co3B2)3
_symmetry_space_group_name_H-M   'P 1'
_cell_length_a   5.68241032
_cell_length_b   5.68241126
_cell_length_c   5.68241094
_cell_angle_alpha   95.36268912
_cell_angle_beta   95.36269800
_cell_angle_gamma   95.36271287
_symmetry_Int_Tables_number   1
_chemical_formula_structural   Zr2Al(Co3B2)3
_chemical_formula_sum   'Zr2 Al1 Co9 B6'
_cell_volume   180.91201335
_cell_formula_units_Z   1
loop_
 _symmetry_equiv_pos_site_id
 _symmetry_equiv_pos_as_xyz
  1  'x, y, z'
loop_
 _atom_site_type_symbol
 _atom_site_label
 _atom_site_symmetry_multiplicity
 _atom_site_fract_x
 _atom_site_fract_y
 _atom_site_fract_z
 _atom_site_occupancy
  Zr  Zr0  1  0.677092  0.677092  0.677092  1
  Zr  Zr1  1  0.322908  0.322908  0.322908  1
  Al  Al2  1  0.000000  0.000000  0.000000  1
  Co  Co3  1  0.000000  0.000000  0.500000  1
  Co  Co4  1  0.500000  0.000000  0.000000  1
  Co  Co5  1  0.000000  0.500000  0.000000  1
  Co  Co6  1  0.703645  0.198284  0.703645  1
  Co  Co7  1  0.703645  0.703645  0.198284  1
  Co  Co8  1  0.198284  0.703645  0.703645  1
  Co  Co9  1  0.296355  0.801716  0.296355  1
  Co  Co10  1  0.296355  0.296355  0.801716  1
  Co  Co11  1  0.801716  0.296355  0.296355  1
  B  B12  1  0.615338  0.384662  0.000000  1
  B  B13  1  0.000000  0.615338  0.384662  1
  B  B14  1  0.384662  0.000000  0.615338  1
  B  B15  1  0.000000  0.384662  0.615338  1
  B  B16  1  0.615338  0.000000  0.384662  1
  B  B17  1  0.384662  0.615338  0.000000  1
