# generated using pymatgen
data_HoTm5ReBi2
_symmetry_space_group_name_H-M   'P 1'
_cell_length_a   8.18119200
_cell_length_b   8.16965793
_cell_length_c   4.31248300
_cell_angle_alpha   90.00000000
_cell_angle_beta   90.00000000
_cell_angle_gamma   120.04672165
_symmetry_Int_Tables_number   1
_chemical_formula_structural   HoTm5ReBi2
_chemical_formula_sum   'Ho1 Tm5 Re1 Bi2'
_cell_volume   249.50188323
_cell_formula_units_Z   1
loop_
 _symmetry_equiv_pos_site_id
 _symmetry_equiv_pos_as_xyz
  1  'x, y, z'
loop_
 _atom_site_type_symbol
 _atom_site_label
 _atom_site_symmetry_multiplicity
 _atom_site_fract_x
 _atom_site_fract_y
 _atom_site_fract_z
 _atom_site_occupancy
  Ho  Ho0  1  0.614281  0.000000  0.000000  1
  Tm  Tm1  1  0.232001  0.000000  0.500000  1
  Tm  Tm2  1  0.000507  0.232230  0.500000  1
  Tm  Tm3  1  0.768277  0.767770  0.500000  1
  Tm  Tm4  1  0.999918  0.615431  0.000000  1
  Tm  Tm5  1  0.384487  0.384569  0.000000  1
  Re  Re6  1  0.000847  0.000000  0.000000  1
  Bi  Bi7  1  0.332958  0.666236  0.500000  1
  Bi  Bi8  1  0.666723  0.333764  0.500000  1
