# generated using pymatgen
data_PrDyU2F15
_symmetry_space_group_name_H-M   'P 1'
_cell_length_a   7.88691613
_cell_length_b   7.77961225
_cell_length_c   7.88691607
_cell_angle_alpha   112.48783747
_cell_angle_beta   113.53459057
_cell_angle_gamma   112.48784215
_symmetry_Int_Tables_number   1
_chemical_formula_structural   PrDyU2F15
_chemical_formula_sum   'Pr1 Dy1 U2 F15'
_cell_volume   317.74376981
_cell_formula_units_Z   1
loop_
 _symmetry_equiv_pos_site_id
 _symmetry_equiv_pos_as_xyz
  1  'x, y, z'
loop_
 _atom_site_type_symbol
 _atom_site_label
 _atom_site_symmetry_multiplicity
 _atom_site_fract_x
 _atom_site_fract_y
 _atom_site_fract_z
 _atom_site_occupancy
  Pr  Pr0  1  0.494679  0.495416  0.494679  1
  Dy  Dy1  1  0.851690  0.276886  0.851690  1
  U  U2  1  0.290191  0.854096  0.863141  1
  U  U3  1  0.863141  0.854096  0.290191  1
  F  F4  1  0.606623  0.938622  0.151342  1
  F  F5  1  0.929892  0.135565  0.592789  1
  F  F6  1  0.147676  0.606903  0.930352  1
  F  F7  1  0.930352  0.606903  0.147676  1
  F  F8  1  0.596522  0.588143  0.248787  1
  F  F9  1  0.248787  0.588143  0.596522  1
  F  F10  1  0.602328  0.279252  0.602328  1
  F  F11  1  0.138021  0.137073  0.354740  1
  F  F12  1  0.354740  0.137073  0.138021  1
  F  F13  1  0.154806  0.371271  0.154806  1
  F  F14  1  0.662007  0.675045  0.905083  1
  F  F15  1  0.905083  0.675045  0.662007  1
  F  F16  1  0.666500  0.893449  0.666500  1
  F  F17  1  0.151342  0.938622  0.606623  1
  F  F18  1  0.592789  0.135565  0.929892  1
