# generated using pymatgen
data_La9Pr6Nd(CdPd)4
_symmetry_space_group_name_H-M   'P 1'
_cell_length_a   10.16147412
_cell_length_b   10.16147547
_cell_length_c   10.16103200
_cell_angle_alpha   60.00144365
_cell_angle_beta   60.00143928
_cell_angle_gamma   60.16023750
_symmetry_Int_Tables_number   1
_chemical_formula_structural   La9Pr6Nd(CdPd)4
_chemical_formula_sum   'La9 Pr6 Nd1 Cd4 Pd4'
_cell_volume   742.79498744
_cell_formula_units_Z   1
loop_
 _symmetry_equiv_pos_site_id
 _symmetry_equiv_pos_as_xyz
  1  'x, y, z'
loop_
 _atom_site_type_symbol
 _atom_site_label
 _atom_site_symmetry_multiplicity
 _atom_site_fract_x
 _atom_site_fract_y
 _atom_site_fract_z
 _atom_site_occupancy
  La  La0  1  0.350690  0.350690  0.350595  1
  La  La1  1  0.350690  0.350690  0.948026  1
  La  La2  1  0.351719  0.946266  0.351008  1
  La  La3  1  0.946266  0.351719  0.351008  1
  La  La4  1  0.805861  0.193496  0.194479  1
  La  La5  1  0.193496  0.805861  0.806163  1
  La  La6  1  0.193496  0.805861  0.194479  1
  La  La7  1  0.805861  0.193496  0.806163  1
  La  La8  1  0.194176  0.194176  0.805824  1
  Pr  Pr9  1  0.935200  0.565366  0.565349  1
  Pr  Pr10  1  0.565366  0.935200  0.934085  1
  Pr  Pr11  1  0.565366  0.935200  0.565349  1
  Pr  Pr12  1  0.935200  0.565366  0.934085  1
  Pr  Pr13  1  0.565173  0.565173  0.934827  1
  Pr  Pr14  1  0.934541  0.934541  0.565459  1
  Nd  Nd15  1  0.805567  0.805567  0.194433  1
  Cd  Cd16  1  0.580293  0.580293  0.579263  1
  Cd  Cd17  1  0.580293  0.580293  0.260151  1
  Cd  Cd18  1  0.579836  0.260342  0.579911  1
  Cd  Cd19  1  0.260342  0.579836  0.579911  1
  Pd  Pd20  1  0.143034  0.143034  0.142980  1
  Pd  Pd21  1  0.143034  0.143034  0.570953  1
  Pd  Pd22  1  0.143377  0.571123  0.142751  1
  Pd  Pd23  1  0.571123  0.143377  0.142751  1
