# generated using pymatgen
data_Tb8Hf11Si16Ir
_symmetry_space_group_name_H-M   'P 1'
_cell_length_a   7.27366974
_cell_length_b   7.27366974
_cell_length_c   13.25095854
_cell_angle_alpha   89.74023659
_cell_angle_beta   90.25976341
_cell_angle_gamma   89.93587368
_symmetry_Int_Tables_number   1
_chemical_formula_structural   Tb8Hf11Si16Ir
_chemical_formula_sum   'Tb8 Hf11 Si16 Ir1'
_cell_volume   701.04394399
_cell_formula_units_Z   1
loop_
 _symmetry_equiv_pos_site_id
 _symmetry_equiv_pos_as_xyz
  1  'x, y, z'
loop_
 _atom_site_type_symbol
 _atom_site_label
 _atom_site_symmetry_multiplicity
 _atom_site_fract_x
 _atom_site_fract_y
 _atom_site_fract_z
 _atom_site_occupancy
  Tb  Tb0  1  0.997745  0.345253  0.211096  1
  Tb  Tb1  1  0.005701  0.653109  0.717287  1
  Tb  Tb2  1  0.155467  0.493862  0.465086  1
  Tb  Tb3  1  0.502225  0.848355  0.032823  1
  Tb  Tb4  1  0.848355  0.502225  0.967177  1
  Tb  Tb5  1  0.493862  0.155467  0.534914  1
  Tb  Tb6  1  0.345253  0.997745  0.788904  1
  Tb  Tb7  1  0.653109  0.005701  0.282713  1
  Hf  Hf8  1  0.824456  0.824456  0.500000  1
  Hf  Hf9  1  0.322603  0.676398  0.247918  1
  Hf  Hf10  1  0.676398  0.322603  0.752082  1
  Hf  Hf11  1  0.146117  0.997417  0.371614  1
  Hf  Hf12  1  0.854063  0.003354  0.878507  1
  Hf  Hf13  1  0.502488  0.647231  0.625999  1
  Hf  Hf14  1  0.354007  0.496419  0.877410  1
  Hf  Hf15  1  0.496419  0.354007  0.122590  1
  Hf  Hf16  1  0.647231  0.502488  0.374001  1
  Hf  Hf17  1  0.997417  0.146117  0.628386  1
  Hf  Hf18  1  0.003354  0.854063  0.121493  1
  Si  Si19  1  0.359110  0.295923  0.314696  1
  Si  Si20  1  0.639918  0.704975  0.818548  1
  Si  Si21  1  0.206022  0.861329  0.567171  1
  Si  Si22  1  0.136473  0.789811  0.931176  1
  Si  Si23  1  0.789811  0.136473  0.068824  1
  Si  Si24  1  0.861329  0.206022  0.432829  1
  Si  Si25  1  0.295923  0.359110  0.685304  1
  Si  Si26  1  0.704975  0.639918  0.181452  1
  Si  Si27  1  0.291334  0.056909  0.179988  1
  Si  Si28  1  0.704351  0.949764  0.685962  1
  Si  Si29  1  0.449374  0.795683  0.434694  1
  Si  Si30  1  0.208561  0.554103  0.063304  1
  Si  Si31  1  0.554103  0.208561  0.936696  1
  Si  Si32  1  0.795683  0.449374  0.565306  1
  Si  Si33  1  0.056909  0.291334  0.820012  1
  Si  Si34  1  0.949764  0.704351  0.314038  1
  Ir  Ir35  1  0.170089  0.170089  0.000000  1
