# generated using pymatgen
data_PrGdNbIr3
_symmetry_space_group_name_H-M   'P 1'
_cell_length_a   5.32611208
_cell_length_b   5.32611060
_cell_length_c   5.32611200
_cell_angle_alpha   65.93585826
_cell_angle_beta   65.93587717
_cell_angle_gamma   65.93586649
_symmetry_Int_Tables_number   1
_chemical_formula_structural   PrGdNbIr3
_chemical_formula_sum   'Pr1 Gd1 Nb1 Ir3'
_cell_volume   120.56730502
_cell_formula_units_Z   1
loop_
 _symmetry_equiv_pos_site_id
 _symmetry_equiv_pos_as_xyz
  1  'x, y, z'
loop_
 _atom_site_type_symbol
 _atom_site_label
 _atom_site_symmetry_multiplicity
 _atom_site_fract_x
 _atom_site_fract_y
 _atom_site_fract_z
 _atom_site_occupancy
  Pr  Pr0  1  0.001075  0.001075  0.001075  1
  Gd  Gd1  1  0.252073  0.252073  0.252073  1
  Nb  Nb2  1  0.625030  0.625030  0.625030  1
  Ir  Ir3  1  0.623269  0.623269  0.125286  1
  Ir  Ir4  1  0.623269  0.125286  0.623269  1
  Ir  Ir5  1  0.125286  0.623269  0.623269  1
