# generated using pymatgen
data_Na4AgAs2Au
_symmetry_space_group_name_H-M   'P 1'
_cell_length_a   5.76439387
_cell_length_b   5.76439282
_cell_length_c   5.75181267
_cell_angle_alpha   89.42827264
_cell_angle_beta   89.42827155
_cell_angle_gamma   101.52610571
_symmetry_Int_Tables_number   1
_chemical_formula_structural   Na4AgAs2Au
_chemical_formula_sum   'Na4 Ag1 As2 Au1'
_cell_volume   187.24503225
_cell_formula_units_Z   1
loop_
 _symmetry_equiv_pos_site_id
 _symmetry_equiv_pos_as_xyz
  1  'x, y, z'
loop_
 _atom_site_type_symbol
 _atom_site_label
 _atom_site_symmetry_multiplicity
 _atom_site_fract_x
 _atom_site_fract_y
 _atom_site_fract_z
 _atom_site_occupancy
  Na  Na0  1  0.027523  0.668527  0.246778  1
  Na  Na1  1  0.972477  0.331473  0.753222  1
  Na  Na2  1  0.668527  0.027523  0.246778  1
  Na  Na3  1  0.331473  0.972477  0.753222  1
  Ag  Ag4  1  0.500000  0.500000  0.500000  1
  As  As5  1  0.790361  0.790361  0.749003  1
  As  As6  1  0.209639  0.209639  0.250997  1
  Au  Au7  1  0.500000  0.500000  0.000000  1
