# generated using pymatgen
data_Nd2YSc(Co4P3)2
_symmetry_space_group_name_H-M   'P 1'
_cell_length_a   3.76992800
_cell_length_b   10.77556000
_cell_length_c   12.52112400
_cell_angle_alpha   90.00000000
_cell_angle_beta   90.00000000
_cell_angle_gamma   90.00000000
_symmetry_Int_Tables_number   1
_chemical_formula_structural   Nd2YSc(Co4P3)2
_chemical_formula_sum   'Nd4 Y2 Sc2 Co16 P12'
_cell_volume   508.64668905
_cell_formula_units_Z   2
loop_
 _symmetry_equiv_pos_site_id
 _symmetry_equiv_pos_as_xyz
  1  'x, y, z'
loop_
 _atom_site_type_symbol
 _atom_site_label
 _atom_site_symmetry_multiplicity
 _atom_site_fract_x
 _atom_site_fract_y
 _atom_site_fract_z
 _atom_site_occupancy
  Nd  Nd0  1  0.000000  0.500000  0.529022  1
  Nd  Nd1  1  0.500000  0.000000  0.472776  1
  Nd  Nd2  1  0.500000  0.821532  0.205979  1
  Nd  Nd3  1  0.500000  0.178468  0.205979  1
  Y  Y4  1  0.000000  0.677976  0.794848  1
  Y  Y5  1  0.000000  0.322024  0.794848  1
  Sc  Sc6  1  0.500000  0.500000  0.154875  1
  Sc  Sc7  1  0.000000  0.000000  0.844725  1
  Co  Co8  1  0.500000  0.500000  0.708406  1
  Co  Co9  1  0.000000  0.000000  0.292808  1
  Co  Co10  1  0.000000  0.500000  0.985678  1
  Co  Co11  1  0.500000  0.000000  0.009238  1
  Co  Co12  1  0.500000  0.332102  0.992556  1
  Co  Co13  1  0.500000  0.667898  0.992556  1
  Co  Co14  1  0.000000  0.169715  0.002554  1
  Co  Co15  1  0.000000  0.830285  0.002554  1
  Co  Co16  1  0.500000  0.296601  0.434688  1
  Co  Co17  1  0.500000  0.703399  0.434688  1
  Co  Co18  1  0.000000  0.204885  0.569987  1
  Co  Co19  1  0.000000  0.795115  0.569987  1
  Co  Co20  1  0.500000  0.878466  0.705059  1
  Co  Co21  1  0.500000  0.121534  0.705059  1
  Co  Co22  1  0.000000  0.619716  0.297579  1
  Co  Co23  1  0.000000  0.380284  0.297579  1
  P  P24  1  0.500000  0.500000  0.885323  1
  P  P25  1  0.000000  0.000000  0.109093  1
  P  P26  1  0.500000  0.500000  0.356364  1
  P  P27  1  0.000000  0.000000  0.644385  1
  P  P28  1  0.500000  0.306383  0.617611  1
  P  P29  1  0.500000  0.693617  0.617611  1
  P  P30  1  0.000000  0.196228  0.387776  1
  P  P31  1  0.000000  0.803772  0.387776  1
  P  P32  1  0.500000  0.839420  0.892514  1
  P  P33  1  0.500000  0.160580  0.892514  1
  P  P34  1  0.000000  0.658372  0.102501  1
  P  P35  1  0.000000  0.341628  0.102501  1
