# generated using pymatgen
data_LiCrSnF6
_symmetry_space_group_name_H-M   'P 1'
_cell_length_a   5.32205700
_cell_length_b   5.32205676
_cell_length_c   10.24240800
_cell_angle_alpha   90.00000000
_cell_angle_beta   90.00000000
_cell_angle_gamma   120.00000769
_symmetry_Int_Tables_number   1
_chemical_formula_structural   LiCrSnF6
_chemical_formula_sum   'Li2 Cr2 Sn2 F12'
_cell_volume   251.24168279
_cell_formula_units_Z   2
loop_
 _symmetry_equiv_pos_site_id
 _symmetry_equiv_pos_as_xyz
  1  'x, y, z'
loop_
 _atom_site_type_symbol
 _atom_site_label
 _atom_site_symmetry_multiplicity
 _atom_site_fract_x
 _atom_site_fract_y
 _atom_site_fract_z
 _atom_site_occupancy
  Li  Li0  1  0.333333  0.666667  0.250000  1
  Li  Li1  1  0.666667  0.333333  0.750000  1
  Cr  Cr2  1  0.666667  0.333333  0.250000  1
  Cr  Cr3  1  0.333333  0.666667  0.750000  1
  Sn  Sn4  1  0.000000  0.000000  0.000000  1
  Sn  Sn5  1  0.000000  0.000000  0.500000  1
  F  F6  1  0.644900  0.627522  0.144021  1
  F  F7  1  0.982622  0.355100  0.144021  1
  F  F8  1  0.355100  0.982622  0.644021  1
  F  F9  1  0.017378  0.644900  0.855979  1
  F  F10  1  0.372478  0.355100  0.355979  1
  F  F11  1  0.982622  0.627522  0.355979  1
  F  F12  1  0.627522  0.982622  0.855979  1
  F  F13  1  0.644900  0.017378  0.355979  1
  F  F14  1  0.017378  0.372478  0.644021  1
  F  F15  1  0.372478  0.017378  0.144021  1
  F  F16  1  0.627522  0.644900  0.644021  1
  F  F17  1  0.355100  0.372478  0.855979  1
