# generated using pymatgen
data_Al4Hg11(AsBr4)4
_symmetry_space_group_name_H-M   'P 1'
_cell_length_a   8.00356031
_cell_length_b   8.00356011
_cell_length_c   23.18322137
_cell_angle_alpha   81.91180599
_cell_angle_beta   81.91180538
_cell_angle_gamma   59.66879054
_symmetry_Int_Tables_number   1
_chemical_formula_structural   Al4Hg11(AsBr4)4
_chemical_formula_sum   'Al4 Hg11 As4 Br16'
_cell_volume   1264.80275746
_cell_formula_units_Z   1
loop_
 _symmetry_equiv_pos_site_id
 _symmetry_equiv_pos_as_xyz
  1  'x, y, z'
loop_
 _atom_site_type_symbol
 _atom_site_label
 _atom_site_symmetry_multiplicity
 _atom_site_fract_x
 _atom_site_fract_y
 _atom_site_fract_z
 _atom_site_occupancy
  Al  Al0  1  0.638431  0.638431  0.112285  1
  Al  Al1  1  0.361569  0.361569  0.887715  1
  Al  Al2  1  0.758110  0.758110  0.615474  1
  Al  Al3  1  0.241890  0.241890  0.384526  1
  Hg  Hg4  1  0.031624  0.031624  0.882211  1
  Hg  Hg5  1  0.765132  0.765132  0.283652  1
  Hg  Hg6  1  0.474244  0.474244  0.558262  1
  Hg  Hg7  1  0.732752  0.235176  0.721489  1
  Hg  Hg8  1  0.267248  0.764824  0.278511  1
  Hg  Hg9  1  0.764824  0.267248  0.278511  1
  Hg  Hg10  1  0.235176  0.732752  0.721489  1
  Hg  Hg11  1  0.525756  0.525756  0.441738  1
  Hg  Hg12  1  0.968376  0.968376  0.117789  1
  Hg  Hg13  1  0.000000  0.000000  0.000000  1
  Hg  Hg14  1  0.234868  0.234868  0.716348  1
  As  As15  1  0.942610  0.942610  0.233499  1
  As  As16  1  0.057390  0.057390  0.766501  1
  As  As17  1  0.584221  0.584221  0.328206  1
  As  As18  1  0.415779  0.415779  0.671794  1
  Br  Br19  1  0.529646  0.057431  0.849513  1
  Br  Br20  1  0.076175  0.076175  0.420446  1
  Br  Br21  1  0.528201  0.528201  0.848854  1
  Br  Br22  1  0.443540  0.920681  0.586061  1
  Br  Br23  1  0.738285  0.738285  0.717123  1
  Br  Br24  1  0.336085  0.336085  0.987667  1
  Br  Br25  1  0.470354  0.942569  0.150487  1
  Br  Br26  1  0.942569  0.470354  0.150487  1
  Br  Br27  1  0.471799  0.471799  0.151146  1
  Br  Br28  1  0.556460  0.079319  0.413939  1
  Br  Br29  1  0.663915  0.663915  0.012333  1
  Br  Br30  1  0.920681  0.443540  0.586061  1
  Br  Br31  1  0.261715  0.261715  0.282877  1
  Br  Br32  1  0.079319  0.556460  0.413939  1
  Br  Br33  1  0.923825  0.923825  0.579554  1
  Br  Br34  1  0.057431  0.529646  0.849513  1
