# generated using pymatgen
data_CaLa4Dy5Sn8
_symmetry_space_group_name_H-M   'P 1'
_cell_length_a   8.07007300
_cell_length_b   8.37282900
_cell_length_c   15.79620200
_cell_angle_alpha   90.00000000
_cell_angle_beta   90.00000000
_cell_angle_gamma   90.00000000
_symmetry_Int_Tables_number   1
_chemical_formula_structural   CaLa4Dy5Sn8
_chemical_formula_sum   'Ca2 La8 Dy10 Sn16'
_cell_volume   1067.33896334
_cell_formula_units_Z   2
loop_
 _symmetry_equiv_pos_site_id
 _symmetry_equiv_pos_as_xyz
  1  'x, y, z'
loop_
 _atom_site_type_symbol
 _atom_site_label
 _atom_site_symmetry_multiplicity
 _atom_site_fract_x
 _atom_site_fract_y
 _atom_site_fract_z
 _atom_site_occupancy
  Ca  Ca0  1  0.181690  0.498782  0.750000  1
  Ca  Ca1  1  0.681690  0.001218  0.750000  1
  La  La2  1  0.503139  0.320572  0.905722  1
  La  La3  1  0.003139  0.179428  0.594278  1
  La  La4  1  0.494500  0.676187  0.402230  1
  La  La5  1  0.994500  0.823813  0.097770  1
  La  La6  1  0.494500  0.676187  0.097770  1
  La  La7  1  0.994500  0.823813  0.402230  1
  La  La8  1  0.503139  0.320572  0.594278  1
  La  La9  1  0.003139  0.179428  0.905722  1
  Dy  Dy10  1  0.348621  0.830958  0.877719  1
  Dy  Dy11  1  0.848621  0.669042  0.622281  1
  Dy  Dy12  1  0.654057  0.168239  0.374795  1
  Dy  Dy13  1  0.154057  0.331761  0.125205  1
  Dy  Dy14  1  0.654057  0.168239  0.125205  1
  Dy  Dy15  1  0.154057  0.331761  0.374795  1
  Dy  Dy16  1  0.348621  0.830958  0.622281  1
  Dy  Dy17  1  0.848621  0.669042  0.877719  1
  Dy  Dy18  1  0.819226  0.500238  0.250000  1
  Dy  Dy19  1  0.319226  0.999762  0.250000  1
  Sn  Sn20  1  0.317438  0.039904  0.041391  1
  Sn  Sn21  1  0.817438  0.460096  0.458609  1
  Sn  Sn22  1  0.682844  0.958823  0.537583  1
  Sn  Sn23  1  0.182844  0.541177  0.962417  1
  Sn  Sn24  1  0.682844  0.958823  0.962417  1
  Sn  Sn25  1  0.182844  0.541177  0.537583  1
  Sn  Sn26  1  0.317438  0.039904  0.458609  1
  Sn  Sn27  1  0.817438  0.460096  0.041391  1
  Sn  Sn28  1  0.550008  0.619899  0.750000  1
  Sn  Sn29  1  0.050008  0.880101  0.750000  1
  Sn  Sn30  1  0.455135  0.376679  0.250000  1
  Sn  Sn31  1  0.955135  0.123321  0.250000  1
  Sn  Sn32  1  0.305811  0.132758  0.750000  1
  Sn  Sn33  1  0.805811  0.367242  0.750000  1
  Sn  Sn34  1  0.686932  0.859416  0.250000  1
  Sn  Sn35  1  0.186932  0.640584  0.250000  1
