# generated using pymatgen
data_Er10NiIrPb6
_symmetry_space_group_name_H-M   'P 1'
_cell_length_a   9.12497600
_cell_length_b   9.12497598
_cell_length_c   6.73407500
_cell_angle_alpha   90.00000000
_cell_angle_beta   90.00000000
_cell_angle_gamma   120.00000008
_symmetry_Int_Tables_number   1
_chemical_formula_structural   Er10NiIrPb6
_chemical_formula_sum   'Er10 Ni1 Ir1 Pb6'
_cell_volume   485.59257898
_cell_formula_units_Z   1
loop_
 _symmetry_equiv_pos_site_id
 _symmetry_equiv_pos_as_xyz
  1  'x, y, z'
loop_
 _atom_site_type_symbol
 _atom_site_label
 _atom_site_symmetry_multiplicity
 _atom_site_fract_x
 _atom_site_fract_y
 _atom_site_fract_z
 _atom_site_occupancy
  Er  Er0  1  0.236704  0.000000  0.250771  1
  Er  Er1  1  0.763296  0.000000  0.749229  1
  Er  Er2  1  0.000000  0.236704  0.250771  1
  Er  Er3  1  0.333333  0.666667  0.500000  1
  Er  Er4  1  0.666667  0.333333  0.500000  1
  Er  Er5  1  0.666667  0.333333  0.000000  1
  Er  Er6  1  0.000000  0.763296  0.749229  1
  Er  Er7  1  0.236704  0.236704  0.749229  1
  Er  Er8  1  0.333333  0.666667  0.000000  1
  Er  Er9  1  0.763296  0.763296  0.250771  1
  Ni  Ni10  1  0.000000  0.000000  0.500000  1
  Ir  Ir11  1  0.000000  0.000000  0.000000  1
  Pb  Pb12  1  0.402449  0.000000  0.747891  1
  Pb  Pb13  1  0.000000  0.402449  0.747891  1
  Pb  Pb14  1  0.402449  0.402449  0.252109  1
  Pb  Pb15  1  0.597551  0.000000  0.252109  1
  Pb  Pb16  1  0.000000  0.597551  0.252109  1
  Pb  Pb17  1  0.597551  0.597551  0.747891  1
