# generated using pymatgen
data_TmLu(B3W)2
_symmetry_space_group_name_H-M   'P 1'
_cell_length_a   5.40135628
_cell_length_b   3.14560700
_cell_length_c   6.77085860
_cell_angle_alpha   90.00000000
_cell_angle_beta   101.59192817
_cell_angle_gamma   90.00000000
_symmetry_Int_Tables_number   1
_chemical_formula_structural   TmLu(B3W)2
_chemical_formula_sum   'Tm1 Lu1 B6 W2'
_cell_volume   112.69415454
_cell_formula_units_Z   1
loop_
 _symmetry_equiv_pos_site_id
 _symmetry_equiv_pos_as_xyz
  1  'x, y, z'
loop_
 _atom_site_type_symbol
 _atom_site_label
 _atom_site_symmetry_multiplicity
 _atom_site_fract_x
 _atom_site_fract_y
 _atom_site_fract_z
 _atom_site_occupancy
  Tm  Tm0  1  0.823669  0.749999  0.792326  1
  Lu  Lu1  1  0.178444  0.250000  0.209783  1
  B  B2  1  0.584278  0.250000  0.023589  1
  B  B3  1  0.083603  0.749999  0.490871  1
  B  B4  1  0.412367  0.749999  0.493365  1
  B  B5  1  0.587664  0.250000  0.505449  1
  B  B6  1  0.917250  0.250000  0.507672  1
  B  B7  1  0.412171  0.749999  0.977295  1
  W  W8  1  0.690004  0.749999  0.278216  1
  W  W9  1  0.310552  0.250000  0.721433  1
