# generated using pymatgen
data_Nd2Y2Al17GaIr6
_symmetry_space_group_name_H-M   'P 1'
_cell_length_a   7.57977478
_cell_length_b   7.57977115
_cell_length_c   9.56687600
_cell_angle_alpha   90.00000000
_cell_angle_beta   90.00000000
_cell_angle_gamma   119.33007080
_symmetry_Int_Tables_number   1
_chemical_formula_structural   Nd2Y2Al17GaIr6
_chemical_formula_sum   'Nd2 Y2 Al17 Ga1 Ir6'
_cell_volume   479.18756098
_cell_formula_units_Z   1
loop_
 _symmetry_equiv_pos_site_id
 _symmetry_equiv_pos_as_xyz
  1  'x, y, z'
loop_
 _atom_site_type_symbol
 _atom_site_label
 _atom_site_symmetry_multiplicity
 _atom_site_fract_x
 _atom_site_fract_y
 _atom_site_fract_z
 _atom_site_occupancy
  Nd  Nd0  1  0.994092  0.674588  0.250000  1
  Nd  Nd1  1  0.674588  0.994091  0.250000  1
  Y  Y2  1  0.005225  0.327452  0.750000  1
  Y  Y3  1  0.327452  0.005224  0.750000  1
  Al  Al4  1  0.870087  0.870087  0.750000  1
  Al  Al5  1  0.003070  0.335992  0.068940  1
  Al  Al6  1  0.998427  0.663969  0.924135  1
  Al  Al7  1  0.998427  0.663969  0.575865  1
  Al  Al8  1  0.335991  0.003069  0.431060  1
  Al  Al9  1  0.003070  0.335992  0.431060  1
  Al  Al10  1  0.663970  0.998427  0.575865  1
  Al  Al11  1  0.663970  0.998427  0.924135  1
  Al  Al12  1  0.335991  0.003069  0.068940  1
  Al  Al13  1  0.332860  0.332860  0.553894  1
  Al  Al14  1  0.664419  0.664419  0.455446  1
  Al  Al15  1  0.664419  0.664419  0.044554  1
  Al  Al16  1  0.332860  0.332860  0.946106  1
  Al  Al17  1  0.338547  0.547138  0.250000  1
  Al  Al18  1  0.660170  0.450608  0.750000  1
  Al  Al19  1  0.547138  0.338547  0.250000  1
  Al  Al20  1  0.450608  0.660170  0.750000  1
  Ga  Ga21  1  0.137909  0.137909  0.250000  1
  Ir  Ir22  1  0.670332  0.327489  0.998510  1
  Ir  Ir23  1  0.327489  0.670332  0.998511  1
  Ir  Ir24  1  0.327489  0.670332  0.501489  1
  Ir  Ir25  1  0.670332  0.327489  0.501490  1
  Ir  Ir26  1  0.000538  0.000538  0.995532  1
  Ir  Ir27  1  0.000538  0.000538  0.504468  1
