# generated using pymatgen
data_BaGa6Cu7
_symmetry_space_group_name_H-M   'P 1'
_cell_length_a   8.53862154
_cell_length_b   8.53862243
_cell_length_c   8.53862131
_cell_angle_alpha   121.07527979
_cell_angle_beta   119.95435245
_cell_angle_gamma   89.11337953
_symmetry_Int_Tables_number   1
_chemical_formula_structural   BaGa6Cu7
_chemical_formula_sum   'Ba2 Ga12 Cu14'
_cell_volume   436.66296901
_cell_formula_units_Z   2
loop_
 _symmetry_equiv_pos_site_id
 _symmetry_equiv_pos_as_xyz
  1  'x, y, z'
loop_
 _atom_site_type_symbol
 _atom_site_label
 _atom_site_symmetry_multiplicity
 _atom_site_fract_x
 _atom_site_fract_y
 _atom_site_fract_z
 _atom_site_occupancy
  Ba  Ba0  1  0.250000  0.750000  0.500000  1
  Ba  Ba1  1  0.750000  0.250000  0.500000  1
  Ga  Ga2  1  0.552709  0.546538  0.356789  1
  Ga  Ga3  1  0.447291  0.453462  0.643211  1
  Ga  Ga4  1  0.189748  0.195918  0.643211  1
  Ga  Ga5  1  0.310252  0.953462  0.006170  1
  Ga  Ga6  1  0.810252  0.804082  0.356789  1
  Ga  Ga7  1  0.689748  0.046538  0.993830  1
  Ga  Ga8  1  0.947291  0.304082  0.993830  1
  Ga  Ga9  1  0.052709  0.695918  0.006170  1
  Ga  Ga10  1  0.056065  0.302661  0.358726  1
  Ga  Ga11  1  0.943935  0.697339  0.641274  1
  Ga  Ga12  1  0.556065  0.197339  0.753402  1
  Ga  Ga13  1  0.443935  0.802661  0.246598  1
  Cu  Cu14  1  0.289709  0.290804  0.230815  1
  Cu  Cu15  1  0.710291  0.709196  0.769185  1
  Cu  Cu16  1  0.059989  0.058894  0.769185  1
  Cu  Cu17  1  0.440011  0.209196  0.998905  1
  Cu  Cu18  1  0.940011  0.941106  0.230815  1
  Cu  Cu19  1  0.559989  0.790804  0.001095  1
  Cu  Cu20  1  0.210291  0.441106  0.001095  1
  Cu  Cu21  1  0.789709  0.558894  0.998905  1
  Cu  Cu22  1  0.000000  0.000000  0.000000  1
  Cu  Cu23  1  0.500000  0.500000  0.000000  1
  Cu  Cu24  1  0.290670  0.062210  0.352881  1
  Cu  Cu25  1  0.709330  0.937790  0.647119  1
  Cu  Cu26  1  0.790670  0.437790  0.228462  1
  Cu  Cu27  1  0.209330  0.562210  0.771538  1
