# generated using pymatgen
data_Na12Li8Hf(SnP4)3
_symmetry_space_group_name_H-M   'P 1'
_cell_length_a   9.53615571
_cell_length_b   9.53615460
_cell_length_c   13.83338479
_cell_angle_alpha   90.00412396
_cell_angle_beta   90.00412405
_cell_angle_gamma   143.33858820
_symmetry_Int_Tables_number   1
_chemical_formula_structural   Na12Li8Hf(SnP4)3
_chemical_formula_sum   'Na12 Li8 Hf1 Sn3 P12'
_cell_volume   751.12331139
_cell_formula_units_Z   1
loop_
 _symmetry_equiv_pos_site_id
 _symmetry_equiv_pos_as_xyz
  1  'x, y, z'
loop_
 _atom_site_type_symbol
 _atom_site_label
 _atom_site_symmetry_multiplicity
 _atom_site_fract_x
 _atom_site_fract_y
 _atom_site_fract_z
 _atom_site_occupancy
  Na  Na0  1  0.097252  0.438339  0.678708  1
  Na  Na1  1  0.723468  0.726971  0.682890  1
  Na  Na2  1  0.230334  0.230701  0.818967  1
  Na  Na3  1  0.769299  0.769666  0.181033  1
  Na  Na4  1  0.939961  0.596082  0.818283  1
  Na  Na5  1  0.561661  0.902748  0.321292  1
  Na  Na6  1  0.403918  0.060039  0.181717  1
  Na  Na7  1  0.058452  0.401051  0.179428  1
  Na  Na8  1  0.894867  0.549592  0.322082  1
  Na  Na9  1  0.450408  0.105133  0.677918  1
  Na  Na10  1  0.598949  0.941549  0.820572  1
  Na  Na11  1  0.273029  0.276532  0.317110  1
  Li  Li12  1  0.916931  0.083069  0.000000  1
  Li  Li13  1  0.583613  0.416387  0.500000  1
  Li  Li14  1  0.083351  0.916649  0.000000  1
  Li  Li15  1  0.416000  0.584000  0.500000  1
  Li  Li16  1  0.756187  0.243813  0.000000  1
  Li  Li17  1  0.744288  0.255712  0.500000  1
  Li  Li18  1  0.243568  0.756432  0.000000  1
  Li  Li19  1  0.255407  0.744593  0.500000  1
  Hf  Hf20  1  0.085991  0.914009  0.500000  1
  Sn  Sn21  1  0.407358  0.592642  0.000000  1
  Sn  Sn22  1  0.909845  0.090155  0.500000  1
  Sn  Sn23  1  0.592909  0.407091  0.000000  1
  P  P24  1  0.913009  0.580802  0.111273  1
  P  P25  1  0.419198  0.086991  0.888727  1
  P  P26  1  0.590379  0.919351  0.610227  1
  P  P27  1  0.929106  0.601537  0.606167  1
  P  P28  1  0.087369  0.419736  0.889120  1
  P  P29  1  0.580264  0.912631  0.110880  1
  P  P30  1  0.398463  0.070894  0.393833  1
  P  P31  1  0.240788  0.236621  0.603409  1
  P  P32  1  0.734453  0.734101  0.897227  1
  P  P33  1  0.265899  0.265547  0.102773  1
  P  P34  1  0.080649  0.409621  0.389773  1
  P  P35  1  0.763379  0.759212  0.396591  1
