# generated using pymatgen
data_Rb6Ge2Se6O
_symmetry_space_group_name_H-M   'P 1'
_cell_length_a   13.02158300
_cell_length_b   9.21697225
_cell_length_c   9.59043304
_cell_angle_alpha   67.67898793
_cell_angle_beta   90.00000000
_cell_angle_gamma   90.00000000
_symmetry_Int_Tables_number   1
_chemical_formula_structural   Rb6Ge2Se6O
_chemical_formula_sum   'Rb12 Ge4 Se12 O2'
_cell_volume   1064.79281472
_cell_formula_units_Z   2
loop_
 _symmetry_equiv_pos_site_id
 _symmetry_equiv_pos_as_xyz
  1  'x, y, z'
loop_
 _atom_site_type_symbol
 _atom_site_label
 _atom_site_symmetry_multiplicity
 _atom_site_fract_x
 _atom_site_fract_y
 _atom_site_fract_z
 _atom_site_occupancy
  Rb  Rb0  1  0.328270  0.988728  0.008150  1
  Rb  Rb1  1  0.221757  0.693802  0.456866  1
  Rb  Rb2  1  0.561619  0.286292  0.226609  1
  Rb  Rb3  1  0.828270  0.511272  0.991850  1
  Rb  Rb4  1  0.438381  0.713708  0.773391  1
  Rb  Rb5  1  0.778243  0.306198  0.543134  1
  Rb  Rb6  1  0.061619  0.213708  0.773391  1
  Rb  Rb7  1  0.938381  0.786292  0.226609  1
  Rb  Rb8  1  0.278243  0.193802  0.456866  1
  Rb  Rb9  1  0.721757  0.806198  0.543134  1
  Rb  Rb10  1  0.671730  0.011272  0.991850  1
  Rb  Rb11  1  0.171730  0.488728  0.008150  1
  Ge  Ge12  1  0.489629  0.349858  0.684829  1
  Ge  Ge13  1  0.989629  0.150142  0.315171  1
  Ge  Ge14  1  0.510371  0.650142  0.315171  1
  Ge  Ge15  1  0.010371  0.849858  0.684829  1
  Se  Se16  1  0.976680  0.606517  0.661569  1
  Se  Se17  1  0.881621  0.913798  0.828628  1
  Se  Se18  1  0.817953  0.128629  0.239806  1
  Se  Se19  1  0.618379  0.413798  0.828628  1
  Se  Se20  1  0.317953  0.371371  0.760194  1
  Se  Se21  1  0.118379  0.086202  0.171372  1
  Se  Se22  1  0.476680  0.893483  0.338431  1
  Se  Se23  1  0.381621  0.586202  0.171372  1
  Se  Se24  1  0.023320  0.393483  0.338431  1
  Se  Se25  1  0.682047  0.628629  0.239806  1
  Se  Se26  1  0.523320  0.106517  0.661569  1
  Se  Se27  1  0.182047  0.871371  0.760194  1
  O  O28  1  0.500000  0.500000  0.500000  1
  O  O29  1  0.000000  0.000000  0.500000  1
