# generated using pymatgen
data_LaY5Zn4Pd12Pt
_symmetry_space_group_name_H-M   'P 1'
_cell_length_a   8.30172009
_cell_length_b   8.30168205
_cell_length_c   8.30168216
_cell_angle_alpha   109.42163742
_cell_angle_beta   109.49595687
_cell_angle_gamma   109.49596223
_symmetry_Int_Tables_number   1
_chemical_formula_structural   LaY5Zn4Pd12Pt
_chemical_formula_sum   'La1 Y5 Zn4 Pd12 Pt1'
_cell_volume   440.43190868
_cell_formula_units_Z   1
loop_
 _symmetry_equiv_pos_site_id
 _symmetry_equiv_pos_as_xyz
  1  'x, y, z'
loop_
 _atom_site_type_symbol
 _atom_site_label
 _atom_site_symmetry_multiplicity
 _atom_site_fract_x
 _atom_site_fract_y
 _atom_site_fract_z
 _atom_site_occupancy
  La  La0  1  0.000000  0.703861  0.703861  1
  Y  Y1  1  0.700398  0.701478  0.001079  1
  Y  Y2  1  0.299602  0.001080  0.300682  1
  Y  Y3  1  0.000000  0.300336  0.300336  1
  Y  Y4  1  0.299602  0.300682  0.001080  1
  Y  Y5  1  0.700398  0.001079  0.701478  1
  Zn  Zn6  1  0.000000  0.000798  0.495271  1
  Zn  Zn7  1  0.000000  0.495271  0.000798  1
  Zn  Zn8  1  0.505527  0.000797  0.000797  1
  Zn  Zn9  1  0.494473  0.495270  0.495270  1
  Pd  Pd10  1  0.334104  0.333893  0.667997  1
  Pd  Pd11  1  0.665898  0.999790  0.333893  1
  Pd  Pd12  1  0.000000  0.667854  0.330243  1
  Pd  Pd13  1  0.665898  0.333893  0.999790  1
  Pd  Pd14  1  0.334104  0.667997  0.333893  1
  Pd  Pd15  1  0.000000  0.330243  0.667854  1
  Pd  Pd16  1  0.335809  0.665064  0.000872  1
  Pd  Pd17  1  0.335809  0.000872  0.665064  1
  Pd  Pd18  1  0.662391  0.330244  0.330244  1
  Pd  Pd19  1  0.664190  0.665064  0.329254  1
  Pd  Pd20  1  0.664190  0.329254  0.665064  1
  Pd  Pd21  1  0.337608  0.667853  0.667853  1
  Pt  Pt22  1  0.999999  0.007328  0.007328  1
