# generated using pymatgen
data_DyEr4(CoO6)2
_symmetry_space_group_name_H-M   'P 1'
_cell_length_a   6.71589413
_cell_length_b   6.71589545
_cell_length_c   7.11943120
_cell_angle_alpha   74.59558319
_cell_angle_beta   74.59557911
_cell_angle_gamma   50.42780301
_symmetry_Int_Tables_number   1
_chemical_formula_structural   DyEr4(CoO6)2
_chemical_formula_sum   'Dy1 Er4 Co2 O12'
_cell_volume   236.60952494
_cell_formula_units_Z   1
loop_
 _symmetry_equiv_pos_site_id
 _symmetry_equiv_pos_as_xyz
  1  'x, y, z'
loop_
 _atom_site_type_symbol
 _atom_site_label
 _atom_site_symmetry_multiplicity
 _atom_site_fract_x
 _atom_site_fract_y
 _atom_site_fract_z
 _atom_site_occupancy
  Dy  Dy0  1  0.000000  0.000000  0.500000  1
  Er  Er1  1  0.305516  0.305516  0.356060  1
  Er  Er2  1  0.694484  0.694484  0.643940  1
  Er  Er3  1  0.307786  0.307786  0.835282  1
  Er  Er4  1  0.692214  0.692214  0.164718  1
  Co  Co5  1  0.755294  0.244706  0.000000  1
  Co  Co6  1  0.244706  0.755294  0.000000  1
  O  O7  1  0.900940  0.419216  0.921043  1
  O  O8  1  0.419216  0.900940  0.921043  1
  O  O9  1  0.099060  0.580784  0.078957  1
  O  O10  1  0.580784  0.099060  0.078957  1
  O  O11  1  0.097268  0.595556  0.576792  1
  O  O12  1  0.595556  0.097268  0.576792  1
  O  O13  1  0.902732  0.404444  0.423208  1
  O  O14  1  0.404444  0.902732  0.423208  1
  O  O15  1  0.000883  0.000883  0.827690  1
  O  O16  1  0.999117  0.999117  0.172310  1
  O  O17  1  0.500268  0.500268  0.823037  1
  O  O18  1  0.499732  0.499732  0.176963  1
