# generated using pymatgen
data_La2Sc3S7
_symmetry_space_group_name_H-M   'P 1'
_cell_length_a   6.38986968
_cell_length_b   6.38987148
_cell_length_c   11.44285700
_cell_angle_alpha   75.76060088
_cell_angle_beta   75.76059679
_cell_angle_gamma   34.23570806
_symmetry_Int_Tables_number   1
_chemical_formula_structural   La2Sc3S7
_chemical_formula_sum   'La2 Sc3 S7'
_cell_volume   254.00044966
_cell_formula_units_Z   1
loop_
 _symmetry_equiv_pos_site_id
 _symmetry_equiv_pos_as_xyz
  1  'x, y, z'
loop_
 _atom_site_type_symbol
 _atom_site_label
 _atom_site_symmetry_multiplicity
 _atom_site_fract_x
 _atom_site_fract_y
 _atom_site_fract_z
 _atom_site_occupancy
  La  La0  1  0.302342  0.302342  0.801831  1
  La  La1  1  0.697658  0.697658  0.198169  1
  Sc  Sc2  1  0.111493  0.111493  0.572421  1
  Sc  Sc3  1  0.888507  0.888507  0.427579  1
  Sc  Sc4  1  0.000000  0.000000  0.000000  1
  S  S5  1  0.264788  0.264788  0.366835  1
  S  S6  1  0.735212  0.735212  0.633165  1
  S  S7  1  0.982111  0.982111  0.782416  1
  S  S8  1  0.017889  0.017889  0.217584  1
  S  S9  1  0.649411  0.649411  0.953438  1
  S  S10  1  0.500000  0.500000  0.500000  1
  S  S11  1  0.350589  0.350589  0.046562  1
