# generated using pymatgen
data_La6Al19Si5Os8
_symmetry_space_group_name_H-M   'P 1'
_cell_length_a   8.83703400
_cell_length_b   8.84501914
_cell_length_c   9.77416600
_cell_angle_alpha   90.00000000
_cell_angle_beta   90.00000000
_cell_angle_gamma   119.97014063
_symmetry_Int_Tables_number   1
_chemical_formula_structural   La6Al19Si5Os8
_chemical_formula_sum   'La6 Al19 Si5 Os8'
_cell_volume   661.82967872
_cell_formula_units_Z   1
loop_
 _symmetry_equiv_pos_site_id
 _symmetry_equiv_pos_as_xyz
  1  'x, y, z'
loop_
 _atom_site_type_symbol
 _atom_site_label
 _atom_site_symmetry_multiplicity
 _atom_site_fract_x
 _atom_site_fract_y
 _atom_site_fract_z
 _atom_site_occupancy
  La  La0  1  0.192455  0.384910  0.250000  1
  La  La1  1  0.808270  0.616541  0.750000  1
  La  La2  1  0.614237  0.809716  0.250000  1
  La  La3  1  0.384395  0.191535  0.750000  1
  La  La4  1  0.195480  0.809716  0.250000  1
  La  La5  1  0.807139  0.191535  0.750000  1
  Al  Al6  1  0.165058  0.330115  0.574018  1
  Al  Al7  1  0.834382  0.668766  0.425842  1
  Al  Al8  1  0.668706  0.834085  0.573239  1
  Al  Al9  1  0.834382  0.668766  0.074158  1
  Al  Al10  1  0.330432  0.166725  0.426239  1
  Al  Al11  1  0.165058  0.330115  0.925982  1
  Al  Al12  1  0.165379  0.834085  0.573239  1
  Al  Al13  1  0.330432  0.166725  0.073761  1
  Al  Al14  1  0.836293  0.166725  0.426239  1
  Al  Al15  1  0.668706  0.834085  0.926761  1
  Al  Al16  1  0.836293  0.166725  0.073761  1
  Al  Al17  1  0.165379  0.834085  0.926761  1
  Al  Al18  1  0.434983  0.869965  0.750000  1
  Al  Al19  1  0.869305  0.431591  0.250000  1
  Al  Al20  1  0.130387  0.565014  0.750000  1
  Al  Al21  1  0.562286  0.431591  0.250000  1
  Al  Al22  1  0.434627  0.565014  0.750000  1
  Al  Al23  1  0.000432  0.000863  0.250000  1
  Al  Al24  1  0.000003  0.000004  0.750000  1
  Si  Si25  1  0.332695  0.665390  0.030231  1
  Si  Si26  1  0.667362  0.334722  0.968077  1
  Si  Si27  1  0.667362  0.334722  0.531923  1
  Si  Si28  1  0.332695  0.665390  0.469769  1
  Si  Si29  1  0.565522  0.131045  0.250000  1
  Os  Os30  1  0.501161  0.002322  0.005530  1
  Os  Os31  1  0.998613  0.499103  0.000464  1
  Os  Os32  1  0.501161  0.002322  0.494470  1
  Os  Os33  1  0.500490  0.499103  0.000464  1
  Os  Os34  1  0.998613  0.499103  0.499536  1
  Os  Os35  1  0.500490  0.499103  0.499536  1
  Os  Os36  1  0.999669  0.999339  0.999828  1
  Os  Os37  1  0.999669  0.999339  0.500172  1
