# generated using pymatgen
data_Tb6YHo13Sn16
_symmetry_space_group_name_H-M   'P 1'
_cell_length_a   8.02579633
_cell_length_b   8.16260274
_cell_length_c   15.45463761
_cell_angle_alpha   89.99929019
_cell_angle_beta   90.05973240
_cell_angle_gamma   89.97618586
_symmetry_Int_Tables_number   1
_chemical_formula_structural   Tb6YHo13Sn16
_chemical_formula_sum   'Tb6 Y1 Ho13 Sn16'
_cell_volume   1012.45411006
_cell_formula_units_Z   1
loop_
 _symmetry_equiv_pos_site_id
 _symmetry_equiv_pos_as_xyz
  1  'x, y, z'
loop_
 _atom_site_type_symbol
 _atom_site_label
 _atom_site_symmetry_multiplicity
 _atom_site_fract_x
 _atom_site_fract_y
 _atom_site_fract_z
 _atom_site_occupancy
  Tb  Tb0  1  0.021824  0.179181  0.597802  1
  Tb  Tb1  1  0.478137  0.679173  0.402246  1
  Tb  Tb2  1  0.978022  0.820944  0.097725  1
  Tb  Tb3  1  0.477963  0.678966  0.097714  1
  Tb  Tb4  1  0.978123  0.820836  0.402264  1
  Tb  Tb5  1  0.521826  0.320906  0.597730  1
  Y  Y6  1  0.022165  0.179181  0.902219  1
  Ho  Ho7  1  0.367562  0.836717  0.877772  1
  Ho  Ho8  1  0.867445  0.663387  0.622327  1
  Ho  Ho9  1  0.632476  0.163502  0.377750  1
  Ho  Ho10  1  0.132314  0.336491  0.122207  1
  Ho  Ho11  1  0.632260  0.163681  0.122101  1
  Ho  Ho12  1  0.132500  0.336531  0.377748  1
  Ho  Ho13  1  0.367538  0.836568  0.622340  1
  Ho  Ho14  1  0.867626  0.663290  0.877779  1
  Ho  Ho15  1  0.522175  0.320893  0.901988  1
  Ho  Ho16  1  0.198915  0.503075  0.750196  1
  Ho  Ho17  1  0.698701  0.996981  0.750220  1
  Ho  Ho18  1  0.801154  0.496666  0.249959  1
  Ho  Ho19  1  0.301269  0.003277  0.249969  1
  Sn  Sn20  1  0.293128  0.036377  0.041807  1
  Sn  Sn21  1  0.793386  0.463767  0.458167  1
  Sn  Sn22  1  0.706612  0.963759  0.541974  1
  Sn  Sn23  1  0.207554  0.535357  0.957912  1
  Sn  Sn24  1  0.706504  0.964450  0.957947  1
  Sn  Sn25  1  0.206596  0.536308  0.541959  1
  Sn  Sn26  1  0.293373  0.036205  0.458161  1
  Sn  Sn27  1  0.792745  0.463451  0.041573  1
  Sn  Sn28  1  0.565307  0.619558  0.750078  1
  Sn  Sn29  1  0.065276  0.880160  0.749963  1
  Sn  Sn30  1  0.434637  0.380236  0.249929  1
  Sn  Sn31  1  0.934624  0.119822  0.249948  1
  Sn  Sn32  1  0.330469  0.147463  0.750344  1
  Sn  Sn33  1  0.829922  0.352804  0.750217  1
  Sn  Sn34  1  0.669932  0.852954  0.249978  1
  Sn  Sn35  1  0.169942  0.647085  0.249990  1
