# generated using pymatgen
data_Hf4Ga2NiRh9
_symmetry_space_group_name_H-M   'P 1'
_cell_length_a   4.09558400
_cell_length_b   5.47823798
_cell_length_c   10.91968594
_cell_angle_alpha   89.66968696
_cell_angle_beta   90.00000000
_cell_angle_gamma   90.00000000
_symmetry_Int_Tables_number   1
_chemical_formula_structural   Hf4Ga2NiRh9
_chemical_formula_sum   'Hf4 Ga2 Ni1 Rh9'
_cell_volume   244.99637721
_cell_formula_units_Z   1
loop_
 _symmetry_equiv_pos_site_id
 _symmetry_equiv_pos_as_xyz
  1  'x, y, z'
loop_
 _atom_site_type_symbol
 _atom_site_label
 _atom_site_symmetry_multiplicity
 _atom_site_fract_x
 _atom_site_fract_y
 _atom_site_fract_z
 _atom_site_occupancy
  Hf  Hf0  1  0.500000  0.184292  0.640177  1
  Hf  Hf1  1  0.500000  0.813916  0.361062  1
  Hf  Hf2  1  0.500000  0.686783  0.860869  1
  Hf  Hf3  1  0.500000  0.315864  0.138291  1
  Ga  Ga4  1  0.000000  0.497730  0.502316  1
  Ga  Ga5  1  0.000000  0.002583  0.998701  1
  Ni  Ni6  1  0.000000  0.436463  0.747228  1
  Rh  Rh7  1  0.500000  0.198717  0.887248  1
  Rh  Rh8  1  0.500000  0.809256  0.109126  1
  Rh  Rh9  1  0.500000  0.684326  0.612478  1
  Rh  Rh10  1  0.500000  0.307731  0.391149  1
  Rh  Rh11  1  0.000000  0.562962  0.253350  1
  Rh  Rh12  1  0.000000  0.998544  0.501361  1
  Rh  Rh13  1  0.000000  0.503028  0.996298  1
  Rh  Rh14  1  0.000000  0.063224  0.246052  1
  Rh  Rh15  1  0.000000  0.934581  0.754292  1
