# generated using pymatgen
data_TbHo2CI3
_symmetry_space_group_name_H-M   'P 1'
_cell_length_a   3.90405900
_cell_length_b   8.70126726
_cell_length_c   11.94733685
_cell_angle_alpha   92.16485930
_cell_angle_beta   90.00000000
_cell_angle_gamma   90.00000000
_symmetry_Int_Tables_number   1
_chemical_formula_structural   TbHo2CI3
_chemical_formula_sum   'Tb2 Ho4 C2 I6'
_cell_volume   405.56447898
_cell_formula_units_Z   2
loop_
 _symmetry_equiv_pos_site_id
 _symmetry_equiv_pos_as_xyz
  1  'x, y, z'
loop_
 _atom_site_type_symbol
 _atom_site_label
 _atom_site_symmetry_multiplicity
 _atom_site_fract_x
 _atom_site_fract_y
 _atom_site_fract_z
 _atom_site_occupancy
  Tb  Tb0  1  0.250000  0.917392  0.599477  1
  Tb  Tb1  1  0.750000  0.082608  0.400523  1
  Ho  Ho2  1  0.250000  0.887153  0.189638  1
  Ho  Ho3  1  0.750000  0.112847  0.810362  1
  Ho  Ho4  1  0.250000  0.291057  0.614865  1
  Ho  Ho5  1  0.750000  0.708943  0.385135  1
  C  C6  1  0.250000  0.880735  0.386484  1
  C  C7  1  0.750000  0.119265  0.613516  1
  I  I8  1  0.250000  0.860546  0.872211  1
  I  I9  1  0.750000  0.139454  0.127789  1
  I  I10  1  0.250000  0.374144  0.869536  1
  I  I11  1  0.750000  0.625856  0.130464  1
  I  I12  1  0.250000  0.383789  0.368865  1
  I  I13  1  0.750000  0.616211  0.631135  1
