# generated using pymatgen
data_ZrZn3CuIr
_symmetry_space_group_name_H-M   'P 1'
_cell_length_a   4.96839823
_cell_length_b   4.96839936
_cell_length_c   4.96839900
_cell_angle_alpha   60.50638487
_cell_angle_beta   60.50637754
_cell_angle_gamma   60.50637586
_symmetry_Int_Tables_number   1
_chemical_formula_structural   ZrZn3CuIr
_chemical_formula_sum   'Zr1 Zn3 Cu1 Ir1'
_cell_volume   87.71544130
_cell_formula_units_Z   1
loop_
 _symmetry_equiv_pos_site_id
 _symmetry_equiv_pos_as_xyz
  1  'x, y, z'
loop_
 _atom_site_type_symbol
 _atom_site_label
 _atom_site_symmetry_multiplicity
 _atom_site_fract_x
 _atom_site_fract_y
 _atom_site_fract_z
 _atom_site_occupancy
  Zr  Zr0  1  0.999636  0.999636  0.999636  1
  Zn  Zn1  1  0.624099  0.624099  0.127867  1
  Zn  Zn2  1  0.624099  0.127867  0.624099  1
  Zn  Zn3  1  0.127867  0.624099  0.624099  1
  Cu  Cu4  1  0.626010  0.626010  0.626010  1
  Ir  Ir5  1  0.248288  0.248288  0.248288  1
