# generated using pymatgen
data_Tb16In4OsPtRh2
_symmetry_space_group_name_H-M   'P 1'
_cell_length_a   9.71628714
_cell_length_b   9.74723734
_cell_length_c   9.71628605
_cell_angle_alpha   60.03759096
_cell_angle_beta   59.86400598
_cell_angle_gamma   60.03758475
_symmetry_Int_Tables_number   1
_chemical_formula_structural   Tb16In4OsPtRh2
_chemical_formula_sum   'Tb16 In4 Os1 Pt1 Rh2'
_cell_volume   650.37648779
_cell_formula_units_Z   1
loop_
 _symmetry_equiv_pos_site_id
 _symmetry_equiv_pos_as_xyz
  1  'x, y, z'
loop_
 _atom_site_type_symbol
 _atom_site_label
 _atom_site_symmetry_multiplicity
 _atom_site_fract_x
 _atom_site_fract_y
 _atom_site_fract_z
 _atom_site_occupancy
  Tb  Tb0  1  0.810437  0.808236  0.194890  1
  Tb  Tb1  1  0.809355  0.196258  0.809355  1
  Tb  Tb2  1  0.188054  0.192078  0.811398  1
  Tb  Tb3  1  0.646317  0.053237  0.646317  1
  Tb  Tb4  1  0.061971  0.061071  0.436810  1
  Tb  Tb5  1  0.444141  0.436595  0.058813  1
  Tb  Tb6  1  0.652288  0.651563  0.652288  1
  Tb  Tb7  1  0.811398  0.192078  0.188054  1
  Tb  Tb8  1  0.194890  0.808236  0.810437  1
  Tb  Tb9  1  0.051493  0.646445  0.647491  1
  Tb  Tb10  1  0.436810  0.061071  0.061971  1
  Tb  Tb11  1  0.437761  0.060427  0.437761  1
  Tb  Tb12  1  0.058847  0.435380  0.058847  1
  Tb  Tb13  1  0.647491  0.646445  0.051493  1
  Tb  Tb14  1  0.190545  0.810046  0.190545  1
  Tb  Tb15  1  0.058813  0.436595  0.444141  1
  In  In16  1  0.417448  0.416893  0.417448  1
  In  In17  1  0.417361  0.417135  0.747935  1
  In  In18  1  0.418043  0.747067  0.418043  1
  In  In19  1  0.747935  0.417135  0.417361  1
  Os  Os20  1  0.858031  0.426854  0.858031  1
  Pt  Pt21  1  0.856864  0.859441  0.856864  1
  Rh  Rh22  1  0.858317  0.859855  0.425388  1
  Rh  Rh23  1  0.425388  0.859855  0.858317  1
