# generated using pymatgen
data_LaTh(Mn9Si4)2
_symmetry_space_group_name_H-M   'P 1'
_cell_length_a   8.07303174
_cell_length_b   8.07303188
_cell_length_c   8.07303146
_cell_angle_alpha   121.48962231
_cell_angle_beta   121.48963312
_cell_angle_gamma   87.43869020
_symmetry_Int_Tables_number   1
_chemical_formula_structural   LaTh(Mn9Si4)2
_chemical_formula_sum   'La1 Th1 Mn18 Si8'
_cell_volume   363.27324256
_cell_formula_units_Z   1
loop_
 _symmetry_equiv_pos_site_id
 _symmetry_equiv_pos_as_xyz
  1  'x, y, z'
loop_
 _atom_site_type_symbol
 _atom_site_label
 _atom_site_symmetry_multiplicity
 _atom_site_fract_x
 _atom_site_fract_y
 _atom_site_fract_z
 _atom_site_occupancy
  La  La0  1  0.250000  0.250000  0.000000  1
  Th  Th1  1  0.750000  0.750000  0.000000  1
  Mn  Mn2  1  0.941380  0.807979  0.751247  1
  Mn  Mn3  1  0.794519  0.296437  0.738215  1
  Mn  Mn4  1  0.296437  0.558222  0.501919  1
  Mn  Mn5  1  0.203563  0.705481  0.261785  1
  Mn  Mn6  1  0.705481  0.443697  0.501919  1
  Mn  Mn7  1  0.941778  0.203563  0.498081  1
  Mn  Mn8  1  0.056731  0.190133  0.248753  1
  Mn  Mn9  1  0.309867  0.443269  0.751247  1
  Mn  Mn10  1  0.056303  0.794519  0.498081  1
  Mn  Mn11  1  0.558620  0.309867  0.866598  1
  Mn  Mn12  1  0.443697  0.941778  0.738215  1
  Mn  Mn13  1  0.807979  0.056731  0.866598  1
  Mn  Mn14  1  0.443269  0.692021  0.133402  1
  Mn  Mn15  1  0.692021  0.558620  0.248753  1
  Mn  Mn16  1  0.190133  0.941380  0.133402  1
  Mn  Mn17  1  0.000000  0.500000  0.500000  1
  Mn  Mn18  1  0.558222  0.056303  0.261785  1
  Mn  Mn19  1  0.500000  0.000000  0.500000  1
  Si  Si20  1  0.296008  0.797391  0.851612  1
  Si  Si21  1  0.797391  0.945779  0.501383  1
  Si  Si22  1  0.945779  0.444397  0.148388  1
  Si  Si23  1  0.444397  0.296008  0.498617  1
  Si  Si24  1  0.055603  0.554221  0.851612  1
  Si  Si25  1  0.203992  0.055603  0.501383  1
  Si  Si26  1  0.702609  0.203992  0.148388  1
  Si  Si27  1  0.554221  0.702609  0.498617  1
