# generated using pymatgen
data_BaMn2(FeSb6)2
_symmetry_space_group_name_H-M   'P 1'
_cell_length_a   8.06279124
_cell_length_b   8.11936096
_cell_length_c   8.06279050
_cell_angle_alpha   109.42331413
_cell_angle_beta   109.34152793
_cell_angle_gamma   109.36574079
_symmetry_Int_Tables_number   1
_chemical_formula_structural   BaMn2(FeSb6)2
_chemical_formula_sum   'Ba1 Mn2 Fe2 Sb12'
_cell_volume   407.73556029
_cell_formula_units_Z   1
loop_
 _symmetry_equiv_pos_site_id
 _symmetry_equiv_pos_as_xyz
  1  'x, y, z'
loop_
 _atom_site_type_symbol
 _atom_site_label
 _atom_site_symmetry_multiplicity
 _atom_site_fract_x
 _atom_site_fract_y
 _atom_site_fract_z
 _atom_site_occupancy
  Ba  Ba0  1  0.000000  0.000000  0.000000  1
  Mn  Mn1  1  0.000000  0.000000  0.500000  1
  Mn  Mn2  1  0.500000  0.000000  0.000000  1
  Fe  Fe3  1  0.000000  0.500000  0.000000  1
  Fe  Fe4  1  0.500000  0.500000  0.500000  1
  Sb  Sb5  1  0.344734  0.186745  0.842010  1
  Sb  Sb6  1  0.655266  0.813255  0.157990  1
  Sb  Sb7  1  0.665373  0.501158  0.835785  1
  Sb  Sb8  1  0.334627  0.498842  0.164215  1
  Sb  Sb9  1  0.177378  0.832669  0.332865  1
  Sb  Sb10  1  0.822622  0.167331  0.667135  1
  Sb  Sb11  1  0.499804  0.832669  0.655292  1
  Sb  Sb12  1  0.500196  0.167331  0.344708  1
  Sb  Sb13  1  0.845484  0.346337  0.178683  1
  Sb  Sb14  1  0.154516  0.653663  0.821317  1
  Sb  Sb15  1  0.832345  0.653663  0.499148  1
  Sb  Sb16  1  0.167655  0.346337  0.500852  1
