# generated using pymatgen
data_Yb9Sm(TmRu2)2
_symmetry_space_group_name_H-M   'P 1'
_cell_length_a   6.25122534
_cell_length_b   7.52613239
_cell_length_c   9.23110835
_cell_angle_alpha   89.88364274
_cell_angle_beta   90.90647672
_cell_angle_gamma   89.36625746
_symmetry_Int_Tables_number   1
_chemical_formula_structural   Yb9Sm(TmRu2)2
_chemical_formula_sum   'Yb9 Sm1 Tm2 Ru4'
_cell_volume   434.21905475
_cell_formula_units_Z   1
loop_
 _symmetry_equiv_pos_site_id
 _symmetry_equiv_pos_as_xyz
  1  'x, y, z'
loop_
 _atom_site_type_symbol
 _atom_site_label
 _atom_site_symmetry_multiplicity
 _atom_site_fract_x
 _atom_site_fract_y
 _atom_site_fract_z
 _atom_site_occupancy
  Yb  Yb0  1  0.631880  0.035408  0.254459  1
  Yb  Yb1  1  0.368625  0.961256  0.746418  1
  Yb  Yb2  1  0.127065  0.461797  0.744451  1
  Yb  Yb3  1  0.869548  0.540778  0.255043  1
  Yb  Yb4  1  0.162472  0.168388  0.065888  1
  Yb  Yb5  1  0.842645  0.835643  0.928744  1
  Yb  Yb6  1  0.661422  0.333155  0.927788  1
  Yb  Yb7  1  0.842287  0.827431  0.564002  1
  Yb  Yb8  1  0.343628  0.665786  0.069969  1
  Sm  Sm9  1  0.150313  0.168878  0.436548  1
  Tm  Tm10  1  0.345232  0.667789  0.438373  1
  Tm  Tm11  1  0.651059  0.331536  0.565494  1
  Ru  Ru12  1  0.454590  0.381636  0.274270  1
  Ru  Ru13  1  0.539018  0.615398  0.732508  1
  Ru  Ru14  1  0.944983  0.128397  0.737893  1
  Ru  Ru15  1  0.065234  0.876725  0.258151  1
