# generated using pymatgen
data_Mg2Ga(SbPt)3
_symmetry_space_group_name_H-M   'P 1'
_cell_length_a   7.74286078
_cell_length_b   7.74286087
_cell_length_c   7.77462162
_cell_angle_alpha   99.75728704
_cell_angle_beta   99.75728663
_cell_angle_gamma   119.70416794
_symmetry_Int_Tables_number   1
_chemical_formula_structural   Mg2Ga(SbPt)3
_chemical_formula_sum   'Mg4 Ga2 Sb6 Pt6'
_cell_volume   381.10896663
_cell_formula_units_Z   2
loop_
 _symmetry_equiv_pos_site_id
 _symmetry_equiv_pos_as_xyz
  1  'x, y, z'
loop_
 _atom_site_type_symbol
 _atom_site_label
 _atom_site_symmetry_multiplicity
 _atom_site_fract_x
 _atom_site_fract_y
 _atom_site_fract_z
 _atom_site_occupancy
  Mg  Mg0  1  0.330390  0.163587  0.499058  1
  Mg  Mg1  1  0.999979  0.503571  0.499469  1
  Mg  Mg2  1  0.163587  0.330389  0.999057  1
  Mg  Mg3  1  0.503570  0.999979  0.999469  1
  Ga  Ga4  1  0.833057  0.670708  0.000515  1
  Ga  Ga5  1  0.670707  0.833057  0.500514  1
  Sb  Sb6  1  0.918276  0.094916  0.247933  1
  Sb  Sb7  1  0.256975  0.748720  0.249363  1
  Sb  Sb8  1  0.574069  0.405301  0.254687  1
  Sb  Sb9  1  0.094916  0.918276  0.747934  1
  Sb  Sb10  1  0.748719  0.256974  0.749362  1
  Sb  Sb11  1  0.405301  0.574068  0.754687  1
  Pt  Pt12  1  0.194263  0.026571  0.119969  1
  Pt  Pt13  1  0.872056  0.390217  0.120894  1
  Pt  Pt14  1  0.558409  0.708935  0.133112  1
  Pt  Pt15  1  0.026571  0.194265  0.619970  1
  Pt  Pt16  1  0.390216  0.872056  0.620894  1
  Pt  Pt17  1  0.708933  0.558408  0.633112  1
