# generated using pymatgen
data_DyY4Tm7AlCo5
_symmetry_space_group_name_H-M   'P 1'
_cell_length_a   8.17483493
_cell_length_b   8.17846275
_cell_length_c   8.17846028
_cell_angle_alpha   110.58851525
_cell_angle_beta   110.92135836
_cell_angle_gamma   106.95062248
_symmetry_Int_Tables_number   1
_chemical_formula_structural   DyY4Tm7AlCo5
_chemical_formula_sum   'Dy1 Y4 Tm7 Al1 Co5'
_cell_volume   420.21577538
_cell_formula_units_Z   1
loop_
 _symmetry_equiv_pos_site_id
 _symmetry_equiv_pos_as_xyz
  1  'x, y, z'
loop_
 _atom_site_type_symbol
 _atom_site_label
 _atom_site_symmetry_multiplicity
 _atom_site_fract_x
 _atom_site_fract_y
 _atom_site_fract_z
 _atom_site_occupancy
  Dy  Dy0  1  0.024030  0.213995  0.810034  1
  Y  Y1  1  0.810617  0.709884  0.521388  1
  Y  Y2  1  0.188527  0.288508  0.476243  1
  Y  Y3  1  0.188521  0.712289  0.900019  1
  Y  Y4  1  0.810622  0.289228  0.100735  1
  Tm  Tm5  1  0.684510  0.380028  0.694521  1
  Tm  Tm6  1  0.316120  0.621059  0.305936  1
  Tm  Tm7  1  0.684508  0.989989  0.304480  1
  Tm  Tm8  1  0.316123  0.010187  0.695065  1
  Tm  Tm9  1  0.594313  0.784950  0.809362  1
  Tm  Tm10  1  0.406406  0.214693  0.191715  1
  Tm  Tm11  1  0.976131  0.785058  0.191076  1
  Al  Al12  1  0.501001  0.500648  0.000354  1
  Co  Co13  1  0.621902  0.999498  0.622403  1
  Co  Co14  1  0.376253  0.000280  0.375973  1
  Co  Co15  1  0.114629  0.614340  0.500289  1
  Co  Co16  1  0.885422  0.386879  0.498542  1
  Co  Co17  1  0.000365  0.998486  0.001864  1
