# generated using pymatgen
data_Tb5TcPt2
_symmetry_space_group_name_H-M   'P 1'
_cell_length_a   11.01457500
_cell_length_b   11.01457500
_cell_length_c   6.53391300
_cell_angle_alpha   90.00000000
_cell_angle_beta   90.00000000
_cell_angle_gamma   90.00000000
_symmetry_Int_Tables_number   1
_chemical_formula_structural   Tb5TcPt2
_chemical_formula_sum   'Tb20 Tc4 Pt8'
_cell_volume   792.69996021
_cell_formula_units_Z   4
loop_
 _symmetry_equiv_pos_site_id
 _symmetry_equiv_pos_as_xyz
  1  'x, y, z'
loop_
 _atom_site_type_symbol
 _atom_site_label
 _atom_site_symmetry_multiplicity
 _atom_site_fract_x
 _atom_site_fract_y
 _atom_site_fract_z
 _atom_site_occupancy
  Tb  Tb0  1  0.297227  0.085793  0.372670  1
  Tb  Tb1  1  0.297227  0.914207  0.872670  1
  Tb  Tb2  1  0.702773  0.085793  0.872670  1
  Tb  Tb3  1  0.702773  0.914207  0.372670  1
  Tb  Tb4  1  0.585793  0.797227  0.872670  1
  Tb  Tb5  1  0.585793  0.202773  0.372670  1
  Tb  Tb6  1  0.414207  0.797227  0.372670  1
  Tb  Tb7  1  0.414207  0.202773  0.872670  1
  Tb  Tb8  1  0.202773  0.414207  0.627330  1
  Tb  Tb9  1  0.202773  0.585793  0.127330  1
  Tb  Tb10  1  0.797227  0.414207  0.127330  1
  Tb  Tb11  1  0.797227  0.585793  0.627330  1
  Tb  Tb12  1  0.914207  0.702773  0.127330  1
  Tb  Tb13  1  0.914207  0.297227  0.627330  1
  Tb  Tb14  1  0.085793  0.702773  0.627330  1
  Tb  Tb15  1  0.085793  0.297227  0.127330  1
  Tb  Tb16  1  0.000000  0.000000  0.500000  1
  Tb  Tb17  1  0.000000  0.000000  0.000000  1
  Tb  Tb18  1  0.500000  0.500000  0.000000  1
  Tb  Tb19  1  0.500000  0.500000  0.500000  1
  Tc  Tc20  1  0.500000  0.000000  0.123888  1
  Tc  Tc21  1  0.500000  0.000000  0.623888  1
  Tc  Tc22  1  0.000000  0.500000  0.876112  1
  Tc  Tc23  1  0.000000  0.500000  0.376112  1
  Pt  Pt24  1  0.848201  0.151799  0.250000  1
  Pt  Pt25  1  0.848201  0.848201  0.750000  1
  Pt  Pt26  1  0.151799  0.151799  0.750000  1
  Pt  Pt27  1  0.151799  0.848201  0.250000  1
  Pt  Pt28  1  0.651799  0.348201  0.750000  1
  Pt  Pt29  1  0.651799  0.651799  0.250000  1
  Pt  Pt30  1  0.348201  0.348201  0.250000  1
  Pt  Pt31  1  0.348201  0.651799  0.750000  1
