# generated using pymatgen
data_TiNb4Fe(B2Ru5)2
_symmetry_space_group_name_H-M   'P 1'
_cell_length_a   9.34125800
_cell_length_b   9.34125800
_cell_length_c   2.99861200
_cell_angle_alpha   90.00000000
_cell_angle_beta   90.00000000
_cell_angle_gamma   90.00000000
_symmetry_Int_Tables_number   1
_chemical_formula_structural   TiNb4Fe(B2Ru5)2
_chemical_formula_sum   'Ti1 Nb4 Fe1 B4 Ru10'
_cell_volume   261.65618744
_cell_formula_units_Z   1
loop_
 _symmetry_equiv_pos_site_id
 _symmetry_equiv_pos_as_xyz
  1  'x, y, z'
loop_
 _atom_site_type_symbol
 _atom_site_label
 _atom_site_symmetry_multiplicity
 _atom_site_fract_x
 _atom_site_fract_y
 _atom_site_fract_z
 _atom_site_occupancy
  Ti  Ti0  1  0.500000  0.500000  0.000000  1
  Nb  Nb1  1  0.823055  0.677170  0.000000  1
  Nb  Nb2  1  0.176945  0.322830  0.000000  1
  Nb  Nb3  1  0.322830  0.823055  0.000000  1
  Nb  Nb4  1  0.677170  0.176945  0.000000  1
  Fe  Fe5  1  0.000000  0.000000  0.000000  1
  B  B6  1  0.625579  0.877703  0.000000  1
  B  B7  1  0.374421  0.122297  0.000000  1
  B  B8  1  0.122297  0.625579  0.000000  1
  B  B9  1  0.877703  0.374421  0.000000  1
  Ru  Ru10  1  0.571237  0.716412  0.500000  1
  Ru  Ru11  1  0.428763  0.283588  0.500000  1
  Ru  Ru12  1  0.068535  0.786414  0.500000  1
  Ru  Ru13  1  0.931465  0.213586  0.500000  1
  Ru  Ru14  1  0.283588  0.571237  0.500000  1
  Ru  Ru15  1  0.716412  0.428763  0.500000  1
  Ru  Ru16  1  0.213586  0.068535  0.500000  1
  Ru  Ru17  1  0.786414  0.931465  0.500000  1
  Ru  Ru18  1  0.500000  0.000000  0.500000  1
  Ru  Ru19  1  0.000000  0.500000  0.500000  1
