# generated using pymatgen
data_Er12Tc2PdPt
_symmetry_space_group_name_H-M   'P 1'
_cell_length_a   6.38343502
_cell_length_b   7.24547209
_cell_length_c   9.12003900
_cell_angle_alpha   90.00000000
_cell_angle_beta   90.00000000
_cell_angle_gamma   90.09510215
_symmetry_Int_Tables_number   1
_chemical_formula_structural   Er12Tc2PdPt
_chemical_formula_sum   'Er12 Tc2 Pd1 Pt1'
_cell_volume   421.81034513
_cell_formula_units_Z   1
loop_
 _symmetry_equiv_pos_site_id
 _symmetry_equiv_pos_as_xyz
  1  'x, y, z'
loop_
 _atom_site_type_symbol
 _atom_site_label
 _atom_site_symmetry_multiplicity
 _atom_site_fract_x
 _atom_site_fract_y
 _atom_site_fract_z
 _atom_site_occupancy
  Er  Er0  1  0.331176  0.673959  0.062082  1
  Er  Er1  1  0.170824  0.185344  0.442558  1
  Er  Er2  1  0.672793  0.316682  0.559222  1
  Er  Er3  1  0.827529  0.823774  0.935100  1
  Er  Er4  1  0.672793  0.316682  0.940778  1
  Er  Er5  1  0.827529  0.823774  0.564900  1
  Er  Er6  1  0.331176  0.673959  0.437918  1
  Er  Er7  1  0.170824  0.185344  0.057442  1
  Er  Er8  1  0.870573  0.532890  0.250000  1
  Er  Er9  1  0.622019  0.038482  0.250000  1
  Er  Er10  1  0.123239  0.461715  0.750000  1
  Er  Er11  1  0.373035  0.966662  0.750000  1
  Tc  Tc12  1  0.463600  0.389319  0.250000  1
  Tc  Tc13  1  0.963064  0.110239  0.750000  1
  Pd  Pd14  1  0.041757  0.890664  0.250000  1
  Pt  Pt15  1  0.538069  0.610509  0.750000  1
