# generated using pymatgen
data_Tb4Al18Ir4PtAu
_symmetry_space_group_name_H-M   'P 1'
_cell_length_a   7.61270842
_cell_length_b   7.61270773
_cell_length_c   9.48539410
_cell_angle_alpha   89.98874232
_cell_angle_beta   89.98873988
_cell_angle_gamma   119.75566005
_symmetry_Int_Tables_number   1
_chemical_formula_structural   Tb4Al18Ir4PtAu
_chemical_formula_sum   'Tb4 Al18 Ir4 Pt1 Au1'
_cell_volume   477.23068903
_cell_formula_units_Z   1
loop_
 _symmetry_equiv_pos_site_id
 _symmetry_equiv_pos_as_xyz
  1  'x, y, z'
loop_
 _atom_site_type_symbol
 _atom_site_label
 _atom_site_symmetry_multiplicity
 _atom_site_fract_x
 _atom_site_fract_y
 _atom_site_fract_z
 _atom_site_occupancy
  Tb  Tb0  1  0.993025  0.667534  0.251264  1
  Tb  Tb1  1  0.002792  0.329526  0.748949  1
  Tb  Tb2  1  0.670474  0.997208  0.251051  1
  Tb  Tb3  1  0.332466  0.006975  0.748736  1
  Al  Al4  1  0.126848  0.125460  0.251920  1
  Al  Al5  1  0.874540  0.873152  0.748080  1
  Al  Al6  1  0.008278  0.331808  0.079054  1
  Al  Al7  1  0.004421  0.674302  0.921215  1
  Al  Al8  1  0.001561  0.665583  0.572831  1
  Al  Al9  1  0.334417  0.998439  0.427169  1
  Al  Al10  1  0.999986  0.334607  0.426633  1
  Al  Al11  1  0.665393  0.000014  0.573367  1
  Al  Al12  1  0.668192  0.991722  0.920946  1
  Al  Al13  1  0.325698  0.995579  0.078785  1
  Al  Al14  1  0.331263  0.331583  0.549112  1
  Al  Al15  1  0.668417  0.668737  0.450888  1
  Al  Al16  1  0.668338  0.672525  0.060412  1
  Al  Al17  1  0.327475  0.331662  0.939588  1
  Al  Al18  1  0.340948  0.549147  0.253783  1
  Al  Al19  1  0.659913  0.457602  0.742147  1
  Al  Al20  1  0.542398  0.340087  0.257853  1
  Al  Al21  1  0.450853  0.659052  0.746217  1
  Ir  Ir22  1  0.328301  0.671699  0.500000  1
  Ir  Ir23  1  0.672144  0.327856  0.500000  1
  Ir  Ir24  1  0.999898  0.000102  0.000000  1
  Ir  Ir25  1  0.000179  0.999821  0.500000  1
  Pt  Pt26  1  0.328231  0.671769  0.000000  1
  Au  Au27  1  0.673552  0.326448  0.000000  1
