# generated using pymatgen
data_Y16MgCd(Ni2Ag)2
_symmetry_space_group_name_H-M   'P 1'
_cell_length_a   9.53573521
_cell_length_b   9.53647707
_cell_length_c   9.52268400
_cell_angle_alpha   60.04784022
_cell_angle_beta   60.04527162
_cell_angle_gamma   60.11697034
_symmetry_Int_Tables_number   1
_chemical_formula_structural   Y16MgCd(Ni2Ag)2
_chemical_formula_sum   'Y16 Mg1 Cd1 Ni4 Ag2'
_cell_volume   613.30254361
_cell_formula_units_Z   1
loop_
 _symmetry_equiv_pos_site_id
 _symmetry_equiv_pos_as_xyz
  1  'x, y, z'
loop_
 _atom_site_type_symbol
 _atom_site_label
 _atom_site_symmetry_multiplicity
 _atom_site_fract_x
 _atom_site_fract_y
 _atom_site_fract_z
 _atom_site_occupancy
  Y  Y0  1  0.597792  0.598674  0.597533  1
  Y  Y1  1  0.597792  0.598674  0.206001  1
  Y  Y2  1  0.602560  0.195681  0.600880  1
  Y  Y3  1  0.202006  0.601140  0.598428  1
  Y  Y4  1  0.062325  0.438003  0.438816  1
  Y  Y5  1  0.439593  0.060231  0.059389  1
  Y  Y6  1  0.439593  0.060231  0.440787  1
  Y  Y7  1  0.062325  0.438003  0.060856  1
  Y  Y8  1  0.439526  0.439026  0.060724  1
  Y  Y9  1  0.060537  0.060388  0.439538  1
  Y  Y10  1  0.183365  0.812386  0.815305  1
  Y  Y11  1  0.813927  0.182405  0.188470  1
  Y  Y12  1  0.813927  0.182405  0.815197  1
  Y  Y13  1  0.183365  0.812386  0.188944  1
  Y  Y14  1  0.813294  0.812239  0.187233  1
  Y  Y15  1  0.185913  0.184795  0.814646  1
  Mg  Mg16  1  0.826184  0.528255  0.822780  1
  Cd  Cd17  1  0.507541  0.832365  0.830046  1
  Ni  Ni18  1  0.393334  0.392235  0.393791  1
  Ni  Ni19  1  0.393334  0.392235  0.820642  1
  Ni  Ni20  1  0.391905  0.823264  0.392416  1
  Ni  Ni21  1  0.822216  0.390755  0.393514  1
  Ag  Ag22  1  0.833823  0.832112  0.832257  1
  Ag  Ag23  1  0.833823  0.832112  0.501807  1
