# generated using pymatgen
data_Y3ThAl3(Ga5Ir2)3
_symmetry_space_group_name_H-M   'P 1'
_cell_length_a   7.61558089
_cell_length_b   7.63084688
_cell_length_c   9.50100126
_cell_angle_alpha   89.98705919
_cell_angle_beta   89.98621973
_cell_angle_gamma   119.59795665
_symmetry_Int_Tables_number   1
_chemical_formula_structural   Y3ThAl3(Ga5Ir2)3
_chemical_formula_sum   'Y3 Th1 Al3 Ga15 Ir6'
_cell_volume   480.08811561
_cell_formula_units_Z   1
loop_
 _symmetry_equiv_pos_site_id
 _symmetry_equiv_pos_as_xyz
  1  'x, y, z'
loop_
 _atom_site_type_symbol
 _atom_site_label
 _atom_site_symmetry_multiplicity
 _atom_site_fract_x
 _atom_site_fract_y
 _atom_site_fract_z
 _atom_site_occupancy
  Y  Y0  1  0.998879  0.329862  0.749309  1
  Y  Y1  1  0.673504  0.999430  0.249904  1
  Y  Y2  1  0.329046  0.999669  0.749219  1
  Th  Th3  1  0.999146  0.671076  0.250440  1
  Al  Al4  1  0.660023  0.663502  0.453791  1
  Al  Al5  1  0.664645  0.668120  0.046699  1
  Al  Al6  1  0.330522  0.330563  0.944706  1
  Ga  Ga7  1  0.131002  0.132784  0.249263  1
  Ga  Ga8  1  0.873710  0.876685  0.749103  1
  Ga  Ga9  1  0.000441  0.330596  0.077221  1
  Ga  Ga10  1  0.999924  0.664490  0.914393  1
  Ga  Ga11  1  0.999313  0.664256  0.585661  1
  Ga  Ga12  1  0.342464  0.006722  0.420706  1
  Ga  Ga13  1  0.002195  0.330733  0.420961  1
  Ga  Ga14  1  0.664431  0.000920  0.580097  1
  Ga  Ga15  1  0.664486  0.001602  0.919434  1
  Ga  Ga16  1  0.341713  0.004664  0.077453  1
  Ga  Ga17  1  0.326364  0.326527  0.568768  1
  Ga  Ga18  1  0.353928  0.553298  0.249862  1
  Ga  Ga19  1  0.652884  0.448226  0.749949  1
  Ga  Ga20  1  0.546634  0.345793  0.249913  1
  Ga  Ga21  1  0.448750  0.656340  0.749898  1
  Ir  Ir22  1  0.670910  0.333002  0.000050  1
  Ir  Ir23  1  0.327974  0.667860  0.000105  1
  Ir  Ir24  1  0.327728  0.671177  0.498418  1
  Ir  Ir25  1  0.674104  0.332791  0.498573  1
  Ir  Ir26  1  0.000336  0.997415  0.000346  1
  Ir  Ir27  1  0.994940  0.991895  0.495758  1
