# generated using pymatgen
data_RbSrVS4
_symmetry_space_group_name_H-M   'P 1'
_cell_length_a   6.82551400
_cell_length_b   9.17183500
_cell_length_c   12.56269600
_cell_angle_alpha   90.00000000
_cell_angle_beta   90.00000000
_cell_angle_gamma   90.00000000
_symmetry_Int_Tables_number   1
_chemical_formula_structural   RbSrVS4
_chemical_formula_sum   'Rb4 Sr4 V4 S16'
_cell_volume   786.45602808
_cell_formula_units_Z   4
loop_
 _symmetry_equiv_pos_site_id
 _symmetry_equiv_pos_as_xyz
  1  'x, y, z'
loop_
 _atom_site_type_symbol
 _atom_site_label
 _atom_site_symmetry_multiplicity
 _atom_site_fract_x
 _atom_site_fract_y
 _atom_site_fract_z
 _atom_site_occupancy
  Rb  Rb0  1  0.250000  0.875008  0.908389  1
  Rb  Rb1  1  0.250000  0.624992  0.408389  1
  Rb  Rb2  1  0.750000  0.124992  0.091611  1
  Rb  Rb3  1  0.750000  0.375008  0.591611  1
  Sr  Sr4  1  0.250000  0.394894  0.855743  1
  Sr  Sr5  1  0.250000  0.105106  0.355743  1
  Sr  Sr6  1  0.750000  0.605106  0.144257  1
  Sr  Sr7  1  0.750000  0.894894  0.644257  1
  V  V8  1  0.250000  0.120187  0.649917  1
  V  V9  1  0.250000  0.379813  0.149917  1
  V  V10  1  0.750000  0.879813  0.350083  1
  V  V11  1  0.750000  0.620187  0.850083  1
  S  S12  1  0.500990  0.132572  0.753891  1
  S  S13  1  0.999010  0.367428  0.253891  1
  S  S14  1  0.000990  0.867428  0.246109  1
  S  S15  1  0.499010  0.632572  0.746109  1
  S  S16  1  0.499010  0.867428  0.246109  1
  S  S17  1  0.000990  0.632572  0.746109  1
  S  S18  1  0.999010  0.132572  0.753891  1
  S  S19  1  0.500990  0.367428  0.253891  1
  S  S20  1  0.250000  0.306850  0.544823  1
  S  S21  1  0.250000  0.193150  0.044823  1
  S  S22  1  0.750000  0.693150  0.455177  1
  S  S23  1  0.750000  0.806850  0.955177  1
  S  S24  1  0.250000  0.921337  0.560957  1
  S  S25  1  0.250000  0.578663  0.060957  1
  S  S26  1  0.750000  0.078663  0.439043  1
  S  S27  1  0.750000  0.421337  0.939043  1
