# generated using pymatgen
data_Dy2Al2IrPt
_symmetry_space_group_name_H-M   'P 1'
_cell_length_a   4.38243100
_cell_length_b   6.81929847
_cell_length_c   7.83565864
_cell_angle_alpha   90.04445600
_cell_angle_beta   90.00000000
_cell_angle_gamma   90.00000000
_symmetry_Int_Tables_number   1
_chemical_formula_structural   Dy2Al2IrPt
_chemical_formula_sum   'Dy4 Al4 Ir2 Pt2'
_cell_volume   234.16941085
_cell_formula_units_Z   2
loop_
 _symmetry_equiv_pos_site_id
 _symmetry_equiv_pos_as_xyz
  1  'x, y, z'
loop_
 _atom_site_type_symbol
 _atom_site_label
 _atom_site_symmetry_multiplicity
 _atom_site_fract_x
 _atom_site_fract_y
 _atom_site_fract_z
 _atom_site_occupancy
  Dy  Dy0  1  0.250000  0.468637  0.183686  1
  Dy  Dy1  1  0.750000  0.531363  0.816314  1
  Dy  Dy2  1  0.750000  0.027239  0.678579  1
  Dy  Dy3  1  0.250000  0.972761  0.321421  1
  Al  Al4  1  0.250000  0.854825  0.936485  1
  Al  Al5  1  0.750000  0.145175  0.063515  1
  Al  Al6  1  0.750000  0.641102  0.438304  1
  Al  Al7  1  0.250000  0.358898  0.561696  1
  Ir  Ir8  1  0.250000  0.731732  0.618558  1
  Ir  Ir9  1  0.750000  0.268268  0.381442  1
  Pt  Pt10  1  0.750000  0.771230  0.117828  1
  Pt  Pt11  1  0.250000  0.228770  0.882172  1
