# generated using pymatgen
data_Dy3Sc7Si20(IrPt3)2
_symmetry_space_group_name_H-M   'P 1'
_cell_length_a   12.47808453
_cell_length_b   12.49206814
_cell_length_c   4.17326100
_cell_angle_alpha   90.00000000
_cell_angle_beta   90.00000000
_cell_angle_gamma   90.04039438
_symmetry_Int_Tables_number   1
_chemical_formula_structural   Dy3Sc7Si20(IrPt3)2
_chemical_formula_sum   'Dy3 Sc7 Si20 Ir2 Pt6'
_cell_volume   650.51558619
_cell_formula_units_Z   1
loop_
 _symmetry_equiv_pos_site_id
 _symmetry_equiv_pos_as_xyz
  1  'x, y, z'
loop_
 _atom_site_type_symbol
 _atom_site_label
 _atom_site_symmetry_multiplicity
 _atom_site_fract_x
 _atom_site_fract_y
 _atom_site_fract_z
 _atom_site_occupancy
  Dy  Dy0  1  0.113916  0.612814  0.500000  1
  Dy  Dy1  1  0.885997  0.387121  0.500000  1
  Dy  Dy2  1  0.612569  0.887059  0.500000  1
  Sc  Sc3  1  0.387846  0.112701  0.500000  1
  Sc  Sc4  1  0.674588  0.175699  0.500000  1
  Sc  Sc5  1  0.324404  0.825323  0.500000  1
  Sc  Sc6  1  0.176790  0.325440  0.500000  1
  Sc  Sc7  1  0.823881  0.673790  0.500000  1
  Sc  Sc8  1  0.000741  0.000080  0.000000  1
  Sc  Sc9  1  0.499844  0.499282  0.000000  1
  Si  Si10  1  0.565216  0.066194  0.000000  1
  Si  Si11  1  0.433408  0.935117  0.000000  1
  Si  Si12  1  0.068830  0.434671  0.000000  1
  Si  Si13  1  0.931236  0.565001  0.000000  1
  Si  Si14  1  0.206091  0.166273  0.000000  1
  Si  Si15  1  0.795368  0.833529  0.000000  1
  Si  Si16  1  0.167265  0.796434  0.000000  1
  Si  Si17  1  0.701345  0.337375  0.000000  1
  Si  Si18  1  0.833062  0.204771  0.000000  1
  Si  Si19  1  0.297353  0.662199  0.000000  1
  Si  Si20  1  0.664606  0.699858  0.000000  1
  Si  Si21  1  0.335469  0.299241  0.000000  1
  Si  Si22  1  0.009206  0.147182  0.500000  1
  Si  Si23  1  0.992443  0.853435  0.500000  1
  Si  Si24  1  0.148551  0.994529  0.500000  1
  Si  Si25  1  0.506191  0.350883  0.500000  1
  Si  Si26  1  0.853656  0.008842  0.500000  1
  Si  Si27  1  0.490561  0.646924  0.500000  1
  Si  Si28  1  0.649444  0.507344  0.500000  1
  Si  Si29  1  0.349951  0.491424  0.500000  1
  Ir  Ir30  1  0.741162  0.522894  0.000000  1
  Ir  Ir31  1  0.258553  0.476244  0.000000  1
  Pt  Pt32  1  0.023220  0.241441  0.000000  1
  Pt  Pt33  1  0.977705  0.758657  0.000000  1
  Pt  Pt34  1  0.243479  0.978957  0.000000  1
  Pt  Pt35  1  0.521202  0.255331  0.000000  1
  Pt  Pt36  1  0.758156  0.022931  0.000000  1
  Pt  Pt37  1  0.476697  0.743010  0.000000  1
