# generated using pymatgen
data_La4Mg4Tc3H22
_symmetry_space_group_name_H-M   'P 1'
_cell_length_a   6.98217200
_cell_length_b   6.98217200
_cell_length_c   6.98217200
_cell_angle_alpha   90.00000000
_cell_angle_beta   90.00000000
_cell_angle_gamma   90.00000000
_symmetry_Int_Tables_number   1
_chemical_formula_structural   La4Mg4Tc3H22
_chemical_formula_sum   'La4 Mg4 Tc3 H22'
_cell_volume   340.38595292
_cell_formula_units_Z   1
loop_
 _symmetry_equiv_pos_site_id
 _symmetry_equiv_pos_as_xyz
  1  'x, y, z'
loop_
 _atom_site_type_symbol
 _atom_site_label
 _atom_site_symmetry_multiplicity
 _atom_site_fract_x
 _atom_site_fract_y
 _atom_site_fract_z
 _atom_site_occupancy
  La  La0  1  0.287074  0.287074  0.712926  1
  La  La1  1  0.287074  0.712926  0.287074  1
  La  La2  1  0.712926  0.287074  0.287074  1
  La  La3  1  0.712926  0.712926  0.712926  1
  Mg  Mg4  1  0.788964  0.788964  0.211036  1
  Mg  Mg5  1  0.788964  0.211036  0.788964  1
  Mg  Mg6  1  0.211036  0.788964  0.788964  1
  Mg  Mg7  1  0.211036  0.211036  0.211036  1
  Tc  Tc8  1  0.000000  0.000000  0.500000  1
  Tc  Tc9  1  0.000000  0.500000  0.000000  1
  Tc  Tc10  1  0.500000  0.000000  0.000000  1
  H  H11  1  0.000000  0.500000  0.253072  1
  H  H12  1  0.500000  0.746928  0.000000  1
  H  H13  1  0.746928  0.000000  0.500000  1
  H  H14  1  0.000000  0.746928  0.500000  1
  H  H15  1  0.500000  0.000000  0.253072  1
  H  H16  1  0.746928  0.500000  0.000000  1
  H  H17  1  0.000000  0.500000  0.746928  1
  H  H18  1  0.500000  0.253072  0.000000  1
  H  H19  1  0.000000  0.253072  0.500000  1
  H  H20  1  0.500000  0.000000  0.746928  1
  H  H21  1  0.253072  0.000000  0.500000  1
  H  H22  1  0.253072  0.500000  0.000000  1
  H  H23  1  0.000000  0.000000  0.247771  1
  H  H24  1  0.000000  0.752229  0.000000  1
  H  H25  1  0.752229  0.000000  0.000000  1
  H  H26  1  0.000000  0.000000  0.752229  1
  H  H27  1  0.000000  0.247771  0.000000  1
  H  H28  1  0.247771  0.000000  0.000000  1
  H  H29  1  0.628437  0.628437  0.371563  1
  H  H30  1  0.628437  0.371563  0.628437  1
  H  H31  1  0.371563  0.628437  0.628437  1
  H  H32  1  0.371563  0.371563  0.371563  1
