# generated using pymatgen
data_Ba4Fe(IrO5)2
_symmetry_space_group_name_H-M   'P 1'
_cell_length_a   7.35390574
_cell_length_b   7.35390599
_cell_length_c   13.43319900
_cell_angle_alpha   90.00000000
_cell_angle_beta   90.00000000
_cell_angle_gamma   132.88284320
_symmetry_Int_Tables_number   1
_chemical_formula_structural   Ba4Fe(IrO5)2
_chemical_formula_sum   'Ba8 Fe2 Ir4 O20'
_cell_volume   532.31591892
_cell_formula_units_Z   2
loop_
 _symmetry_equiv_pos_site_id
 _symmetry_equiv_pos_as_xyz
  1  'x, y, z'
loop_
 _atom_site_type_symbol
 _atom_site_label
 _atom_site_symmetry_multiplicity
 _atom_site_fract_x
 _atom_site_fract_y
 _atom_site_fract_z
 _atom_site_occupancy
  Ba  Ba0  1  0.486839  0.513161  0.886407  1
  Ba  Ba1  1  0.009597  0.990403  0.115346  1
  Ba  Ba2  1  0.513161  0.486839  0.386407  1
  Ba  Ba3  1  0.990403  0.009597  0.615346  1
  Ba  Ba4  1  0.279141  0.720859  0.638842  1
  Ba  Ba5  1  0.217387  0.782613  0.355653  1
  Ba  Ba6  1  0.720859  0.279141  0.138842  1
  Ba  Ba7  1  0.782613  0.217387  0.855653  1
  Fe  Fe8  1  0.608442  0.391559  0.653603  1
  Fe  Fe9  1  0.391558  0.608442  0.153603  1
  Ir  Ir10  1  0.750461  0.249539  0.504376  1
  Ir  Ir11  1  0.249539  0.750461  0.004376  1
  Ir  Ir12  1  0.875907  0.124093  0.348570  1
  Ir  Ir13  1  0.124093  0.875907  0.848570  1
  O  O14  1  0.787590  0.212410  0.648331  1
  O  O15  1  0.720682  0.279318  0.353640  1
  O  O16  1  0.212410  0.787590  0.148331  1
  O  O17  1  0.279318  0.720682  0.853640  1
  O  O18  1  0.417278  0.133282  0.534735  1
  O  O19  1  0.632612  0.912393  0.462483  1
  O  O20  1  0.133282  0.417278  0.034735  1
  O  O21  1  0.912393  0.632612  0.962483  1
  O  O22  1  0.087607  0.367388  0.462483  1
  O  O23  1  0.866718  0.582722  0.534735  1
  O  O24  1  0.367388  0.087607  0.962483  1
  O  O25  1  0.582722  0.866718  0.034735  1
  O  O26  1  0.469458  0.530542  0.658608  1
  O  O27  1  0.020737  0.979263  0.345928  1
  O  O28  1  0.530542  0.469458  0.158608  1
  O  O29  1  0.979263  0.020737  0.845928  1
  O  O30  1  0.373937  0.116485  0.748132  1
  O  O31  1  0.626063  0.883515  0.248132  1
  O  O32  1  0.116485  0.373937  0.248132  1
  O  O33  1  0.883515  0.626063  0.748132  1
