# generated using pymatgen
data_Rb4Ho3Hf5S16
_symmetry_space_group_name_H-M   'P 1'
_cell_length_a   6.49837861
_cell_length_b   7.48032500
_cell_length_c   16.16755500
_cell_angle_alpha   90.00000000
_cell_angle_beta   90.07527901
_cell_angle_gamma   90.00000000
_symmetry_Int_Tables_number   1
_chemical_formula_structural   Rb4Ho3Hf5S16
_chemical_formula_sum   'Rb4 Ho3 Hf5 S16'
_cell_volume   785.90391101
_cell_formula_units_Z   1
loop_
 _symmetry_equiv_pos_site_id
 _symmetry_equiv_pos_as_xyz
  1  'x, y, z'
loop_
 _atom_site_type_symbol
 _atom_site_label
 _atom_site_symmetry_multiplicity
 _atom_site_fract_x
 _atom_site_fract_y
 _atom_site_fract_z
 _atom_site_occupancy
  Rb  Rb0  1  0.346721  0.000000  0.000346  1
  Rb  Rb1  1  0.648216  0.500000  0.499692  1
  Rb  Rb2  1  0.027719  0.000000  0.498897  1
  Rb  Rb3  1  0.972093  0.500000  0.001662  1
  Ho  Ho4  1  0.000974  0.000000  0.246859  1
  Ho  Ho5  1  0.001093  0.000000  0.752716  1
  Ho  Ho6  1  0.998676  0.500000  0.253229  1
  Hf  Hf7  1  0.999840  0.500000  0.747817  1
  Hf  Hf8  1  0.499926  0.249943  0.250032  1
  Hf  Hf9  1  0.499851  0.750606  0.749768  1
  Hf  Hf10  1  0.499926  0.750057  0.250032  1
  Hf  Hf11  1  0.499851  0.249394  0.749768  1
  S  S12  1  0.815293  0.246374  0.343621  1
  S  S13  1  0.826093  0.740125  0.658790  1
  S  S14  1  0.184433  0.746407  0.156507  1
  S  S15  1  0.176516  0.264869  0.841391  1
  S  S16  1  0.184433  0.253593  0.156507  1
  S  S17  1  0.176516  0.735131  0.841391  1
  S  S18  1  0.815293  0.753626  0.343621  1
  S  S19  1  0.826093  0.259875  0.658790  1
  S  S20  1  0.652292  0.000000  0.159384  1
  S  S21  1  0.650789  0.000000  0.840995  1
  S  S22  1  0.347266  0.500000  0.340530  1
  S  S23  1  0.329851  0.500000  0.661399  1
  S  S24  1  0.347522  0.000000  0.339606  1
  S  S25  1  0.350571  0.000000  0.659374  1
  S  S26  1  0.652171  0.500000  0.160520  1
  S  S27  1  0.669980  0.500000  0.836759  1
