# generated using pymatgen
data_Lu4Al18Os4PdRh
_symmetry_space_group_name_H-M   'P 1'
_cell_length_a   7.55496274
_cell_length_b   7.55496311
_cell_length_c   9.49161059
_cell_angle_alpha   90.03408738
_cell_angle_beta   90.03407869
_cell_angle_gamma   119.89911555
_symmetry_Int_Tables_number   1
_chemical_formula_structural   Lu4Al18Os4PdRh
_chemical_formula_sum   'Lu4 Al18 Os4 Pd1 Rh1'
_cell_volume   469.65127974
_cell_formula_units_Z   1
loop_
 _symmetry_equiv_pos_site_id
 _symmetry_equiv_pos_as_xyz
  1  'x, y, z'
loop_
 _atom_site_type_symbol
 _atom_site_label
 _atom_site_symmetry_multiplicity
 _atom_site_fract_x
 _atom_site_fract_y
 _atom_site_fract_z
 _atom_site_occupancy
  Lu  Lu0  1  0.998175  0.667956  0.250928  1
  Lu  Lu1  1  0.001825  0.332044  0.749072  1
  Lu  Lu2  1  0.667956  0.998175  0.250928  1
  Lu  Lu3  1  0.332044  0.001825  0.749072  1
  Al  Al4  1  0.127887  0.127887  0.252492  1
  Al  Al5  1  0.872113  0.872113  0.747508  1
  Al  Al6  1  0.002092  0.338774  0.073773  1
  Al  Al7  1  0.997908  0.661226  0.926227  1
  Al  Al8  1  0.998265  0.664486  0.571813  1
  Al  Al9  1  0.335514  0.001735  0.428187  1
  Al  Al10  1  0.001735  0.335514  0.428187  1
  Al  Al11  1  0.664486  0.998265  0.571813  1
  Al  Al12  1  0.661226  0.997908  0.926227  1
  Al  Al13  1  0.338774  0.002092  0.073773  1
  Al  Al14  1  0.335698  0.335698  0.550815  1
  Al  Al15  1  0.664302  0.664302  0.449185  1
  Al  Al16  1  0.660858  0.660858  0.052737  1
  Al  Al17  1  0.339142  0.339142  0.947263  1
  Al  Al18  1  0.336997  0.549175  0.250179  1
  Al  Al19  1  0.663003  0.450825  0.749821  1
  Al  Al20  1  0.549175  0.336997  0.250179  1
  Al  Al21  1  0.450825  0.663003  0.749821  1
  Os  Os22  1  0.672927  0.327073  0.000000  1
  Os  Os23  1  0.327073  0.672927  0.000000  1
  Os  Os24  1  0.326933  0.673067  0.500000  1
  Os  Os25  1  0.673067  0.326933  0.500000  1
  Pd  Pd26  1  0.000000  0.000000  0.000000  1
  Rh  Rh27  1  0.000000  0.000000  0.500000  1
