# generated using pymatgen
data_DyHo(U3Ir4)2
_symmetry_space_group_name_H-M   'P 1'
_cell_length_a   10.54008408
_cell_length_b   5.62714339
_cell_length_c   5.64418043
_cell_angle_alpha   81.53137944
_cell_angle_beta   89.99781308
_cell_angle_gamma   90.01321433
_symmetry_Int_Tables_number   1
_chemical_formula_structural   DyHo(U3Ir4)2
_chemical_formula_sum   'Dy1 Ho1 U6 Ir8'
_cell_volume   331.10952265
_cell_formula_units_Z   1
loop_
 _symmetry_equiv_pos_site_id
 _symmetry_equiv_pos_as_xyz
  1  'x, y, z'
loop_
 _atom_site_type_symbol
 _atom_site_label
 _atom_site_symmetry_multiplicity
 _atom_site_fract_x
 _atom_site_fract_y
 _atom_site_fract_z
 _atom_site_occupancy
  Dy  Dy0  1  0.000114  0.897970  0.148115  1
  Ho  Ho1  1  0.500133  0.102152  0.851944  1
  U  U2  1  0.488659  0.666304  0.405040  1
  U  U3  1  0.988429  0.333809  0.594960  1
  U  U4  1  0.219097  0.386850  0.122691  1
  U  U5  1  0.718732  0.613147  0.877311  1
  U  U6  1  0.220516  0.844091  0.626849  1
  U  U7  1  0.720060  0.155947  0.373299  1
  Ir  Ir8  1  0.769737  0.116703  0.872755  1
  Ir  Ir9  1  0.270407  0.883441  0.126917  1
  Ir  Ir10  1  0.753500  0.651566  0.374512  1
  Ir  Ir11  1  0.253747  0.348234  0.625626  1
  Ir  Ir12  1  0.957351  0.408554  0.088496  1
  Ir  Ir13  1  0.457566  0.591277  0.911454  1
  Ir  Ir14  1  0.958867  0.821837  0.658169  1
  Ir  Ir15  1  0.459088  0.178116  0.341864  1
