# generated using pymatgen
data_Lu12Mn2Al3
_symmetry_space_group_name_H-M   'P 1'
_cell_length_a   8.18122587
_cell_length_b   8.18122519
_cell_length_c   8.18122567
_cell_angle_alpha   109.61962821
_cell_angle_beta   109.61962093
_cell_angle_gamma   109.17482540
_symmetry_Int_Tables_number   1
_chemical_formula_structural   Lu12Mn2Al3
_chemical_formula_sum   'Lu12 Mn2 Al3'
_cell_volume   421.52609405
_cell_formula_units_Z   1
loop_
 _symmetry_equiv_pos_site_id
 _symmetry_equiv_pos_as_xyz
  1  'x, y, z'
loop_
 _atom_site_type_symbol
 _atom_site_label
 _atom_site_symmetry_multiplicity
 _atom_site_fract_x
 _atom_site_fract_y
 _atom_site_fract_z
 _atom_site_occupancy
  Lu  Lu0  1  0.304082  0.304082  0.608163  1
  Lu  Lu1  1  0.695918  0.695918  0.391837  1
  Lu  Lu2  1  0.304082  0.695918  0.000000  1
  Lu  Lu3  1  0.695918  0.304082  0.000000  1
  Lu  Lu4  1  0.451497  0.203087  0.248410  1
  Lu  Lu5  1  0.548503  0.796913  0.751590  1
  Lu  Lu6  1  0.954677  0.203087  0.751590  1
  Lu  Lu7  1  0.203087  0.954677  0.751590  1
  Lu  Lu8  1  0.045323  0.796913  0.248410  1
  Lu  Lu9  1  0.796913  0.045323  0.248410  1
  Lu  Lu10  1  0.203087  0.451497  0.248410  1
  Lu  Lu11  1  0.796913  0.548503  0.751590  1
  Mn  Mn12  1  0.388344  0.388344  0.000000  1
  Mn  Mn13  1  0.611656  0.611656  0.000000  1
  Al  Al14  1  0.000000  0.000000  0.000000  1
  Al  Al15  1  0.500000  0.000000  0.500000  1
  Al  Al16  1  0.000000  0.500000  0.500000  1
