# generated using pymatgen
data_Y2Co9Si2Tc3As5
_symmetry_space_group_name_H-M   'P 1'
_cell_length_a   3.81585500
_cell_length_b   9.32966160
_cell_length_c   9.34582394
_cell_angle_alpha   120.10879630
_cell_angle_beta   90.00000000
_cell_angle_gamma   90.00000000
_symmetry_Int_Tables_number   1
_chemical_formula_structural   Y2Co9Si2Tc3As5
_chemical_formula_sum   'Y2 Co9 Si2 Tc3 As5'
_cell_volume   287.82520227
_cell_formula_units_Z   1
loop_
 _symmetry_equiv_pos_site_id
 _symmetry_equiv_pos_as_xyz
  1  'x, y, z'
loop_
 _atom_site_type_symbol
 _atom_site_label
 _atom_site_symmetry_multiplicity
 _atom_site_fract_x
 _atom_site_fract_y
 _atom_site_fract_z
 _atom_site_occupancy
  Y  Y0  1  0.000000  0.667079  0.328102  1
  Y  Y1  1  0.500000  0.334863  0.669044  1
  Co  Co2  1  0.000000  0.573692  0.947006  1
  Co  Co3  1  0.000000  0.371947  0.431019  1
  Co  Co4  1  0.000000  0.058889  0.628666  1
  Co  Co5  1  0.000000  0.873982  0.155072  1
  Co  Co6  1  0.000000  0.277810  0.122715  1
  Co  Co7  1  0.000000  0.845081  0.721732  1
  Co  Co8  1  0.500000  0.944489  0.378353  1
  Co  Co9  1  0.500000  0.436788  0.053365  1
  Co  Co10  1  0.500000  0.617997  0.567067  1
  Si  Si11  1  0.000000  0.998877  0.000436  1
  Si  Si12  1  0.500000  0.708814  0.113139  1
  Tc  Tc13  1  0.500000  0.788635  0.904749  1
  Tc  Tc14  1  0.500000  0.111985  0.210204  1
  Tc  Tc15  1  0.500000  0.096224  0.884422  1
  As  As16  1  0.500000  0.408828  0.291892  1
  As  As17  1  0.500000  0.882328  0.589747  1
  As  As18  1  0.000000  0.590148  0.704779  1
  As  As19  1  0.000000  0.111837  0.409744  1
  As  As20  1  0.000000  0.299707  0.888748  1
