# generated using pymatgen
data_Ce8Cu3Si12Hg
_symmetry_space_group_name_H-M   'P 1'
_cell_length_a   8.23654900
_cell_length_b   8.23654903
_cell_length_c   8.45674400
_cell_angle_alpha   90.00000000
_cell_angle_beta   90.00000000
_cell_angle_gamma   119.99999585
_symmetry_Int_Tables_number   1
_chemical_formula_structural   Ce8Cu3Si12Hg
_chemical_formula_sum   'Ce8 Cu3 Si12 Hg1'
_cell_volume   496.84898666
_cell_formula_units_Z   1
loop_
 _symmetry_equiv_pos_site_id
 _symmetry_equiv_pos_as_xyz
  1  'x, y, z'
loop_
 _atom_site_type_symbol
 _atom_site_label
 _atom_site_symmetry_multiplicity
 _atom_site_fract_x
 _atom_site_fract_y
 _atom_site_fract_z
 _atom_site_occupancy
  Ce  Ce0  1  0.000000  0.000000  0.251647  1
  Ce  Ce1  1  0.000000  0.000000  0.748184  1
  Ce  Ce2  1  0.503208  0.496792  0.253706  1
  Ce  Ce3  1  0.503208  0.006413  0.253706  1
  Ce  Ce4  1  0.993587  0.496792  0.253706  1
  Ce  Ce5  1  0.501806  0.498194  0.746493  1
  Ce  Ce6  1  0.501806  0.003613  0.746493  1
  Ce  Ce7  1  0.996387  0.498194  0.746493  1
  Cu  Cu8  1  0.333333  0.666667  0.496123  1
  Cu  Cu9  1  0.666667  0.333333  0.503933  1
  Cu  Cu10  1  0.666667  0.333333  0.996700  1
  Si  Si11  1  0.168843  0.831157  0.499826  1
  Si  Si12  1  0.168843  0.337686  0.499826  1
  Si  Si13  1  0.662314  0.831157  0.499826  1
  Si  Si14  1  0.831641  0.168359  0.499611  1
  Si  Si15  1  0.831641  0.663281  0.499611  1
  Si  Si16  1  0.336719  0.168359  0.499611  1
  Si  Si17  1  0.828525  0.171475  0.000245  1
  Si  Si18  1  0.828525  0.657049  0.000245  1
  Si  Si19  1  0.342951  0.171475  0.000245  1
  Si  Si20  1  0.157230  0.842770  0.999891  1
  Si  Si21  1  0.157230  0.314460  0.999891  1
  Si  Si22  1  0.685540  0.842770  0.999891  1
  Hg  Hg23  1  0.333333  0.666667  0.004097  1
