# generated using pymatgen
data_Er16In5Ni2Hg
_symmetry_space_group_name_H-M   'P 1'
_cell_length_a   10.30223400
_cell_length_b   10.30775319
_cell_length_c   6.88853402
_cell_angle_alpha   90.00876990
_cell_angle_beta   90.00000000
_cell_angle_gamma   119.98227651
_symmetry_Int_Tables_number   1
_chemical_formula_structural   Er16In5Ni2Hg
_chemical_formula_sum   'Er16 In5 Ni2 Hg1'
_cell_volume   633.62220426
_cell_formula_units_Z   1
loop_
 _symmetry_equiv_pos_site_id
 _symmetry_equiv_pos_as_xyz
  1  'x, y, z'
loop_
 _atom_site_type_symbol
 _atom_site_label
 _atom_site_symmetry_multiplicity
 _atom_site_fract_x
 _atom_site_fract_y
 _atom_site_fract_z
 _atom_site_occupancy
  Er  Er0  1  0.531145  0.062289  0.794926  1
  Er  Er1  1  0.931942  0.470778  0.795245  1
  Er  Er2  1  0.538836  0.470778  0.795245  1
  Er  Er3  1  0.467527  0.935053  0.291540  1
  Er  Er4  1  0.066594  0.531039  0.295817  1
  Er  Er5  1  0.464445  0.531039  0.295817  1
  Er  Er6  1  0.823148  0.646296  0.485433  1
  Er  Er7  1  0.356062  0.177544  0.501964  1
  Er  Er8  1  0.821483  0.177544  0.501964  1
  Er  Er9  1  0.177228  0.354455  0.997530  1
  Er  Er10  1  0.649873  0.819893  0.003640  1
  Er  Er11  1  0.170020  0.819893  0.003640  1
  Er  Er12  1  0.668111  0.336222  0.176837  1
  Er  Er13  1  0.333902  0.667804  0.680302  1
  Er  Er14  1  0.998850  0.997699  0.776306  1
  Er  Er15  1  0.001854  0.003706  0.277482  1
  In  In16  1  0.326440  0.162585  0.037057  1
  In  In17  1  0.836144  0.162585  0.037057  1
  In  In18  1  0.162661  0.325320  0.538375  1
  In  In19  1  0.674335  0.837421  0.537267  1
  In  In20  1  0.163088  0.837421  0.537267  1
  Ni  Ni21  1  0.666542  0.333083  0.565747  1
  Ni  Ni22  1  0.334125  0.668251  0.066678  1
  Hg  Hg23  1  0.835649  0.671301  0.042769  1
