# generated using pymatgen
data_Ca19Yb(CdHg3)3
_symmetry_space_group_name_H-M   'P 1'
_cell_length_a   8.27356300
_cell_length_b   8.27356300
_cell_length_c   14.82865600
_cell_angle_alpha   90.00000000
_cell_angle_beta   90.00000000
_cell_angle_gamma   90.00000000
_symmetry_Int_Tables_number   1
_chemical_formula_structural   Ca19Yb(CdHg3)3
_chemical_formula_sum   'Ca19 Yb1 Cd3 Hg9'
_cell_volume   1015.04885784
_cell_formula_units_Z   1
loop_
 _symmetry_equiv_pos_site_id
 _symmetry_equiv_pos_as_xyz
  1  'x, y, z'
loop_
 _atom_site_type_symbol
 _atom_site_label
 _atom_site_symmetry_multiplicity
 _atom_site_fract_x
 _atom_site_fract_y
 _atom_site_fract_z
 _atom_site_occupancy
  Ca  Ca0  1  0.667445  0.160736  0.101449  1
  Ca  Ca1  1  0.164555  0.663651  0.602986  1
  Ca  Ca2  1  0.332555  0.839264  0.101449  1
  Ca  Ca3  1  0.835445  0.336349  0.602986  1
  Ca  Ca4  1  0.839264  0.667445  0.101449  1
  Ca  Ca5  1  0.336349  0.164555  0.602986  1
  Ca  Ca6  1  0.160736  0.332555  0.101449  1
  Ca  Ca7  1  0.663651  0.835445  0.602986  1
  Ca  Ca8  1  0.839176  0.332599  0.898633  1
  Ca  Ca9  1  0.336290  0.835547  0.396928  1
  Ca  Ca10  1  0.160824  0.667401  0.898633  1
  Ca  Ca11  1  0.663710  0.164453  0.396928  1
  Ca  Ca12  1  0.667401  0.839176  0.898633  1
  Ca  Ca13  1  0.164453  0.336290  0.396928  1
  Ca  Ca14  1  0.332599  0.160824  0.898633  1
  Ca  Ca15  1  0.835547  0.663710  0.396928  1
  Ca  Ca16  1  0.500000  0.500000  0.754083  1
  Ca  Ca17  1  0.000000  0.000000  0.749031  1
  Ca  Ca18  1  0.500000  0.500000  0.245926  1
  Yb  Yb19  1  0.000000  0.000000  0.250823  1
  Cd  Cd20  1  0.500000  0.500000  0.499955  1
  Cd  Cd21  1  0.500000  0.500000  0.000036  1
  Cd  Cd22  1  0.000000  0.000000  0.499763  1
  Hg  Hg23  1  0.634578  0.135012  0.750991  1
  Hg  Hg24  1  0.134670  0.635549  0.249021  1
  Hg  Hg25  1  0.865330  0.364451  0.249021  1
  Hg  Hg26  1  0.365422  0.864988  0.750991  1
  Hg  Hg27  1  0.864988  0.634578  0.750991  1
  Hg  Hg28  1  0.364451  0.134670  0.249021  1
  Hg  Hg29  1  0.135012  0.365422  0.750991  1
  Hg  Hg30  1  0.635549  0.865330  0.249021  1
  Hg  Hg31  1  0.000000  0.000000  0.000356  1
