# generated using pymatgen
data_Lu12CdFe3Au
_symmetry_space_group_name_H-M   'P 1'
_cell_length_a   8.09685532
_cell_length_b   8.09685489
_cell_length_c   8.09685451
_cell_angle_alpha   109.48127393
_cell_angle_beta   107.70385126
_cell_angle_gamma   111.24790342
_symmetry_Int_Tables_number   1
_chemical_formula_structural   Lu12CdFe3Au
_chemical_formula_sum   'Lu12 Cd1 Fe3 Au1'
_cell_volume   408.23636588
_cell_formula_units_Z   1
loop_
 _symmetry_equiv_pos_site_id
 _symmetry_equiv_pos_as_xyz
  1  'x, y, z'
loop_
 _atom_site_type_symbol
 _atom_site_label
 _atom_site_symmetry_multiplicity
 _atom_site_fract_x
 _atom_site_fract_y
 _atom_site_fract_z
 _atom_site_occupancy
  Lu  Lu0  1  0.307952  0.310901  0.618848  1
  Lu  Lu1  1  0.692048  0.689099  0.381152  1
  Lu  Lu2  1  0.692053  0.310901  0.002949  1
  Lu  Lu3  1  0.307947  0.689099  0.997051  1
  Lu  Lu4  1  0.192120  0.445791  0.253671  1
  Lu  Lu5  1  0.807880  0.554209  0.746329  1
  Lu  Lu6  1  0.192129  0.938452  0.746323  1
  Lu  Lu7  1  0.960145  0.187152  0.772994  1
  Lu  Lu8  1  0.807871  0.061548  0.253677  1
  Lu  Lu9  1  0.039855  0.812848  0.227006  1
  Lu  Lu10  1  0.414158  0.187152  0.227004  1
  Lu  Lu11  1  0.585842  0.812848  0.772996  1
  Cd  Cd12  1  0.500000  0.000000  0.500000  1
  Fe  Fe13  1  0.381308  0.381289  0.999981  1
  Fe  Fe14  1  0.618692  0.618711  0.000019  1
  Fe  Fe15  1  0.000000  0.000000  0.000000  1
  Au  Au16  1  0.000000  0.500000  0.500000  1
