# generated using pymatgen
data_ScTi2SiTc3Ge2
_symmetry_space_group_name_H-M   'P 1'
_cell_length_a   6.93790376
_cell_length_b   6.61073062
_cell_length_c   7.69804444
_cell_angle_alpha   115.42806393
_cell_angle_beta   116.78396057
_cell_angle_gamma   89.99999653
_symmetry_Int_Tables_number   1
_chemical_formula_structural   ScTi2SiTc3Ge2
_chemical_formula_sum   'Sc2 Ti4 Si2 Tc6 Ge4'
_cell_volume   276.33499659
_cell_formula_units_Z   2
loop_
 _symmetry_equiv_pos_site_id
 _symmetry_equiv_pos_as_xyz
  1  'x, y, z'
loop_
 _atom_site_type_symbol
 _atom_site_label
 _atom_site_symmetry_multiplicity
 _atom_site_fract_x
 _atom_site_fract_y
 _atom_site_fract_z
 _atom_site_occupancy
  Sc  Sc0  1  0.246809  0.449749  0.399498  1
  Sc  Sc1  1  0.847310  0.550251  0.600502  1
  Ti  Ti2  1  0.636003  0.746168  0.992334  1
  Ti  Ti3  1  0.643668  0.253832  0.007666  1
  Ti  Ti4  1  0.860461  0.057468  0.614935  1
  Ti  Ti5  1  0.245526  0.942532  0.385065  1
  Si  Si6  1  0.250564  0.252997  0.005996  1
  Si  Si7  1  0.244568  0.747003  0.994004  1
  Tc  Tc8  1  0.988021  0.000000  0.000000  1
  Tc  Tc9  1  0.988021  0.500000  0.000000  1
  Tc  Tc10  1  0.503710  0.635216  0.253825  1
  Tc  Tc11  1  0.249885  0.364784  0.746175  1
  Tc  Tc12  1  0.249885  0.881389  0.746175  1
  Tc  Tc13  1  0.503710  0.118611  0.253825  1
  Ge  Ge14  1  0.579806  0.853998  0.668480  1
  Ge  Ge15  1  0.911325  0.146002  0.331520  1
  Ge  Ge16  1  0.911325  0.685519  0.331520  1
  Ge  Ge17  1  0.579806  0.314481  0.668480  1
