# generated using pymatgen
data_Zr6Ti4Al12Co7
_symmetry_space_group_name_H-M   'P 1'
_cell_length_a   8.58201388
_cell_length_b   8.58201310
_cell_length_c   8.58201200
_cell_angle_alpha   59.99999652
_cell_angle_beta   59.99999953
_cell_angle_gamma   59.99999668
_symmetry_Int_Tables_number   1
_chemical_formula_structural   Zr6Ti4Al12Co7
_chemical_formula_sum   'Zr6 Ti4 Al12 Co7'
_cell_volume   446.94335153
_cell_formula_units_Z   1
loop_
 _symmetry_equiv_pos_site_id
 _symmetry_equiv_pos_as_xyz
  1  'x, y, z'
loop_
 _atom_site_type_symbol
 _atom_site_label
 _atom_site_symmetry_multiplicity
 _atom_site_fract_x
 _atom_site_fract_y
 _atom_site_fract_z
 _atom_site_occupancy
  Zr  Zr0  1  0.693188  0.693188  0.306812  1
  Zr  Zr1  1  0.306812  0.693188  0.306812  1
  Zr  Zr2  1  0.693188  0.306812  0.306812  1
  Zr  Zr3  1  0.306812  0.306812  0.693188  1
  Zr  Zr4  1  0.693188  0.306812  0.693188  1
  Zr  Zr5  1  0.306812  0.693188  0.693188  1
  Ti  Ti6  1  0.881565  0.881565  0.355302  1
  Ti  Ti7  1  0.881565  0.355302  0.881565  1
  Ti  Ti8  1  0.355302  0.881565  0.881565  1
  Ti  Ti9  1  0.881565  0.881565  0.881565  1
  Al  Al10  1  0.119213  0.119213  0.642362  1
  Al  Al11  1  0.119213  0.642362  0.119213  1
  Al  Al12  1  0.642362  0.119213  0.119213  1
  Al  Al13  1  0.119213  0.119213  0.119213  1
  Al  Al14  1  0.665409  0.665409  0.003771  1
  Al  Al15  1  0.665409  0.003771  0.665409  1
  Al  Al16  1  0.003771  0.665409  0.665409  1
  Al  Al17  1  0.665409  0.665409  0.665409  1
  Al  Al18  1  0.334220  0.334220  0.997339  1
  Al  Al19  1  0.334220  0.997339  0.334220  1
  Al  Al20  1  0.997339  0.334220  0.334220  1
  Al  Al21  1  0.334220  0.334220  0.334220  1
  Co  Co22  1  0.000000  0.000000  0.000000  1
  Co  Co23  1  0.997159  0.997159  0.502841  1
  Co  Co24  1  0.502841  0.997159  0.502841  1
  Co  Co25  1  0.997159  0.502841  0.502841  1
  Co  Co26  1  0.502841  0.502841  0.997159  1
  Co  Co27  1  0.997159  0.502841  0.997159  1
  Co  Co28  1  0.502841  0.997159  0.997159  1
