# generated using pymatgen
data_Dy16NiHg4Rh3
_symmetry_space_group_name_H-M   'P 1'
_cell_length_a   9.56018776
_cell_length_b   9.56018925
_cell_length_c   9.56018816
_cell_angle_alpha   60.14296029
_cell_angle_beta   60.14295560
_cell_angle_gamma   60.14295949
_symmetry_Int_Tables_number   1
_chemical_formula_structural   Dy16NiHg4Rh3
_chemical_formula_sum   'Dy16 Ni1 Hg4 Rh3'
_cell_volume   619.85263790
_cell_formula_units_Z   1
loop_
 _symmetry_equiv_pos_site_id
 _symmetry_equiv_pos_as_xyz
  1  'x, y, z'
loop_
 _atom_site_type_symbol
 _atom_site_label
 _atom_site_symmetry_multiplicity
 _atom_site_fract_x
 _atom_site_fract_y
 _atom_site_fract_z
 _atom_site_occupancy
  Dy  Dy0  1  0.688261  0.310175  0.310175  1
  Dy  Dy1  1  0.689856  0.689856  0.311772  1
  Dy  Dy2  1  0.310175  0.688261  0.310175  1
  Dy  Dy3  1  0.936882  0.936882  0.562383  1
  Dy  Dy4  1  0.149634  0.149634  0.552955  1
  Dy  Dy5  1  0.563306  0.936399  0.563306  1
  Dy  Dy6  1  0.149358  0.149358  0.149358  1
  Dy  Dy7  1  0.310175  0.310175  0.688261  1
  Dy  Dy8  1  0.936399  0.563306  0.563306  1
  Dy  Dy9  1  0.563306  0.563306  0.936399  1
  Dy  Dy10  1  0.562383  0.936882  0.936882  1
  Dy  Dy11  1  0.936882  0.562383  0.936882  1
  Dy  Dy12  1  0.149634  0.552955  0.149634  1
  Dy  Dy13  1  0.311772  0.689856  0.689856  1
  Dy  Dy14  1  0.689856  0.311772  0.689856  1
  Dy  Dy15  1  0.552955  0.149634  0.149634  1
  Ni  Ni16  1  0.357317  0.357317  0.357317  1
  Hg  Hg17  1  0.914511  0.914511  0.255820  1
  Hg  Hg18  1  0.255820  0.914511  0.914511  1
  Hg  Hg19  1  0.914511  0.255820  0.914511  1
  Hg  Hg20  1  0.915280  0.915280  0.915280  1
  Rh  Rh21  1  0.928357  0.356686  0.356686  1
  Rh  Rh22  1  0.356686  0.356686  0.928357  1
  Rh  Rh23  1  0.356686  0.928357  0.356686  1
