# generated using pymatgen
data_Yb3SmMgRu
_symmetry_space_group_name_H-M   'P 1'
_cell_length_a   9.99152347
_cell_length_b   9.99152369
_cell_length_c   9.99152400
_cell_angle_alpha   59.99999899
_cell_angle_beta   59.99999826
_cell_angle_gamma   60.00000148
_symmetry_Int_Tables_number   1
_chemical_formula_structural   Yb3SmMgRu
_chemical_formula_sum   'Yb12 Sm4 Mg4 Ru4'
_cell_volume   705.31020828
_cell_formula_units_Z   4
loop_
 _symmetry_equiv_pos_site_id
 _symmetry_equiv_pos_as_xyz
  1  'x, y, z'
loop_
 _atom_site_type_symbol
 _atom_site_label
 _atom_site_symmetry_multiplicity
 _atom_site_fract_x
 _atom_site_fract_y
 _atom_site_fract_z
 _atom_site_occupancy
  Yb  Yb0  1  0.952267  0.547733  0.547733  1
  Yb  Yb1  1  0.547733  0.952267  0.952267  1
  Yb  Yb2  1  0.547733  0.952267  0.547733  1
  Yb  Yb3  1  0.952267  0.547733  0.952267  1
  Yb  Yb4  1  0.547733  0.547733  0.952267  1
  Yb  Yb5  1  0.952267  0.952267  0.547733  1
  Yb  Yb6  1  0.809752  0.190248  0.190248  1
  Yb  Yb7  1  0.190248  0.809752  0.809752  1
  Yb  Yb8  1  0.190248  0.809752  0.190248  1
  Yb  Yb9  1  0.809752  0.190248  0.809752  1
  Yb  Yb10  1  0.190248  0.190248  0.809752  1
  Yb  Yb11  1  0.809752  0.809752  0.190248  1
  Sm  Sm12  1  0.339882  0.339882  0.339882  1
  Sm  Sm13  1  0.339882  0.339882  0.980352  1
  Sm  Sm14  1  0.339882  0.980352  0.339882  1
  Sm  Sm15  1  0.980352  0.339882  0.339882  1
  Mg  Mg16  1  0.577472  0.577472  0.577472  1
  Mg  Mg17  1  0.577472  0.577472  0.267584  1
  Mg  Mg18  1  0.577472  0.267584  0.577472  1
  Mg  Mg19  1  0.267584  0.577472  0.577472  1
  Ru  Ru20  1  0.138115  0.138115  0.138115  1
  Ru  Ru21  1  0.138115  0.138115  0.585654  1
  Ru  Ru22  1  0.138115  0.585654  0.138115  1
  Ru  Ru23  1  0.585654  0.138115  0.138115  1
