# generated using pymatgen
data_Y12Ho8CoBi8Ru3
_symmetry_space_group_name_H-M   'P 1'
_cell_length_a   7.98471632
_cell_length_b   8.96065600
_cell_length_c   12.46169208
_cell_angle_alpha   90.00000000
_cell_angle_beta   89.78629216
_cell_angle_gamma   90.00000000
_symmetry_Int_Tables_number   1
_chemical_formula_structural   Y12Ho8CoBi8Ru3
_chemical_formula_sum   'Y12 Ho8 Co1 Bi8 Ru3'
_cell_volume   891.60663349
_cell_formula_units_Z   1
loop_
 _symmetry_equiv_pos_site_id
 _symmetry_equiv_pos_as_xyz
  1  'x, y, z'
loop_
 _atom_site_type_symbol
 _atom_site_label
 _atom_site_symmetry_multiplicity
 _atom_site_fract_x
 _atom_site_fract_y
 _atom_site_fract_z
 _atom_site_occupancy
  Y  Y0  1  0.345009  0.750000  0.702830  1
  Y  Y1  1  0.656751  0.250000  0.292444  1
  Y  Y2  1  0.843366  0.250000  0.791635  1
  Y  Y3  1  0.155074  0.750000  0.206644  1
  Y  Y4  1  0.877550  0.750000  0.805670  1
  Y  Y5  1  0.121707  0.250000  0.193758  1
  Y  Y6  1  0.377510  0.250000  0.693105  1
  Y  Y7  1  0.618882  0.750000  0.310648  1
  Y  Y8  1  0.053548  0.750000  0.497067  1
  Y  Y9  1  0.948480  0.250000  0.502991  1
  Y  Y10  1  0.553539  0.250000  0.003394  1
  Y  Y11  1  0.446312  0.750000  0.995872  1
  Ho  Ho12  1  0.675121  0.543628  0.563941  1
  Ho  Ho13  1  0.326331  0.461968  0.437136  1
  Ho  Ho14  1  0.174531  0.458059  0.935958  1
  Ho  Ho15  1  0.326331  0.038032  0.437136  1
  Ho  Ho16  1  0.824792  0.542763  0.064334  1
  Ho  Ho17  1  0.675121  0.956372  0.563941  1
  Ho  Ho18  1  0.824792  0.957237  0.064334  1
  Ho  Ho19  1  0.174531  0.041941  0.935958  1
  Co  Co20  1  0.430422  0.750000  0.490822  1
  Bi  Bi21  1  0.570383  0.508166  0.826898  1
  Bi  Bi22  1  0.429103  0.492439  0.173075  1
  Bi  Bi23  1  0.071644  0.492045  0.672137  1
  Bi  Bi24  1  0.429103  0.007561  0.173075  1
  Bi  Bi25  1  0.928919  0.508504  0.328216  1
  Bi  Bi26  1  0.570383  0.991834  0.826898  1
  Bi  Bi27  1  0.928919  0.991496  0.328216  1
  Bi  Bi28  1  0.071644  0.007955  0.672137  1
  Ru  Ru29  1  0.072064  0.750000  0.988933  1
  Ru  Ru30  1  0.926882  0.250000  0.010662  1
  Ru  Ru31  1  0.571253  0.250000  0.510136  1
