# generated using pymatgen
data_Er3Lu2SiBi2
_symmetry_space_group_name_H-M   'P 1'
_cell_length_a   11.87934600
_cell_length_b   9.08528400
_cell_length_c   7.95221600
_cell_angle_alpha   90.00000000
_cell_angle_beta   90.00000000
_cell_angle_gamma   90.00000000
_symmetry_Int_Tables_number   1
_chemical_formula_structural   Er3Lu2SiBi2
_chemical_formula_sum   'Er12 Lu8 Si4 Bi8'
_cell_volume   858.26066229
_cell_formula_units_Z   4
loop_
 _symmetry_equiv_pos_site_id
 _symmetry_equiv_pos_as_xyz
  1  'x, y, z'
loop_
 _atom_site_type_symbol
 _atom_site_label
 _atom_site_symmetry_multiplicity
 _atom_site_fract_x
 _atom_site_fract_y
 _atom_site_fract_z
 _atom_site_occupancy
  Er  Er0  1  0.938340  0.445602  0.179888  1
  Er  Er1  1  0.438340  0.054398  0.320112  1
  Er  Er2  1  0.061660  0.945602  0.820112  1
  Er  Er3  1  0.561660  0.554398  0.679888  1
  Er  Er4  1  0.211252  0.749700  0.165691  1
  Er  Er5  1  0.711252  0.750300  0.334309  1
  Er  Er6  1  0.788748  0.249700  0.834309  1
  Er  Er7  1  0.288748  0.250300  0.665691  1
  Er  Er8  1  0.293955  0.749841  0.639079  1
  Er  Er9  1  0.793955  0.750159  0.860921  1
  Er  Er10  1  0.706045  0.249841  0.360921  1
  Er  Er11  1  0.206045  0.250159  0.139079  1
  Lu  Lu12  1  0.061640  0.555755  0.821183  1
  Lu  Lu13  1  0.561640  0.944245  0.678817  1
  Lu  Lu14  1  0.938360  0.055755  0.178817  1
  Lu  Lu15  1  0.438360  0.444245  0.321183  1
  Lu  Lu16  1  0.001157  0.750111  0.460673  1
  Lu  Lu17  1  0.501157  0.749889  0.039327  1
  Lu  Lu18  1  0.998843  0.250111  0.539327  1
  Lu  Lu19  1  0.498843  0.249889  0.960673  1
  Si  Si20  1  0.476612  0.748824  0.409399  1
  Si  Si21  1  0.976612  0.751176  0.090601  1
  Si  Si22  1  0.523388  0.248824  0.590601  1
  Si  Si23  1  0.023388  0.251176  0.909399  1
  Bi  Bi24  1  0.326388  0.510673  0.932910  1
  Bi  Bi25  1  0.826388  0.989327  0.567090  1
  Bi  Bi26  1  0.673612  0.010673  0.067090  1
  Bi  Bi27  1  0.173612  0.489327  0.432910  1
  Bi  Bi28  1  0.673646  0.489343  0.066585  1
  Bi  Bi29  1  0.173646  0.010657  0.433415  1
  Bi  Bi30  1  0.326354  0.989343  0.933415  1
  Bi  Bi31  1  0.826354  0.510657  0.566585  1
