# generated using pymatgen
data_Nd16Cd2Hg2Ir3Pt
_symmetry_space_group_name_H-M   'P 1'
_cell_length_a   9.95282175
_cell_length_b   9.95282173
_cell_length_c   9.96738060
_cell_angle_alpha   60.12240051
_cell_angle_beta   60.12239971
_cell_angle_gamma   60.11408614
_symmetry_Int_Tables_number   1
_chemical_formula_structural   Nd16Cd2Hg2Ir3Pt
_chemical_formula_sum   'Nd16 Cd2 Hg2 Ir3 Pt1'
_cell_volume   700.05785989
_cell_formula_units_Z   1
loop_
 _symmetry_equiv_pos_site_id
 _symmetry_equiv_pos_as_xyz
  1  'x, y, z'
loop_
 _atom_site_type_symbol
 _atom_site_label
 _atom_site_symmetry_multiplicity
 _atom_site_fract_x
 _atom_site_fract_y
 _atom_site_fract_z
 _atom_site_occupancy
  Nd  Nd0  1  0.347785  0.347785  0.347299  1
  Nd  Nd1  1  0.352206  0.352206  0.949866  1
  Nd  Nd2  1  0.352753  0.948291  0.352370  1
  Nd  Nd3  1  0.948291  0.352753  0.352370  1
  Nd  Nd4  1  0.805204  0.190272  0.191316  1
  Nd  Nd5  1  0.188041  0.809175  0.809586  1
  Nd  Nd6  1  0.190272  0.805204  0.191316  1
  Nd  Nd7  1  0.809175  0.188041  0.809586  1
  Nd  Nd8  1  0.189897  0.189897  0.806268  1
  Nd  Nd9  1  0.808235  0.808235  0.189689  1
  Nd  Nd10  1  0.939799  0.561106  0.562267  1
  Nd  Nd11  1  0.561702  0.938293  0.938914  1
  Nd  Nd12  1  0.561106  0.939799  0.562267  1
  Nd  Nd13  1  0.938293  0.561702  0.938914  1
  Nd  Nd14  1  0.561374  0.561374  0.940526  1
  Nd  Nd15  1  0.938105  0.938105  0.562424  1
  Cd  Cd16  1  0.579307  0.260312  0.580073  1
  Cd  Cd17  1  0.260312  0.579307  0.580073  1
  Hg  Hg18  1  0.583419  0.583419  0.585560  1
  Hg  Hg19  1  0.583729  0.583729  0.246960  1
  Ir  Ir20  1  0.142241  0.142241  0.574106  1
  Ir  Ir21  1  0.142078  0.573933  0.142538  1
  Ir  Ir22  1  0.573933  0.142078  0.142538  1
  Pt  Pt23  1  0.142742  0.142742  0.143172  1
