# generated using pymatgen
data_Ho4Lu12AlCo4Ag3
_symmetry_space_group_name_H-M   'P 1'
_cell_length_a   9.21995923
_cell_length_b   9.26108493
_cell_length_c   9.26108343
_cell_angle_alpha   60.07014912
_cell_angle_beta   59.75059286
_cell_angle_gamma   59.75058626
_symmetry_Int_Tables_number   1
_chemical_formula_structural   Ho4Lu12AlCo4Ag3
_chemical_formula_sum   'Ho4 Lu12 Al1 Co4 Ag3'
_cell_volume   557.33725640
_cell_formula_units_Z   1
loop_
 _symmetry_equiv_pos_site_id
 _symmetry_equiv_pos_as_xyz
  1  'x, y, z'
loop_
 _atom_site_type_symbol
 _atom_site_label
 _atom_site_symmetry_multiplicity
 _atom_site_fract_x
 _atom_site_fract_y
 _atom_site_fract_z
 _atom_site_occupancy
  Ho  Ho0  1  0.560297  0.938502  0.562007  1
  Ho  Ho1  1  0.936269  0.563698  0.935736  1
  Ho  Ho2  1  0.560297  0.562007  0.938502  1
  Ho  Ho3  1  0.936269  0.935736  0.563698  1
  Lu  Lu4  1  0.347455  0.348457  0.348457  1
  Lu  Lu5  1  0.345586  0.350347  0.955371  1
  Lu  Lu6  1  0.345586  0.955371  0.350347  1
  Lu  Lu7  1  0.959467  0.346210  0.346210  1
  Lu  Lu8  1  0.813524  0.186946  0.186946  1
  Lu  Lu9  1  0.186598  0.811393  0.811393  1
  Lu  Lu10  1  0.188277  0.810349  0.191164  1
  Lu  Lu11  1  0.812163  0.188384  0.811351  1
  Lu  Lu12  1  0.188277  0.191164  0.810349  1
  Lu  Lu13  1  0.812163  0.811351  0.188384  1
  Lu  Lu14  1  0.939369  0.560528  0.560528  1
  Lu  Lu15  1  0.557185  0.941949  0.941949  1
  Al  Al16  1  0.271226  0.576584  0.576584  1
  Co  Co17  1  0.145708  0.139068  0.139068  1
  Co  Co18  1  0.142351  0.142469  0.576338  1
  Co  Co19  1  0.142351  0.576338  0.142469  1
  Co  Co20  1  0.574884  0.140679  0.140679  1
  Ag  Ag21  1  0.579461  0.582058  0.582058  1
  Ag  Ag22  1  0.577618  0.582429  0.257985  1
  Ag  Ag23  1  0.577618  0.257985  0.582429  1
