# generated using pymatgen
data_Tb3Pr17Si15S
_symmetry_space_group_name_H-M   'P 1'
_cell_length_a   7.94215882
_cell_length_b   7.85654977
_cell_length_c   15.23431400
_cell_angle_alpha   89.53380641
_cell_angle_beta   89.10459603
_cell_angle_gamma   90.91887751
_symmetry_Int_Tables_number   1
_chemical_formula_structural   Tb3Pr17Si15S
_chemical_formula_sum   'Tb3 Pr17 Si15 S1'
_cell_volume   950.31845926
_cell_formula_units_Z   1
loop_
 _symmetry_equiv_pos_site_id
 _symmetry_equiv_pos_as_xyz
  1  'x, y, z'
loop_
 _atom_site_type_symbol
 _atom_site_label
 _atom_site_symmetry_multiplicity
 _atom_site_fract_x
 _atom_site_fract_y
 _atom_site_fract_z
 _atom_site_occupancy
  Tb  Tb0  1  0.314517  0.311537  0.998744  1
  Tb  Tb1  1  0.187362  0.807429  0.249167  1
  Tb  Tb2  1  0.802130  0.190335  0.752683  1
  Pr  Pr3  1  0.687586  0.686962  0.498197  1
  Pr  Pr4  1  0.379816  0.002906  0.442613  1
  Pr  Pr5  1  0.495722  0.863309  0.701494  1
  Pr  Pr6  1  0.511192  0.123220  0.196575  1
  Pr  Pr7  1  0.873545  0.483098  0.299689  1
  Pr  Pr8  1  0.124846  0.513642  0.799881  1
  Pr  Pr9  1  0.635865  0.986117  0.951963  1
  Pr  Pr10  1  0.998224  0.379335  0.549140  1
  Pr  Pr11  1  0.994713  0.624150  0.052188  1
  Pr  Pr12  1  0.142614  0.994020  0.869603  1
  Pr  Pr13  1  0.520403  0.630779  0.124781  1
  Pr  Pr14  1  0.463994  0.355962  0.633741  1
  Pr  Pr15  1  0.636260  0.521637  0.876245  1
  Pr  Pr16  1  0.366458  0.476348  0.374830  1
  Pr  Pr17  1  0.871855  0.019701  0.377645  1
  Pr  Pr18  1  0.984773  0.125276  0.122444  1
  Pr  Pr19  1  0.022387  0.881220  0.622212  1
  Si  Si20  1  0.333701  0.697491  0.949472  1
  Si  Si21  1  0.659671  0.302578  0.455303  1
  Si  Si22  1  0.701578  0.334017  0.049814  1
  Si  Si23  1  0.302297  0.665067  0.550779  1
  Si  Si24  1  0.808327  0.829747  0.204080  1
  Si  Si25  1  0.169411  0.189152  0.294145  1
  Si  Si26  1  0.842444  0.807946  0.796501  1
  Si  Si27  1  0.289088  0.924552  0.059518  1
  Si  Si28  1  0.572869  0.784661  0.307883  1
  Si  Si29  1  0.456561  0.208118  0.825381  1
  Si  Si30  1  0.788122  0.577769  0.688782  1
  Si  Si31  1  0.212756  0.424873  0.187849  1
  Si  Si32  1  0.702676  0.075607  0.564329  1
  Si  Si33  1  0.931024  0.290710  0.938439  1
  Si  Si34  1  0.078573  0.713043  0.438151  1
  S  S35  1  0.136640  0.197687  0.695740  1
