# generated using pymatgen
data_AsI10Br
_symmetry_space_group_name_H-M   'P 1'
_cell_length_a   8.21752825
_cell_length_b   9.39839826
_cell_length_c   10.42565547
_cell_angle_alpha   97.33200858
_cell_angle_beta   95.92379613
_cell_angle_gamma   111.55751214
_symmetry_Int_Tables_number   1
_chemical_formula_structural   AsI10Br
_chemical_formula_sum   'As1 I10 Br1'
_cell_volume   732.84447572
_cell_formula_units_Z   1
loop_
 _symmetry_equiv_pos_site_id
 _symmetry_equiv_pos_as_xyz
  1  'x, y, z'
loop_
 _atom_site_type_symbol
 _atom_site_label
 _atom_site_symmetry_multiplicity
 _atom_site_fract_x
 _atom_site_fract_y
 _atom_site_fract_z
 _atom_site_occupancy
  As  As0  1  0.974918  0.495929  0.532319  1
  I  I1  1  0.005998  0.007414  0.033787  1
  I  I2  1  0.684773  0.784820  0.880971  1
  I  I3  1  0.330067  0.239455  0.224891  1
  I  I4  1  0.710495  0.261948  0.578734  1
  I  I5  1  0.239656  0.707868  0.293579  1
  I  I6  1  0.463971  0.745513  0.089611  1
  I  I7  1  0.549411  0.272862  0.996833  1
  I  I8  1  0.854573  0.720200  0.544840  1
  I  I9  1  0.140771  0.208448  0.438112  1
  I  I10  1  0.890027  0.484805  0.143285  1
  Br  Br11  1  0.155339  0.570738  0.743035  1
