# generated using pymatgen
data_DyHo19CoBi8Rh3
_symmetry_space_group_name_H-M   'P 1'
_cell_length_a   7.99948468
_cell_length_b   8.96447800
_cell_length_c   12.41611563
_cell_angle_alpha   90.00000000
_cell_angle_beta   89.81554939
_cell_angle_gamma   90.00000000
_symmetry_Int_Tables_number   1
_chemical_formula_structural   DyHo19CoBi8Rh3
_chemical_formula_sum   'Dy1 Ho19 Co1 Bi8 Rh3'
_cell_volume   890.36999229
_cell_formula_units_Z   1
loop_
 _symmetry_equiv_pos_site_id
 _symmetry_equiv_pos_as_xyz
  1  'x, y, z'
loop_
 _atom_site_type_symbol
 _atom_site_label
 _atom_site_symmetry_multiplicity
 _atom_site_fract_x
 _atom_site_fract_y
 _atom_site_fract_z
 _atom_site_occupancy
  Dy  Dy0  1  0.657889  0.250000  0.293725  1
  Ho  Ho1  1  0.345465  0.750000  0.699603  1
  Ho  Ho2  1  0.842428  0.250000  0.793850  1
  Ho  Ho3  1  0.157545  0.750000  0.205774  1
  Ho  Ho4  1  0.879657  0.750000  0.806139  1
  Ho  Ho5  1  0.121073  0.250000  0.193447  1
  Ho  Ho6  1  0.379121  0.250000  0.693465  1
  Ho  Ho7  1  0.614828  0.750000  0.311729  1
  Ho  Ho8  1  0.676561  0.545543  0.564184  1
  Ho  Ho9  1  0.324010  0.465586  0.436567  1
  Ho  Ho10  1  0.177785  0.457289  0.934216  1
  Ho  Ho11  1  0.324010  0.034414  0.436567  1
  Ho  Ho12  1  0.821691  0.541967  0.065670  1
  Ho  Ho13  1  0.676561  0.954457  0.564184  1
  Ho  Ho14  1  0.821691  0.958033  0.065670  1
  Ho  Ho15  1  0.177785  0.042711  0.934216  1
  Ho  Ho16  1  0.051767  0.750000  0.498902  1
  Ho  Ho17  1  0.950108  0.250000  0.501416  1
  Ho  Ho18  1  0.547640  0.250000  0.000668  1
  Ho  Ho19  1  0.450700  0.750000  0.998248  1
  Co  Co20  1  0.432456  0.750000  0.491725  1
  Bi  Bi21  1  0.570931  0.509826  0.826177  1
  Bi  Bi22  1  0.428979  0.491199  0.173593  1
  Bi  Bi23  1  0.071698  0.490526  0.672722  1
  Bi  Bi24  1  0.428979  0.008801  0.173593  1
  Bi  Bi25  1  0.928806  0.510227  0.327502  1
  Bi  Bi26  1  0.570931  0.990174  0.826177  1
  Bi  Bi27  1  0.928806  0.989773  0.327502  1
  Bi  Bi28  1  0.071698  0.009474  0.672722  1
  Rh  Rh29  1  0.070403  0.750000  0.990433  1
  Rh  Rh30  1  0.928142  0.250000  0.010116  1
  Rh  Rh31  1  0.569856  0.250000  0.509495  1
