# generated using pymatgen
data_V5Ga2Tc
_symmetry_space_group_name_H-M   'P 1'
_cell_length_a   4.78232800
_cell_length_b   4.81021200
_cell_length_c   4.78232800
_cell_angle_alpha   90.00000000
_cell_angle_beta   90.00000000
_cell_angle_gamma   90.00000000
_symmetry_Int_Tables_number   1
_chemical_formula_structural   V5Ga2Tc
_chemical_formula_sum   'V5 Ga2 Tc1'
_cell_volume   110.01272847
_cell_formula_units_Z   1
loop_
 _symmetry_equiv_pos_site_id
 _symmetry_equiv_pos_as_xyz
  1  'x, y, z'
loop_
 _atom_site_type_symbol
 _atom_site_label
 _atom_site_symmetry_multiplicity
 _atom_site_fract_x
 _atom_site_fract_y
 _atom_site_fract_z
 _atom_site_occupancy
  V  V0  1  0.500000  0.750000  0.000000  1
  V  V1  1  0.247718  0.005256  0.500000  1
  V  V2  1  0.752282  0.005256  0.500000  1
  V  V3  1  0.000000  0.494744  0.252282  1
  V  V4  1  0.000000  0.494744  0.747718  1
  Ga  Ga5  1  0.500000  0.506196  0.500000  1
  Ga  Ga6  1  0.000000  0.993804  0.000000  1
  Tc  Tc7  1  0.500000  0.250000  0.000000  1
