# generated using pymatgen
data_Sn7RuRh2
_symmetry_space_group_name_H-M   'P 1'
_cell_length_a   8.22846493
_cell_length_b   8.23186845
_cell_length_c   8.23186892
_cell_angle_alpha   109.34174559
_cell_angle_beta   109.54441047
_cell_angle_gamma   109.54440268
_symmetry_Int_Tables_number   1
_chemical_formula_structural   Sn7RuRh2
_chemical_formula_sum   'Sn14 Ru2 Rh4'
_cell_volume   429.14281514
_cell_formula_units_Z   2
loop_
 _symmetry_equiv_pos_site_id
 _symmetry_equiv_pos_as_xyz
  1  'x, y, z'
loop_
 _atom_site_type_symbol
 _atom_site_label
 _atom_site_symmetry_multiplicity
 _atom_site_fract_x
 _atom_site_fract_y
 _atom_site_fract_z
 _atom_site_occupancy
  Sn  Sn0  1  0.253835  0.751490  0.502344  1
  Sn  Sn1  1  0.751783  0.249291  0.502492  1
  Sn  Sn2  1  0.751783  0.502492  0.249291  1
  Sn  Sn3  1  0.253835  0.502344  0.751490  1
  Sn  Sn4  1  0.504878  0.752439  0.252439  1
  Sn  Sn5  1  0.504878  0.252439  0.752439  1
  Sn  Sn6  1  0.997285  0.997475  0.324295  1
  Sn  Sn7  1  0.673027  0.997503  0.997503  1
  Sn  Sn8  1  0.997285  0.672991  0.999810  1
  Sn  Sn9  1  0.326651  0.326842  0.326842  1
  Sn  Sn10  1  0.997285  0.324295  0.997475  1
  Sn  Sn11  1  0.673027  0.675523  0.675523  1
  Sn  Sn12  1  0.326651  0.999809  0.999809  1
  Sn  Sn13  1  0.997285  0.999810  0.672991  1
  Ru  Ru14  1  0.653320  0.653503  0.999816  1
  Ru  Ru15  1  0.653320  0.999816  0.653503  1
  Rh  Rh16  1  0.342120  0.999932  0.342188  1
  Rh  Rh17  1  0.999817  0.344845  0.344845  1
  Rh  Rh18  1  0.999817  0.654972  0.654972  1
  Rh  Rh19  1  0.342120  0.342188  0.999932  1
