# generated using pymatgen
data_BaPrHoS4
_symmetry_space_group_name_H-M   'P 1'
_cell_length_a   4.08914900
_cell_length_b   12.29758800
_cell_length_c   14.67361100
_cell_angle_alpha   90.00000000
_cell_angle_beta   90.00000000
_cell_angle_gamma   90.00000000
_symmetry_Int_Tables_number   1
_chemical_formula_structural   BaPrHoS4
_chemical_formula_sum   'Ba4 Pr4 Ho4 S16'
_cell_volume   737.88702926
_cell_formula_units_Z   4
loop_
 _symmetry_equiv_pos_site_id
 _symmetry_equiv_pos_as_xyz
  1  'x, y, z'
loop_
 _atom_site_type_symbol
 _atom_site_label
 _atom_site_symmetry_multiplicity
 _atom_site_fract_x
 _atom_site_fract_y
 _atom_site_fract_z
 _atom_site_occupancy
  Ba  Ba0  1  0.250000  0.757462  0.340988  1
  Ba  Ba1  1  0.250000  0.257462  0.159012  1
  Ba  Ba2  1  0.750000  0.242538  0.659012  1
  Ba  Ba3  1  0.750000  0.742538  0.840988  1
  Pr  Pr4  1  0.250000  0.424559  0.390834  1
  Pr  Pr5  1  0.250000  0.924559  0.109166  1
  Pr  Pr6  1  0.750000  0.575441  0.609166  1
  Pr  Pr7  1  0.750000  0.075441  0.890834  1
  Ho  Ho8  1  0.250000  0.424500  0.899031  1
  Ho  Ho9  1  0.250000  0.924500  0.600969  1
  Ho  Ho10  1  0.750000  0.575500  0.100969  1
  Ho  Ho11  1  0.750000  0.075500  0.399031  1
  S  S12  1  0.250000  0.217518  0.828797  1
  S  S13  1  0.250000  0.717518  0.671203  1
  S  S14  1  0.750000  0.782482  0.171203  1
  S  S15  1  0.750000  0.282482  0.328797  1
  S  S16  1  0.250000  0.125713  0.521154  1
  S  S17  1  0.250000  0.625713  0.978846  1
  S  S18  1  0.750000  0.874287  0.478846  1
  S  S19  1  0.750000  0.374287  0.021154  1
  S  S20  1  0.250000  0.520367  0.211781  1
  S  S21  1  0.250000  0.020367  0.288219  1
  S  S22  1  0.750000  0.479633  0.788219  1
  S  S23  1  0.750000  0.979633  0.711781  1
  S  S24  1  0.250000  0.417308  0.581428  1
  S  S25  1  0.250000  0.917308  0.918572  1
  S  S26  1  0.750000  0.582692  0.418572  1
  S  S27  1  0.750000  0.082692  0.081428  1
