# generated using pymatgen
data_Y2SO6
_symmetry_space_group_name_H-M   'P 1'
_cell_length_a   12.93529500
_cell_length_b   8.07929100
_cell_length_c   4.18240900
_cell_angle_alpha   90.00000000
_cell_angle_beta   90.00000000
_cell_angle_gamma   90.00000000
_symmetry_Int_Tables_number   1
_chemical_formula_structural   Y2SO6
_chemical_formula_sum   'Y8 S4 O24'
_cell_volume   437.09525195
_cell_formula_units_Z   4
loop_
 _symmetry_equiv_pos_site_id
 _symmetry_equiv_pos_as_xyz
  1  'x, y, z'
loop_
 _atom_site_type_symbol
 _atom_site_label
 _atom_site_symmetry_multiplicity
 _atom_site_fract_x
 _atom_site_fract_y
 _atom_site_fract_z
 _atom_site_occupancy
  Y  Y0  1  0.578486  0.124820  0.241831  1
  Y  Y1  1  0.921514  0.124820  0.241831  1
  Y  Y2  1  0.578486  0.624820  0.258169  1
  Y  Y3  1  0.921514  0.624820  0.258169  1
  Y  Y4  1  0.078485  0.375178  0.741829  1
  Y  Y5  1  0.421514  0.375178  0.741829  1
  Y  Y6  1  0.078485  0.875179  0.758169  1
  Y  Y7  1  0.421514  0.875179  0.758169  1
  S  S8  1  0.250000  0.624206  0.195855  1
  S  S9  1  0.250000  0.124205  0.304143  1
  S  S10  1  0.750000  0.875794  0.695857  1
  S  S11  1  0.750000  0.375795  0.804146  1
  O  O12  1  0.750000  0.225375  0.014189  1
  O  O13  1  0.750000  0.524675  0.017785  1
  O  O14  1  0.155832  0.124020  0.104319  1
  O  O15  1  0.344169  0.124020  0.104319  1
  O  O16  1  0.004716  0.374846  0.232591  1
  O  O17  1  0.495283  0.374846  0.232591  1
  O  O18  1  0.004716  0.874845  0.267409  1
  O  O19  1  0.495283  0.874845  0.267409  1
  O  O20  1  0.155832  0.624020  0.395681  1
  O  O21  1  0.344169  0.624020  0.395681  1
  O  O22  1  0.750000  0.024675  0.482215  1
  O  O23  1  0.750000  0.725374  0.485809  1
  O  O24  1  0.250000  0.274624  0.514191  1
  O  O25  1  0.250000  0.975324  0.517783  1
  O  O26  1  0.655832  0.375979  0.604320  1
  O  O27  1  0.844168  0.375979  0.604320  1
  O  O28  1  0.504716  0.125155  0.732589  1
  O  O29  1  0.995284  0.125155  0.732589  1
  O  O30  1  0.504716  0.625155  0.767409  1
  O  O31  1  0.995284  0.625155  0.767409  1
  O  O32  1  0.655832  0.875980  0.895681  1
  O  O33  1  0.844168  0.875980  0.895681  1
  O  O34  1  0.250000  0.475325  0.982215  1
  O  O35  1  0.250000  0.774625  0.985809  1
