# generated using pymatgen
data_Cd6HgPd12Au5
_symmetry_space_group_name_H-M   'P 1'
_cell_length_a   4.30114900
_cell_length_b   7.39072700
_cell_length_c   13.04839900
_cell_angle_alpha   90.00001653
_cell_angle_beta   89.99996058
_cell_angle_gamma   89.99997117
_symmetry_Int_Tables_number   1
_chemical_formula_structural   Cd6HgPd12Au5
_chemical_formula_sum   'Cd6 Hg1 Pd12 Au5'
_cell_volume   414.79057200
_cell_formula_units_Z   1
loop_
 _symmetry_equiv_pos_site_id
 _symmetry_equiv_pos_as_xyz
  1  'x, y, z'
loop_
 _atom_site_type_symbol
 _atom_site_label
 _atom_site_symmetry_multiplicity
 _atom_site_fract_x
 _atom_site_fract_y
 _atom_site_fract_z
 _atom_site_occupancy
  Cd  Cd0  1  0.000000  0.000000  0.000000  1
  Cd  Cd1  1  0.500008  0.500000  0.172497  1
  Cd  Cd2  1  0.999997  0.000000  0.334520  1
  Cd  Cd3  1  0.500001  0.500000  0.500000  1
  Cd  Cd4  1  0.000003  0.000000  0.665480  1
  Cd  Cd5  1  0.499992  0.500000  0.827504  1
  Hg  Hg6  1  0.000000  0.500000  0.000000  1
  Pd  Pd7  1  0.500000  0.250699  0.000000  1
  Pd  Pd8  1  0.500000  0.749301  0.000000  1
  Pd  Pd9  1  0.999998  0.248599  0.167077  1
  Pd  Pd10  1  0.999998  0.751401  0.167077  1
  Pd  Pd11  1  0.499997  0.248536  0.334490  1
  Pd  Pd12  1  0.499997  0.751463  0.334490  1
  Pd  Pd13  1  0.000000  0.250558  0.500000  1
  Pd  Pd14  1  0.000000  0.749442  0.500000  1
  Pd  Pd15  1  0.500002  0.248536  0.665510  1
  Pd  Pd16  1  0.500002  0.751463  0.665510  1
  Pd  Pd17  1  0.000002  0.248599  0.832923  1
  Pd  Pd18  1  0.000002  0.751401  0.832923  1
  Au  Au19  1  0.499995  0.000000  0.167478  1
  Au  Au20  1  0.999999  0.500000  0.333814  1
  Au  Au21  1  0.500001  0.000000  0.500000  1
  Au  Au22  1  0.000001  0.500000  0.666185  1
  Au  Au23  1  0.500005  0.000000  0.832522  1
