# generated using pymatgen
data_YAl3NiHg
_symmetry_space_group_name_H-M   'P 1'
_cell_length_a   8.12017472
_cell_length_b   8.12017416
_cell_length_c   6.66958700
_cell_angle_alpha   90.00000000
_cell_angle_beta   90.00000000
_cell_angle_gamma   150.72520999
_symmetry_Int_Tables_number   1
_chemical_formula_structural   YAl3NiHg
_chemical_formula_sum   'Y2 Al6 Ni2 Hg2'
_cell_volume   215.04896728
_cell_formula_units_Z   2
loop_
 _symmetry_equiv_pos_site_id
 _symmetry_equiv_pos_as_xyz
  1  'x, y, z'
loop_
 _atom_site_type_symbol
 _atom_site_label
 _atom_site_symmetry_multiplicity
 _atom_site_fract_x
 _atom_site_fract_y
 _atom_site_fract_z
 _atom_site_occupancy
  Y  Y0  1  0.623200  0.376800  0.250000  1
  Y  Y1  1  0.376800  0.623200  0.750000  1
  Al  Al2  1  0.191493  0.808507  0.946435  1
  Al  Al3  1  0.808507  0.191493  0.053565  1
  Al  Al4  1  0.808507  0.191493  0.446435  1
  Al  Al5  1  0.191493  0.808507  0.553565  1
  Al  Al6  1  0.577952  0.422048  0.750000  1
  Al  Al7  1  0.422048  0.577952  0.250000  1
  Ni  Ni8  1  0.725363  0.274637  0.750000  1
  Ni  Ni9  1  0.274637  0.725363  0.250000  1
  Hg  Hg10  1  0.000000  0.000000  0.500000  1
  Hg  Hg11  1  0.000000  0.000000  0.000000  1
