# generated using pymatgen
data_LaPrNd4OsI10
_symmetry_space_group_name_H-M   'P 1'
_cell_length_a   8.06488594
_cell_length_b   10.14039332
_cell_length_c   9.98675909
_cell_angle_alpha   107.24777956
_cell_angle_beta   96.51394687
_cell_angle_gamma   105.61547455
_symmetry_Int_Tables_number   1
_chemical_formula_structural   LaPrNd4OsI10
_chemical_formula_sum   'La1 Pr1 Nd4 Os1 I10'
_cell_volume   734.44203986
_cell_formula_units_Z   1
loop_
 _symmetry_equiv_pos_site_id
 _symmetry_equiv_pos_as_xyz
  1  'x, y, z'
loop_
 _atom_site_type_symbol
 _atom_site_label
 _atom_site_symmetry_multiplicity
 _atom_site_fract_x
 _atom_site_fract_y
 _atom_site_fract_z
 _atom_site_occupancy
  La  La0  1  0.613037  0.041523  0.272181  1
  Pr  Pr1  1  0.385961  0.957921  0.730877  1
  Nd  Nd2  1  0.469364  0.293262  0.589464  1
  Nd  Nd3  1  0.530535  0.706737  0.410914  1
  Nd  Nd4  1  0.858247  0.132121  0.675710  1
  Nd  Nd5  1  0.141129  0.867586  0.324528  1
  Os  Os6  1  0.502855  0.001397  0.495070  1
  I  I7  1  0.414988  0.630778  0.679393  1
  I  I8  1  0.584406  0.371292  0.321593  1
  I  I9  1  0.290265  0.260347  0.850152  1
  I  I10  1  0.710110  0.737342  0.149687  1
  I  I11  1  0.854989  0.454898  0.771268  1
  I  I12  1  0.145087  0.545069  0.228828  1
  I  I13  1  0.048041  0.179789  0.412126  1
  I  I14  1  0.237577  0.912733  0.040594  1
  I  I15  1  0.758923  0.086126  0.958299  1
  I  I16  1  0.954487  0.821076  0.589314  1
