# generated using pymatgen
data_Ho5Lu15(Zn3Ru)2
_symmetry_space_group_name_H-M   'P 1'
_cell_length_a   9.23035621
_cell_length_b   9.22919367
_cell_length_c   9.43929800
_cell_angle_alpha   90.00000000
_cell_angle_beta   90.00000000
_cell_angle_gamma   119.70204237
_symmetry_Int_Tables_number   1
_chemical_formula_structural   Ho5Lu15(Zn3Ru)2
_chemical_formula_sum   'Ho5 Lu15 Zn6 Ru2'
_cell_volume   698.47146648
_cell_formula_units_Z   1
loop_
 _symmetry_equiv_pos_site_id
 _symmetry_equiv_pos_as_xyz
  1  'x, y, z'
loop_
 _atom_site_type_symbol
 _atom_site_label
 _atom_site_symmetry_multiplicity
 _atom_site_fract_x
 _atom_site_fract_y
 _atom_site_fract_z
 _atom_site_occupancy
  Ho  Ho0  1  0.540353  0.081537  0.250000  1
  Ho  Ho1  1  0.918347  0.459539  0.250000  1
  Ho  Ho2  1  0.459333  0.540704  0.750000  1
  Ho  Ho3  1  0.459426  0.919606  0.750000  1
  Ho  Ho4  1  0.080314  0.540560  0.750000  1
  Lu  Lu5  1  0.000134  0.999836  0.499807  1
  Lu  Lu6  1  0.000134  0.999836  0.000193  1
  Lu  Lu7  1  0.207681  0.792333  0.442148  1
  Lu  Lu8  1  0.208074  0.414833  0.441736  1
  Lu  Lu9  1  0.585199  0.791922  0.441815  1
  Lu  Lu10  1  0.792453  0.207540  0.557557  1
  Lu  Lu11  1  0.791656  0.584556  0.557226  1
  Lu  Lu12  1  0.415463  0.208331  0.557251  1
  Lu  Lu13  1  0.792453  0.207540  0.942443  1
  Lu  Lu14  1  0.791656  0.584556  0.942774  1
  Lu  Lu15  1  0.415463  0.208331  0.942749  1
  Lu  Lu16  1  0.207681  0.792333  0.057852  1
  Lu  Lu17  1  0.208074  0.414833  0.058264  1
  Lu  Lu18  1  0.585199  0.791922  0.058185  1
  Lu  Lu19  1  0.540122  0.459887  0.250000  1
  Zn  Zn20  1  0.886984  0.113026  0.250000  1
  Zn  Zn21  1  0.884498  0.772550  0.250000  1
  Zn  Zn22  1  0.227416  0.115509  0.250000  1
  Zn  Zn23  1  0.112965  0.887062  0.750000  1
  Zn  Zn24  1  0.114112  0.225931  0.750000  1
  Zn  Zn25  1  0.774142  0.885928  0.750000  1
  Ru  Ru26  1  0.333696  0.666372  0.250000  1
  Ru  Ru27  1  0.666973  0.333084  0.750000  1
