# generated using pymatgen
data_LiYbEu2Ag2Pb3
_symmetry_space_group_name_H-M   'P 1'
_cell_length_a   5.00938900
_cell_length_b   5.00938727
_cell_length_c   11.27710200
_cell_angle_alpha   90.00000000
_cell_angle_beta   90.00000000
_cell_angle_gamma   119.99999161
_symmetry_Int_Tables_number   1
_chemical_formula_structural   LiYbEu2Ag2Pb3
_chemical_formula_sum   'Li1 Yb1 Eu2 Ag2 Pb3'
_cell_volume   245.07417119
_cell_formula_units_Z   1
loop_
 _symmetry_equiv_pos_site_id
 _symmetry_equiv_pos_as_xyz
  1  'x, y, z'
loop_
 _atom_site_type_symbol
 _atom_site_label
 _atom_site_symmetry_multiplicity
 _atom_site_fract_x
 _atom_site_fract_y
 _atom_site_fract_z
 _atom_site_occupancy
  Li  Li0  1  0.333333  0.666667  0.508006  1
  Yb  Yb1  1  0.666667  0.333333  0.669367  1
  Eu  Eu2  1  0.666667  0.333333  0.334578  1
  Eu  Eu3  1  0.666667  0.333333  0.998339  1
  Ag  Ag4  1  0.000000  0.000000  0.792697  1
  Ag  Ag5  1  0.000000  0.000000  0.193785  1
  Pb  Pb6  1  0.333333  0.666667  0.155025  1
  Pb  Pb7  1  0.333333  0.666667  0.843691  1
  Pb  Pb8  1  0.000000  0.000000  0.504511  1
