# generated using pymatgen
data_Ce2Y5(HoIr2)3
_symmetry_space_group_name_H-M   'P 1'
_cell_length_a   11.01093557
_cell_length_b   10.97347400
_cell_length_c   6.33415240
_cell_angle_alpha   90.00000000
_cell_angle_beta   90.13089340
_cell_angle_gamma   90.00000000
_symmetry_Int_Tables_number   1
_chemical_formula_structural   Ce2Y5(HoIr2)3
_chemical_formula_sum   'Ce4 Y10 Ho6 Ir12'
_cell_volume   765.34233269
_cell_formula_units_Z   2
loop_
 _symmetry_equiv_pos_site_id
 _symmetry_equiv_pos_as_xyz
  1  'x, y, z'
loop_
 _atom_site_type_symbol
 _atom_site_label
 _atom_site_symmetry_multiplicity
 _atom_site_fract_x
 _atom_site_fract_y
 _atom_site_fract_z
 _atom_site_occupancy
  Ce  Ce0  1  0.293128  0.093121  0.384711  1
  Ce  Ce1  1  0.293128  0.906879  0.884711  1
  Ce  Ce2  1  0.705992  0.092318  0.885756  1
  Ce  Ce3  1  0.705992  0.907682  0.385756  1
  Y  Y4  1  0.589204  0.785775  0.882689  1
  Y  Y5  1  0.589204  0.214225  0.382689  1
  Y  Y6  1  0.410778  0.786104  0.383568  1
  Y  Y7  1  0.410778  0.213896  0.883568  1
  Y  Y8  1  0.207380  0.412497  0.620285  1
  Y  Y9  1  0.207380  0.587503  0.120285  1
  Y  Y10  1  0.793367  0.412795  0.118630  1
  Y  Y11  1  0.793367  0.587205  0.618630  1
  Y  Y12  1  0.912286  0.709755  0.113161  1
  Y  Y13  1  0.912286  0.290245  0.613161  1
  Ho  Ho14  1  0.087884  0.707650  0.611847  1
  Ho  Ho15  1  0.087884  0.292350  0.111847  1
  Ho  Ho16  1  0.000290  0.999298  0.490550  1
  Ho  Ho17  1  0.000290  0.000702  0.990550  1
  Ho  Ho18  1  0.499840  0.499925  0.014849  1
  Ho  Ho19  1  0.499840  0.500075  0.514849  1
  Ir  Ir20  1  0.845566  0.151367  0.237761  1
  Ir  Ir21  1  0.845566  0.848633  0.737761  1
  Ir  Ir22  1  0.154743  0.151324  0.741262  1
  Ir  Ir23  1  0.154743  0.848676  0.241262  1
  Ir  Ir24  1  0.651706  0.345967  0.759938  1
  Ir  Ir25  1  0.651706  0.654033  0.259938  1
  Ir  Ir26  1  0.346988  0.346363  0.259248  1
  Ir  Ir27  1  0.346988  0.653637  0.759248  1
  Ir  Ir28  1  0.499957  0.999839  0.125508  1
  Ir  Ir29  1  0.499957  0.000161  0.625508  1
  Ir  Ir30  1  0.000892  0.499970  0.870237  1
  Ir  Ir31  1  0.000892  0.500030  0.370237  1
