# generated using pymatgen
data_Sc3ZnIn3Pd2
_symmetry_space_group_name_H-M   'P 1'
_cell_length_a   7.53880900
_cell_length_b   7.53880916
_cell_length_c   3.50832700
_cell_angle_alpha   90.00000000
_cell_angle_beta   90.00000000
_cell_angle_gamma   120.00000370
_symmetry_Int_Tables_number   1
_chemical_formula_structural   Sc3ZnIn3Pd2
_chemical_formula_sum   'Sc3 Zn1 In3 Pd2'
_cell_volume   172.67766644
_cell_formula_units_Z   1
loop_
 _symmetry_equiv_pos_site_id
 _symmetry_equiv_pos_as_xyz
  1  'x, y, z'
loop_
 _atom_site_type_symbol
 _atom_site_label
 _atom_site_symmetry_multiplicity
 _atom_site_fract_x
 _atom_site_fract_y
 _atom_site_fract_z
 _atom_site_occupancy
  Sc  Sc0  1  0.594666  0.980419  0.000000  1
  Sc  Sc1  1  0.385753  0.405334  0.000000  1
  Sc  Sc2  1  0.019581  0.614247  0.000000  1
  Zn  Zn3  1  0.666667  0.333333  0.500000  1
  In  In4  1  0.729974  0.721725  0.500000  1
  In  In5  1  0.991750  0.270026  0.500000  1
  In  In6  1  0.278275  0.008250  0.500000  1
  Pd  Pd7  1  0.000000  0.000000  0.000000  1
  Pd  Pd8  1  0.333333  0.666667  0.500000  1
