# generated using pymatgen
data_HoScMn9Fe3P7
_symmetry_space_group_name_H-M   'P 1'
_cell_length_a   9.20702200
_cell_length_b   9.20702118
_cell_length_c   3.53842700
_cell_angle_alpha   90.00000000
_cell_angle_beta   90.00000000
_cell_angle_gamma   120.00000294
_symmetry_Int_Tables_number   1
_chemical_formula_structural   HoScMn9Fe3P7
_chemical_formula_sum   'Ho1 Sc1 Mn9 Fe3 P7'
_cell_volume   259.76413103
_cell_formula_units_Z   1
loop_
 _symmetry_equiv_pos_site_id
 _symmetry_equiv_pos_as_xyz
  1  'x, y, z'
loop_
 _atom_site_type_symbol
 _atom_site_label
 _atom_site_symmetry_multiplicity
 _atom_site_fract_x
 _atom_site_fract_y
 _atom_site_fract_z
 _atom_site_occupancy
  Ho  Ho0  1  0.333333  0.666667  0.500000  1
  Sc  Sc1  1  0.000000  0.000000  0.000000  1
  Mn  Mn2  1  0.287410  0.906066  0.000000  1
  Mn  Mn3  1  0.618655  0.712590  0.000000  1
  Mn  Mn4  1  0.093934  0.381345  0.000000  1
  Mn  Mn5  1  0.714575  0.942256  0.500000  1
  Mn  Mn6  1  0.227683  0.285425  0.500000  1
  Mn  Mn7  1  0.057744  0.772317  0.500000  1
  Mn  Mn8  1  0.539909  0.104376  0.500000  1
  Mn  Mn9  1  0.564467  0.460091  0.500000  1
  Mn  Mn10  1  0.895624  0.435533  0.500000  1
  Fe  Fe11  1  0.785996  0.177355  0.000000  1
  Fe  Fe12  1  0.391359  0.214004  0.000000  1
  Fe  Fe13  1  0.822645  0.608641  0.000000  1
  P  P14  1  0.547396  0.925576  0.000000  1
  P  P15  1  0.378180  0.452604  0.000000  1
  P  P16  1  0.074424  0.621820  0.000000  1
  P  P17  1  0.947807  0.202528  0.500000  1
  P  P18  1  0.254721  0.052193  0.500000  1
  P  P19  1  0.797472  0.745279  0.500000  1
  P  P20  1  0.666667  0.333333  0.000000  1
