# generated using pymatgen
data_CsCaAl2F9
_symmetry_space_group_name_H-M   'P 1'
_cell_length_a   7.48955389
_cell_length_b   7.48955377
_cell_length_c   23.44066408
_cell_angle_alpha   90.00625054
_cell_angle_beta   90.00624275
_cell_angle_gamma   119.96000207
_symmetry_Int_Tables_number   1
_chemical_formula_structural   CsCaAl2F9
_chemical_formula_sum   'Cs6 Ca6 Al12 F54'
_cell_volume   1139.16681550
_cell_formula_units_Z   6
loop_
 _symmetry_equiv_pos_site_id
 _symmetry_equiv_pos_as_xyz
  1  'x, y, z'
loop_
 _atom_site_type_symbol
 _atom_site_label
 _atom_site_symmetry_multiplicity
 _atom_site_fract_x
 _atom_site_fract_y
 _atom_site_fract_z
 _atom_site_occupancy
  Cs  Cs0  1  0.972743  0.006796  0.083418  1
  Cs  Cs1  1  0.992548  0.007452  0.750000  1
  Cs  Cs2  1  0.006670  0.973230  0.916575  1
  Cs  Cs3  1  0.993204  0.027257  0.416582  1
  Cs  Cs4  1  0.026770  0.993330  0.583425  1
  Cs  Cs5  1  0.007364  0.992636  0.250000  1
  Ca  Ca6  1  0.501753  0.990621  0.833407  1
  Ca  Ca7  1  0.511865  0.511983  0.500058  1
  Ca  Ca8  1  0.990563  0.501826  0.166538  1
  Ca  Ca9  1  0.488017  0.488135  0.999942  1
  Ca  Ca10  1  0.009379  0.498247  0.666593  1
  Ca  Ca11  1  0.498174  0.009437  0.333462  1
  Al  Al12  1  0.000932  0.485397  0.836490  1
  Al  Al13  1  0.515728  0.012605  0.503147  1
  Al  Al14  1  0.987395  0.484272  0.996853  1
  Al  Al15  1  0.485510  0.000868  0.163494  1
  Al  Al16  1  0.497208  0.511647  0.330267  1
  Al  Al17  1  0.999132  0.514490  0.336506  1
  Al  Al18  1  0.484204  0.987508  0.003235  1
  Al  Al19  1  0.012492  0.515796  0.496765  1
  Al  Al20  1  0.488353  0.502792  0.169733  1
  Al  Al21  1  0.511583  0.497154  0.669850  1
  Al  Al22  1  0.502846  0.488417  0.830150  1
  Al  Al23  1  0.514603  0.999068  0.663510  1
  F  F24  1  0.469819  0.513084  0.093702  1
  F  F25  1  0.235235  0.376787  0.666657  1
  F  F26  1  0.786780  0.620066  0.677756  1
  F  F27  1  0.513063  0.469768  0.906158  1
  F  F28  1  0.225991  0.744709  0.007589  1
  F  F29  1  0.446726  0.980751  0.927301  1
  F  F30  1  0.492883  0.507117  0.750000  1
  F  F31  1  0.857409  0.635529  0.487697  1
  F  F32  1  0.486916  0.530181  0.406298  1
  F  F33  1  0.212957  0.379701  0.177380  1
  F  F34  1  0.787611  0.155217  0.651631  1
  F  F35  1  0.530232  0.486937  0.593842  1
  F  F36  1  0.773936  0.255313  0.507537  1
  F  F37  1  0.608984  0.835643  0.998735  1
  F  F38  1  0.240909  0.464268  0.839494  1
  F  F39  1  0.001015  0.478868  0.416607  1
  F  F40  1  0.759008  0.535555  0.339358  1
  F  F41  1  0.553307  0.019178  0.427260  1
  F  F42  1  0.239392  0.843661  0.670407  1
  F  F43  1  0.506966  0.493034  0.250000  1
  F  F44  1  0.464445  0.240992  0.160642  1
  F  F45  1  0.635670  0.857643  0.512243  1
  F  F46  1  0.156339  0.760608  0.829593  1
  F  F47  1  0.002571  0.554624  0.260742  1
  F  F48  1  0.764537  0.511045  0.827044  1
  F  F49  1  0.844783  0.212389  0.848369  1
  F  F50  1  0.535732  0.759091  0.660506  1
  F  F51  1  0.620299  0.787043  0.322620  1
  F  F52  1  0.764696  0.623306  0.166430  1
  F  F53  1  0.843898  0.239178  0.329761  1
  F  F54  1  0.488955  0.235463  0.672956  1
  F  F55  1  0.255291  0.774009  0.492411  1
  F  F56  1  0.744687  0.226064  0.992463  1
  F  F57  1  0.155018  0.787402  0.348450  1
  F  F58  1  0.980822  0.446693  0.072740  1
  F  F59  1  0.998901  0.521022  0.916620  1
  F  F60  1  0.364471  0.142591  0.012303  1
  F  F61  1  0.478978  0.001099  0.583380  1
  F  F62  1  0.019249  0.553274  0.572699  1
  F  F63  1  0.997536  0.444586  0.760739  1
  F  F64  1  0.760822  0.156102  0.170239  1
  F  F65  1  0.623213  0.764765  0.833343  1
  F  F66  1  0.390992  0.164473  0.498635  1
  F  F67  1  0.376694  0.235304  0.333570  1
  F  F68  1  0.835527  0.609008  0.001365  1
  F  F69  1  0.510764  0.764232  0.172951  1
  F  F70  1  0.379934  0.213220  0.822244  1
  F  F71  1  0.142357  0.364330  0.987757  1
  F  F72  1  0.164357  0.391016  0.501265  1
  F  F73  1  0.212598  0.844982  0.151550  1
  F  F74  1  0.445376  0.997429  0.239258  1
  F  F75  1  0.555414  0.002464  0.739261  1
  F  F76  1  0.521132  0.998985  0.083393  1
  F  F77  1  0.235768  0.489236  0.327049  1
