# generated using pymatgen
data_Y4Ho(SnSb)2
_symmetry_space_group_name_H-M   'P 1'
_cell_length_a   8.09526400
_cell_length_b   8.15007200
_cell_length_c   15.44424600
_cell_angle_alpha   90.00000000
_cell_angle_beta   90.00000000
_cell_angle_gamma   90.00000000
_symmetry_Int_Tables_number   1
_chemical_formula_structural   Y4Ho(SnSb)2
_chemical_formula_sum   'Y16 Ho4 Sn8 Sb8'
_cell_volume   1018.96477832
_cell_formula_units_Z   4
loop_
 _symmetry_equiv_pos_site_id
 _symmetry_equiv_pos_as_xyz
  1  'x, y, z'
loop_
 _atom_site_type_symbol
 _atom_site_label
 _atom_site_symmetry_multiplicity
 _atom_site_fract_x
 _atom_site_fract_y
 _atom_site_fract_z
 _atom_site_occupancy
  Y  Y0  1  0.390598  0.838848  0.880945  1
  Y  Y1  1  0.890598  0.661152  0.619055  1
  Y  Y2  1  0.609402  0.161152  0.380945  1
  Y  Y3  1  0.109402  0.338848  0.119055  1
  Y  Y4  1  0.609402  0.161152  0.119055  1
  Y  Y5  1  0.109402  0.338848  0.380945  1
  Y  Y6  1  0.390598  0.838848  0.619055  1
  Y  Y7  1  0.890598  0.661152  0.880945  1
  Y  Y8  1  0.556884  0.329684  0.891989  1
  Y  Y9  1  0.056884  0.170316  0.608011  1
  Y  Y10  1  0.443116  0.670316  0.391989  1
  Y  Y11  1  0.943116  0.829684  0.108011  1
  Y  Y12  1  0.443116  0.670316  0.108011  1
  Y  Y13  1  0.943116  0.829684  0.391989  1
  Y  Y14  1  0.556884  0.329684  0.608011  1
  Y  Y15  1  0.056884  0.170316  0.891989  1
  Ho  Ho16  1  0.222344  0.499325  0.750000  1
  Ho  Ho17  1  0.722344  0.000675  0.750000  1
  Ho  Ho18  1  0.777656  0.500675  0.250000  1
  Ho  Ho19  1  0.277656  0.999325  0.250000  1
  Sn  Sn20  1  0.587451  0.627750  0.750000  1
  Sn  Sn21  1  0.087451  0.872250  0.750000  1
  Sn  Sn22  1  0.412549  0.372250  0.250000  1
  Sn  Sn23  1  0.912549  0.127750  0.250000  1
  Sn  Sn24  1  0.359712  0.142596  0.750000  1
  Sn  Sn25  1  0.859712  0.357404  0.750000  1
  Sn  Sn26  1  0.640288  0.857404  0.250000  1
  Sn  Sn27  1  0.140288  0.642596  0.250000  1
  Sb  Sb28  1  0.267048  0.017483  0.046838  1
  Sb  Sb29  1  0.767048  0.482517  0.453162  1
  Sb  Sb30  1  0.732952  0.982517  0.546838  1
  Sb  Sb31  1  0.232952  0.517483  0.953162  1
  Sb  Sb32  1  0.732952  0.982517  0.953162  1
  Sb  Sb33  1  0.232952  0.517483  0.546838  1
  Sb  Sb34  1  0.267048  0.017483  0.453162  1
  Sb  Sb35  1  0.767048  0.482517  0.046838  1
