# generated using pymatgen
data_Cs4CeNd3(SiSe4)4
_symmetry_space_group_name_H-M   'P 1'
_cell_length_a   7.15690444
_cell_length_b   9.97360811
_cell_length_c   13.64143067
_cell_angle_alpha   71.36294010
_cell_angle_beta   89.97881186
_cell_angle_gamma   89.90567739
_symmetry_Int_Tables_number   1
_chemical_formula_structural   Cs4CeNd3(SiSe4)4
_chemical_formula_sum   'Cs4 Ce1 Nd3 Si4 Se16'
_cell_volume   922.66582539
_cell_formula_units_Z   1
loop_
 _symmetry_equiv_pos_site_id
 _symmetry_equiv_pos_as_xyz
  1  'x, y, z'
loop_
 _atom_site_type_symbol
 _atom_site_label
 _atom_site_symmetry_multiplicity
 _atom_site_fract_x
 _atom_site_fract_y
 _atom_site_fract_z
 _atom_site_occupancy
  Cs  Cs0  1  0.254586  0.434554  0.386522  1
  Cs  Cs1  1  0.754376  0.565497  0.113406  1
  Cs  Cs2  1  0.745519  0.565402  0.613458  1
  Cs  Cs3  1  0.245528  0.434497  0.886586  1
  Ce  Ce4  1  0.194715  0.952985  0.366055  1
  Nd  Nd5  1  0.695820  0.046533  0.134471  1
  Nd  Nd6  1  0.804116  0.046587  0.634658  1
  Nd  Nd7  1  0.304095  0.953536  0.865408  1
  Si  Si8  1  0.743792  0.166385  0.354216  1
  Si  Si9  1  0.243958  0.833920  0.145513  1
  Si  Si10  1  0.256485  0.833936  0.645838  1
  Si  Si11  1  0.756231  0.166036  0.854426  1
  Se  Se12  1  0.027453  0.196705  0.758906  1
  Se  Se13  1  0.775721  0.934405  0.454216  1
  Se  Se14  1  0.525804  0.207537  0.730920  1
  Se  Se15  1  0.723417  0.934232  0.953860  1
  Se  Se16  1  0.758896  0.311887  0.452387  1
  Se  Se17  1  0.971911  0.802898  0.240538  1
  Se  Se18  1  0.258835  0.688089  0.047548  1
  Se  Se19  1  0.223460  0.065994  0.546715  1
  Se  Se20  1  0.741099  0.311869  0.952335  1
  Se  Se21  1  0.475071  0.791947  0.268515  1
  Se  Se22  1  0.025732  0.792385  0.769105  1
  Se  Se23  1  0.241479  0.687332  0.548320  1
  Se  Se24  1  0.473550  0.197862  0.258412  1
  Se  Se25  1  0.974006  0.207981  0.230482  1
  Se  Se26  1  0.527795  0.803235  0.741027  1
  Se  Se27  1  0.276550  0.065775  0.046157  1
