# generated using pymatgen
data_Sc3Mn4Co5P6
_symmetry_space_group_name_H-M   'P 1'
_cell_length_a   3.63460300
_cell_length_b   10.35806400
_cell_length_c   12.17584900
_cell_angle_alpha   90.00000000
_cell_angle_beta   90.00000000
_cell_angle_gamma   90.00000000
_symmetry_Int_Tables_number   1
_chemical_formula_structural   Sc3Mn4Co5P6
_chemical_formula_sum   'Sc6 Mn8 Co10 P12'
_cell_volume   458.38967238
_cell_formula_units_Z   2
loop_
 _symmetry_equiv_pos_site_id
 _symmetry_equiv_pos_as_xyz
  1  'x, y, z'
loop_
 _atom_site_type_symbol
 _atom_site_label
 _atom_site_symmetry_multiplicity
 _atom_site_fract_x
 _atom_site_fract_y
 _atom_site_fract_z
 _atom_site_occupancy
  Sc  Sc0  1  0.000000  0.500000  0.525344  1
  Sc  Sc1  1  0.500000  0.000000  0.474656  1
  Sc  Sc2  1  0.500000  0.820775  0.209634  1
  Sc  Sc3  1  0.500000  0.179225  0.209634  1
  Sc  Sc4  1  0.000000  0.679225  0.790366  1
  Sc  Sc5  1  0.000000  0.320775  0.790366  1
  Mn  Mn6  1  0.500000  0.500000  0.164698  1
  Mn  Mn7  1  0.000000  0.000000  0.835302  1
  Mn  Mn8  1  0.000000  0.500000  0.989060  1
  Mn  Mn9  1  0.500000  0.000000  0.010940  1
  Mn  Mn10  1  0.500000  0.331403  0.994941  1
  Mn  Mn11  1  0.500000  0.668597  0.994941  1
  Mn  Mn12  1  0.000000  0.168597  0.005059  1
  Mn  Mn13  1  0.000000  0.831403  0.005059  1
  Co  Co14  1  0.500000  0.500000  0.696265  1
  Co  Co15  1  0.000000  0.000000  0.303735  1
  Co  Co16  1  0.500000  0.297117  0.432912  1
  Co  Co17  1  0.500000  0.702883  0.432912  1
  Co  Co18  1  0.000000  0.202883  0.567088  1
  Co  Co19  1  0.000000  0.797117  0.567088  1
  Co  Co20  1  0.500000  0.878033  0.701704  1
  Co  Co21  1  0.500000  0.121967  0.701704  1
  Co  Co22  1  0.000000  0.621967  0.298296  1
  Co  Co23  1  0.000000  0.378033  0.298296  1
  P  P24  1  0.500000  0.500000  0.872264  1
  P  P25  1  0.000000  0.000000  0.127736  1
  P  P26  1  0.500000  0.500000  0.352077  1
  P  P27  1  0.000000  0.000000  0.647923  1
  P  P28  1  0.500000  0.314456  0.615712  1
  P  P29  1  0.500000  0.685544  0.615712  1
  P  P30  1  0.000000  0.185544  0.384288  1
  P  P31  1  0.000000  0.814456  0.384288  1
  P  P32  1  0.500000  0.846690  0.879736  1
  P  P33  1  0.500000  0.153310  0.879736  1
  P  P34  1  0.000000  0.653310  0.120264  1
  P  P35  1  0.000000  0.346690  0.120264  1
