# generated using pymatgen
data_Tb4Mg4CdIn7
_symmetry_space_group_name_H-M   'P 1'
_cell_length_a   6.59631100
_cell_length_b   6.59444878
_cell_length_c   8.94599700
_cell_angle_alpha   90.00073852
_cell_angle_beta   89.99995657
_cell_angle_gamma   90.51440876
_symmetry_Int_Tables_number   1
_chemical_formula_structural   Tb4Mg4CdIn7
_chemical_formula_sum   'Tb4 Mg4 Cd1 In7'
_cell_volume   389.12655302
_cell_formula_units_Z   1
loop_
 _symmetry_equiv_pos_site_id
 _symmetry_equiv_pos_as_xyz
  1  'x, y, z'
loop_
 _atom_site_type_symbol
 _atom_site_label
 _atom_site_symmetry_multiplicity
 _atom_site_fract_x
 _atom_site_fract_y
 _atom_site_fract_z
 _atom_site_occupancy
  Tb  Tb0  1  0.752607  0.247442  0.999934  1
  Tb  Tb1  1  0.247402  0.752564  0.999924  1
  Tb  Tb2  1  0.752546  0.247449  0.500064  1
  Tb  Tb3  1  0.247439  0.752545  0.500077  1
  Mg  Mg4  1  0.748150  0.748213  0.996111  1
  Mg  Mg5  1  0.251782  0.251783  0.503930  1
  Mg  Mg6  1  0.748159  0.748184  0.504016  1
  Mg  Mg7  1  0.251881  0.251811  0.995948  1
  Cd  Cd8  1  0.500038  0.500021  0.750018  1
  In  In9  1  0.499996  0.000000  0.249996  1
  In  In10  1  0.499996  0.499996  0.249995  1
  In  In11  1  0.000003  0.499995  0.250001  1
  In  In12  1  0.000002  0.999997  0.250004  1
  In  In13  1  0.999996  0.999997  0.749990  1
  In  In14  1  0.999999  0.500002  0.749992  1
  In  In15  1  0.500003  0.000000  0.750002  1
