# generated using pymatgen
data_KNb8VSe16
_symmetry_space_group_name_H-M   'P 1'
_cell_length_a   7.00417700
_cell_length_b   7.00417843
_cell_length_c   14.89912700
_cell_angle_alpha   90.00000000
_cell_angle_beta   90.00000000
_cell_angle_gamma   120.00000741
_symmetry_Int_Tables_number   1
_chemical_formula_structural   KNb8VSe16
_chemical_formula_sum   'K1 Nb8 V1 Se16'
_cell_volume   633.00295137
_cell_formula_units_Z   1
loop_
 _symmetry_equiv_pos_site_id
 _symmetry_equiv_pos_as_xyz
  1  'x, y, z'
loop_
 _atom_site_type_symbol
 _atom_site_label
 _atom_site_symmetry_multiplicity
 _atom_site_fract_x
 _atom_site_fract_y
 _atom_site_fract_z
 _atom_site_occupancy
  K  K0  1  0.000000  0.000000  0.000000  1
  Nb  Nb1  1  0.000000  0.000000  0.283494  1
  Nb  Nb2  1  0.000000  0.000000  0.716506  1
  Nb  Nb3  1  0.507846  0.015692  0.284636  1
  Nb  Nb4  1  0.492154  0.984308  0.715364  1
  Nb  Nb5  1  0.984308  0.492154  0.284636  1
  Nb  Nb6  1  0.015692  0.507846  0.715364  1
  Nb  Nb7  1  0.507846  0.492154  0.284636  1
  Nb  Nb8  1  0.492154  0.507846  0.715364  1
  V  V9  1  0.000000  0.000000  0.500000  1
  Se  Se10  1  0.333333  0.666667  0.599734  1
  Se  Se11  1  0.666667  0.333333  0.400266  1
  Se  Se12  1  0.666667  0.333333  0.167399  1
  Se  Se13  1  0.333333  0.666667  0.832601  1
  Se  Se14  1  0.168629  0.337259  0.173311  1
  Se  Se15  1  0.831371  0.662741  0.826689  1
  Se  Se16  1  0.662741  0.831371  0.173311  1
  Se  Se17  1  0.833097  0.666194  0.604663  1
  Se  Se18  1  0.337259  0.168629  0.826689  1
  Se  Se19  1  0.166903  0.333806  0.395337  1
  Se  Se20  1  0.168629  0.831371  0.173311  1
  Se  Se21  1  0.333806  0.166903  0.604663  1
  Se  Se22  1  0.831371  0.168629  0.826689  1
  Se  Se23  1  0.666194  0.833097  0.395337  1
  Se  Se24  1  0.833097  0.166903  0.604663  1
  Se  Se25  1  0.166903  0.833097  0.395337  1
