# generated using pymatgen
data_Pr7Y12TmSn16
_symmetry_space_group_name_H-M   'P 1'
_cell_length_a   8.12800706
_cell_length_b   8.30234877
_cell_length_c   15.67103725
_cell_angle_alpha   90.01805479
_cell_angle_beta   90.27973323
_cell_angle_gamma   89.64365655
_symmetry_Int_Tables_number   1
_chemical_formula_structural   Pr7Y12TmSn16
_chemical_formula_sum   'Pr7 Y12 Tm1 Sn16'
_cell_volume   1057.47277663
_cell_formula_units_Z   1
loop_
 _symmetry_equiv_pos_site_id
 _symmetry_equiv_pos_as_xyz
  1  'x, y, z'
loop_
 _atom_site_type_symbol
 _atom_site_label
 _atom_site_symmetry_multiplicity
 _atom_site_fract_x
 _atom_site_fract_y
 _atom_site_fract_z
 _atom_site_occupancy
  Pr  Pr0  1  0.015413  0.179106  0.598570  1
  Pr  Pr1  1  0.485202  0.677862  0.403405  1
  Pr  Pr2  1  0.984902  0.821430  0.096167  1
  Pr  Pr3  1  0.483239  0.676733  0.096193  1
  Pr  Pr4  1  0.985595  0.822391  0.403305  1
  Pr  Pr5  1  0.513410  0.322878  0.595994  1
  Pr  Pr6  1  0.015395  0.179481  0.902940  1
  Y  Y7  1  0.360838  0.835636  0.876430  1
  Y  Y8  1  0.858527  0.663286  0.623500  1
  Y  Y9  1  0.639953  0.163753  0.376225  1
  Y  Y10  1  0.137444  0.337005  0.121531  1
  Y  Y11  1  0.637284  0.164155  0.122989  1
  Y  Y12  1  0.140469  0.335892  0.377203  1
  Y  Y13  1  0.360123  0.836905  0.625067  1
  Y  Y14  1  0.862136  0.662467  0.878093  1
  Y  Y15  1  0.521006  0.322726  0.901724  1
  Y  Y16  1  0.195103  0.501588  0.751145  1
  Y  Y17  1  0.693908  0.997044  0.750838  1
  Y  Y18  1  0.804728  0.497569  0.249419  1
  Tm  Tm19  1  0.305350  0.003411  0.249575  1
  Sn  Sn20  1  0.304624  0.040426  0.041790  1
  Sn  Sn21  1  0.804839  0.458359  0.458080  1
  Sn  Sn22  1  0.694399  0.960272  0.542365  1
  Sn  Sn23  1  0.204726  0.535454  0.956132  1
  Sn  Sn24  1  0.693941  0.962735  0.957332  1
  Sn  Sn25  1  0.194270  0.543110  0.542274  1
  Sn  Sn26  1  0.305850  0.040135  0.458207  1
  Sn  Sn27  1  0.797437  0.456418  0.039961  1
  Sn  Sn28  1  0.560128  0.621631  0.750733  1
  Sn  Sn29  1  0.058894  0.875307  0.750525  1
  Sn  Sn30  1  0.438757  0.375863  0.249641  1
  Sn  Sn31  1  0.941322  0.125013  0.249250  1
  Sn  Sn32  1  0.328547  0.146179  0.752622  1
  Sn  Sn33  1  0.821112  0.357552  0.751040  1
  Sn  Sn34  1  0.675071  0.857244  0.249758  1
  Sn  Sn35  1  0.176059  0.642982  0.249981  1
