# generated using pymatgen
data_Y2ThFe2Co7P6
_symmetry_space_group_name_H-M   'P 1'
_cell_length_a   3.74318900
_cell_length_b   10.64581900
_cell_length_c   12.19447600
_cell_angle_alpha   90.00000000
_cell_angle_beta   90.00000000
_cell_angle_gamma   90.00000000
_symmetry_Int_Tables_number   1
_chemical_formula_structural   Y2ThFe2Co7P6
_chemical_formula_sum   'Y4 Th2 Fe4 Co14 P12'
_cell_volume   485.94148583
_cell_formula_units_Z   2
loop_
 _symmetry_equiv_pos_site_id
 _symmetry_equiv_pos_as_xyz
  1  'x, y, z'
loop_
 _atom_site_type_symbol
 _atom_site_label
 _atom_site_symmetry_multiplicity
 _atom_site_fract_x
 _atom_site_fract_y
 _atom_site_fract_z
 _atom_site_occupancy
  Y  Y0  1  0.500000  0.817487  0.202929  1
  Y  Y1  1  0.500000  0.182513  0.202929  1
  Y  Y2  1  0.000000  0.682513  0.797071  1
  Y  Y3  1  0.000000  0.317487  0.797071  1
  Th  Th4  1  0.000000  0.500000  0.524316  1
  Th  Th5  1  0.500000  0.000000  0.475684  1
  Fe  Fe6  1  0.500000  0.500000  0.152531  1
  Fe  Fe7  1  0.000000  0.000000  0.847469  1
  Fe  Fe8  1  0.000000  0.500000  0.988240  1
  Fe  Fe9  1  0.500000  0.000000  0.011760  1
  Co  Co10  1  0.500000  0.500000  0.701902  1
  Co  Co11  1  0.000000  0.000000  0.298098  1
  Co  Co12  1  0.500000  0.332135  0.994828  1
  Co  Co13  1  0.500000  0.667865  0.994828  1
  Co  Co14  1  0.000000  0.167865  0.005172  1
  Co  Co15  1  0.000000  0.832135  0.005172  1
  Co  Co16  1  0.500000  0.298250  0.429827  1
  Co  Co17  1  0.500000  0.701750  0.429827  1
  Co  Co18  1  0.000000  0.201750  0.570173  1
  Co  Co19  1  0.000000  0.798250  0.570173  1
  Co  Co20  1  0.500000  0.879947  0.712720  1
  Co  Co21  1  0.500000  0.120053  0.712720  1
  Co  Co22  1  0.000000  0.620053  0.287280  1
  Co  Co23  1  0.000000  0.379947  0.287280  1
  P  P24  1  0.500000  0.500000  0.884851  1
  P  P25  1  0.000000  0.000000  0.115149  1
  P  P26  1  0.500000  0.500000  0.335998  1
  P  P27  1  0.000000  0.000000  0.664002  1
  P  P28  1  0.500000  0.305270  0.618480  1
  P  P29  1  0.500000  0.694730  0.618480  1
  P  P30  1  0.000000  0.194730  0.381520  1
  P  P31  1  0.000000  0.805270  0.381520  1
  P  P32  1  0.500000  0.847008  0.895348  1
  P  P33  1  0.500000  0.152992  0.895348  1
  P  P34  1  0.000000  0.652992  0.104652  1
  P  P35  1  0.000000  0.347008  0.104652  1
