# generated using pymatgen
data_Rb8Hf4Zr2BeBr20
_symmetry_space_group_name_H-M   'P 1'
_cell_length_a   12.06946312
_cell_length_b   12.06596244
_cell_length_c   12.06596251
_cell_angle_alpha   60.01919968
_cell_angle_beta   59.99040720
_cell_angle_gamma   59.99040565
_symmetry_Int_Tables_number   1
_chemical_formula_structural   Rb8Hf4Zr2BeBr20
_chemical_formula_sum   'Rb8 Hf4 Zr2 Be1 Br20'
_cell_volume   1242.50133197
_cell_formula_units_Z   1
loop_
 _symmetry_equiv_pos_site_id
 _symmetry_equiv_pos_as_xyz
  1  'x, y, z'
loop_
 _atom_site_type_symbol
 _atom_site_label
 _atom_site_symmetry_multiplicity
 _atom_site_fract_x
 _atom_site_fract_y
 _atom_site_fract_z
 _atom_site_occupancy
  Rb  Rb0  1  0.361132  0.360543  0.360543  1
  Rb  Rb1  1  0.638868  0.639457  0.639457  1
  Rb  Rb2  1  0.360543  0.361132  0.917780  1
  Rb  Rb3  1  0.360543  0.917780  0.361132  1
  Rb  Rb4  1  0.639457  0.638868  0.082220  1
  Rb  Rb5  1  0.639457  0.082220  0.638868  1
  Rb  Rb6  1  0.917780  0.360543  0.360543  1
  Rb  Rb7  1  0.082220  0.639457  0.639457  1
  Hf  Hf8  1  0.137913  0.862087  0.137913  1
  Hf  Hf9  1  0.862087  0.137913  0.862087  1
  Hf  Hf10  1  0.137913  0.137913  0.862087  1
  Hf  Hf11  1  0.862087  0.862087  0.137913  1
  Zr  Zr12  1  0.860993  0.139007  0.139007  1
  Zr  Zr13  1  0.139007  0.860993  0.860993  1
  Be  Be14  1  0.000000  0.000000  0.000000  1
  Br  Br15  1  0.316225  0.000000  0.000000  1
  Br  Br16  1  0.683775  0.000000  0.000000  1
  Br  Br17  1  0.000000  0.316225  0.683775  1
  Br  Br18  1  0.000000  0.683775  0.316225  1
  Br  Br19  1  0.003215  0.318211  0.996785  1
  Br  Br20  1  0.681789  0.996785  0.318211  1
  Br  Br21  1  0.996785  0.681789  0.003215  1
  Br  Br22  1  0.318211  0.003215  0.681789  1
  Br  Br23  1  0.003215  0.996785  0.318211  1
  Br  Br24  1  0.996785  0.003215  0.681789  1
  Br  Br25  1  0.681789  0.318211  0.996785  1
  Br  Br26  1  0.318211  0.681789  0.003215  1
  Br  Br27  1  0.689590  0.310410  0.310410  1
  Br  Br28  1  0.310410  0.689590  0.689590  1
  Br  Br29  1  0.307689  0.692311  0.307689  1
  Br  Br30  1  0.692311  0.307689  0.692311  1
  Br  Br31  1  0.307689  0.307689  0.692311  1
  Br  Br32  1  0.692311  0.692311  0.307689  1
  Br  Br33  1  0.250000  0.250000  0.250000  1
  Br  Br34  1  0.750000  0.750000  0.750000  1
