# generated using pymatgen
data_Er8Zn3Si12Ir
_symmetry_space_group_name_H-M   'P 1'
_cell_length_a   8.08671300
_cell_length_b   8.08669949
_cell_length_c   7.97746000
_cell_angle_alpha   89.99998407
_cell_angle_beta   89.99997865
_cell_angle_gamma   120.00005936
_symmetry_Int_Tables_number   1
_chemical_formula_structural   Er8Zn3Si12Ir
_chemical_formula_sum   'Er8 Zn3 Si12 Ir1'
_cell_volume   451.79179745
_cell_formula_units_Z   1
loop_
 _symmetry_equiv_pos_site_id
 _symmetry_equiv_pos_as_xyz
  1  'x, y, z'
loop_
 _atom_site_type_symbol
 _atom_site_label
 _atom_site_symmetry_multiplicity
 _atom_site_fract_x
 _atom_site_fract_y
 _atom_site_fract_z
 _atom_site_occupancy
  Er  Er0  1  0.996725  0.498362  0.250424  1
  Er  Er1  1  0.501637  0.498362  0.250424  1
  Er  Er2  1  0.495313  0.990626  0.749635  1
  Er  Er3  1  0.009375  0.504688  0.749634  1
  Er  Er4  1  0.495313  0.504685  0.749634  1
  Er  Er5  1  0.501637  0.003275  0.250424  1
  Er  Er6  1  0.000000  0.999999  0.751957  1
  Er  Er7  1  0.000002  0.000001  0.247905  1
  Zn  Zn8  1  0.333334  0.666667  0.018423  1
  Zn  Zn9  1  0.666666  0.333334  0.984473  1
  Zn  Zn10  1  0.666667  0.333333  0.505887  1
  Si  Si11  1  0.168658  0.831342  0.496428  1
  Si  Si12  1  0.168658  0.337316  0.496428  1
  Si  Si13  1  0.662683  0.831341  0.496428  1
  Si  Si14  1  0.333891  0.166946  0.002807  1
  Si  Si15  1  0.836184  0.672368  0.503511  1
  Si  Si16  1  0.833052  0.166947  0.002808  1
  Si  Si17  1  0.833054  0.666109  0.002807  1
  Si  Si18  1  0.166868  0.333736  0.996605  1
  Si  Si19  1  0.666264  0.833132  0.996605  1
  Si  Si20  1  0.327632  0.163816  0.503511  1
  Si  Si21  1  0.836184  0.163816  0.503511  1
  Si  Si22  1  0.166868  0.833133  0.996605  1
  Ir  Ir23  1  0.333335  0.666666  0.493125  1
