# generated using pymatgen
data_Lu4Pa4V3ReB24
_symmetry_space_group_name_H-M   'P 1'
_cell_length_a   3.63075200
_cell_length_b   9.12090937
_cell_length_c   11.49709947
_cell_angle_alpha   90.03274616
_cell_angle_beta   90.00000000
_cell_angle_gamma   90.00000000
_symmetry_Int_Tables_number   1
_chemical_formula_structural   Lu4Pa4V3ReB24
_chemical_formula_sum   'Lu4 Pa4 V3 Re1 B24'
_cell_volume   380.73512392
_cell_formula_units_Z   1
loop_
 _symmetry_equiv_pos_site_id
 _symmetry_equiv_pos_as_xyz
  1  'x, y, z'
loop_
 _atom_site_type_symbol
 _atom_site_label
 _atom_site_symmetry_multiplicity
 _atom_site_fract_x
 _atom_site_fract_y
 _atom_site_fract_z
 _atom_site_occupancy
  Lu  Lu0  1  0.000000  0.944599  0.372250  1
  Lu  Lu1  1  0.000000  0.057127  0.626595  1
  Lu  Lu2  1  0.000000  0.444896  0.128200  1
  Lu  Lu3  1  0.000000  0.553482  0.872298  1
  Pa  Pa4  1  0.000000  0.322245  0.413755  1
  Pa  Pa5  1  0.000000  0.676583  0.584506  1
  Pa  Pa6  1  0.000000  0.822136  0.087423  1
  Pa  Pa7  1  0.000000  0.179159  0.914937  1
  V  V8  1  0.000000  0.640010  0.320505  1
  V  V9  1  0.000000  0.360403  0.680108  1
  V  V10  1  0.000000  0.139118  0.178872  1
  Re  Re11  1  0.000000  0.860282  0.820276  1
  B  B12  1  0.500000  0.553601  0.432860  1
  B  B13  1  0.500000  0.446808  0.567258  1
  B  B14  1  0.500000  0.053206  0.066951  1
  B  B15  1  0.500000  0.945947  0.932623  1
  B  B16  1  0.500000  0.750552  0.419639  1
  B  B17  1  0.500000  0.250054  0.580453  1
  B  B18  1  0.500000  0.250580  0.080658  1
  B  B19  1  0.500000  0.749116  0.919146  1
  B  B20  1  0.500000  0.793759  0.264595  1
  B  B21  1  0.500000  0.206178  0.735491  1
  B  B22  1  0.500000  0.293543  0.235625  1
  B  B23  1  0.500000  0.706570  0.764688  1
  B  B24  1  0.500000  0.631906  0.184572  1
  B  B25  1  0.500000  0.367891  0.815784  1
  B  B26  1  0.500000  0.131497  0.315220  1
  B  B27  1  0.500000  0.868763  0.684690  1
  B  B28  1  0.500000  0.981702  0.212690  1
  B  B29  1  0.500000  0.017831  0.786992  1
  B  B30  1  0.500000  0.481935  0.287198  1
  B  B31  1  0.500000  0.518079  0.712998  1
  B  B32  1  0.500000  0.605346  0.028618  1
  B  B33  1  0.500000  0.394618  0.971362  1
  B  B34  1  0.500000  0.105394  0.470809  1
  B  B35  1  0.500000  0.895083  0.529354  1
