# generated using pymatgen
data_NaCoAsO4
_symmetry_space_group_name_H-M   'P 1'
_cell_length_a   10.92398600
_cell_length_b   5.41657347
_cell_length_c   9.31632800
_cell_angle_alpha   54.91118535
_cell_angle_beta   90.00000000
_cell_angle_gamma   90.00000000
_symmetry_Int_Tables_number   1
_chemical_formula_structural   NaCoAsO4
_chemical_formula_sum   'Na4 Co4 As4 O16'
_cell_volume   451.06891898
_cell_formula_units_Z   4
loop_
 _symmetry_equiv_pos_site_id
 _symmetry_equiv_pos_as_xyz
  1  'x, y, z'
loop_
 _atom_site_type_symbol
 _atom_site_label
 _atom_site_symmetry_multiplicity
 _atom_site_fract_x
 _atom_site_fract_y
 _atom_site_fract_z
 _atom_site_occupancy
  Na  Na0  1  0.367672  0.822884  0.479746  1
  Na  Na1  1  0.132328  0.822884  0.979746  1
  Na  Na2  1  0.632328  0.177116  0.520254  1
  Na  Na3  1  0.867672  0.177116  0.020254  1
  Co  Co4  1  0.336201  0.333678  0.976305  1
  Co  Co5  1  0.163799  0.333678  0.476305  1
  Co  Co6  1  0.663799  0.666322  0.023695  1
  Co  Co7  1  0.836201  0.666322  0.523695  1
  As  As8  1  0.400859  0.598798  0.213027  1
  As  As9  1  0.099141  0.598798  0.713027  1
  As  As10  1  0.599141  0.401202  0.786973  1
  As  As11  1  0.900859  0.401202  0.286973  1
  O  O12  1  0.378483  0.933361  0.192487  1
  O  O13  1  0.121517  0.933361  0.692487  1
  O  O14  1  0.621517  0.066639  0.807513  1
  O  O15  1  0.878483  0.066639  0.307513  1
  O  O16  1  0.554321  0.509810  0.228601  1
  O  O17  1  0.945679  0.509810  0.728601  1
  O  O18  1  0.445679  0.490190  0.771399  1
  O  O19  1  0.054321  0.490190  0.271399  1
  O  O20  1  0.329505  0.624057  0.040498  1
  O  O21  1  0.170495  0.624057  0.540498  1
  O  O22  1  0.670495  0.375943  0.959502  1
  O  O23  1  0.829505  0.375943  0.459502  1
  O  O24  1  0.337786  0.312642  0.412157  1
  O  O25  1  0.162214  0.312642  0.912157  1
  O  O26  1  0.662214  0.687358  0.587843  1
  O  O27  1  0.837786  0.687358  0.087843  1
