# generated using pymatgen
data_Tb5Y5(SiPb3)2
_symmetry_space_group_name_H-M   'P 1'
_cell_length_a   9.36166604
_cell_length_b   9.36307045
_cell_length_c   6.56555700
_cell_angle_alpha   90.00000000
_cell_angle_beta   90.00000000
_cell_angle_gamma   120.00496193
_symmetry_Int_Tables_number   1
_chemical_formula_structural   Tb5Y5(SiPb3)2
_chemical_formula_sum   'Tb5 Y5 Si2 Pb6'
_cell_volume   498.37004009
_cell_formula_units_Z   1
loop_
 _symmetry_equiv_pos_site_id
 _symmetry_equiv_pos_as_xyz
  1  'x, y, z'
loop_
 _atom_site_type_symbol
 _atom_site_label
 _atom_site_symmetry_multiplicity
 _atom_site_fract_x
 _atom_site_fract_y
 _atom_site_fract_z
 _atom_site_occupancy
  Tb  Tb0  1  0.751061  0.751050  0.250000  1
  Tb  Tb1  1  0.248939  0.999988  0.250000  1
  Tb  Tb2  1  0.000000  0.248903  0.250000  1
  Tb  Tb3  1  0.248941  0.248888  0.750000  1
  Tb  Tb4  1  0.751059  0.999947  0.750000  1
  Y  Y5  1  0.666698  0.333382  0.500013  1
  Y  Y6  1  0.333302  0.666685  0.500013  1
  Y  Y7  1  0.333302  0.666685  0.999987  1
  Y  Y8  1  0.666698  0.333382  0.999987  1
  Y  Y9  1  0.000000  0.751337  0.750000  1
  Si  Si10  1  0.000000  0.999906  0.500172  1
  Si  Si11  1  0.000000  0.999906  0.999828  1
  Pb  Pb12  1  0.392563  0.392562  0.250000  1
  Pb  Pb13  1  0.607437  0.999999  0.250000  1
  Pb  Pb14  1  0.000000  0.607299  0.250000  1
  Pb  Pb15  1  0.607504  0.607461  0.750000  1
  Pb  Pb16  1  0.392496  0.999957  0.750000  1
  Pb  Pb17  1  0.000000  0.392663  0.750000  1
