# generated using pymatgen
data_ErAg6NO11
_symmetry_space_group_name_H-M   'P 1'
_cell_length_a   7.06221496
_cell_length_b   7.06221523
_cell_length_c   7.06221507
_cell_angle_alpha   61.92806316
_cell_angle_beta   61.92806023
_cell_angle_gamma   61.92805202
_symmetry_Int_Tables_number   1
_chemical_formula_structural   ErAg6NO11
_chemical_formula_sum   'Er1 Ag6 N1 O11'
_cell_volume   259.80884294
_cell_formula_units_Z   1
loop_
 _symmetry_equiv_pos_site_id
 _symmetry_equiv_pos_as_xyz
  1  'x, y, z'
loop_
 _atom_site_type_symbol
 _atom_site_label
 _atom_site_symmetry_multiplicity
 _atom_site_fract_x
 _atom_site_fract_y
 _atom_site_fract_z
 _atom_site_occupancy
  Er  Er0  1  0.998900  0.998900  0.998900  1
  Ag  Ag1  1  0.497987  0.001140  0.001140  1
  Ag  Ag2  1  0.500329  0.500329  0.000223  1
  Ag  Ag3  1  0.500329  0.000223  0.500329  1
  Ag  Ag4  1  0.001140  0.001140  0.497987  1
  Ag  Ag5  1  0.000223  0.500329  0.500329  1
  Ag  Ag6  1  0.001140  0.497987  0.001140  1
  N  N7  1  0.500104  0.500104  0.500104  1
  O  O8  1  0.590431  0.141879  0.141879  1
  O  O9  1  0.141879  0.590431  0.141879  1
  O  O10  1  0.137754  0.137754  0.137754  1
  O  O11  1  0.141879  0.141879  0.590431  1
  O  O12  1  0.600575  0.600575  0.299080  1
  O  O13  1  0.600575  0.299080  0.600575  1
  O  O14  1  0.299080  0.600575  0.600575  1
  O  O15  1  0.859336  0.859336  0.407332  1
  O  O16  1  0.859336  0.407332  0.859336  1
  O  O17  1  0.861669  0.861669  0.861669  1
  O  O18  1  0.407332  0.859336  0.859336  1
