# generated using pymatgen
data_Sc(Mn2P)2
_symmetry_space_group_name_H-M   'P 1'
_cell_length_a   6.83134700
_cell_length_b   6.83134700
_cell_length_c   3.67812800
_cell_angle_alpha   90.00000000
_cell_angle_beta   90.00000000
_cell_angle_gamma   90.00000000
_symmetry_Int_Tables_number   1
_chemical_formula_structural   Sc(Mn2P)2
_chemical_formula_sum   'Sc2 Mn8 P4'
_cell_volume   171.64830956
_cell_formula_units_Z   2
loop_
 _symmetry_equiv_pos_site_id
 _symmetry_equiv_pos_as_xyz
  1  'x, y, z'
loop_
 _atom_site_type_symbol
 _atom_site_label
 _atom_site_symmetry_multiplicity
 _atom_site_fract_x
 _atom_site_fract_y
 _atom_site_fract_z
 _atom_site_occupancy
  Sc  Sc0  1  0.500000  0.500000  0.000000  1
  Sc  Sc1  1  0.000000  0.000000  0.500000  1
  Mn  Mn2  1  0.586702  0.154982  0.500000  1
  Mn  Mn3  1  0.413298  0.845018  0.500000  1
  Mn  Mn4  1  0.086702  0.345018  0.000000  1
  Mn  Mn5  1  0.913298  0.654982  0.000000  1
  Mn  Mn6  1  0.154982  0.586702  0.500000  1
  Mn  Mn7  1  0.845018  0.413298  0.500000  1
  Mn  Mn8  1  0.345018  0.086702  0.000000  1
  Mn  Mn9  1  0.654982  0.913298  0.000000  1
  P  P10  1  0.713551  0.713551  0.500000  1
  P  P11  1  0.286449  0.286449  0.500000  1
  P  P12  1  0.213551  0.786449  0.000000  1
  P  P13  1  0.786449  0.213551  0.000000  1
