# generated using pymatgen
data_Sm8Pd24Pb
_symmetry_space_group_name_H-M   'P 1'
_cell_length_a   8.50276500
_cell_length_b   8.50276500
_cell_length_c   8.50276500
_cell_angle_alpha   90.00000000
_cell_angle_beta   90.00000000
_cell_angle_gamma   90.00000000
_symmetry_Int_Tables_number   1
_chemical_formula_structural   Sm8Pd24Pb
_chemical_formula_sum   'Sm8 Pd24 Pb1'
_cell_volume   614.72450872
_cell_formula_units_Z   1
loop_
 _symmetry_equiv_pos_site_id
 _symmetry_equiv_pos_as_xyz
  1  'x, y, z'
loop_
 _atom_site_type_symbol
 _atom_site_label
 _atom_site_symmetry_multiplicity
 _atom_site_fract_x
 _atom_site_fract_y
 _atom_site_fract_z
 _atom_site_occupancy
  Sm  Sm0  1  0.252505  0.252505  0.252505  1
  Sm  Sm1  1  0.747495  0.747495  0.747495  1
  Sm  Sm2  1  0.747495  0.747495  0.252505  1
  Sm  Sm3  1  0.747495  0.252505  0.747495  1
  Sm  Sm4  1  0.252505  0.252505  0.747495  1
  Sm  Sm5  1  0.252505  0.747495  0.252505  1
  Sm  Sm6  1  0.252505  0.747495  0.747495  1
  Sm  Sm7  1  0.747495  0.252505  0.252505  1
  Pd  Pd8  1  0.268277  0.500000  0.000000  1
  Pd  Pd9  1  0.731723  0.500000  0.000000  1
  Pd  Pd10  1  0.000000  0.268277  0.500000  1
  Pd  Pd11  1  0.500000  0.268277  0.000000  1
  Pd  Pd12  1  0.000000  0.731723  0.500000  1
  Pd  Pd13  1  0.500000  0.731723  0.000000  1
  Pd  Pd14  1  0.500000  0.000000  0.268277  1
  Pd  Pd15  1  0.268277  0.000000  0.500000  1
  Pd  Pd16  1  0.500000  0.000000  0.731723  1
  Pd  Pd17  1  0.731723  0.000000  0.500000  1
  Pd  Pd18  1  0.000000  0.500000  0.268277  1
  Pd  Pd19  1  0.000000  0.500000  0.731723  1
  Pd  Pd20  1  0.255580  0.500000  0.500000  1
  Pd  Pd21  1  0.744420  0.500000  0.500000  1
  Pd  Pd22  1  0.500000  0.255580  0.500000  1
  Pd  Pd23  1  0.500000  0.744420  0.500000  1
  Pd  Pd24  1  0.500000  0.500000  0.255580  1
  Pd  Pd25  1  0.500000  0.500000  0.744420  1
  Pd  Pd26  1  0.318351  0.000000  0.000000  1
  Pd  Pd27  1  0.681649  0.000000  0.000000  1
  Pd  Pd28  1  0.000000  0.318351  0.000000  1
  Pd  Pd29  1  0.000000  0.681649  0.000000  1
  Pd  Pd30  1  0.000000  0.000000  0.318351  1
  Pd  Pd31  1  0.000000  0.000000  0.681649  1
  Pb  Pb32  1  0.000000  0.000000  0.000000  1
