# generated using pymatgen
data_Yb3Ta(ZnPd5)2
_symmetry_space_group_name_H-M   'P 1'
_cell_length_a   4.19378000
_cell_length_b   5.67522875
_cell_length_c   11.21148600
_cell_angle_alpha   89.35576552
_cell_angle_beta   90.00000000
_cell_angle_gamma   90.00000000
_symmetry_Int_Tables_number   1
_chemical_formula_structural   Yb3Ta(ZnPd5)2
_chemical_formula_sum   'Yb3 Ta1 Zn2 Pd10'
_cell_volume   266.82390777
_cell_formula_units_Z   1
loop_
 _symmetry_equiv_pos_site_id
 _symmetry_equiv_pos_as_xyz
  1  'x, y, z'
loop_
 _atom_site_type_symbol
 _atom_site_label
 _atom_site_symmetry_multiplicity
 _atom_site_fract_x
 _atom_site_fract_y
 _atom_site_fract_z
 _atom_site_occupancy
  Yb  Yb0  1  0.500000  0.802837  0.862155  1
  Yb  Yb1  1  0.500000  0.302292  0.637839  1
  Yb  Yb2  1  0.500000  0.694368  0.365892  1
  Ta  Ta3  1  0.500000  0.193744  0.137740  1
  Zn  Zn4  1  0.000000  0.000679  0.501329  1
  Zn  Zn5  1  0.000000  0.504488  0.000789  1
  Pd  Pd6  1  0.500000  0.195449  0.377227  1
  Pd  Pd7  1  0.500000  0.801377  0.610273  1
  Pd  Pd8  1  0.500000  0.298299  0.901506  1
  Pd  Pd9  1  0.500000  0.705585  0.112386  1
  Pd  Pd10  1  0.000000  0.437096  0.236632  1
  Pd  Pd11  1  0.000000  0.549406  0.757008  1
  Pd  Pd12  1  0.000000  0.052882  0.747956  1
  Pd  Pd13  1  0.000000  0.951783  0.247042  1
  Pd  Pd14  1  0.000000  0.015827  0.005503  1
  Pd  Pd15  1  0.000000  0.493888  0.498724  1
