# generated using pymatgen
data_La4Re16Si7P
_symmetry_space_group_name_H-M   'P 1'
_cell_length_a   4.16912600
_cell_length_b   7.36088335
_cell_length_c   15.56716200
_cell_angle_alpha   89.79888129
_cell_angle_beta   90.00000000
_cell_angle_gamma   90.00000000
_symmetry_Int_Tables_number   1
_chemical_formula_structural   La4Re16Si7P
_chemical_formula_sum   'La4 Re16 Si7 P1'
_cell_volume   477.72913185
_cell_formula_units_Z   1
loop_
 _symmetry_equiv_pos_site_id
 _symmetry_equiv_pos_as_xyz
  1  'x, y, z'
loop_
 _atom_site_type_symbol
 _atom_site_label
 _atom_site_symmetry_multiplicity
 _atom_site_fract_x
 _atom_site_fract_y
 _atom_site_fract_z
 _atom_site_occupancy
  La  La0  1  0.000000  0.578287  0.118575  1
  La  La1  1  0.000000  0.420212  0.882257  1
  La  La2  1  0.500000  0.076992  0.384071  1
  La  La3  1  0.500000  0.920488  0.615912  1
  Re  Re4  1  0.000000  0.135536  0.052487  1
  Re  Re5  1  0.000000  0.863732  0.948452  1
  Re  Re6  1  0.500000  0.642377  0.447001  1
  Re  Re7  1  0.500000  0.366631  0.550677  1
  Re  Re8  1  0.000000  0.737434  0.323113  1
  Re  Re9  1  0.000000  0.269204  0.680046  1
  Re  Re10  1  0.500000  0.232153  0.179945  1
  Re  Re11  1  0.500000  0.767542  0.819577  1
  Re  Re12  1  0.000000  0.430650  0.416315  1
  Re  Re13  1  0.000000  0.571471  0.578524  1
  Re  Re14  1  0.500000  0.932844  0.082426  1
  Re  Re15  1  0.500000  0.064739  0.919139  1
  Re  Re16  1  0.000000  0.991640  0.206863  1
  Re  Re17  1  0.000000  0.004784  0.792397  1
  Re  Re18  1  0.500000  0.489397  0.294507  1
  Re  Re19  1  0.500000  0.505768  0.706352  1
  Si  Si20  1  0.000000  0.184946  0.526303  1
  Si  Si21  1  0.500000  0.323912  0.025143  1
  Si  Si22  1  0.500000  0.675524  0.974911  1
  Si  Si23  1  0.000000  0.290424  0.273607  1
  Si  Si24  1  0.000000  0.703352  0.725029  1
  Si  Si25  1  0.500000  0.792623  0.227925  1
  Si  Si26  1  0.500000  0.204197  0.774136  1
  P  P27  1  0.000000  0.823143  0.474314  1
