# generated using pymatgen
data_Ho4Tm2FeCo17P12
_symmetry_space_group_name_H-M   'P 1'
_cell_length_a   3.68042400
_cell_length_b   10.47732800
_cell_length_c   12.12779900
_cell_angle_alpha   90.00000000
_cell_angle_beta   90.00000000
_cell_angle_gamma   90.00000000
_symmetry_Int_Tables_number   1
_chemical_formula_structural   Ho4Tm2FeCo17P12
_chemical_formula_sum   'Ho4 Tm2 Fe1 Co17 P12'
_cell_volume   467.66017157
_cell_formula_units_Z   1
loop_
 _symmetry_equiv_pos_site_id
 _symmetry_equiv_pos_as_xyz
  1  'x, y, z'
loop_
 _atom_site_type_symbol
 _atom_site_label
 _atom_site_symmetry_multiplicity
 _atom_site_fract_x
 _atom_site_fract_y
 _atom_site_fract_z
 _atom_site_occupancy
  Ho  Ho0  1  0.000000  0.500000  0.521857  1
  Ho  Ho1  1  0.500000  0.000000  0.477196  1
  Ho  Ho2  1  0.000000  0.682434  0.794858  1
  Ho  Ho3  1  0.000000  0.317566  0.794858  1
  Tm  Tm4  1  0.500000  0.818048  0.205875  1
  Tm  Tm5  1  0.500000  0.181952  0.205875  1
  Fe  Fe6  1  0.500000  0.500000  0.157483  1
  Co  Co7  1  0.000000  0.500000  0.986722  1
  Co  Co8  1  0.500000  0.000000  0.014903  1
  Co  Co9  1  0.500000  0.297043  0.430348  1
  Co  Co10  1  0.500000  0.702957  0.430348  1
  Co  Co11  1  0.000000  0.202549  0.569149  1
  Co  Co12  1  0.000000  0.797451  0.569149  1
  Co  Co13  1  0.500000  0.879187  0.709228  1
  Co  Co14  1  0.500000  0.120813  0.709228  1
  Co  Co15  1  0.000000  0.621732  0.290388  1
  Co  Co16  1  0.000000  0.378268  0.290388  1
  Co  Co17  1  0.500000  0.332525  0.994776  1
  Co  Co18  1  0.500000  0.667475  0.994776  1
  Co  Co19  1  0.000000  0.166452  0.006420  1
  Co  Co20  1  0.000000  0.833548  0.006420  1
  Co  Co21  1  0.000000  0.000000  0.840708  1
  Co  Co22  1  0.500000  0.500000  0.702458  1
  Co  Co23  1  0.000000  0.000000  0.296921  1
  P  P24  1  0.500000  0.310789  0.616052  1
  P  P25  1  0.500000  0.689211  0.616052  1
  P  P26  1  0.000000  0.189115  0.383127  1
  P  P27  1  0.000000  0.810885  0.383127  1
  P  P28  1  0.500000  0.500000  0.882442  1
  P  P29  1  0.000000  0.000000  0.118550  1
  P  P30  1  0.500000  0.847811  0.892880  1
  P  P31  1  0.500000  0.152189  0.892880  1
  P  P32  1  0.000000  0.653445  0.107759  1
  P  P33  1  0.000000  0.346555  0.107759  1
  P  P34  1  0.500000  0.500000  0.343279  1
  P  P35  1  0.000000  0.000000  0.655759  1
