# generated using pymatgen
data_TaNb5B4Os3Ru7
_symmetry_space_group_name_H-M   'P 1'
_cell_length_a   9.48954101
_cell_length_b   9.54935880
_cell_length_c   3.01886300
_cell_angle_alpha   90.00000000
_cell_angle_beta   90.00000000
_cell_angle_gamma   89.92904663
_symmetry_Int_Tables_number   1
_chemical_formula_structural   TaNb5B4Os3Ru7
_chemical_formula_sum   'Ta1 Nb5 B4 Os3 Ru7'
_cell_volume   273.56623273
_cell_formula_units_Z   1
loop_
 _symmetry_equiv_pos_site_id
 _symmetry_equiv_pos_as_xyz
  1  'x, y, z'
loop_
 _atom_site_type_symbol
 _atom_site_label
 _atom_site_symmetry_multiplicity
 _atom_site_fract_x
 _atom_site_fract_y
 _atom_site_fract_z
 _atom_site_occupancy
  Ta  Ta0  1  0.999462  0.001896  0.000000  1
  Nb  Nb1  1  0.823833  0.677062  0.000000  1
  Nb  Nb2  1  0.176888  0.323677  0.000000  1
  Nb  Nb3  1  0.323663  0.823242  0.000000  1
  Nb  Nb4  1  0.676004  0.177090  0.000000  1
  Nb  Nb5  1  0.500154  0.499905  0.000000  1
  B  B6  1  0.621327  0.878789  0.000000  1
  B  B7  1  0.378969  0.120650  0.000000  1
  B  B8  1  0.120603  0.620901  0.000000  1
  B  B9  1  0.879039  0.378516  0.000000  1
  Os  Os10  1  0.571695  0.720134  0.500000  1
  Os  Os11  1  0.428133  0.279674  0.500000  1
  Os  Os12  1  0.070994  0.780521  0.500000  1
  Ru  Ru13  1  0.928505  0.219636  0.500000  1
  Ru  Ru14  1  0.280923  0.570690  0.500000  1
  Ru  Ru15  1  0.719314  0.428470  0.500000  1
  Ru  Ru16  1  0.218255  0.070336  0.500000  1
  Ru  Ru17  1  0.781825  0.929630  0.500000  1
  Ru  Ru18  1  0.500420  0.000101  0.500000  1
  Ru  Ru19  1  0.999994  0.499081  0.500000  1
