# generated using pymatgen
data_LaYbCeSe4
_symmetry_space_group_name_H-M   'P 1'
_cell_length_a   7.79166562
_cell_length_b   7.79166421
_cell_length_c   7.81095861
_cell_angle_alpha   109.67985042
_cell_angle_beta   109.67985325
_cell_angle_gamma   109.24942181
_symmetry_Int_Tables_number   1
_chemical_formula_structural   LaYbCeSe4
_chemical_formula_sum   'La2 Yb2 Ce2 Se8'
_cell_volume   364.15374773
_cell_formula_units_Z   2
loop_
 _symmetry_equiv_pos_site_id
 _symmetry_equiv_pos_as_xyz
  1  'x, y, z'
loop_
 _atom_site_type_symbol
 _atom_site_label
 _atom_site_symmetry_multiplicity
 _atom_site_fract_x
 _atom_site_fract_y
 _atom_site_fract_z
 _atom_site_occupancy
  La  La0  1  0.875260  0.496624  0.121278  1
  La  La1  1  0.246624  0.125260  0.621278  1
  Yb  Yb2  1  0.749398  0.250272  0.499725  1
  Yb  Yb3  1  0.000272  0.999398  0.999725  1
  Ce  Ce4  1  0.374415  0.753062  0.878120  1
  Ce  Ce5  1  0.503062  0.624415  0.378120  1
  Se  Se6  1  0.768208  0.875702  0.251843  1
  Se  Se7  1  0.126994  0.373872  0.394694  1
  Se  Se8  1  0.979673  0.730053  0.606820  1
  Se  Se9  1  0.270709  0.875759  0.247519  1
  Se  Se10  1  0.123872  0.376994  0.894694  1
  Se  Se11  1  0.625702  0.018208  0.751843  1
  Se  Se12  1  0.480053  0.229673  0.106820  1
  Se  Se13  1  0.625759  0.520709  0.747519  1
