# generated using pymatgen
data_Sc4Be4CrFeIr10
_symmetry_space_group_name_H-M   'P 1'
_cell_length_a   9.46926400
_cell_length_b   9.46926400
_cell_length_c   3.10272400
_cell_angle_alpha   90.00000000
_cell_angle_beta   90.00000000
_cell_angle_gamma   90.00000000
_symmetry_Int_Tables_number   1
_chemical_formula_structural   Sc4Be4CrFeIr10
_chemical_formula_sum   'Sc4 Be4 Cr1 Fe1 Ir10'
_cell_volume   278.21183098
_cell_formula_units_Z   1
loop_
 _symmetry_equiv_pos_site_id
 _symmetry_equiv_pos_as_xyz
  1  'x, y, z'
loop_
 _atom_site_type_symbol
 _atom_site_label
 _atom_site_symmetry_multiplicity
 _atom_site_fract_x
 _atom_site_fract_y
 _atom_site_fract_z
 _atom_site_occupancy
  Sc  Sc0  1  0.176181  0.675282  0.000000  1
  Sc  Sc1  1  0.823819  0.324718  0.000000  1
  Sc  Sc2  1  0.324718  0.176181  0.000000  1
  Sc  Sc3  1  0.675282  0.823819  0.000000  1
  Be  Be4  1  0.377426  0.875521  0.000000  1
  Be  Be5  1  0.875521  0.622574  0.000000  1
  Be  Be6  1  0.124479  0.377426  0.000000  1
  Be  Be7  1  0.622574  0.124479  0.000000  1
  Cr  Cr8  1  0.000000  0.000000  0.000000  1
  Fe  Fe9  1  0.500000  0.500000  0.000000  1
  Ir  Ir10  1  0.500000  0.000000  0.500000  1
  Ir  Ir11  1  0.708983  0.568799  0.500000  1
  Ir  Ir12  1  0.568799  0.291017  0.500000  1
  Ir  Ir13  1  0.431201  0.708983  0.500000  1
  Ir  Ir14  1  0.291017  0.431201  0.500000  1
  Ir  Ir15  1  0.000000  0.500000  0.500000  1
  Ir  Ir16  1  0.931704  0.791343  0.500000  1
  Ir  Ir17  1  0.791343  0.068296  0.500000  1
  Ir  Ir18  1  0.208657  0.931704  0.500000  1
  Ir  Ir19  1  0.068296  0.208657  0.500000  1
