# generated using pymatgen
data_LiSc3Al2(B2Rh5)2
_symmetry_space_group_name_H-M   'P 1'
_cell_length_a   9.38124226
_cell_length_b   2.98928600
_cell_length_c   9.38124226
_cell_angle_alpha   90.00000000
_cell_angle_beta   90.74500826
_cell_angle_gamma   90.00000000
_symmetry_Int_Tables_number   1
_chemical_formula_structural   LiSc3Al2(B2Rh5)2
_chemical_formula_sum   'Li1 Sc3 Al2 B4 Rh10'
_cell_volume   263.05796503
_cell_formula_units_Z   1
loop_
 _symmetry_equiv_pos_site_id
 _symmetry_equiv_pos_as_xyz
  1  'x, y, z'
loop_
 _atom_site_type_symbol
 _atom_site_label
 _atom_site_symmetry_multiplicity
 _atom_site_fract_x
 _atom_site_fract_y
 _atom_site_fract_z
 _atom_site_occupancy
  Li  Li0  1  0.677277  0.000000  0.177277  1
  Sc  Sc1  1  0.175459  0.000000  0.321616  1
  Sc  Sc2  1  0.821618  0.000000  0.675459  1
  Sc  Sc3  1  0.327503  0.000000  0.827505  1
  Al  Al4  1  0.999308  0.000000  0.000576  1
  Al  Al5  1  0.500576  0.000000  0.499308  1
  B  B6  1  0.378567  0.000000  0.126025  1
  B  B7  1  0.866606  0.000000  0.366606  1
  B  B8  1  0.124510  0.000000  0.624510  1
  B  B9  1  0.626025  0.000000  0.878567  1
  Rh  Rh10  1  0.503124  0.500000  0.003124  1
  Rh  Rh11  1  0.216826  0.500000  0.067884  1
  Rh  Rh12  1  0.931770  0.500000  0.215397  1
  Rh  Rh13  1  0.426800  0.500000  0.285867  1
  Rh  Rh14  1  0.715397  0.500000  0.431769  1
  Rh  Rh15  1  0.999384  0.500000  0.499384  1
  Rh  Rh16  1  0.284135  0.500000  0.571358  1
  Rh  Rh17  1  0.567885  0.500000  0.716826  1
  Rh  Rh18  1  0.071357  0.500000  0.784136  1
  Rh  Rh19  1  0.785868  0.500000  0.926801  1
