# generated using pymatgen
data_Ce6Al24OsRu4Rh3
_symmetry_space_group_name_H-M   'P 1'
_cell_length_a   8.89202696
_cell_length_b   8.87422537
_cell_length_c   9.53913576
_cell_angle_alpha   89.85875681
_cell_angle_beta   90.07162218
_cell_angle_gamma   119.70692862
_symmetry_Int_Tables_number   1
_chemical_formula_structural   Ce6Al24OsRu4Rh3
_chemical_formula_sum   'Ce6 Al24 Os1 Ru4 Rh3'
_cell_volume   653.79945779
_cell_formula_units_Z   1
loop_
 _symmetry_equiv_pos_site_id
 _symmetry_equiv_pos_as_xyz
  1  'x, y, z'
loop_
 _atom_site_type_symbol
 _atom_site_label
 _atom_site_symmetry_multiplicity
 _atom_site_fract_x
 _atom_site_fract_y
 _atom_site_fract_z
 _atom_site_occupancy
  Ce  Ce0  1  0.811566  0.613387  0.751335  1
  Ce  Ce1  1  0.190643  0.803538  0.247677  1
  Ce  Ce2  1  0.616016  0.809950  0.248400  1
  Ce  Ce3  1  0.383984  0.190050  0.751600  1
  Ce  Ce4  1  0.809357  0.196462  0.752323  1
  Ce  Ce5  1  0.188434  0.386613  0.248665  1
  Al  Al6  1  0.332734  0.666469  0.477156  1
  Al  Al7  1  0.666018  0.332241  0.979622  1
  Al  Al8  1  0.667266  0.333531  0.522844  1
  Al  Al9  1  0.333982  0.667759  0.020378  1
  Al  Al10  1  0.162166  0.325156  0.577106  1
  Al  Al11  1  0.675858  0.837054  0.577222  1
  Al  Al12  1  0.162081  0.835614  0.577247  1
  Al  Al13  1  0.836314  0.163120  0.077979  1
  Al  Al14  1  0.837919  0.164386  0.422753  1
  Al  Al15  1  0.837455  0.674605  0.076769  1
  Al  Al16  1  0.324150  0.161506  0.077661  1
  Al  Al17  1  0.675850  0.838494  0.922339  1
  Al  Al18  1  0.162545  0.325395  0.923231  1
  Al  Al19  1  0.837834  0.674844  0.422894  1
  Al  Al20  1  0.999696  0.000377  0.249939  1
  Al  Al21  1  0.000304  0.999623  0.750061  1
  Al  Al22  1  0.561340  0.125062  0.249656  1
  Al  Al23  1  0.439513  0.561593  0.749489  1
  Al  Al24  1  0.128068  0.563291  0.748908  1
  Al  Al25  1  0.871932  0.436709  0.251092  1
  Al  Al26  1  0.560487  0.438407  0.250511  1
  Al  Al27  1  0.438660  0.874938  0.750344  1
  Al  Al28  1  0.163686  0.836880  0.922021  1
  Al  Al29  1  0.324142  0.162946  0.422778  1
  Os  Os30  1  0.000000  0.500000  0.000000  1
  Ru  Ru31  1  0.000000  0.000000  0.500000  1
  Ru  Ru32  1  0.000000  0.000000  0.000000  1
  Ru  Ru33  1  0.000000  0.500000  0.500000  1
  Ru  Ru34  1  0.500000  0.000000  0.000000  1
  Rh  Rh35  1  0.500000  0.000000  0.500000  1
  Rh  Rh36  1  0.500000  0.500000  0.000000  1
  Rh  Rh37  1  0.500000  0.500000  0.500000  1
