# generated using pymatgen
data_Dy13Y3MgZn3Co4
_symmetry_space_group_name_H-M   'P 1'
_cell_length_a   9.42075835
_cell_length_b   9.40211151
_cell_length_c   9.40134149
_cell_angle_alpha   60.05806607
_cell_angle_beta   60.14537682
_cell_angle_gamma   60.13326055
_symmetry_Int_Tables_number   1
_chemical_formula_structural   Dy13Y3MgZn3Co4
_chemical_formula_sum   'Dy13 Y3 Mg1 Zn3 Co4'
_cell_volume   590.32127762
_cell_formula_units_Z   1
loop_
 _symmetry_equiv_pos_site_id
 _symmetry_equiv_pos_as_xyz
  1  'x, y, z'
loop_
 _atom_site_type_symbol
 _atom_site_label
 _atom_site_symmetry_multiplicity
 _atom_site_fract_x
 _atom_site_fract_y
 _atom_site_fract_z
 _atom_site_occupancy
  Dy  Dy0  1  0.349704  0.346695  0.347077  1
  Dy  Dy1  1  0.349260  0.346069  0.957603  1
  Dy  Dy2  1  0.349195  0.957715  0.346231  1
  Dy  Dy3  1  0.948501  0.350543  0.350478  1
  Dy  Dy4  1  0.808322  0.190580  0.190932  1
  Dy  Dy5  1  0.187187  0.812245  0.812056  1
  Dy  Dy6  1  0.187019  0.812461  0.188542  1
  Dy  Dy7  1  0.808074  0.191155  0.809973  1
  Dy  Dy8  1  0.187181  0.188311  0.812356  1
  Dy  Dy9  1  0.807874  0.810117  0.191410  1
  Dy  Dy10  1  0.934134  0.561643  0.561380  1
  Dy  Dy11  1  0.560845  0.938256  0.938077  1
  Dy  Dy12  1  0.560824  0.937777  0.563566  1
  Y  Y13  1  0.933348  0.562979  0.941233  1
  Y  Y14  1  0.560910  0.564011  0.937422  1
  Y  Y15  1  0.933008  0.941061  0.563129  1
  Mg  Mg16  1  0.287543  0.570866  0.570830  1
  Zn  Zn17  1  0.584662  0.577855  0.577700  1
  Zn  Zn18  1  0.584422  0.577847  0.260171  1
  Zn  Zn19  1  0.584415  0.259986  0.577892  1
  Co  Co20  1  0.139390  0.142535  0.142529  1
  Co  Co21  1  0.139183  0.142825  0.575218  1
  Co  Co22  1  0.139163  0.575251  0.142793  1
  Co  Co23  1  0.575837  0.141220  0.141405  1
