# generated using pymatgen
data_Ho3Th5(ZnRu)8
_symmetry_space_group_name_H-M   'P 1'
_cell_length_a   3.92734000
_cell_length_b   7.48939410
_cell_length_c   16.40422600
_cell_angle_alpha   90.43525018
_cell_angle_beta   90.00000000
_cell_angle_gamma   90.00000000
_symmetry_Int_Tables_number   1
_chemical_formula_structural   Ho3Th5(ZnRu)8
_chemical_formula_sum   'Ho3 Th5 Zn8 Ru8'
_cell_volume   482.49008998
_cell_formula_units_Z   1
loop_
 _symmetry_equiv_pos_site_id
 _symmetry_equiv_pos_as_xyz
  1  'x, y, z'
loop_
 _atom_site_type_symbol
 _atom_site_label
 _atom_site_symmetry_multiplicity
 _atom_site_fract_x
 _atom_site_fract_y
 _atom_site_fract_z
 _atom_site_occupancy
  Ho  Ho0  1  0.750000  0.445947  0.213907  1
  Ho  Ho1  1  0.250000  0.053504  0.713717  1
  Ho  Ho2  1  0.250000  0.550950  0.785196  1
  Th  Th3  1  0.250000  0.177661  0.935522  1
  Th  Th4  1  0.250000  0.673307  0.565041  1
  Th  Th5  1  0.750000  0.324043  0.438969  1
  Th  Th6  1  0.750000  0.948373  0.283276  1
  Th  Th7  1  0.750000  0.829457  0.060683  1
  Zn  Zn8  1  0.750000  0.005781  0.562549  1
  Zn  Zn9  1  0.250000  0.612074  0.344636  1
  Zn  Zn10  1  0.750000  0.377816  0.656602  1
  Zn  Zn11  1  0.250000  0.496625  0.062245  1
  Zn  Zn12  1  0.750000  0.508256  0.937133  1
  Zn  Zn13  1  0.250000  0.990692  0.442559  1
  Zn  Zn14  1  0.250000  0.132242  0.151073  1
  Zn  Zn15  1  0.750000  0.878195  0.843372  1
  Ru  Ru16  1  0.750000  0.743317  0.438808  1
  Ru  Ru17  1  0.250000  0.238673  0.316008  1
  Ru  Ru18  1  0.750000  0.248080  0.815214  1
  Ru  Ru19  1  0.750000  0.748469  0.685607  1
  Ru  Ru20  1  0.250000  0.254030  0.560800  1
  Ru  Ru21  1  0.250000  0.755774  0.187375  1
  Ru  Ru22  1  0.750000  0.252111  0.059140  1
  Ru  Ru23  1  0.250000  0.754621  0.940566  1
