# generated using pymatgen
data_Eu2Th2As7Ir8
_symmetry_space_group_name_H-M   'P 1'
_cell_length_a   4.13385700
_cell_length_b   13.22965612
_cell_length_c   13.78554050
_cell_angle_alpha   98.63329350
_cell_angle_beta   90.00000000
_cell_angle_gamma   90.00000000
_symmetry_Int_Tables_number   1
_chemical_formula_structural   Eu2Th2As7Ir8
_chemical_formula_sum   'Eu4 Th4 As14 Ir16'
_cell_volume   745.38193253
_cell_formula_units_Z   2
loop_
 _symmetry_equiv_pos_site_id
 _symmetry_equiv_pos_as_xyz
  1  'x, y, z'
loop_
 _atom_site_type_symbol
 _atom_site_label
 _atom_site_symmetry_multiplicity
 _atom_site_fract_x
 _atom_site_fract_y
 _atom_site_fract_z
 _atom_site_occupancy
  Eu  Eu0  1  0.750000  0.284977  0.901803  1
  Eu  Eu1  1  0.250000  0.715023  0.098197  1
  Eu  Eu2  1  0.750000  0.098973  0.204176  1
  Eu  Eu3  1  0.250000  0.901027  0.795824  1
  Th  Th4  1  0.750000  0.205045  0.558431  1
  Th  Th5  1  0.250000  0.794955  0.441569  1
  Th  Th6  1  0.750000  0.519236  0.707739  1
  Th  Th7  1  0.250000  0.480764  0.292261  1
  As  As8  1  0.750000  0.743189  0.917103  1
  As  As9  1  0.250000  0.256811  0.082897  1
  As  As10  1  0.750000  0.907587  0.591515  1
  As  As11  1  0.250000  0.092413  0.408485  1
  As  As12  1  0.750000  0.532797  0.126497  1
  As  As13  1  0.250000  0.467203  0.873503  1
  As  As14  1  0.750000  0.843038  0.276921  1
  As  As15  1  0.250000  0.156962  0.723079  1
  As  As16  1  0.750000  0.606560  0.435418  1
  As  As17  1  0.250000  0.393440  0.564582  1
  As  As18  1  0.750000  0.308361  0.310895  1
  As  As19  1  0.250000  0.691639  0.689105  1
  As  As20  1  0.750000  0.057345  0.900431  1
  As  As21  1  0.250000  0.942655  0.099569  1
  Ir  Ir22  1  0.750000  0.347406  0.142545  1
  Ir  Ir23  1  0.250000  0.652594  0.857455  1
  Ir  Ir24  1  0.750000  0.722177  0.597786  1
  Ir  Ir25  1  0.250000  0.277823  0.402214  1
  Ir  Ir26  1  0.750000  0.918833  0.002176  1
  Ir  Ir27  1  0.250000  0.081167  0.997824  1
  Ir  Ir28  1  0.750000  0.424344  0.473362  1
  Ir  Ir29  1  0.250000  0.575656  0.526638  1
  Ir  Ir30  1  0.750000  0.059756  0.721794  1
  Ir  Ir31  1  0.250000  0.940244  0.278206  1
  Ir  Ir32  1  0.750000  0.550138  0.948643  1
  Ir  Ir33  1  0.250000  0.449862  0.051357  1
  Ir  Ir34  1  0.750000  0.660012  0.273585  1
  Ir  Ir35  1  0.250000  0.339988  0.726415  1
  Ir  Ir36  1  0.750000  0.983381  0.426338  1
  Ir  Ir37  1  0.250000  0.016619  0.573662  1
