# generated using pymatgen
data_Ho2Lu6Ti9Si16Tc3
_symmetry_space_group_name_H-M   'P 1'
_cell_length_a   6.92439574
_cell_length_b   6.92610104
_cell_length_c   12.71163476
_cell_angle_alpha   90.04091670
_cell_angle_beta   89.93724957
_cell_angle_gamma   89.99929247
_symmetry_Int_Tables_number   1
_chemical_formula_structural   Ho2Lu6Ti9Si16Tc3
_chemical_formula_sum   'Ho2 Lu6 Ti9 Si16 Tc3'
_cell_volume   609.63759077
_cell_formula_units_Z   1
loop_
 _symmetry_equiv_pos_site_id
 _symmetry_equiv_pos_as_xyz
  1  'x, y, z'
loop_
 _atom_site_type_symbol
 _atom_site_label
 _atom_site_symmetry_multiplicity
 _atom_site_fract_x
 _atom_site_fract_y
 _atom_site_fract_z
 _atom_site_occupancy
  Ho  Ho0  1  0.001815  0.340474  0.532552  1
  Ho  Ho1  1  0.999107  0.658986  0.031465  1
  Lu  Lu2  1  0.341013  0.001013  0.467367  1
  Lu  Lu3  1  0.499065  0.841869  0.719522  1
  Lu  Lu4  1  0.500117  0.158349  0.218102  1
  Lu  Lu5  1  0.841608  0.499190  0.280487  1
  Lu  Lu6  1  0.158614  0.499894  0.781954  1
  Lu  Lu7  1  0.658486  0.999787  0.968474  1
  Ti  Ti8  1  0.673647  0.674106  0.499980  1
  Ti  Ti9  1  0.152062  0.004536  0.876952  1
  Ti  Ti10  1  0.495222  0.653176  0.124385  1
  Ti  Ti11  1  0.504298  0.348585  0.627560  1
  Ti  Ti12  1  0.652962  0.494874  0.875475  1
  Ti  Ti13  1  0.348784  0.504625  0.372381  1
  Ti  Ti14  1  0.847214  0.992859  0.375877  1
  Ti  Ti15  1  0.004722  0.151922  0.122902  1
  Ti  Ti16  1  0.992770  0.847396  0.623991  1
  Si  Si17  1  0.201597  0.129808  0.683518  1
  Si  Si18  1  0.370166  0.701734  0.931358  1
  Si  Si19  1  0.631591  0.296656  0.432974  1
  Si  Si20  1  0.700364  0.367837  0.068196  1
  Si  Si21  1  0.297871  0.633969  0.566638  1
  Si  Si22  1  0.797532  0.869584  0.183239  1
  Si  Si23  1  0.131016  0.200193  0.316741  1
  Si  Si24  1  0.868239  0.799020  0.817025  1
  Si  Si25  1  0.293143  0.953521  0.066914  1
  Si  Si26  1  0.546781  0.791976  0.316096  1
  Si  Si27  1  0.452600  0.208687  0.816945  1
  Si  Si28  1  0.791078  0.547963  0.684375  1
  Si  Si29  1  0.209753  0.451438  0.183634  1
  Si  Si30  1  0.705181  0.047888  0.567652  1
  Si  Si31  1  0.952136  0.290836  0.932734  1
  Si  Si32  1  0.049072  0.707546  0.432017  1
  Tc  Tc33  1  0.328394  0.327712  0.000008  1
  Tc  Tc34  1  0.174099  0.828431  0.248935  1
  Tc  Tc35  1  0.827883  0.173561  0.751577  1
