# generated using pymatgen
data_Ba3CaFe2O9
_symmetry_space_group_name_H-M   'P 1'
_cell_length_a   5.88381700
_cell_length_b   5.88381676
_cell_length_c   14.45448900
_cell_angle_alpha   90.00000000
_cell_angle_beta   90.00000000
_cell_angle_gamma   119.99999575
_symmetry_Int_Tables_number   1
_chemical_formula_structural   Ba3CaFe2O9
_chemical_formula_sum   'Ba6 Ca2 Fe4 O18'
_cell_volume   433.36285994
_cell_formula_units_Z   2
loop_
 _symmetry_equiv_pos_site_id
 _symmetry_equiv_pos_as_xyz
  1  'x, y, z'
loop_
 _atom_site_type_symbol
 _atom_site_label
 _atom_site_symmetry_multiplicity
 _atom_site_fract_x
 _atom_site_fract_y
 _atom_site_fract_z
 _atom_site_occupancy
  Ba  Ba0  1  0.333333  0.666667  0.410767  1
  Ba  Ba1  1  0.666667  0.333333  0.910767  1
  Ba  Ba2  1  0.666667  0.333333  0.589233  1
  Ba  Ba3  1  0.333333  0.666667  0.089233  1
  Ba  Ba4  1  0.000000  0.000000  0.750000  1
  Ba  Ba5  1  0.000000  0.000000  0.250000  1
  Ca  Ca6  1  0.000000  0.000000  0.000000  1
  Ca  Ca7  1  0.000000  0.000000  0.500000  1
  Fe  Fe8  1  0.666667  0.333333  0.341481  1
  Fe  Fe9  1  0.333333  0.666667  0.841481  1
  Fe  Fe10  1  0.666667  0.333333  0.158519  1
  Fe  Fe11  1  0.333333  0.666667  0.658519  1
  O  O12  1  0.818756  0.637511  0.408762  1
  O  O13  1  0.362489  0.181244  0.408762  1
  O  O14  1  0.818756  0.181244  0.408762  1
  O  O15  1  0.181244  0.818756  0.908762  1
  O  O16  1  0.181244  0.818756  0.591238  1
  O  O17  1  0.181244  0.362489  0.908762  1
  O  O18  1  0.637511  0.818756  0.908762  1
  O  O19  1  0.362489  0.181244  0.091238  1
  O  O20  1  0.818756  0.637511  0.091238  1
  O  O21  1  0.181244  0.362489  0.591238  1
  O  O22  1  0.637511  0.818756  0.591238  1
  O  O23  1  0.818756  0.181244  0.091238  1
  O  O24  1  0.523240  0.476760  0.250000  1
  O  O25  1  0.046480  0.523240  0.750000  1
  O  O26  1  0.476760  0.953520  0.750000  1
  O  O27  1  0.523240  0.046480  0.250000  1
  O  O28  1  0.953520  0.476760  0.250000  1
  O  O29  1  0.476760  0.523240  0.750000  1
