# generated using pymatgen
data_LiCa2AlSi2
_symmetry_space_group_name_H-M   'P 1'
_cell_length_a   4.31750400
_cell_length_b   7.04790000
_cell_length_c   16.34912700
_cell_angle_alpha   90.00000000
_cell_angle_beta   90.00000000
_cell_angle_gamma   90.00000000
_symmetry_Int_Tables_number   1
_chemical_formula_structural   LiCa2AlSi2
_chemical_formula_sum   'Li4 Ca8 Al4 Si8'
_cell_volume   497.49308601
_cell_formula_units_Z   4
loop_
 _symmetry_equiv_pos_site_id
 _symmetry_equiv_pos_as_xyz
  1  'x, y, z'
loop_
 _atom_site_type_symbol
 _atom_site_label
 _atom_site_symmetry_multiplicity
 _atom_site_fract_x
 _atom_site_fract_y
 _atom_site_fract_z
 _atom_site_occupancy
  Li  Li0  1  0.250000  0.985257  0.068039  1
  Li  Li1  1  0.750000  0.514743  0.568039  1
  Li  Li2  1  0.250000  0.485257  0.431961  1
  Li  Li3  1  0.750000  0.014743  0.931961  1
  Ca  Ca4  1  0.750000  0.159877  0.438926  1
  Ca  Ca5  1  0.250000  0.000488  0.776910  1
  Ca  Ca6  1  0.250000  0.340123  0.938926  1
  Ca  Ca7  1  0.750000  0.659877  0.061074  1
  Ca  Ca8  1  0.250000  0.840123  0.561074  1
  Ca  Ca9  1  0.750000  0.999512  0.223090  1
  Ca  Ca10  1  0.750000  0.499512  0.276910  1
  Ca  Ca11  1  0.250000  0.500488  0.723090  1
  Al  Al12  1  0.250000  0.338332  0.156044  1
  Al  Al13  1  0.750000  0.161668  0.656044  1
  Al  Al14  1  0.250000  0.838332  0.343956  1
  Al  Al15  1  0.750000  0.661668  0.843956  1
  Si  Si16  1  0.250000  0.209357  0.310204  1
  Si  Si17  1  0.250000  0.263876  0.572938  1
  Si  Si18  1  0.750000  0.736124  0.427062  1
  Si  Si19  1  0.750000  0.290643  0.810204  1
  Si  Si20  1  0.750000  0.790643  0.689796  1
  Si  Si21  1  0.750000  0.236124  0.072938  1
  Si  Si22  1  0.250000  0.763876  0.927062  1
  Si  Si23  1  0.250000  0.709357  0.189796  1
