# generated using pymatgen
data_Tl2Co3Cl8
_symmetry_space_group_name_H-M   'P 1'
_cell_length_a   9.92532513
_cell_length_b   9.92532538
_cell_length_c   6.91662400
_cell_angle_alpha   83.95499023
_cell_angle_beta   83.95498428
_cell_angle_gamma   142.33702317
_symmetry_Int_Tables_number   1
_chemical_formula_structural   Tl2Co3Cl8
_chemical_formula_sum   'Tl2 Co3 Cl8'
_cell_volume   393.54795751
_cell_formula_units_Z   1
loop_
 _symmetry_equiv_pos_site_id
 _symmetry_equiv_pos_as_xyz
  1  'x, y, z'
loop_
 _atom_site_type_symbol
 _atom_site_label
 _atom_site_symmetry_multiplicity
 _atom_site_fract_x
 _atom_site_fract_y
 _atom_site_fract_z
 _atom_site_occupancy
  Tl  Tl0  1  0.647840  0.909560  0.532348  1
  Tl  Tl1  1  0.909560  0.647840  0.532348  1
  Co  Co2  1  0.006068  0.006068  0.022109  1
  Co  Co3  1  0.928723  0.318227  0.918113  1
  Co  Co4  1  0.318227  0.928723  0.918113  1
  Cl  Cl5  1  0.682493  0.682493  0.270082  1
  Cl  Cl6  1  0.989476  0.989476  0.706119  1
  Cl  Cl7  1  0.542727  0.950799  0.030059  1
  Cl  Cl8  1  0.950799  0.542727  0.030059  1
  Cl  Cl9  1  0.074118  0.453272  0.581246  1
  Cl  Cl10  1  0.453272  0.074118  0.581246  1
  Cl  Cl11  1  0.302249  0.108833  0.071257  1
  Cl  Cl12  1  0.108833  0.302249  0.071257  1
