# generated using pymatgen
data_Dy3HoOsRu7
_symmetry_space_group_name_H-M   'P 1'
_cell_length_a   5.34043137
_cell_length_b   5.22247686
_cell_length_c   8.96574200
_cell_angle_alpha   90.00032259
_cell_angle_beta   89.99704987
_cell_angle_gamma   120.36810879
_symmetry_Int_Tables_number   1
_chemical_formula_structural   Dy3HoOsRu7
_chemical_formula_sum   'Dy3 Ho1 Os1 Ru7'
_cell_volume   215.74801989
_cell_formula_units_Z   1
loop_
 _symmetry_equiv_pos_site_id
 _symmetry_equiv_pos_as_xyz
  1  'x, y, z'
loop_
 _atom_site_type_symbol
 _atom_site_label
 _atom_site_symmetry_multiplicity
 _atom_site_fract_x
 _atom_site_fract_y
 _atom_site_fract_z
 _atom_site_occupancy
  Dy  Dy0  1  0.669198  0.336846  0.566554  1
  Dy  Dy1  1  0.332745  0.667130  0.432846  1
  Dy  Dy2  1  0.332750  0.667137  0.067038  1
  Ho  Ho3  1  0.669306  0.337052  0.933302  1
  Os  Os4  1  0.164869  0.330094  0.750414  1
  Ru  Ru5  1  0.004644  0.008537  0.499890  1
  Ru  Ru6  1  0.004579  0.008427  0.999985  1
  Ru  Ru7  1  0.169326  0.822852  0.750408  1
  Ru  Ru8  1  0.650736  0.821269  0.750346  1
  Ru  Ru9  1  0.829885  0.659349  0.249733  1
  Ru  Ru10  1  0.828413  0.169100  0.249718  1
  Ru  Ru11  1  0.343549  0.172206  0.249765  1
