# generated using pymatgen
data_Na4Al3GaSb16
_symmetry_space_group_name_H-M   'P 1'
_cell_length_a   4.25453500
_cell_length_b   10.26556614
_cell_length_c   17.40421023
_cell_angle_alpha   89.98130048
_cell_angle_beta   90.00000000
_cell_angle_gamma   90.00000000
_symmetry_Int_Tables_number   1
_chemical_formula_structural   Na4Al3GaSb16
_chemical_formula_sum   'Na4 Al3 Ga1 Sb16'
_cell_volume   760.13250364
_cell_formula_units_Z   1
loop_
 _symmetry_equiv_pos_site_id
 _symmetry_equiv_pos_as_xyz
  1  'x, y, z'
loop_
 _atom_site_type_symbol
 _atom_site_label
 _atom_site_symmetry_multiplicity
 _atom_site_fract_x
 _atom_site_fract_y
 _atom_site_fract_z
 _atom_site_occupancy
  Na  Na0  1  0.250000  0.335363  0.936309  1
  Na  Na1  1  0.750000  0.664623  0.063710  1
  Na  Na2  1  0.250000  0.835367  0.563734  1
  Na  Na3  1  0.750000  0.164688  0.436283  1
  Al  Al4  1  0.250000  0.189192  0.129016  1
  Al  Al5  1  0.750000  0.810815  0.870993  1
  Al  Al6  1  0.250000  0.689168  0.370962  1
  Ga  Ga7  1  0.750000  0.310719  0.628905  1
  Sb  Sb8  1  0.750000  0.837668  0.409769  1
  Sb  Sb9  1  0.250000  0.162372  0.590584  1
  Sb  Sb10  1  0.750000  0.337660  0.090284  1
  Sb  Sb11  1  0.250000  0.662316  0.909724  1
  Sb  Sb12  1  0.750000  0.367496  0.781439  1
  Sb  Sb13  1  0.250000  0.632665  0.218319  1
  Sb  Sb14  1  0.750000  0.867399  0.718276  1
  Sb  Sb15  1  0.250000  0.132644  0.281705  1
  Sb  Sb16  1  0.750000  0.540839  0.551421  1
  Sb  Sb17  1  0.250000  0.458917  0.448619  1
  Sb  Sb18  1  0.750000  0.041254  0.948566  1
  Sb  Sb19  1  0.250000  0.958799  0.051440  1
  Sb  Sb20  1  0.750000  0.943726  0.256169  1
  Sb  Sb21  1  0.250000  0.056373  0.743691  1
  Sb  Sb22  1  0.750000  0.443716  0.243812  1
  Sb  Sb23  1  0.250000  0.556220  0.756269  1
