# generated using pymatgen
data_Ac8Lu12Si15Ru
_symmetry_space_group_name_H-M   'P 1'
_cell_length_a   7.51835500
_cell_length_b   7.91952360
_cell_length_c   14.79639000
_cell_angle_alpha   90.00000000
_cell_angle_beta   90.00000000
_cell_angle_gamma   90.07398982
_symmetry_Int_Tables_number   1
_chemical_formula_structural   Ac8Lu12Si15Ru
_chemical_formula_sum   'Ac8 Lu12 Si15 Ru1'
_cell_volume   881.00280979
_cell_formula_units_Z   1
loop_
 _symmetry_equiv_pos_site_id
 _symmetry_equiv_pos_as_xyz
  1  'x, y, z'
loop_
 _atom_site_type_symbol
 _atom_site_label
 _atom_site_symmetry_multiplicity
 _atom_site_fract_x
 _atom_site_fract_y
 _atom_site_fract_z
 _atom_site_occupancy
  Ac  Ac0  1  0.012507  0.176002  0.097594  1
  Ac  Ac1  1  0.988492  0.829788  0.900641  1
  Ac  Ac2  1  0.486274  0.669859  0.903754  1
  Ac  Ac3  1  0.988492  0.829788  0.599359  1
  Ac  Ac4  1  0.512281  0.330733  0.095952  1
  Ac  Ac5  1  0.012507  0.176002  0.402406  1
  Ac  Ac6  1  0.512281  0.330733  0.404048  1
  Ac  Ac7  1  0.486274  0.669859  0.596246  1
  Lu  Lu8  1  0.147261  0.484800  0.750000  1
  Lu  Lu9  1  0.845106  0.500408  0.250000  1
  Lu  Lu10  1  0.342350  0.005654  0.250000  1
  Lu  Lu11  1  0.661181  0.004725  0.750000  1
  Lu  Lu12  1  0.313370  0.170749  0.626545  1
  Lu  Lu13  1  0.678598  0.831104  0.373058  1
  Lu  Lu14  1  0.179581  0.675486  0.374780  1
  Lu  Lu15  1  0.678598  0.831104  0.126942  1
  Lu  Lu16  1  0.832508  0.313959  0.626978  1
  Lu  Lu17  1  0.313370  0.170749  0.873455  1
  Lu  Lu18  1  0.832508  0.313959  0.873022  1
  Lu  Lu19  1  0.179581  0.675486  0.125220  1
  Si  Si20  1  0.977865  0.866516  0.250000  1
  Si  Si21  1  0.476121  0.631322  0.250000  1
  Si  Si22  1  0.526033  0.376621  0.750000  1
  Si  Si23  1  0.287029  0.884599  0.750000  1
  Si  Si24  1  0.706356  0.124694  0.250000  1
  Si  Si25  1  0.211444  0.381605  0.250000  1
  Si  Si26  1  0.777226  0.608269  0.750000  1
  Si  Si27  1  0.146614  0.468859  0.538142  1
  Si  Si28  1  0.856210  0.539939  0.461317  1
  Si  Si29  1  0.355164  0.964218  0.459747  1
  Si  Si30  1  0.856210  0.539939  0.038683  1
  Si  Si31  1  0.643845  0.034054  0.538144  1
  Si  Si32  1  0.146614  0.468859  0.961858  1
  Si  Si33  1  0.643845  0.034054  0.961856  1
  Si  Si34  1  0.355164  0.964218  0.040253  1
  Ru  Ru35  1  0.031138  0.121287  0.750000  1
