# generated using pymatgen
data_Yb12AlSi7Ni8
_symmetry_space_group_name_H-M   'P 1'
_cell_length_a   5.47463800
_cell_length_b   7.59436076
_cell_length_c   12.55274200
_cell_angle_alpha   89.79259325
_cell_angle_beta   90.00000000
_cell_angle_gamma   90.00000000
_symmetry_Int_Tables_number   1
_chemical_formula_structural   Yb12AlSi7Ni8
_chemical_formula_sum   'Yb12 Al1 Si7 Ni8'
_cell_volume   521.89410166
_cell_formula_units_Z   1
loop_
 _symmetry_equiv_pos_site_id
 _symmetry_equiv_pos_as_xyz
  1  'x, y, z'
loop_
 _atom_site_type_symbol
 _atom_site_label
 _atom_site_symmetry_multiplicity
 _atom_site_fract_x
 _atom_site_fract_y
 _atom_site_fract_z
 _atom_site_occupancy
  Yb  Yb0  1  0.659607  0.240812  0.254379  1
  Yb  Yb1  1  0.341106  0.758551  0.746865  1
  Yb  Yb2  1  0.341106  0.741449  0.253135  1
  Yb  Yb3  1  0.659607  0.259188  0.745621  1
  Yb  Yb4  1  0.147049  0.400825  0.100709  1
  Yb  Yb5  1  0.857643  0.607933  0.900356  1
  Yb  Yb6  1  0.859120  0.605043  0.598136  1
  Yb  Yb7  1  0.859120  0.894957  0.401864  1
  Yb  Yb8  1  0.142392  0.393709  0.401903  1
  Yb  Yb9  1  0.142392  0.106291  0.598097  1
  Yb  Yb10  1  0.147049  0.099175  0.899291  1
  Yb  Yb11  1  0.857643  0.892067  0.099644  1
  Al  Al12  1  0.624066  0.250000  0.000000  1
  Si  Si13  1  0.177895  0.096990  0.250266  1
  Si  Si14  1  0.822042  0.903928  0.747690  1
  Si  Si15  1  0.822042  0.596072  0.252310  1
  Si  Si16  1  0.177895  0.403010  0.749734  1
  Si  Si17  1  0.372691  0.750000  0.000000  1
  Si  Si18  1  0.382619  0.750000  0.500000  1
  Si  Si19  1  0.618274  0.250000  0.500000  1
  Ni  Ni20  1  0.376383  0.021991  0.089736  1
  Ni  Ni21  1  0.618300  0.962322  0.910203  1
  Ni  Ni22  1  0.618745  0.971822  0.586382  1
  Ni  Ni23  1  0.618745  0.528178  0.413618  1
  Ni  Ni24  1  0.380894  0.028104  0.413150  1
  Ni  Ni25  1  0.380894  0.471896  0.586850  1
  Ni  Ni26  1  0.376383  0.478009  0.910264  1
  Ni  Ni27  1  0.618300  0.537678  0.089797  1
