# generated using pymatgen
data_LiLa3Nd13Cd3Ir4
_symmetry_space_group_name_H-M   'P 1'
_cell_length_a   9.97910482
_cell_length_b   9.98968389
_cell_length_c   9.98968468
_cell_angle_alpha   60.19022248
_cell_angle_beta   60.20601341
_cell_angle_gamma   60.20601647
_symmetry_Int_Tables_number   1
_chemical_formula_structural   LiLa3Nd13Cd3Ir4
_chemical_formula_sum   'Li1 La3 Nd13 Cd3 Ir4'
_cell_volume   707.37515407
_cell_formula_units_Z   1
loop_
 _symmetry_equiv_pos_site_id
 _symmetry_equiv_pos_as_xyz
  1  'x, y, z'
loop_
 _atom_site_type_symbol
 _atom_site_label
 _atom_site_symmetry_multiplicity
 _atom_site_fract_x
 _atom_site_fract_y
 _atom_site_fract_z
 _atom_site_occupancy
  Li  Li0  1  0.571615  0.570417  0.570417  1
  La  La1  1  0.347571  0.348564  0.348564  1
  La  La2  1  0.347005  0.348173  0.957754  1
  La  La3  1  0.347005  0.957754  0.348173  1
  Nd  Nd4  1  0.954542  0.348451  0.348451  1
  Nd  Nd5  1  0.811278  0.190471  0.190471  1
  Nd  Nd6  1  0.186934  0.812154  0.812154  1
  Nd  Nd7  1  0.190190  0.811080  0.190466  1
  Nd  Nd8  1  0.812740  0.186903  0.811341  1
  Nd  Nd9  1  0.190190  0.190466  0.811080  1
  Nd  Nd10  1  0.812740  0.811341  0.186903  1
  Nd  Nd11  1  0.938479  0.562102  0.562102  1
  Nd  Nd12  1  0.561941  0.937477  0.937477  1
  Nd  Nd13  1  0.562747  0.937713  0.562843  1
  Nd  Nd14  1  0.937868  0.561634  0.938231  1
  Nd  Nd15  1  0.562747  0.562843  0.937713  1
  Nd  Nd16  1  0.937868  0.938231  0.561634  1
  Cd  Cd17  1  0.582714  0.580918  0.257505  1
  Cd  Cd18  1  0.582714  0.257505  0.580918  1
  Cd  Cd19  1  0.256844  0.581697  0.581697  1
  Ir  Ir20  1  0.142372  0.142237  0.142237  1
  Ir  Ir21  1  0.143116  0.142914  0.575944  1
  Ir  Ir22  1  0.143116  0.575944  0.142914  1
  Ir  Ir23  1  0.575669  0.143012  0.143012  1
