# generated using pymatgen
data_Hf2TaB2Ru5
_symmetry_space_group_name_H-M   'P 1'
_cell_length_a   9.46814400
_cell_length_b   9.46814400
_cell_length_c   3.10476100
_cell_angle_alpha   90.00000000
_cell_angle_beta   90.00000000
_cell_angle_gamma   90.00000000
_symmetry_Int_Tables_number   1
_chemical_formula_structural   Hf2TaB2Ru5
_chemical_formula_sum   'Hf4 Ta2 B4 Ru10'
_cell_volume   278.32863091
_cell_formula_units_Z   2
loop_
 _symmetry_equiv_pos_site_id
 _symmetry_equiv_pos_as_xyz
  1  'x, y, z'
loop_
 _atom_site_type_symbol
 _atom_site_label
 _atom_site_symmetry_multiplicity
 _atom_site_fract_x
 _atom_site_fract_y
 _atom_site_fract_z
 _atom_site_occupancy
  Hf  Hf0  1  0.824175  0.675825  0.000000  1
  Hf  Hf1  1  0.175825  0.324175  0.000000  1
  Hf  Hf2  1  0.324175  0.824175  0.000000  1
  Hf  Hf3  1  0.675825  0.175825  0.000000  1
  Ta  Ta4  1  0.500000  0.500000  0.000000  1
  Ta  Ta5  1  0.000000  0.000000  0.000000  1
  B  B6  1  0.621265  0.878735  0.000000  1
  B  B7  1  0.378735  0.121265  0.000000  1
  B  B8  1  0.121265  0.621265  0.000000  1
  B  B9  1  0.878735  0.378735  0.000000  1
  Ru  Ru10  1  0.570634  0.718246  0.500000  1
  Ru  Ru11  1  0.429366  0.281754  0.500000  1
  Ru  Ru12  1  0.070634  0.781754  0.500000  1
  Ru  Ru13  1  0.929366  0.218246  0.500000  1
  Ru  Ru14  1  0.281754  0.570634  0.500000  1
  Ru  Ru15  1  0.718246  0.429366  0.500000  1
  Ru  Ru16  1  0.218246  0.070634  0.500000  1
  Ru  Ru17  1  0.781754  0.929366  0.500000  1
  Ru  Ru18  1  0.500000  0.000000  0.500000  1
  Ru  Ru19  1  0.000000  0.500000  0.500000  1
