# generated using pymatgen
data_Zr24NiAs3Se8
_symmetry_space_group_name_H-M   'P 1'
_cell_length_a   3.67406900
_cell_length_b   12.73434067
_cell_length_c   15.80288568
_cell_angle_alpha   90.00578591
_cell_angle_beta   90.00000000
_cell_angle_gamma   90.00000000
_symmetry_Int_Tables_number   1
_chemical_formula_structural   Zr24NiAs3Se8
_chemical_formula_sum   'Zr24 Ni1 As3 Se8'
_cell_volume   739.36717929
_cell_formula_units_Z   1
loop_
 _symmetry_equiv_pos_site_id
 _symmetry_equiv_pos_as_xyz
  1  'x, y, z'
loop_
 _atom_site_type_symbol
 _atom_site_label
 _atom_site_symmetry_multiplicity
 _atom_site_fract_x
 _atom_site_fract_y
 _atom_site_fract_z
 _atom_site_occupancy
  Zr  Zr0  1  0.000000  0.344870  0.478075  1
  Zr  Zr1  1  0.000000  0.658466  0.515289  1
  Zr  Zr2  1  0.500000  0.151687  0.978979  1
  Zr  Zr3  1  0.500000  0.850160  0.020921  1
  Zr  Zr4  1  0.000000  0.083357  0.577933  1
  Zr  Zr5  1  0.000000  0.906623  0.421761  1
  Zr  Zr6  1  0.500000  0.417027  0.078187  1
  Zr  Zr7  1  0.500000  0.584601  0.924085  1
  Zr  Zr8  1  0.000000  0.697520  0.298073  1
  Zr  Zr9  1  0.000000  0.304067  0.704165  1
  Zr  Zr10  1  0.500000  0.805706  0.794994  1
  Zr  Zr11  1  0.500000  0.195295  0.204653  1
  Zr  Zr12  1  0.000000  0.030965  0.110199  1
  Zr  Zr13  1  0.000000  0.969412  0.889013  1
  Zr  Zr14  1  0.500000  0.470168  0.607856  1
  Zr  Zr15  1  0.500000  0.528175  0.393438  1
  Zr  Zr16  1  0.000000  0.620124  0.078196  1
  Zr  Zr17  1  0.000000  0.379559  0.923448  1
  Zr  Zr18  1  0.500000  0.880997  0.579570  1
  Zr  Zr19  1  0.500000  0.118195  0.423900  1
  Zr  Zr20  1  0.000000  0.410136  0.242271  1
  Zr  Zr21  1  0.000000  0.587362  0.757181  1
  Zr  Zr22  1  0.500000  0.088062  0.743646  1
  Zr  Zr23  1  0.500000  0.916035  0.252942  1
  Ni  Ni24  1  0.500000  0.760131  0.412543  1
  As  As25  1  0.000000  0.256176  0.085085  1
  As  As26  1  0.000000  0.744805  0.914803  1
  As  As27  1  0.500000  0.243871  0.583973  1
  Se  Se28  1  0.000000  0.814997  0.150888  1
  Se  Se29  1  0.000000  0.185306  0.849322  1
  Se  Se30  1  0.500000  0.684427  0.650753  1
  Se  Se31  1  0.500000  0.312101  0.349622  1
  Se  Se32  1  0.000000  0.071200  0.293565  1
  Se  Se33  1  0.000000  0.929707  0.707991  1
  Se  Se34  1  0.500000  0.429340  0.792748  1
  Se  Se35  1  0.500000  0.569369  0.209932  1
