# generated using pymatgen
data_Nd12Co(PtBr4)3
_symmetry_space_group_name_H-M   'P 1'
_cell_length_a   10.45544723
_cell_length_b   10.45544771
_cell_length_c   10.45544818
_cell_angle_alpha   109.23723741
_cell_angle_beta   109.23723956
_cell_angle_gamma   109.23724397
_symmetry_Int_Tables_number   1
_chemical_formula_structural   Nd12Co(PtBr4)3
_chemical_formula_sum   'Nd12 Co1 Pt3 Br12'
_cell_volume   887.38483354
_cell_formula_units_Z   1
loop_
 _symmetry_equiv_pos_site_id
 _symmetry_equiv_pos_as_xyz
  1  'x, y, z'
loop_
 _atom_site_type_symbol
 _atom_site_label
 _atom_site_symmetry_multiplicity
 _atom_site_fract_x
 _atom_site_fract_y
 _atom_site_fract_z
 _atom_site_occupancy
  Nd  Nd0  1  0.466073  0.476312  0.238840  1
  Nd  Nd1  1  0.750000  0.236464  0.263536  1
  Nd  Nd2  1  0.750000  0.014586  0.485414  1
  Nd  Nd3  1  0.238840  0.466073  0.476312  1
  Nd  Nd4  1  0.263536  0.750000  0.236464  1
  Nd  Nd5  1  0.033927  0.261160  0.023688  1
  Nd  Nd6  1  0.023688  0.033927  0.261160  1
  Nd  Nd7  1  0.485414  0.750000  0.014586  1
  Nd  Nd8  1  0.476312  0.238840  0.466073  1
  Nd  Nd9  1  0.014586  0.485414  0.750000  1
  Nd  Nd10  1  0.261160  0.023688  0.033927  1
  Nd  Nd11  1  0.236464  0.263536  0.750000  1
  Co  Co12  1  0.250000  0.250000  0.250000  1
  Pt  Pt13  1  0.499243  0.000757  0.250000  1
  Pt  Pt14  1  0.000757  0.250000  0.499243  1
  Pt  Pt15  1  0.250000  0.499243  0.000757  1
  Br  Br16  1  0.250000  0.753130  0.746870  1
  Br  Br17  1  0.509507  0.504741  0.754405  1
  Br  Br18  1  0.990493  0.745595  0.995259  1
  Br  Br19  1  0.746870  0.250000  0.753130  1
  Br  Br20  1  0.995259  0.990493  0.745595  1
  Br  Br21  1  0.250000  0.994604  0.505396  1
  Br  Br22  1  0.754405  0.509507  0.504741  1
  Br  Br23  1  0.505396  0.250000  0.994604  1
  Br  Br24  1  0.753130  0.746870  0.250000  1
  Br  Br25  1  0.745595  0.995259  0.990493  1
  Br  Br26  1  0.994604  0.505396  0.250000  1
  Br  Br27  1  0.504741  0.754405  0.509507  1
