# generated using pymatgen
data_Ac4Si3PIr4
_symmetry_space_group_name_H-M   'P 1'
_cell_length_a   6.52096408
_cell_length_b   6.52096408
_cell_length_c   6.52096408
_cell_angle_alpha   90.64392105
_cell_angle_beta   90.64392105
_cell_angle_gamma   90.64392105
_symmetry_Int_Tables_number   1
_chemical_formula_structural   Ac4Si3PIr4
_chemical_formula_sum   'Ac4 Si3 P1 Ir4'
_cell_volume   277.23784533
_cell_formula_units_Z   1
loop_
 _symmetry_equiv_pos_site_id
 _symmetry_equiv_pos_as_xyz
  1  'x, y, z'
loop_
 _atom_site_type_symbol
 _atom_site_label
 _atom_site_symmetry_multiplicity
 _atom_site_fract_x
 _atom_site_fract_y
 _atom_site_fract_z
 _atom_site_occupancy
  Ac  Ac0  1  0.372034  0.868236  0.633389  1
  Ac  Ac1  1  0.868236  0.633389  0.372034  1
  Ac  Ac2  1  0.633389  0.372034  0.868236  1
  Ac  Ac3  1  0.131202  0.131202  0.131202  1
  Si  Si4  1  0.657392  0.158486  0.341378  1
  Si  Si5  1  0.158486  0.341378  0.657392  1
  Si  Si6  1  0.341378  0.657392  0.158486  1
  P  P7  1  0.839320  0.839320  0.839320  1
  Ir  Ir8  1  0.075947  0.586827  0.914904  1
  Ir  Ir9  1  0.586827  0.914904  0.075947  1
  Ir  Ir10  1  0.914904  0.075947  0.586827  1
  Ir  Ir11  1  0.420885  0.420885  0.420885  1
