# generated using pymatgen
data_Sr2TmLu(NiAs)4
_symmetry_space_group_name_H-M   'P 1'
_cell_length_a   4.06071800
_cell_length_b   4.06071755
_cell_length_c   16.66903300
_cell_angle_alpha   90.00000000
_cell_angle_beta   90.00000000
_cell_angle_gamma   119.99998740
_symmetry_Int_Tables_number   1
_chemical_formula_structural   Sr2TmLu(NiAs)4
_chemical_formula_sum   'Sr2 Tm1 Lu1 Ni4 As4'
_cell_volume   238.03822653
_cell_formula_units_Z   1
loop_
 _symmetry_equiv_pos_site_id
 _symmetry_equiv_pos_as_xyz
  1  'x, y, z'
loop_
 _atom_site_type_symbol
 _atom_site_label
 _atom_site_symmetry_multiplicity
 _atom_site_fract_x
 _atom_site_fract_y
 _atom_site_fract_z
 _atom_site_occupancy
  Sr  Sr0  1  0.000000  0.000000  0.000598  1
  Sr  Sr1  1  0.000000  0.000000  0.499402  1
  Tm  Tm2  1  0.000000  0.000000  0.750000  1
  Lu  Lu3  1  0.000000  0.000000  0.250000  1
  Ni  Ni4  1  0.333333  0.666667  0.146543  1
  Ni  Ni5  1  0.666667  0.333333  0.855753  1
  Ni  Ni6  1  0.666667  0.333333  0.644247  1
  Ni  Ni7  1  0.333333  0.666667  0.353457  1
  As  As8  1  0.333333  0.666667  0.632176  1
  As  As9  1  0.666667  0.333333  0.367003  1
  As  As10  1  0.666667  0.333333  0.132997  1
  As  As11  1  0.333333  0.666667  0.867824  1
