# generated using pymatgen
data_Sm3Gd5(RuBr6)2
_symmetry_space_group_name_H-M   'P 1'
_cell_length_a   4.08349300
_cell_length_b   13.88372033
_cell_length_c   14.29872900
_cell_angle_alpha   90.32132094
_cell_angle_beta   90.00000000
_cell_angle_gamma   90.00000000
_symmetry_Int_Tables_number   1
_chemical_formula_structural   Sm3Gd5(RuBr6)2
_chemical_formula_sum   'Sm3 Gd5 Ru2 Br12'
_cell_volume   810.64046319
_cell_formula_units_Z   1
loop_
 _symmetry_equiv_pos_site_id
 _symmetry_equiv_pos_as_xyz
  1  'x, y, z'
loop_
 _atom_site_type_symbol
 _atom_site_label
 _atom_site_symmetry_multiplicity
 _atom_site_fract_x
 _atom_site_fract_y
 _atom_site_fract_z
 _atom_site_occupancy
  Sm  Sm0  1  0.500000  0.113053  0.354279  1
  Sm  Sm1  1  0.500000  0.887020  0.646117  1
  Sm  Sm2  1  0.500000  0.612845  0.145563  1
  Gd  Gd3  1  0.500000  0.385870  0.853308  1
  Gd  Gd4  1  0.000000  0.118816  0.587290  1
  Gd  Gd5  1  0.000000  0.881285  0.413265  1
  Gd  Gd6  1  0.000000  0.618350  0.912167  1
  Gd  Gd7  1  0.000000  0.380702  0.085882  1
  Ru  Ru8  1  0.500000  0.000206  0.500131  1
  Ru  Ru9  1  0.500000  0.498689  0.997984  1
  Br  Br10  1  0.500000  0.252392  0.182935  1
  Br  Br11  1  0.500000  0.750200  0.819698  1
  Br  Br12  1  0.500000  0.750775  0.318510  1
  Br  Br13  1  0.500000  0.249779  0.682231  1
  Br  Br14  1  0.000000  0.251164  0.424390  1
  Br  Br15  1  0.000000  0.748992  0.576428  1
  Br  Br16  1  0.000000  0.750786  0.076613  1
  Br  Br17  1  0.000000  0.249819  0.922528  1
  Br  Br18  1  0.000000  0.006894  0.244209  1
  Br  Br19  1  0.000000  0.993678  0.756286  1
  Br  Br20  1  0.000000  0.507490  0.255137  1
  Br  Br21  1  0.000000  0.491196  0.745051  1
