# generated using pymatgen
data_YbDyRuPtO7
_symmetry_space_group_name_H-M   'P 1'
_cell_length_a   7.28338937
_cell_length_b   7.24339711
_cell_length_c   7.24339745
_cell_angle_alpha   59.40477510
_cell_angle_beta   59.81718934
_cell_angle_gamma   59.81718898
_symmetry_Int_Tables_number   1
_chemical_formula_structural   YbDyRuPtO7
_chemical_formula_sum   'Yb2 Dy2 Ru2 Pt2 O14'
_cell_volume   268.23566428
_cell_formula_units_Z   2
loop_
 _symmetry_equiv_pos_site_id
 _symmetry_equiv_pos_as_xyz
  1  'x, y, z'
loop_
 _atom_site_type_symbol
 _atom_site_label
 _atom_site_symmetry_multiplicity
 _atom_site_fract_x
 _atom_site_fract_y
 _atom_site_fract_z
 _atom_site_occupancy
  Yb  Yb0  1  0.125000  0.125000  0.625000  1
  Yb  Yb1  1  0.125000  0.625000  0.125000  1
  Dy  Dy2  1  0.625000  0.125000  0.125000  1
  Dy  Dy3  1  0.125000  0.125000  0.125000  1
  Ru  Ru4  1  0.125000  0.625000  0.625000  1
  Ru  Ru5  1  0.625000  0.625000  0.625000  1
  Pt  Pt6  1  0.625000  0.625000  0.125000  1
  Pt  Pt7  1  0.625000  0.125000  0.625000  1
  O  O8  1  0.253751  0.246249  0.246249  1
  O  O9  1  0.996249  0.003751  0.003751  1
  O  O10  1  0.290064  0.706185  0.294389  1
  O  O11  1  0.540638  0.955611  0.543815  1
  O  O12  1  0.290064  0.294389  0.706185  1
  O  O13  1  0.717307  0.282693  0.282693  1
  O  O14  1  0.312015  0.687985  0.687985  1
  O  O15  1  0.709362  0.706185  0.294389  1
  O  O16  1  0.709362  0.294389  0.706185  1
  O  O17  1  0.937985  0.562015  0.562015  1
  O  O18  1  0.532693  0.967307  0.967307  1
  O  O19  1  0.959936  0.543815  0.955611  1
  O  O20  1  0.540638  0.543815  0.955611  1
  O  O21  1  0.959936  0.955611  0.543815  1
