# generated using pymatgen
data_Y10Si16Ag
_symmetry_space_group_name_H-M   'P 1'
_cell_length_a   11.13521809
_cell_length_b   11.13306435
_cell_length_c   11.13522828
_cell_angle_alpha   144.76829808
_cell_angle_beta   136.18677128
_cell_angle_gamma   57.42716085
_symmetry_Int_Tables_number   1
_chemical_formula_structural   Y10Si16Ag
_chemical_formula_sum   'Y10 Si16 Ag1'
_cell_volume   546.79504854
_cell_formula_units_Z   1
loop_
 _symmetry_equiv_pos_site_id
 _symmetry_equiv_pos_as_xyz
  1  'x, y, z'
loop_
 _atom_site_type_symbol
 _atom_site_label
 _atom_site_symmetry_multiplicity
 _atom_site_fract_x
 _atom_site_fract_y
 _atom_site_fract_z
 _atom_site_occupancy
  Y  Y0  1  0.053608  0.566052  0.022097  1
  Y  Y1  1  0.352665  0.369782  0.520872  1
  Y  Y2  1  0.154756  0.165428  0.521608  1
  Y  Y3  1  0.451172  0.963291  0.014665  1
  Y  Y4  1  0.643816  0.165411  0.010653  1
  Y  Y5  1  0.948637  0.963294  0.512128  1
  Y  Y6  1  0.848921  0.369783  0.017127  1
  Y  Y7  1  0.543941  0.566062  0.512451  1
  Y  Y8  1  0.252035  0.765687  0.013894  1
  Y  Y9  1  0.751796  0.765699  0.513654  1
  Si  Si10  1  0.117115  0.076074  0.958964  1
  Si  Si11  1  0.797203  0.171695  0.374490  1
  Si  Si12  1  0.300359  0.899756  0.599390  1
  Si  Si13  1  0.399907  0.501582  0.101672  1
  Si  Si14  1  0.881653  0.854351  0.972702  1
  Si  Si15  1  0.104456  0.709861  0.605411  1
  Si  Si16  1  0.199828  0.584695  0.384861  1
  Si  Si17  1  0.699587  0.295600  0.596014  1
  Si  Si18  1  0.002004  0.432513  0.430523  1
  Si  Si19  1  0.713856  0.666609  0.952757  1
  Si  Si20  1  0.600973  0.702542  0.101575  1
  Si  Si21  1  0.999375  0.082468  0.083092  1
  Si  Si22  1  0.501198  0.393948  0.892758  1
  Si  Si23  1  0.285541  0.240850  0.955313  1
  Si  Si24  1  0.584755  0.040554  0.455793  1
  Si  Si25  1  0.415063  0.870700  0.455630  1
  Ag  Ag26  1  0.895777  0.504635  0.608824  1
