# generated using pymatgen
data_Ca3Pr8(Nd3Ga4)3
_symmetry_space_group_name_H-M   'P 1'
_cell_length_a   7.91506215
_cell_length_b   7.91435215
_cell_length_c   14.60477605
_cell_angle_alpha   89.99338447
_cell_angle_beta   89.99265852
_cell_angle_gamma   90.02116707
_symmetry_Int_Tables_number   1
_chemical_formula_structural   Ca3Pr8(Nd3Ga4)3
_chemical_formula_sum   'Ca3 Pr8 Nd9 Ga12'
_cell_volume   914.88090981
_cell_formula_units_Z   1
loop_
 _symmetry_equiv_pos_site_id
 _symmetry_equiv_pos_as_xyz
  1  'x, y, z'
loop_
 _atom_site_type_symbol
 _atom_site_label
 _atom_site_symmetry_multiplicity
 _atom_site_fract_x
 _atom_site_fract_y
 _atom_site_fract_z
 _atom_site_occupancy
  Ca  Ca0  1  0.999987  0.500084  0.735621  1
  Ca  Ca1  1  0.999985  0.500193  0.239897  1
  Ca  Ca2  1  0.500025  0.999767  0.256727  1
  Pr  Pr3  1  0.678670  0.339465  0.897881  1
  Pr  Pr4  1  0.839337  0.821406  0.897994  1
  Pr  Pr5  1  0.322258  0.332728  0.397410  1
  Pr  Pr6  1  0.181318  0.166132  0.602052  1
  Pr  Pr7  1  0.823098  0.166998  0.101150  1
  Pr  Pr8  1  0.321745  0.660940  0.897884  1
  Pr  Pr9  1  0.332854  0.323474  0.101098  1
  Pr  Pr10  1  0.160898  0.178274  0.897918  1
  Nd  Nd11  1  0.818640  0.834042  0.602932  1
  Nd  Nd12  1  0.176703  0.832782  0.101887  1
  Nd  Nd13  1  0.167073  0.821946  0.396621  1
  Nd  Nd14  1  0.832335  0.177433  0.396576  1
  Nd  Nd15  1  0.677818  0.667319  0.396728  1
  Nd  Nd16  1  0.666319  0.319062  0.603039  1
  Nd  Nd17  1  0.334315  0.681505  0.603026  1
  Nd  Nd18  1  0.666984  0.676776  0.101788  1
  Nd  Nd19  1  0.500097  0.000078  0.783362  1
  Ga  Ga20  1  0.618103  0.383357  0.249785  1
  Ga  Ga21  1  0.119906  0.882507  0.747799  1
  Ga  Ga22  1  0.383196  0.380193  0.747674  1
  Ga  Ga23  1  0.382575  0.618082  0.249506  1
  Ga  Ga24  1  0.882608  0.881665  0.249748  1
  Ga  Ga25  1  0.617272  0.620355  0.747537  1
  Ga  Ga26  1  0.998854  0.501041  0.503225  1
  Ga  Ga27  1  0.879564  0.116982  0.747829  1
  Ga  Ga28  1  0.500986  0.998830  0.492025  1
  Ga  Ga29  1  0.499714  0.998786  0.999223  1
  Ga  Ga30  1  0.116981  0.116906  0.249820  1
  Ga  Ga31  1  0.999782  0.500893  0.004239  1
