# generated using pymatgen
data_YbSbI26
_symmetry_space_group_name_H-M   'P 1'
_cell_length_a   12.86790078
_cell_length_b   11.41717118
_cell_length_c   15.05879424
_cell_angle_alpha   121.03836411
_cell_angle_beta   91.07996212
_cell_angle_gamma   102.18245134
_symmetry_Int_Tables_number   1
_chemical_formula_structural   YbSbI26
_chemical_formula_sum   'Yb1 Sb1 I26'
_cell_volume   1831.26460261
_cell_formula_units_Z   1
loop_
 _symmetry_equiv_pos_site_id
 _symmetry_equiv_pos_as_xyz
  1  'x, y, z'
loop_
 _atom_site_type_symbol
 _atom_site_label
 _atom_site_symmetry_multiplicity
 _atom_site_fract_x
 _atom_site_fract_y
 _atom_site_fract_z
 _atom_site_occupancy
  Yb  Yb0  1  0.329866  0.874233  0.935659  1
  Sb  Sb1  1  0.660823  0.121341  0.065991  1
  I  I2  1  0.385985  0.657048  0.984176  1
  I  I3  1  0.610957  0.330947  0.015039  1
  I  I4  1  0.582115  0.817243  0.394659  1
  I  I5  1  0.423214  0.195379  0.609639  1
  I  I6  1  0.734881  0.682084  0.011625  1
  I  I7  1  0.254706  0.305134  0.986205  1
  I  I8  1  0.715089  0.951283  0.164479  1
  I  I9  1  0.272267  0.036500  0.830674  1
  I  I10  1  0.448576  0.138722  0.147302  1
  I  I11  1  0.559394  0.869846  0.861709  1
  I  I12  1  0.230663  0.660138  0.696975  1
  I  I13  1  0.784309  0.358320  0.297638  1
  I  I14  1  0.095933  0.826969  0.983158  1
  I  I15  1  0.889926  0.157407  0.010671  1
  I  I16  1  0.077861  0.072336  0.191999  1
  I  I17  1  0.918943  0.915174  0.802244  1
  I  I18  1  0.275238  0.923153  0.462046  1
  I  I19  1  0.727931  0.087173  0.541515  1
  I  I20  1  0.324933  0.426559  0.649376  1
  I  I21  1  0.688660  0.590985  0.349938  1
  I  I22  1  0.862397  0.373810  0.703368  1
  I  I23  1  0.142196  0.636804  0.306734  1
  I  I24  1  0.946729  0.704634  0.603622  1
  I  I25  1  0.053970  0.288252  0.391807  1
  I  I26  1  0.259213  0.634690  0.135348  1
  I  I27  1  0.743221  0.363834  0.866404  1
