# generated using pymatgen
data_Nd3Sc(Co4P3)2
_symmetry_space_group_name_H-M   'P 1'
_cell_length_a   3.77940400
_cell_length_b   10.78922500
_cell_length_c   12.56504600
_cell_angle_alpha   90.00000000
_cell_angle_beta   90.00000000
_cell_angle_gamma   90.00000000
_symmetry_Int_Tables_number   1
_chemical_formula_structural   Nd3Sc(Co4P3)2
_chemical_formula_sum   'Nd6 Sc2 Co16 P12'
_cell_volume   512.36287187
_cell_formula_units_Z   2
loop_
 _symmetry_equiv_pos_site_id
 _symmetry_equiv_pos_as_xyz
  1  'x, y, z'
loop_
 _atom_site_type_symbol
 _atom_site_label
 _atom_site_symmetry_multiplicity
 _atom_site_fract_x
 _atom_site_fract_y
 _atom_site_fract_z
 _atom_site_occupancy
  Nd  Nd0  1  0.000000  0.500000  0.527944  1
  Nd  Nd1  1  0.500000  0.000000  0.472056  1
  Nd  Nd2  1  0.500000  0.821247  0.206355  1
  Nd  Nd3  1  0.500000  0.178753  0.206355  1
  Nd  Nd4  1  0.000000  0.678753  0.793645  1
  Nd  Nd5  1  0.000000  0.321247  0.793645  1
  Sc  Sc6  1  0.500000  0.500000  0.155591  1
  Sc  Sc7  1  0.000000  0.000000  0.844409  1
  Co  Co8  1  0.500000  0.500000  0.706435  1
  Co  Co9  1  0.000000  0.000000  0.293565  1
  Co  Co10  1  0.000000  0.500000  0.988025  1
  Co  Co11  1  0.500000  0.000000  0.011975  1
  Co  Co12  1  0.500000  0.331526  0.994986  1
  Co  Co13  1  0.500000  0.668474  0.994986  1
  Co  Co14  1  0.000000  0.168474  0.005014  1
  Co  Co15  1  0.000000  0.831526  0.005014  1
  Co  Co16  1  0.500000  0.296333  0.432809  1
  Co  Co17  1  0.500000  0.703667  0.432809  1
  Co  Co18  1  0.000000  0.203667  0.567191  1
  Co  Co19  1  0.000000  0.796333  0.567191  1
  Co  Co20  1  0.500000  0.880268  0.702171  1
  Co  Co21  1  0.500000  0.119732  0.702171  1
  Co  Co22  1  0.000000  0.619732  0.297829  1
  Co  Co23  1  0.000000  0.380268  0.297829  1
  P  P24  1  0.500000  0.500000  0.888392  1
  P  P25  1  0.000000  0.000000  0.111608  1
  P  P26  1  0.500000  0.500000  0.356169  1
  P  P27  1  0.000000  0.000000  0.643831  1
  P  P28  1  0.500000  0.304407  0.613397  1
  P  P29  1  0.500000  0.695593  0.613397  1
  P  P30  1  0.000000  0.195593  0.386603  1
  P  P31  1  0.000000  0.804407  0.386603  1
  P  P32  1  0.500000  0.841536  0.896486  1
  P  P33  1  0.500000  0.158464  0.896486  1
  P  P34  1  0.000000  0.658464  0.103514  1
  P  P35  1  0.000000  0.341536  0.103514  1
