# generated using pymatgen
data_Sc8CuIr4Ru3
_symmetry_space_group_name_H-M   'P 1'
_cell_length_a   6.39145500
_cell_length_b   4.58253100
_cell_length_c   9.16134700
_cell_angle_alpha   90.00000000
_cell_angle_beta   89.99807497
_cell_angle_gamma   90.00000000
_symmetry_Int_Tables_number   1
_chemical_formula_structural   Sc8CuIr4Ru3
_chemical_formula_sum   'Sc8 Cu1 Ir4 Ru3'
_cell_volume   268.32706482
_cell_formula_units_Z   1
loop_
 _symmetry_equiv_pos_site_id
 _symmetry_equiv_pos_as_xyz
  1  'x, y, z'
loop_
 _atom_site_type_symbol
 _atom_site_label
 _atom_site_symmetry_multiplicity
 _atom_site_fract_x
 _atom_site_fract_y
 _atom_site_fract_z
 _atom_site_occupancy
  Sc  Sc0  1  0.994989  0.750000  0.125005  1
  Sc  Sc1  1  0.504759  0.750000  0.125017  1
  Sc  Sc2  1  0.996773  0.250000  0.377176  1
  Sc  Sc3  1  0.502978  0.250000  0.377209  1
  Sc  Sc4  1  0.500775  0.750000  0.624992  1
  Sc  Sc5  1  0.999499  0.750000  0.624998  1
  Sc  Sc6  1  0.503230  0.250000  0.872805  1
  Sc  Sc7  1  0.997015  0.250000  0.872803  1
  Cu  Cu8  1  0.249863  0.250000  0.124991  1
  Ir  Ir9  1  0.749909  0.250000  0.124989  1
  Ir  Ir10  1  0.249919  0.750000  0.373503  1
  Ir  Ir11  1  0.750099  0.250000  0.624987  1
  Ir  Ir12  1  0.250096  0.750000  0.876525  1
  Ru  Ru13  1  0.749903  0.750000  0.373824  1
  Ru  Ru14  1  0.250096  0.250000  0.624988  1
  Ru  Ru15  1  0.750098  0.750000  0.876184  1
