# generated using pymatgen
data_Er13Th3(ZnCo)4
_symmetry_space_group_name_H-M   'P 1'
_cell_length_a   9.35115537
_cell_length_b   9.35180135
_cell_length_c   9.35180300
_cell_angle_alpha   59.99999772
_cell_angle_beta   59.99771253
_cell_angle_gamma   59.99770664
_symmetry_Int_Tables_number   1
_chemical_formula_structural   Er13Th3(ZnCo)4
_chemical_formula_sum   'Er13 Th3 Zn4 Co4'
_cell_volume   578.26359868
_cell_formula_units_Z   1
loop_
 _symmetry_equiv_pos_site_id
 _symmetry_equiv_pos_as_xyz
  1  'x, y, z'
loop_
 _atom_site_type_symbol
 _atom_site_label
 _atom_site_symmetry_multiplicity
 _atom_site_fract_x
 _atom_site_fract_y
 _atom_site_fract_z
 _atom_site_occupancy
  Er  Er0  1  0.942728  0.352424  0.352424  1
  Er  Er1  1  0.810972  0.189783  0.189783  1
  Er  Er2  1  0.189343  0.811683  0.811683  1
  Er  Er3  1  0.189343  0.811683  0.187290  1
  Er  Er4  1  0.810972  0.189783  0.809463  1
  Er  Er5  1  0.189343  0.187290  0.811683  1
  Er  Er6  1  0.810972  0.809463  0.189783  1
  Er  Er7  1  0.936039  0.564560  0.564560  1
  Er  Er8  1  0.565118  0.934780  0.934780  1
  Er  Er9  1  0.565118  0.934780  0.565322  1
  Er  Er10  1  0.936039  0.564560  0.934841  1
  Er  Er11  1  0.565118  0.565322  0.934780  1
  Er  Er12  1  0.936039  0.934841  0.564560  1
  Th  Th13  1  0.346246  0.349869  0.349869  1
  Th  Th14  1  0.346246  0.349869  0.954015  1
  Th  Th15  1  0.346246  0.954015  0.349869  1
  Zn  Zn16  1  0.583352  0.580087  0.580087  1
  Zn  Zn17  1  0.583352  0.580087  0.256473  1
  Zn  Zn18  1  0.583352  0.256473  0.580087  1
  Zn  Zn19  1  0.256921  0.581026  0.581026  1
  Co  Co20  1  0.146465  0.141720  0.141720  1
  Co  Co21  1  0.146465  0.141720  0.570094  1
  Co  Co22  1  0.146465  0.570094  0.141720  1
  Co  Co23  1  0.567742  0.144086  0.144086  1
