# generated using pymatgen
data_Np2TcB8Os
_symmetry_space_group_name_H-M   'P 1'
_cell_length_a   3.53966000
_cell_length_b   5.98980434
_cell_length_c   11.61024366
_cell_angle_alpha   89.96135300
_cell_angle_beta   90.00000000
_cell_angle_gamma   90.00000000
_symmetry_Int_Tables_number   1
_chemical_formula_structural   Np2TcB8Os
_chemical_formula_sum   'Np4 Tc2 B16 Os2'
_cell_volume   246.15883042
_cell_formula_units_Z   2
loop_
 _symmetry_equiv_pos_site_id
 _symmetry_equiv_pos_as_xyz
  1  'x, y, z'
loop_
 _atom_site_type_symbol
 _atom_site_label
 _atom_site_symmetry_multiplicity
 _atom_site_fract_x
 _atom_site_fract_y
 _atom_site_fract_z
 _atom_site_occupancy
  Np  Np0  1  0.000000  0.626220  0.350374  1
  Np  Np1  1  0.000000  0.373780  0.649626  1
  Np  Np2  1  0.000000  0.126673  0.151067  1
  Np  Np3  1  0.000000  0.873327  0.848933  1
  Tc  Tc4  1  0.000000  0.136726  0.407742  1
  Tc  Tc5  1  0.000000  0.863274  0.592258  1
  B  B6  1  0.500000  0.787843  0.187417  1
  B  B7  1  0.500000  0.212157  0.812583  1
  B  B8  1  0.500000  0.287765  0.312294  1
  B  B9  1  0.500000  0.712235  0.687706  1
  B  B10  1  0.500000  0.865865  0.031120  1
  B  B11  1  0.500000  0.134135  0.968880  1
  B  B12  1  0.500000  0.365926  0.468428  1
  B  B13  1  0.500000  0.634074  0.531572  1
  B  B14  1  0.500000  0.885694  0.453483  1
  B  B15  1  0.500000  0.114306  0.546517  1
  B  B16  1  0.500000  0.385375  0.047022  1
  B  B17  1  0.500000  0.614625  0.952978  1
  B  B18  1  0.500000  0.972896  0.307760  1
  B  B19  1  0.500000  0.027104  0.692240  1
  B  B20  1  0.500000  0.472162  0.192004  1
  B  B21  1  0.500000  0.527838  0.807996  1
  Os  Os22  1  0.000000  0.639061  0.092867  1
  Os  Os23  1  0.000000  0.360939  0.907133  1
