# generated using pymatgen
data_K3Li2TaP3
_symmetry_space_group_name_H-M   'P 1'
_cell_length_a   9.80470921
_cell_length_b   9.80470782
_cell_length_c   14.98369400
_cell_angle_alpha   90.00000000
_cell_angle_beta   90.00000000
_cell_angle_gamma   142.70416572
_symmetry_Int_Tables_number   1
_chemical_formula_structural   K3Li2TaP3
_chemical_formula_sum   'K12 Li8 Ta4 P12'
_cell_volume   872.79274680
_cell_formula_units_Z   4
loop_
 _symmetry_equiv_pos_site_id
 _symmetry_equiv_pos_as_xyz
  1  'x, y, z'
loop_
 _atom_site_type_symbol
 _atom_site_label
 _atom_site_symmetry_multiplicity
 _atom_site_fract_x
 _atom_site_fract_y
 _atom_site_fract_z
 _atom_site_occupancy
  K  K0  1  0.110705  0.448120  0.672121  1
  K  K1  1  0.712418  0.712418  0.683354  1
  K  K2  1  0.212418  0.212418  0.816646  1
  K  K3  1  0.787582  0.787582  0.183354  1
  K  K4  1  0.948120  0.610705  0.827879  1
  K  K5  1  0.551880  0.889295  0.327879  1
  K  K6  1  0.389295  0.051880  0.172121  1
  K  K7  1  0.051880  0.389295  0.172121  1
  K  K8  1  0.889295  0.551880  0.327879  1
  K  K9  1  0.448120  0.110705  0.672121  1
  K  K10  1  0.610705  0.948121  0.827879  1
  K  K11  1  0.287582  0.287582  0.316646  1
  Li  Li12  1  0.917898  0.082102  0.000000  1
  Li  Li13  1  0.582102  0.417898  0.500000  1
  Li  Li14  1  0.082102  0.917898  0.000000  1
  Li  Li15  1  0.417898  0.582102  0.500000  1
  Li  Li16  1  0.751054  0.248946  0.000000  1
  Li  Li17  1  0.748946  0.251054  0.500000  1
  Li  Li18  1  0.248946  0.751054  0.000000  1
  Li  Li19  1  0.251054  0.748946  0.500000  1
  Ta  Ta20  1  0.083522  0.916478  0.500000  1
  Ta  Ta21  1  0.416478  0.583522  0.000000  1
  Ta  Ta22  1  0.916478  0.083522  0.500000  1
  Ta  Ta23  1  0.583522  0.416478  0.000000  1
  P  P24  1  0.884138  0.564759  0.090893  1
  P  P25  1  0.435241  0.115862  0.909107  1
  P  P26  1  0.615862  0.935241  0.590893  1
  P  P27  1  0.935241  0.615862  0.590893  1
  P  P28  1  0.115862  0.435241  0.909107  1
  P  P29  1  0.564759  0.884138  0.090893  1
  P  P30  1  0.384138  0.064759  0.409107  1
  P  P31  1  0.224701  0.224701  0.588939  1
  P  P32  1  0.724701  0.724701  0.911061  1
  P  P33  1  0.275299  0.275299  0.088939  1
  P  P34  1  0.064759  0.384138  0.409107  1
  P  P35  1  0.775299  0.775299  0.411061  1
