# generated using pymatgen
data_Lu6Zn17PIr6
_symmetry_space_group_name_H-M   'P 1'
_cell_length_a   8.96147901
_cell_length_b   8.96201690
_cell_length_c   8.96164000
_cell_angle_alpha   59.99588397
_cell_angle_beta   59.99868961
_cell_angle_gamma   59.99282793
_symmetry_Int_Tables_number   1
_chemical_formula_structural   Lu6Zn17PIr6
_chemical_formula_sum   'Lu6 Zn17 P1 Ir6'
_cell_volume   508.88141558
_cell_formula_units_Z   1
loop_
 _symmetry_equiv_pos_site_id
 _symmetry_equiv_pos_as_xyz
  1  'x, y, z'
loop_
 _atom_site_type_symbol
 _atom_site_label
 _atom_site_symmetry_multiplicity
 _atom_site_fract_x
 _atom_site_fract_y
 _atom_site_fract_z
 _atom_site_occupancy
  Lu  Lu0  1  0.717506  0.282598  0.282515  1
  Lu  Lu1  1  0.717404  0.282476  0.717506  1
  Lu  Lu2  1  0.717396  0.717389  0.282493  1
  Lu  Lu3  1  0.282494  0.717402  0.717485  1
  Lu  Lu4  1  0.282596  0.717524  0.282494  1
  Lu  Lu5  1  0.282604  0.282611  0.717507  1
  Zn  Zn6  1  0.626412  0.124534  0.124532  1
  Zn  Zn7  1  0.124535  0.626419  0.124541  1
  Zn  Zn8  1  0.124527  0.124535  0.626396  1
  Zn  Zn9  1  0.124521  0.124503  0.124550  1
  Zn  Zn10  1  0.373588  0.875466  0.875468  1
  Zn  Zn11  1  0.875465  0.373581  0.875459  1
  Zn  Zn12  1  0.875473  0.875465  0.373604  1
  Zn  Zn13  1  0.875479  0.875497  0.875450  1
  Zn  Zn14  1  0.000000  0.000000  0.000000  1
  Zn  Zn15  1  0.002949  0.332335  0.332363  1
  Zn  Zn16  1  0.332344  0.002939  0.332357  1
  Zn  Zn17  1  0.332377  0.332364  0.002888  1
  Zn  Zn18  1  0.332355  0.332354  0.332361  1
  Zn  Zn19  1  0.997051  0.667665  0.667637  1
  Zn  Zn20  1  0.667656  0.997061  0.667643  1
  Zn  Zn21  1  0.667623  0.667636  0.997112  1
  Zn  Zn22  1  0.667645  0.667646  0.667639  1
  P  P23  1  0.500000  0.500000  0.500000  1
  Ir  Ir24  1  0.500000  0.000000  0.000000  1
  Ir  Ir25  1  0.500000  0.000000  0.500000  1
  Ir  Ir26  1  0.500000  0.500000  0.000000  1
  Ir  Ir27  1  0.000000  0.500000  0.500000  1
  Ir  Ir28  1  0.000000  0.500000  0.000000  1
  Ir  Ir29  1  0.000000  0.000000  0.500000  1
