# generated using pymatgen
data_Na2ReCl6
_symmetry_space_group_name_H-M   'P 1'
_cell_length_a   7.04398400
_cell_length_b   6.64864553
_cell_length_c   11.35316800
_cell_angle_alpha   55.30143350
_cell_angle_beta   90.00000000
_cell_angle_gamma   90.00000000
_symmetry_Int_Tables_number   1
_chemical_formula_structural   Na2ReCl6
_chemical_formula_sum   'Na4 Re2 Cl12'
_cell_volume   437.14351663
_cell_formula_units_Z   2
loop_
 _symmetry_equiv_pos_site_id
 _symmetry_equiv_pos_as_xyz
  1  'x, y, z'
loop_
 _atom_site_type_symbol
 _atom_site_label
 _atom_site_symmetry_multiplicity
 _atom_site_fract_x
 _atom_site_fract_y
 _atom_site_fract_z
 _atom_site_occupancy
  Na  Na0  1  0.573378  0.768390  0.249806  1
  Na  Na1  1  0.926622  0.768390  0.749806  1
  Na  Na2  1  0.426622  0.231610  0.750194  1
  Na  Na3  1  0.073378  0.231610  0.250194  1
  Re  Re4  1  0.000000  0.500000  0.500000  1
  Re  Re5  1  0.500000  0.500000  0.000000  1
  Cl  Cl6  1  0.820684  0.842592  0.451740  1
  Cl  Cl7  1  0.179316  0.157408  0.548260  1
  Cl  Cl8  1  0.476211  0.350378  0.245105  1
  Cl  Cl9  1  0.320684  0.157408  0.048260  1
  Cl  Cl10  1  0.523789  0.649622  0.754895  1
  Cl  Cl11  1  0.976211  0.649622  0.254895  1
  Cl  Cl12  1  0.212090  0.720175  0.952512  1
  Cl  Cl13  1  0.287910  0.720175  0.452512  1
  Cl  Cl14  1  0.787910  0.279825  0.047488  1
  Cl  Cl15  1  0.712090  0.279825  0.547488  1
  Cl  Cl16  1  0.023789  0.350378  0.745105  1
  Cl  Cl17  1  0.679316  0.842592  0.951740  1
