# generated using pymatgen
data_LuUInIrRu
_symmetry_space_group_name_H-M   'P 1'
_cell_length_a   7.68195416
_cell_length_b   7.68195408
_cell_length_c   3.48335300
_cell_angle_alpha   90.00000000
_cell_angle_beta   90.00000000
_cell_angle_gamma   84.43464176
_symmetry_Int_Tables_number   1
_chemical_formula_structural   LuUInIrRu
_chemical_formula_sum   'Lu2 U2 In2 Ir2 Ru2'
_cell_volume   204.59211684
_cell_formula_units_Z   2
loop_
 _symmetry_equiv_pos_site_id
 _symmetry_equiv_pos_as_xyz
  1  'x, y, z'
loop_
 _atom_site_type_symbol
 _atom_site_label
 _atom_site_symmetry_multiplicity
 _atom_site_fract_x
 _atom_site_fract_y
 _atom_site_fract_z
 _atom_site_occupancy
  Lu  Lu0  1  0.672086  0.172086  0.500000  1
  Lu  Lu1  1  0.327914  0.827914  0.500000  1
  U  U2  1  0.175716  0.324284  0.500000  1
  U  U3  1  0.824284  0.675716  0.500000  1
  In  In4  1  0.500000  0.500000  0.000000  1
  In  In5  1  0.000000  0.000000  0.000000  1
  Ir  Ir6  1  0.124162  0.624162  0.000000  1
  Ir  Ir7  1  0.875838  0.375838  0.000000  1
  Ru  Ru8  1  0.650230  0.849770  0.000000  1
  Ru  Ru9  1  0.349770  0.150230  0.000000  1
