# generated using pymatgen
data_Y4Tm3CoI12
_symmetry_space_group_name_H-M   'P 1'
_cell_length_a   9.72020847
_cell_length_b   9.72020964
_cell_length_c   9.72020861
_cell_angle_alpha   106.79207447
_cell_angle_beta   106.79208402
_cell_angle_gamma   106.79207340
_symmetry_Int_Tables_number   1
_chemical_formula_structural   Y4Tm3CoI12
_chemical_formula_sum   'Y4 Tm3 Co1 I12'
_cell_volume   769.14024611
_cell_formula_units_Z   1
loop_
 _symmetry_equiv_pos_site_id
 _symmetry_equiv_pos_as_xyz
  1  'x, y, z'
loop_
 _atom_site_type_symbol
 _atom_site_label
 _atom_site_symmetry_multiplicity
 _atom_site_fract_x
 _atom_site_fract_y
 _atom_site_fract_z
 _atom_site_occupancy
  Y  Y0  1  0.499048  0.499048  0.499048  1
  Y  Y1  1  0.020676  0.091189  0.289273  1
  Y  Y2  1  0.091189  0.289273  0.020676  1
  Y  Y3  1  0.289273  0.020676  0.091189  1
  Tm  Tm4  1  0.978959  0.909044  0.717849  1
  Tm  Tm5  1  0.909044  0.717849  0.978959  1
  Tm  Tm6  1  0.717849  0.978959  0.909044  1
  Co  Co7  1  0.001034  0.001034  0.001034  1
  I  I8  1  0.158241  0.462320  0.385226  1
  I  I9  1  0.462320  0.385226  0.158241  1
  I  I10  1  0.385226  0.158241  0.462320  1
  I  I11  1  0.840898  0.540127  0.616595  1
  I  I12  1  0.540127  0.616595  0.840898  1
  I  I13  1  0.616595  0.840898  0.540127  1
  I  I14  1  0.674806  0.069862  0.220306  1
  I  I15  1  0.069862  0.220306  0.674806  1
  I  I16  1  0.220306  0.674806  0.069862  1
  I  I17  1  0.322286  0.928612  0.773649  1
  I  I18  1  0.928612  0.773649  0.322286  1
  I  I19  1  0.773649  0.322286  0.928612  1
