# generated using pymatgen
data_Er4Tm8Ni4AgSn
_symmetry_space_group_name_H-M   'P 1'
_cell_length_a   8.26683329
_cell_length_b   8.26683254
_cell_length_c   8.26683342
_cell_angle_alpha   112.43754010
_cell_angle_beta   109.09096548
_cell_angle_gamma   106.93311422
_symmetry_Int_Tables_number   1
_chemical_formula_structural   Er4Tm8Ni4AgSn
_chemical_formula_sum   'Er4 Tm8 Ni4 Ag1 Sn1'
_cell_volume   433.88116795
_cell_formula_units_Z   1
loop_
 _symmetry_equiv_pos_site_id
 _symmetry_equiv_pos_as_xyz
  1  'x, y, z'
loop_
 _atom_site_type_symbol
 _atom_site_label
 _atom_site_symmetry_multiplicity
 _atom_site_fract_x
 _atom_site_fract_y
 _atom_site_fract_z
 _atom_site_occupancy
  Er  Er0  1  0.181336  0.793607  0.974944  1
  Er  Er1  1  0.818664  0.793607  0.612271  1
  Er  Er2  1  0.181336  0.206393  0.387729  1
  Er  Er3  1  0.818664  0.206393  0.025056  1
  Tm  Tm4  1  0.323337  0.129303  0.805966  1
  Tm  Tm5  1  0.676663  0.482630  0.805966  1
  Tm  Tm6  1  0.424375  0.724282  0.700093  1
  Tm  Tm7  1  0.575625  0.275718  0.299907  1
  Tm  Tm8  1  0.975811  0.275718  0.700093  1
  Tm  Tm9  1  0.024189  0.724282  0.299907  1
  Tm  Tm10  1  0.323337  0.517370  0.194034  1
  Tm  Tm11  1  0.676663  0.870697  0.194034  1
  Ni  Ni12  1  0.873061  0.873061  0.000000  1
  Ni  Ni13  1  0.126939  0.126939  0.000000  1
  Ni  Ni14  1  0.640885  0.500000  0.140885  1
  Ni  Ni15  1  0.359115  0.500000  0.859115  1
  Ag  Ag16  1  0.000000  0.500000  0.500000  1
  Sn  Sn17  1  0.500000  0.000000  0.500000  1
