# generated using pymatgen
data_Er8TmScIn6
_symmetry_space_group_name_H-M   'P 1'
_cell_length_a   5.99367861
_cell_length_b   9.10039729
_cell_length_c   9.10039700
_cell_angle_alpha   83.78481351
_cell_angle_beta   70.75591085
_cell_angle_gamma   70.75591265
_symmetry_Int_Tables_number   1
_chemical_formula_structural   Er8TmScIn6
_chemical_formula_sum   'Er8 Tm1 Sc1 In6'
_cell_volume   442.45722526
_cell_formula_units_Z   1
loop_
 _symmetry_equiv_pos_site_id
 _symmetry_equiv_pos_as_xyz
  1  'x, y, z'
loop_
 _atom_site_type_symbol
 _atom_site_label
 _atom_site_symmetry_multiplicity
 _atom_site_fract_x
 _atom_site_fract_y
 _atom_site_fract_z
 _atom_site_occupancy
  Er  Er0  1  0.719569  0.861642  0.699050  1
  Er  Er1  1  0.281090  0.138333  0.300955  1
  Er  Er2  1  0.780431  0.300950  0.138358  1
  Er  Er3  1  0.218910  0.699045  0.861667  1
  Er  Er4  1  0.579707  0.699234  0.138329  1
  Er  Er5  1  0.419733  0.300696  0.861755  1
  Er  Er6  1  0.080267  0.138245  0.699304  1
  Er  Er7  1  0.920293  0.861671  0.300766  1
  Tm  Tm8  1  0.750000  0.499817  0.500183  1
  Sc  Sc9  1  0.250000  0.500092  0.499908  1
  In  In10  1  0.162588  0.500340  0.178439  1
  In  In11  1  0.842454  0.499843  0.821380  1
  In  In12  1  0.337412  0.821561  0.499660  1
  In  In13  1  0.657546  0.178620  0.500157  1
  In  In14  1  0.250000  0.999697  0.000303  1
  In  In15  1  0.750000  0.000212  0.999788  1
