# generated using pymatgen
data_Sr4Sc2ReMoO12
_symmetry_space_group_name_H-M   'P 1'
_cell_length_a   5.69164554
_cell_length_b   5.75983222
_cell_length_c   9.91833469
_cell_angle_alpha   89.11348044
_cell_angle_beta   106.64458989
_cell_angle_gamma   119.55625917
_symmetry_Int_Tables_number   1
_chemical_formula_structural   Sr4Sc2ReMoO12
_chemical_formula_sum   'Sr4 Sc2 Re1 Mo1 O12'
_cell_volume   267.88365057
_cell_formula_units_Z   1
loop_
 _symmetry_equiv_pos_site_id
 _symmetry_equiv_pos_as_xyz
  1  'x, y, z'
loop_
 _atom_site_type_symbol
 _atom_site_label
 _atom_site_symmetry_multiplicity
 _atom_site_fract_x
 _atom_site_fract_y
 _atom_site_fract_z
 _atom_site_occupancy
  Sr  Sr0  1  0.750524  0.623947  0.382631  1
  Sr  Sr1  1  0.749386  0.127955  0.866100  1
  Sr  Sr2  1  0.250614  0.872045  0.133900  1
  Sr  Sr3  1  0.249476  0.376053  0.617369  1
  Sc  Sc4  1  0.999919  0.249887  0.253242  1
  Sc  Sc5  1  0.000081  0.750113  0.746758  1
  Re  Re6  1  0.500000  0.500000  0.000000  1
  Mo  Mo7  1  0.500000  0.000000  0.500000  1
  O  O8  1  0.740735  0.852233  0.118955  1
  O  O9  1  0.746164  0.379804  0.629689  1
  O  O10  1  0.253836  0.620196  0.370311  1
  O  O11  1  0.259265  0.147767  0.881045  1
  O  O12  1  0.196494  0.086671  0.394651  1
  O  O13  1  0.224462  0.607599  0.907896  1
  O  O14  1  0.803506  0.913329  0.605349  1
  O  O15  1  0.775538  0.392401  0.092104  1
  O  O16  1  0.697801  0.644836  0.861699  1
  O  O17  1  0.697149  0.147366  0.350913  1
  O  O18  1  0.302851  0.852634  0.649087  1
  O  O19  1  0.302199  0.355164  0.138301  1
