# generated using pymatgen
data_Li6TiNb5Rh12
_symmetry_space_group_name_H-M   'P 1'
_cell_length_a   4.37171500
_cell_length_b   6.08157100
_cell_length_c   13.04984100
_cell_angle_alpha   90.00000000
_cell_angle_beta   90.00043794
_cell_angle_gamma   90.00000000
_symmetry_Int_Tables_number   1
_chemical_formula_structural   Li6TiNb5Rh12
_chemical_formula_sum   'Li6 Ti1 Nb5 Rh12'
_cell_volume   346.95475457
_cell_formula_units_Z   1
loop_
 _symmetry_equiv_pos_site_id
 _symmetry_equiv_pos_as_xyz
  1  'x, y, z'
loop_
 _atom_site_type_symbol
 _atom_site_label
 _atom_site_symmetry_multiplicity
 _atom_site_fract_x
 _atom_site_fract_y
 _atom_site_fract_z
 _atom_site_occupancy
  Li  Li0  1  0.999993  0.499999  0.999540  1
  Li  Li1  1  0.499835  0.000000  0.166016  1
  Li  Li2  1  0.999812  0.499999  0.333319  1
  Li  Li3  1  0.499996  0.000000  0.500649  1
  Li  Li4  1  0.000181  0.499999  0.667145  1
  Li  Li5  1  0.500189  0.000000  0.833321  1
  Ti  Ti6  1  0.500177  0.499999  0.833335  1
  Nb  Nb7  1  0.000009  0.000000  0.997705  1
  Nb  Nb8  1  0.499829  0.499999  0.165578  1
  Nb  Nb9  1  0.999802  0.000000  0.333343  1
  Nb  Nb10  1  0.500001  0.499999  0.501092  1
  Nb  Nb11  1  0.000188  0.000000  0.668957  1
  Rh  Rh12  1  0.500003  0.252263  0.998479  1
  Rh  Rh13  1  0.500003  0.747737  0.998479  1
  Rh  Rh14  1  0.999819  0.249768  0.166691  1
  Rh  Rh15  1  0.999819  0.750232  0.166691  1
  Rh  Rh16  1  0.499818  0.249848  0.333329  1
  Rh  Rh17  1  0.499818  0.750152  0.333329  1
  Rh  Rh18  1  0.999998  0.249771  0.499965  1
  Rh  Rh19  1  0.999998  0.750229  0.499965  1
  Rh  Rh20  1  0.500178  0.252268  0.668200  1
  Rh  Rh21  1  0.500178  0.747732  0.668200  1
  Rh  Rh22  1  0.000180  0.254523  0.833337  1
  Rh  Rh23  1  0.000180  0.745477  0.833337  1
