# generated using pymatgen
data_MnV2P2Rh
_symmetry_space_group_name_H-M   'P 1'
_cell_length_a   3.57784000
_cell_length_b   6.02878378
_cell_length_c   6.94299130
_cell_angle_alpha   89.09061074
_cell_angle_beta   90.00000000
_cell_angle_gamma   90.00000000
_symmetry_Int_Tables_number   1
_chemical_formula_structural   MnV2P2Rh
_chemical_formula_sum   'Mn2 V4 P4 Rh2'
_cell_volume   149.74162420
_cell_formula_units_Z   2
loop_
 _symmetry_equiv_pos_site_id
 _symmetry_equiv_pos_as_xyz
  1  'x, y, z'
loop_
 _atom_site_type_symbol
 _atom_site_label
 _atom_site_symmetry_multiplicity
 _atom_site_fract_x
 _atom_site_fract_y
 _atom_site_fract_z
 _atom_site_occupancy
  Mn  Mn0  1  0.750000  0.856262  0.442317  1
  Mn  Mn1  1  0.250000  0.143749  0.557666  1
  V  V2  1  0.750000  0.980196  0.818238  1
  V  V3  1  0.250000  0.531381  0.340796  1
  V  V4  1  0.250000  0.019798  0.181774  1
  V  V5  1  0.750000  0.468626  0.659204  1
  P  P6  1  0.250000  0.772617  0.616667  1
  P  P7  1  0.750000  0.227425  0.383330  1
  P  P8  1  0.250000  0.255006  0.862728  1
  P  P9  1  0.750000  0.744967  0.137269  1
  Rh  Rh10  1  0.750000  0.348995  0.068084  1
  Rh  Rh11  1  0.250000  0.650979  0.931928  1
