# generated using pymatgen
data_La4TbSn15Ir8
_symmetry_space_group_name_H-M   'P 1'
_cell_length_a   4.53054300
_cell_length_b   7.35612410
_cell_length_c   18.77003200
_cell_angle_alpha   89.90048176
_cell_angle_beta   90.00000000
_cell_angle_gamma   90.00000000
_symmetry_Int_Tables_number   1
_chemical_formula_structural   La4TbSn15Ir8
_chemical_formula_sum   'La4 Tb1 Sn15 Ir8'
_cell_volume   625.55235256
_cell_formula_units_Z   1
loop_
 _symmetry_equiv_pos_site_id
 _symmetry_equiv_pos_as_xyz
  1  'x, y, z'
loop_
 _atom_site_type_symbol
 _atom_site_label
 _atom_site_symmetry_multiplicity
 _atom_site_fract_x
 _atom_site_fract_y
 _atom_site_fract_z
 _atom_site_occupancy
  La  La0  1  0.500000  0.001865  0.856163  1
  La  La1  1  0.500000  0.498921  0.357532  1
  La  La2  1  0.000000  0.998933  0.143616  1
  La  La3  1  0.000000  0.501672  0.641985  1
  Tb  Tb4  1  0.500000  0.488091  0.931311  1
  Sn  Sn5  1  0.000000  0.717552  0.806294  1
  Sn  Sn6  1  0.000000  0.780334  0.306609  1
  Sn  Sn7  1  0.500000  0.277979  0.193489  1
  Sn  Sn8  1  0.500000  0.219038  0.692892  1
  Sn  Sn9  1  0.000000  0.852979  0.969371  1
  Sn  Sn10  1  0.000000  0.633213  0.468021  1
  Sn  Sn11  1  0.500000  0.135792  0.031811  1
  Sn  Sn12  1  0.500000  0.365177  0.531428  1
  Sn  Sn13  1  0.000000  0.307438  0.819166  1
  Sn  Sn14  1  0.000000  0.197932  0.317663  1
  Sn  Sn15  1  0.500000  0.696534  0.185447  1
  Sn  Sn16  1  0.500000  0.808340  0.679341  1
  Sn  Sn17  1  0.500000  0.020376  0.433451  1
  Sn  Sn18  1  0.000000  0.513173  0.066773  1
  Sn  Sn19  1  0.000000  0.980292  0.567844  1
  Ir  Ir20  1  0.000000  0.233523  0.963988  1
  Ir  Ir21  1  0.000000  0.248311  0.464325  1
  Ir  Ir22  1  0.500000  0.762066  0.043224  1
  Ir  Ir23  1  0.500000  0.750441  0.533816  1
  Ir  Ir24  1  0.000000  0.018541  0.715760  1
  Ir  Ir25  1  0.000000  0.483484  0.214482  1
  Ir  Ir26  1  0.500000  0.987493  0.288435  1
  Ir  Ir27  1  0.500000  0.520509  0.775767  1
