# generated using pymatgen
data_LuFeCoO5
_symmetry_space_group_name_H-M   'P 1'
_cell_length_a   5.75105700
_cell_length_b   7.14422600
_cell_length_c   8.42855800
_cell_angle_alpha   90.00000000
_cell_angle_beta   90.00000000
_cell_angle_gamma   90.00000000
_symmetry_Int_Tables_number   1
_chemical_formula_structural   LuFeCoO5
_chemical_formula_sum   'Lu4 Fe4 Co4 O20'
_cell_volume   346.30290624
_cell_formula_units_Z   4
loop_
 _symmetry_equiv_pos_site_id
 _symmetry_equiv_pos_as_xyz
  1  'x, y, z'
loop_
 _atom_site_type_symbol
 _atom_site_label
 _atom_site_symmetry_multiplicity
 _atom_site_fract_x
 _atom_site_fract_y
 _atom_site_fract_z
 _atom_site_occupancy
  Lu  Lu0  1  0.000000  0.132857  0.168719  1
  Lu  Lu1  1  0.000000  0.867143  0.831281  1
  Lu  Lu2  1  0.000000  0.632857  0.331281  1
  Lu  Lu3  1  0.000000  0.367143  0.668719  1
  Fe  Fe4  1  0.500000  0.394328  0.350873  1
  Fe  Fe5  1  0.500000  0.605672  0.649127  1
  Fe  Fe6  1  0.500000  0.894328  0.149127  1
  Fe  Fe7  1  0.500000  0.105672  0.850873  1
  Co  Co8  1  0.247903  0.000000  0.500000  1
  Co  Co9  1  0.752097  0.500000  0.000000  1
  Co  Co10  1  0.752097  0.000000  0.500000  1
  Co  Co11  1  0.247903  0.500000  0.000000  1
  O  O12  1  0.261110  0.000000  0.000000  1
  O  O13  1  0.738890  0.500000  0.500000  1
  O  O14  1  0.738890  0.000000  0.000000  1
  O  O15  1  0.261110  0.500000  0.500000  1
  O  O16  1  0.000000  0.161964  0.440950  1
  O  O17  1  0.000000  0.838036  0.559050  1
  O  O18  1  0.000000  0.661964  0.059050  1
  O  O19  1  0.000000  0.338036  0.940950  1
  O  O20  1  0.500000  0.146393  0.428998  1
  O  O21  1  0.500000  0.853607  0.571002  1
  O  O22  1  0.500000  0.646393  0.071002  1
  O  O23  1  0.500000  0.353607  0.928998  1
  O  O24  1  0.235980  0.390697  0.202671  1
  O  O25  1  0.235980  0.609303  0.797329  1
  O  O26  1  0.764020  0.890697  0.297329  1
  O  O27  1  0.764020  0.109303  0.702671  1
  O  O28  1  0.764020  0.609303  0.797329  1
  O  O29  1  0.764020  0.390697  0.202671  1
  O  O30  1  0.235980  0.109303  0.702671  1
  O  O31  1  0.235980  0.890697  0.297329  1
