# generated using pymatgen
data_Tm6MnB14Ru
_symmetry_space_group_name_H-M   'P 1'
_cell_length_a   7.93885505
_cell_length_b   7.93885541
_cell_length_c   9.22217400
_cell_angle_alpha   90.00000000
_cell_angle_beta   90.00000000
_cell_angle_gamma   154.93228339
_symmetry_Int_Tables_number   1
_chemical_formula_structural   Tm6MnB14Ru
_chemical_formula_sum   'Tm6 Mn1 B14 Ru1'
_cell_volume   246.26142030
_cell_formula_units_Z   1
loop_
 _symmetry_equiv_pos_site_id
 _symmetry_equiv_pos_as_xyz
  1  'x, y, z'
loop_
 _atom_site_type_symbol
 _atom_site_label
 _atom_site_symmetry_multiplicity
 _atom_site_fract_x
 _atom_site_fract_y
 _atom_site_fract_z
 _atom_site_occupancy
  Tm  Tm0  1  0.894554  0.105446  0.443257  1
  Tm  Tm1  1  0.104911  0.895089  0.563043  1
  Tm  Tm2  1  0.894554  0.105446  0.056743  1
  Tm  Tm3  1  0.104911  0.895089  0.936957  1
  Tm  Tm4  1  0.244364  0.755636  0.250000  1
  Tm  Tm5  1  0.758906  0.241094  0.750000  1
  Mn  Mn6  1  0.947094  0.052906  0.750000  1
  B  B7  1  0.727424  0.272576  0.466410  1
  B  B8  1  0.272166  0.727834  0.534255  1
  B  B9  1  0.727424  0.272576  0.033590  1
  B  B10  1  0.272166  0.727834  0.965745  1
  B  B11  1  0.631991  0.368009  0.150090  1
  B  B12  1  0.369719  0.630281  0.846743  1
  B  B13  1  0.631991  0.368009  0.349910  1
  B  B14  1  0.369719  0.630281  0.653257  1
  B  B15  1  0.519575  0.480425  0.094847  1
  B  B16  1  0.479179  0.520821  0.902316  1
  B  B17  1  0.519575  0.480425  0.405153  1
  B  B18  1  0.479179  0.520821  0.597684  1
  B  B19  1  0.454215  0.545785  0.250000  1
  B  B20  1  0.542911  0.457089  0.750000  1
  Ru  Ru21  1  0.053474  0.946526  0.250000  1
