# generated using pymatgen
data_Ta3MnFe3MoP4
_symmetry_space_group_name_H-M   'P 1'
_cell_length_a   3.60427700
_cell_length_b   6.10184626
_cell_length_c   6.92888204
_cell_angle_alpha   90.09794059
_cell_angle_beta   90.00000000
_cell_angle_gamma   90.00000000
_symmetry_Int_Tables_number   1
_chemical_formula_structural   Ta3MnFe3MoP4
_chemical_formula_sum   'Ta3 Mn1 Fe3 Mo1 P4'
_cell_volume   152.38490712
_cell_formula_units_Z   1
loop_
 _symmetry_equiv_pos_site_id
 _symmetry_equiv_pos_as_xyz
  1  'x, y, z'
loop_
 _atom_site_type_symbol
 _atom_site_label
 _atom_site_symmetry_multiplicity
 _atom_site_fract_x
 _atom_site_fract_y
 _atom_site_fract_z
 _atom_site_occupancy
  Ta  Ta0  1  0.250000  0.525357  0.325871  1
  Ta  Ta1  1  0.250000  0.019849  0.175071  1
  Ta  Ta2  1  0.750000  0.477317  0.677886  1
  Mn  Mn3  1  0.750000  0.857663  0.438168  1
  Fe  Fe4  1  0.750000  0.355874  0.062400  1
  Fe  Fe5  1  0.250000  0.641052  0.937213  1
  Fe  Fe6  1  0.250000  0.145153  0.561224  1
  Mo  Mo7  1  0.750000  0.978064  0.825520  1
  P  P8  1  0.250000  0.780375  0.624587  1
  P  P9  1  0.750000  0.223189  0.378583  1
  P  P10  1  0.250000  0.274035  0.877965  1
  P  P11  1  0.750000  0.722068  0.115512  1
