# generated using pymatgen
data_Pa4In2Ir3Pd
_symmetry_space_group_name_H-M   'P 1'
_cell_length_a   7.78736422
_cell_length_b   7.78736422
_cell_length_c   3.60991800
_cell_angle_alpha   90.00000000
_cell_angle_beta   90.00000000
_cell_angle_gamma   90.21900442
_symmetry_Int_Tables_number   1
_chemical_formula_structural   Pa4In2Ir3Pd
_chemical_formula_sum   'Pa4 In2 Ir3 Pd1'
_cell_volume   218.91480796
_cell_formula_units_Z   1
loop_
 _symmetry_equiv_pos_site_id
 _symmetry_equiv_pos_as_xyz
  1  'x, y, z'
loop_
 _atom_site_type_symbol
 _atom_site_label
 _atom_site_symmetry_multiplicity
 _atom_site_fract_x
 _atom_site_fract_y
 _atom_site_fract_z
 _atom_site_occupancy
  Pa  Pa0  1  0.320320  0.833204  0.500000  1
  Pa  Pa1  1  0.838954  0.661046  0.500000  1
  Pa  Pa2  1  0.173260  0.326740  0.500000  1
  Pa  Pa3  1  0.666796  0.179680  0.500000  1
  In  In4  1  0.995106  0.000856  0.000000  1
  In  In5  1  0.499144  0.504894  0.000000  1
  Ir  Ir6  1  0.371434  0.128566  0.000000  1
  Ir  Ir7  1  0.866350  0.366035  0.000000  1
  Ir  Ir8  1  0.133965  0.633650  0.000000  1
  Pd  Pd9  1  0.634670  0.865330  0.000000  1
