# generated using pymatgen
data_ThCoSiNi3
_symmetry_space_group_name_H-M   'P 1'
_cell_length_a   4.85842327
_cell_length_b   5.15192345
_cell_length_c   4.01712900
_cell_angle_alpha   90.00000000
_cell_angle_beta   90.00000000
_cell_angle_gamma   122.69807763
_symmetry_Int_Tables_number   1
_chemical_formula_structural   ThCoSiNi3
_chemical_formula_sum   'Th1 Co1 Si1 Ni3'
_cell_volume   84.61543018
_cell_formula_units_Z   1
loop_
 _symmetry_equiv_pos_site_id
 _symmetry_equiv_pos_as_xyz
  1  'x, y, z'
loop_
 _atom_site_type_symbol
 _atom_site_label
 _atom_site_symmetry_multiplicity
 _atom_site_fract_x
 _atom_site_fract_y
 _atom_site_fract_z
 _atom_site_occupancy
  Th  Th0  1  0.500000  0.500000  0.000000  1
  Co  Co1  1  0.000000  0.500000  0.500000  1
  Si  Si2  1  0.500000  0.000000  0.500000  1
  Ni  Ni3  1  0.000000  0.000000  0.500000  1
  Ni  Ni4  1  0.177162  0.836490  0.000000  1
  Ni  Ni5  1  0.822838  0.163510  0.000000  1
