# generated using pymatgen
data_HfGaNi3Au
_symmetry_space_group_name_H-M   'P 1'
_cell_length_a   4.96377488
_cell_length_b   4.96377400
_cell_length_c   4.84660475
_cell_angle_alpha   59.19700014
_cell_angle_beta   59.19700385
_cell_angle_gamma   59.99999244
_symmetry_Int_Tables_number   1
_chemical_formula_structural   HfGaNi3Au
_chemical_formula_sum   'Hf1 Ga1 Ni3 Au1'
_cell_volume   83.40026910
_cell_formula_units_Z   1
loop_
 _symmetry_equiv_pos_site_id
 _symmetry_equiv_pos_as_xyz
  1  'x, y, z'
loop_
 _atom_site_type_symbol
 _atom_site_label
 _atom_site_symmetry_multiplicity
 _atom_site_fract_x
 _atom_site_fract_y
 _atom_site_fract_z
 _atom_site_occupancy
  Hf  Hf0  1  0.005175  0.005175  0.984475  1
  Ga  Ga1  1  0.622487  0.622487  0.132538  1
  Ni  Ni2  1  0.623659  0.123734  0.628945  1
  Ni  Ni3  1  0.123734  0.623659  0.628945  1
  Ni  Ni4  1  0.623659  0.623659  0.628945  1
  Au  Au5  1  0.251284  0.251284  0.246149  1
