# generated using pymatgen
data_Rb3Dy(VSe4)2
_symmetry_space_group_name_H-M   'P 1'
_cell_length_a   9.79753223
_cell_length_b   10.61073928
_cell_length_c   11.31568557
_cell_angle_alpha   106.85604696
_cell_angle_beta   103.86650161
_cell_angle_gamma   114.38964569
_symmetry_Int_Tables_number   1
_chemical_formula_structural   Rb3Dy(VSe4)2
_chemical_formula_sum   'Rb6 Dy2 V4 Se16'
_cell_volume   934.13432672
_cell_formula_units_Z   2
loop_
 _symmetry_equiv_pos_site_id
 _symmetry_equiv_pos_as_xyz
  1  'x, y, z'
loop_
 _atom_site_type_symbol
 _atom_site_label
 _atom_site_symmetry_multiplicity
 _atom_site_fract_x
 _atom_site_fract_y
 _atom_site_fract_z
 _atom_site_occupancy
  Rb  Rb0  1  0.499967  0.499989  0.999991  1
  Rb  Rb1  1  0.999990  0.500004  0.999990  1
  Rb  Rb2  1  0.258313  0.008337  0.016770  1
  Rb  Rb3  1  0.486816  0.736862  0.473720  1
  Rb  Rb4  1  0.513132  0.263131  0.526268  1
  Rb  Rb5  1  0.741649  0.991651  0.983231  1
  Dy  Dy6  1  0.992085  0.242086  0.484261  1
  Dy  Dy7  1  0.007936  0.757923  0.515733  1
  V  V8  1  0.002189  0.907824  0.256633  1
  V  V9  1  0.754691  0.348942  0.256818  1
  V  V10  1  0.245516  0.651143  0.743294  1
  V  V11  1  0.997786  0.092157  0.743342  1
  Se  Se12  1  0.883536  0.760303  0.029939  1
  Se  Se13  1  0.646306  0.269394  0.030137  1
  Se  Se14  1  0.130004  0.164394  0.296891  1
  Se  Se15  1  0.666806  0.132456  0.296801  1
  Se  Se16  1  0.034396  0.480403  0.346615  1
  Se  Se17  1  0.812007  0.865990  0.346372  1
  Se  Se18  1  0.191610  0.854211  0.357567  1
  Se  Se19  1  0.666061  0.503378  0.357474  1
  Se  Se20  1  0.333991  0.496617  0.642478  1
  Se  Se21  1  0.808343  0.145751  0.642409  1
  Se  Se22  1  0.187952  0.133999  0.653598  1
  Se  Se23  1  0.965621  0.519577  0.653329  1
  Se  Se24  1  0.333187  0.867585  0.703200  1
  Se  Se25  1  0.869966  0.835583  0.703081  1
  Se  Se26  1  0.353735  0.730630  0.969998  1
  Se  Se27  1  0.116410  0.239678  0.970058  1
