# generated using pymatgen
data_FeCo2Rh3O8
_symmetry_space_group_name_H-M   'P 1'
_cell_length_a   6.15102756
_cell_length_b   6.01124524
_cell_length_c   6.15102800
_cell_angle_alpha   59.22775090
_cell_angle_beta   59.99999764
_cell_angle_gamma   59.22774851
_symmetry_Int_Tables_number   1
_chemical_formula_structural   FeCo2Rh3O8
_chemical_formula_sum   'Fe1 Co2 Rh3 O8'
_cell_volume   158.91892433
_cell_formula_units_Z   1
loop_
 _symmetry_equiv_pos_site_id
 _symmetry_equiv_pos_as_xyz
  1  'x, y, z'
loop_
 _atom_site_type_symbol
 _atom_site_label
 _atom_site_symmetry_multiplicity
 _atom_site_fract_x
 _atom_site_fract_y
 _atom_site_fract_z
 _atom_site_occupancy
  Fe  Fe0  1  0.375000  0.875000  0.375000  1
  Co  Co1  1  0.752363  0.742912  0.752363  1
  Co  Co2  1  0.997637  0.007088  0.997637  1
  Rh  Rh3  1  0.875000  0.375000  0.375000  1
  Rh  Rh4  1  0.375000  0.375000  0.875000  1
  Rh  Rh5  1  0.375000  0.375000  0.375000  1
  O  O6  1  0.597067  0.131085  0.135924  1
  O  O7  1  0.135648  0.593057  0.135648  1
  O  O8  1  0.135924  0.131085  0.597067  1
  O  O9  1  0.135924  0.131085  0.135924  1
  O  O10  1  0.152933  0.618915  0.614076  1
  O  O11  1  0.614352  0.156943  0.614352  1
  O  O12  1  0.614076  0.618915  0.152933  1
  O  O13  1  0.614076  0.618915  0.614076  1
