# generated using pymatgen
data_Tb2Zn14Co2Ni
_symmetry_space_group_name_H-M   'P 1'
_cell_length_a   6.69444699
_cell_length_b   6.69444658
_cell_length_c   6.68481000
_cell_angle_alpha   82.87117043
_cell_angle_beta   97.12871700
_cell_angle_gamma   97.34483107
_symmetry_Int_Tables_number   1
_chemical_formula_structural   Tb2Zn14Co2Ni
_chemical_formula_sum   'Tb2 Zn14 Co2 Ni1'
_cell_volume   293.04035618
_cell_formula_units_Z   1
loop_
 _symmetry_equiv_pos_site_id
 _symmetry_equiv_pos_as_xyz
  1  'x, y, z'
loop_
 _atom_site_type_symbol
 _atom_site_label
 _atom_site_symmetry_multiplicity
 _atom_site_fract_x
 _atom_site_fract_y
 _atom_site_fract_z
 _atom_site_occupancy
  Tb  Tb0  1  0.663562  0.336437  0.333918  1
  Tb  Tb1  1  0.336437  0.663562  0.666082  1
  Zn  Zn2  1  0.289534  0.289534  0.000000  1
  Zn  Zn3  1  0.710466  0.710466  0.000000  1
  Zn  Zn4  1  0.892521  0.107477  0.102578  1
  Zn  Zn5  1  0.346505  0.653496  0.145383  1
  Zn  Zn6  1  0.000732  0.705112  0.294765  1
  Zn  Zn7  1  0.294888  0.999268  0.294766  1
  Zn  Zn8  1  0.653050  0.852294  0.345865  1
  Zn  Zn9  1  0.147706  0.346950  0.345867  1
  Zn  Zn10  1  0.852294  0.653050  0.654133  1
  Zn  Zn11  1  0.346950  0.147705  0.654134  1
  Zn  Zn12  1  0.999268  0.294888  0.705233  1
  Zn  Zn13  1  0.705112  0.000732  0.705234  1
  Zn  Zn14  1  0.653496  0.346504  0.854617  1
  Zn  Zn15  1  0.107477  0.892523  0.897422  1
  Co  Co16  1  0.500000  0.000000  0.000000  1
  Co  Co17  1  0.000000  0.499999  0.000000  1
  Ni  Ni18  1  0.000000  0.000000  0.500000  1
