# generated using pymatgen
data_YbSm6NiBr12
_symmetry_space_group_name_H-M   'P 1'
_cell_length_a   9.38488425
_cell_length_b   9.38488384
_cell_length_c   9.38488363
_cell_angle_alpha   106.76770968
_cell_angle_beta   106.76771887
_cell_angle_gamma   106.76771202
_symmetry_Int_Tables_number   1
_chemical_formula_structural   YbSm6NiBr12
_chemical_formula_sum   'Yb1 Sm6 Ni1 Br12'
_cell_volume   692.70230572
_cell_formula_units_Z   1
loop_
 _symmetry_equiv_pos_site_id
 _symmetry_equiv_pos_as_xyz
  1  'x, y, z'
loop_
 _atom_site_type_symbol
 _atom_site_label
 _atom_site_symmetry_multiplicity
 _atom_site_fract_x
 _atom_site_fract_y
 _atom_site_fract_z
 _atom_site_occupancy
  Yb  Yb0  1  0.500000  0.500000  0.500000  1
  Sm  Sm1  1  0.102747  0.023899  0.310033  1
  Sm  Sm2  1  0.023899  0.310033  0.102747  1
  Sm  Sm3  1  0.310033  0.102747  0.023899  1
  Sm  Sm4  1  0.897252  0.976101  0.689967  1
  Sm  Sm5  1  0.976101  0.689967  0.897252  1
  Sm  Sm6  1  0.689967  0.897252  0.976101  1
  Ni  Ni7  1  0.000000  0.000000  0.000000  1
  Br  Br8  1  0.074371  0.680959  0.221417  1
  Br  Br9  1  0.680959  0.221417  0.074371  1
  Br  Br10  1  0.221417  0.074371  0.680959  1
  Br  Br11  1  0.925629  0.319041  0.778583  1
  Br  Br12  1  0.319041  0.778583  0.925629  1
  Br  Br13  1  0.778583  0.925629  0.319041  1
  Br  Br14  1  0.454908  0.162817  0.377861  1
  Br  Br15  1  0.162817  0.377861  0.454908  1
  Br  Br16  1  0.377861  0.454908  0.162817  1
  Br  Br17  1  0.545092  0.837183  0.622139  1
  Br  Br18  1  0.837183  0.622139  0.545092  1
  Br  Br19  1  0.622139  0.545092  0.837183  1
