# generated using pymatgen
data_Tb3ErZn2Ir3
_symmetry_space_group_name_H-M   'P 1'
_cell_length_a   7.36154701
_cell_length_b   7.36869838
_cell_length_c   3.99725700
_cell_angle_alpha   90.00000000
_cell_angle_beta   90.00000000
_cell_angle_gamma   120.03214479
_symmetry_Int_Tables_number   1
_chemical_formula_structural   Tb3ErZn2Ir3
_chemical_formula_sum   'Tb3 Er1 Zn2 Ir3'
_cell_volume   187.72054608
_cell_formula_units_Z   1
loop_
 _symmetry_equiv_pos_site_id
 _symmetry_equiv_pos_as_xyz
  1  'x, y, z'
loop_
 _atom_site_type_symbol
 _atom_site_label
 _atom_site_symmetry_multiplicity
 _atom_site_fract_x
 _atom_site_fract_y
 _atom_site_fract_z
 _atom_site_occupancy
  Tb  Tb0  1  0.438711  0.418583  0.000000  1
  Tb  Tb1  1  0.561289  0.979872  0.000000  1
  Tb  Tb2  1  0.000000  0.617337  0.000000  1
  Er  Er3  1  0.000000  0.240701  0.500000  1
  Zn  Zn4  1  0.745045  0.751022  0.500000  1
  Zn  Zn5  1  0.254955  0.005977  0.500000  1
  Ir  Ir6  1  0.000000  0.991833  0.000000  1
  Ir  Ir7  1  0.329540  0.662108  0.500000  1
  Ir  Ir8  1  0.670460  0.332566  0.500000  1
