# generated using pymatgen
data_SmPa2As4Pd7
_symmetry_space_group_name_H-M   'P 1'
_cell_length_a   8.10824290
_cell_length_b   8.10824216
_cell_length_c   9.66922027
_cell_angle_alpha   55.60174913
_cell_angle_beta   55.60175169
_cell_angle_gamma   29.95781534
_symmetry_Int_Tables_number   1
_chemical_formula_structural   SmPa2As4Pd7
_chemical_formula_sum   'Sm1 Pa2 As4 Pd7'
_cell_volume   257.49657154
_cell_formula_units_Z   1
loop_
 _symmetry_equiv_pos_site_id
 _symmetry_equiv_pos_as_xyz
  1  'x, y, z'
loop_
 _atom_site_type_symbol
 _atom_site_label
 _atom_site_symmetry_multiplicity
 _atom_site_fract_x
 _atom_site_fract_y
 _atom_site_fract_z
 _atom_site_occupancy
  Sm  Sm0  1  0.316972  0.316972  0.680126  1
  Pa  Pa1  1  0.679005  0.679005  0.326767  1
  Pa  Pa2  1  0.000970  0.000970  0.998856  1
  As  As3  1  0.346976  0.346976  0.241638  1
  As  As4  1  0.652039  0.652039  0.760125  1
  As  As5  1  0.895234  0.895234  0.827702  1
  As  As6  1  0.105497  0.105497  0.174678  1
  Pd  Pd7  1  0.310000  0.310000  0.020866  1
  Pd  Pd8  1  0.690803  0.690803  0.984464  1
  Pd  Pd9  1  0.514812  0.514812  0.692477  1
  Pd  Pd10  1  0.830851  0.830851  0.428901  1
  Pd  Pd11  1  0.488080  0.488080  0.302243  1
  Pd  Pd12  1  0.166138  0.166138  0.560825  1
  Pd  Pd13  1  0.002624  0.002624  0.500332  1
