# generated using pymatgen
data_Er12CuSi8Ni3
_symmetry_space_group_name_H-M   'P 1'
_cell_length_a   4.11413000
_cell_length_b   11.13981519
_cell_length_c   11.15683118
_cell_angle_alpha   89.97906180
_cell_angle_beta   90.00000000
_cell_angle_gamma   90.00000000
_symmetry_Int_Tables_number   1
_chemical_formula_structural   Er12CuSi8Ni3
_chemical_formula_sum   'Er12 Cu1 Si8 Ni3'
_cell_volume   511.32476709
_cell_formula_units_Z   1
loop_
 _symmetry_equiv_pos_site_id
 _symmetry_equiv_pos_as_xyz
  1  'x, y, z'
loop_
 _atom_site_type_symbol
 _atom_site_label
 _atom_site_symmetry_multiplicity
 _atom_site_fract_x
 _atom_site_fract_y
 _atom_site_fract_z
 _atom_site_occupancy
  Er  Er0  1  0.250000  0.378996  0.056808  1
  Er  Er1  1  0.750000  0.625479  0.942687  1
  Er  Er2  1  0.750000  0.874916  0.442019  1
  Er  Er3  1  0.250000  0.124637  0.557546  1
  Er  Er4  1  0.250000  0.695755  0.215105  1
  Er  Er5  1  0.750000  0.304419  0.785157  1
  Er  Er6  1  0.750000  0.197606  0.288883  1
  Er  Er7  1  0.250000  0.803335  0.714678  1
  Er  Er8  1  0.250000  0.440071  0.381221  1
  Er  Er9  1  0.750000  0.559591  0.617838  1
  Er  Er10  1  0.750000  0.936434  0.118211  1
  Er  Er11  1  0.250000  0.057713  0.878707  1
  Cu  Cu12  1  0.250000  0.134307  0.130279  1
  Si  Si13  1  0.250000  0.686626  0.475971  1
  Si  Si14  1  0.750000  0.313005  0.524465  1
  Si  Si15  1  0.750000  0.187632  0.022494  1
  Si  Si16  1  0.250000  0.814090  0.976628  1
  Si  Si17  1  0.250000  0.002912  0.305846  1
  Si  Si18  1  0.750000  0.995201  0.695025  1
  Si  Si19  1  0.750000  0.504675  0.195759  1
  Si  Si20  1  0.250000  0.495628  0.804751  1
  Ni  Ni21  1  0.750000  0.866482  0.870168  1
  Ni  Ni22  1  0.750000  0.634180  0.370319  1
  Ni  Ni23  1  0.250000  0.366310  0.629435  1
