# generated using pymatgen
data_Dy3Mn2W3O14
_symmetry_space_group_name_H-M   'P 1'
_cell_length_a   7.17927434
_cell_length_b   7.17923851
_cell_length_c   7.17930218
_cell_angle_alpha   117.07326637
_cell_angle_beta   62.92722858
_cell_angle_gamma   117.07381387
_symmetry_Int_Tables_number   1
_chemical_formula_structural   Dy3Mn2W3O14
_chemical_formula_sum   'Dy3 Mn2 W3 O14'
_cell_volume   278.66372317
_cell_formula_units_Z   1
loop_
 _symmetry_equiv_pos_site_id
 _symmetry_equiv_pos_as_xyz
  1  'x, y, z'
loop_
 _atom_site_type_symbol
 _atom_site_label
 _atom_site_symmetry_multiplicity
 _atom_site_fract_x
 _atom_site_fract_y
 _atom_site_fract_z
 _atom_site_occupancy
  Dy  Dy0  1  0.000012  0.500007  0.000000  1
  Dy  Dy1  1  0.500004  0.999990  0.999995  1
  Dy  Dy2  1  0.500006  0.500007  0.500007  1
  Mn  Mn3  1  0.499868  0.500059  0.999932  1
  Mn  Mn4  1  0.999954  0.999931  0.500064  1
  W  W5  1  0.500014  0.999988  0.500002  1
  W  W6  1  0.000011  0.500008  0.499997  1
  W  W7  1  0.000008  0.999994  0.999999  1
  O  O8  1  0.622037  0.377984  0.122039  1
  O  O9  1  0.377965  0.622021  0.877954  1
  O  O10  1  0.085055  0.324904  0.175075  1
  O  O11  1  0.675110  0.914960  0.175070  1
  O  O12  1  0.675097  0.324921  0.585053  1
  O  O13  1  0.914961  0.675094  0.824931  1
  O  O14  1  0.324907  0.085026  0.824929  1
  O  O15  1  0.324922  0.675082  0.414952  1
  O  O16  1  0.643503  0.902868  0.597111  1
  O  O17  1  0.097130  0.356498  0.597115  1
  O  O18  1  0.097149  0.902839  0.143505  1
  O  O19  1  0.356537  0.097144  0.402880  1
  O  O20  1  0.902890  0.643510  0.402886  1
  O  O21  1  0.902861  0.097169  0.856506  1
