# generated using pymatgen
data_Ba2CrH7
_symmetry_space_group_name_H-M   'P 1'
_cell_length_a   8.63734460
_cell_length_b   8.89512691
_cell_length_c   8.89529568
_cell_angle_alpha   108.81395073
_cell_angle_beta   109.46038052
_cell_angle_gamma   70.54199414
_symmetry_Int_Tables_number   1
_chemical_formula_structural   Ba2CrH7
_chemical_formula_sum   'Ba8 Cr4 H28'
_cell_volume   590.13467641
_cell_formula_units_Z   4
loop_
 _symmetry_equiv_pos_site_id
 _symmetry_equiv_pos_as_xyz
  1  'x, y, z'
loop_
 _atom_site_type_symbol
 _atom_site_label
 _atom_site_symmetry_multiplicity
 _atom_site_fract_x
 _atom_site_fract_y
 _atom_site_fract_z
 _atom_site_occupancy
  Ba  Ba0  1  0.976347  0.760980  0.071177  1
  Ba  Ba1  1  0.523652  0.571208  0.260976  1
  Ba  Ba2  1  0.524905  0.069839  0.284103  1
  Ba  Ba3  1  0.024923  0.215906  0.430181  1
  Ba  Ba4  1  0.975092  0.784118  0.569824  1
  Ba  Ba5  1  0.475096  0.930189  0.715906  1
  Ba  Ba6  1  0.476352  0.428812  0.739038  1
  Ba  Ba7  1  0.023648  0.239035  0.928822  1
  Cr  Cr8  1  0.700220  0.178871  0.029068  1
  Cr  Cr9  1  0.200255  0.470911  0.320953  1
  Cr  Cr10  1  0.799751  0.529055  0.679001  1
  Cr  Cr11  1  0.299784  0.821008  0.970916  1
  H  H12  1  0.673049  0.991499  0.019060  1
  H  H13  1  0.718539  0.369143  0.038296  1
  H  H14  1  0.517962  0.753661  0.047262  1
  H  H15  1  0.916379  0.106784  0.101715  1
  H  H16  1  0.218536  0.461734  0.130784  1
  H  H17  1  0.279290  0.879790  0.173474  1
  H  H18  1  0.687127  0.253000  0.230378  1
  H  H19  1  0.187126  0.269652  0.247011  1
  H  H20  1  0.982035  0.547279  0.253652  1
  H  H21  1  0.874292  0.954905  0.342823  1
  H  H22  1  0.220717  0.673495  0.379779  1
  H  H23  1  0.416390  0.398312  0.393226  1
  H  H24  1  0.625721  0.842842  0.454889  1
  H  H25  1  0.826935  0.519056  0.491548  1
  H  H26  1  0.173069  0.480970  0.508440  1
  H  H27  1  0.374293  0.157206  0.545128  1
  H  H28  1  0.583586  0.601721  0.606762  1
  H  H29  1  0.779279  0.326484  0.620207  1
  H  H30  1  0.125724  0.045142  0.657190  1
  H  H31  1  0.017920  0.452756  0.746326  1
  H  H32  1  0.812876  0.730307  0.752961  1
  H  H33  1  0.312876  0.747026  0.769652  1
  H  H34  1  0.720710  0.120233  0.826562  1
  H  H35  1  0.781466  0.538278  0.869181  1
  H  H36  1  0.083634  0.893236  0.898305  1
  H  H37  1  0.482044  0.246354  0.952755  1
  H  H38  1  0.281460  0.630787  0.961720  1
  H  H39  1  0.326941  0.008422  0.980953  1
