# generated using pymatgen
data_TcBiS
_symmetry_space_group_name_H-M   'P 1'
_cell_length_a   7.40097803
_cell_length_b   7.40097882
_cell_length_c   7.40097800
_cell_angle_alpha   60.00000368
_cell_angle_beta   60.00000015
_cell_angle_gamma   59.99999847
_symmetry_Int_Tables_number   1
_chemical_formula_structural   TcBiS
_chemical_formula_sum   'Tc4 Bi4 S4'
_cell_volume   286.65029938
_cell_formula_units_Z   4
loop_
 _symmetry_equiv_pos_site_id
 _symmetry_equiv_pos_as_xyz
  1  'x, y, z'
loop_
 _atom_site_type_symbol
 _atom_site_label
 _atom_site_symmetry_multiplicity
 _atom_site_fract_x
 _atom_site_fract_y
 _atom_site_fract_z
 _atom_site_occupancy
  Tc  Tc0  1  0.157860  0.157860  0.157860  1
  Tc  Tc1  1  0.526420  0.157860  0.157860  1
  Tc  Tc2  1  0.157860  0.157860  0.526420  1
  Tc  Tc3  1  0.157860  0.526420  0.157860  1
  Bi  Bi4  1  0.884247  0.347257  0.884247  1
  Bi  Bi5  1  0.884247  0.884247  0.347257  1
  Bi  Bi6  1  0.347257  0.884247  0.884247  1
  Bi  Bi7  1  0.884247  0.884247  0.884247  1
  S  S8  1  0.374783  0.374783  0.374783  1
  S  S9  1  0.875654  0.374783  0.374783  1
  S  S10  1  0.374783  0.374783  0.875654  1
  S  S11  1  0.374783  0.875654  0.374783  1
