# generated using pymatgen
data_MgSc7B24Ir3Rh
_symmetry_space_group_name_H-M   'P 1'
_cell_length_a   3.47151300
_cell_length_b   8.89928908
_cell_length_c   11.20230369
_cell_angle_alpha   89.97641019
_cell_angle_beta   90.00000000
_cell_angle_gamma   90.00000000
_symmetry_Int_Tables_number   1
_chemical_formula_structural   MgSc7B24Ir3Rh
_chemical_formula_sum   'Mg1 Sc7 B24 Ir3 Rh1'
_cell_volume   346.08391572
_cell_formula_units_Z   1
loop_
 _symmetry_equiv_pos_site_id
 _symmetry_equiv_pos_as_xyz
  1  'x, y, z'
loop_
 _atom_site_type_symbol
 _atom_site_label
 _atom_site_symmetry_multiplicity
 _atom_site_fract_x
 _atom_site_fract_y
 _atom_site_fract_z
 _atom_site_occupancy
  Mg  Mg0  1  0.000000  0.945046  0.377391  1
  Sc  Sc1  1  0.000000  0.054596  0.622965  1
  Sc  Sc2  1  0.000000  0.555434  0.874806  1
  Sc  Sc3  1  0.000000  0.182643  0.913845  1
  Sc  Sc4  1  0.000000  0.816661  0.085144  1
  Sc  Sc5  1  0.000000  0.682336  0.585464  1
  Sc  Sc6  1  0.000000  0.318639  0.414468  1
  Sc  Sc7  1  0.000000  0.444490  0.126127  1
  B  B8  1  0.500000  0.368588  0.819212  1
  B  B9  1  0.500000  0.979716  0.214291  1
  B  B10  1  0.500000  0.554712  0.435849  1
  B  B11  1  0.500000  0.295184  0.237387  1
  B  B12  1  0.500000  0.203423  0.736996  1
  B  B13  1  0.500000  0.102283  0.471527  1
  B  B14  1  0.500000  0.796621  0.263272  1
  B  B15  1  0.500000  0.446250  0.563072  1
  B  B16  1  0.500000  0.246581  0.576984  1
  B  B17  1  0.500000  0.480473  0.287212  1
  B  B18  1  0.500000  0.704233  0.762278  1
  B  B19  1  0.500000  0.753932  0.421536  1
  B  B20  1  0.500000  0.520473  0.712966  1
  B  B21  1  0.500000  0.896568  0.527206  1
  B  B22  1  0.500000  0.054431  0.064236  1
  B  B23  1  0.500000  0.602895  0.028028  1
  B  B24  1  0.500000  0.746910  0.922476  1
  B  B25  1  0.500000  0.019826  0.785745  1
  B  B26  1  0.500000  0.397355  0.972365  1
  B  B27  1  0.500000  0.945420  0.936877  1
  B  B28  1  0.500000  0.631490  0.181603  1
  B  B29  1  0.500000  0.253129  0.078396  1
  B  B30  1  0.500000  0.868769  0.679674  1
  B  B31  1  0.500000  0.130356  0.319200  1
  Ir  Ir32  1  0.000000  0.138187  0.179982  1
  Ir  Ir33  1  0.000000  0.359750  0.681038  1
  Ir  Ir34  1  0.000000  0.859905  0.821464  1
  Rh  Rh35  1  0.000000  0.642692  0.318916  1
