# generated using pymatgen
data_Ca5Nd15(In3Bi)3
_symmetry_space_group_name_H-M   'P 1'
_cell_length_a   8.40173722
_cell_length_b   8.40468078
_cell_length_c   14.60282700
_cell_angle_alpha   90.04780170
_cell_angle_beta   89.94980836
_cell_angle_gamma   90.19739121
_symmetry_Int_Tables_number   1
_chemical_formula_structural   Ca5Nd15(In3Bi)3
_chemical_formula_sum   'Ca5 Nd15 In9 Bi3'
_cell_volume   1031.15597706
_cell_formula_units_Z   1
loop_
 _symmetry_equiv_pos_site_id
 _symmetry_equiv_pos_as_xyz
  1  'x, y, z'
loop_
 _atom_site_type_symbol
 _atom_site_label
 _atom_site_symmetry_multiplicity
 _atom_site_fract_x
 _atom_site_fract_y
 _atom_site_fract_z
 _atom_site_occupancy
  Ca  Ca0  1  0.839301  0.660857  0.397652  1
  Ca  Ca1  1  0.500434  0.500734  0.753184  1
  Ca  Ca2  1  0.998847  0.997669  0.248001  1
  Ca  Ca3  1  0.999403  0.999689  0.753168  1
  Ca  Ca4  1  0.502444  0.500738  0.248012  1
  Nd  Nd5  1  0.669060  0.160671  0.099194  1
  Nd  Nd6  1  0.166491  0.665172  0.601252  1
  Nd  Nd7  1  0.331475  0.839166  0.100015  1
  Nd  Nd8  1  0.835322  0.334761  0.601213  1
  Nd  Nd9  1  0.837372  0.668221  0.100666  1
  Nd  Nd10  1  0.335579  0.164247  0.600729  1
  Nd  Nd11  1  0.162284  0.331412  0.100164  1
  Nd  Nd12  1  0.661856  0.837574  0.601173  1
  Nd  Nd13  1  0.839002  0.333561  0.900303  1
  Nd  Nd14  1  0.334963  0.836454  0.398524  1
  Nd  Nd15  1  0.157883  0.668193  0.900657  1
  Nd  Nd16  1  0.663596  0.164194  0.398623  1
  Nd  Nd17  1  0.668049  0.838386  0.900109  1
  Nd  Nd18  1  0.167354  0.333557  0.399375  1
  Nd  Nd19  1  0.331763  0.162228  0.900276  1
  In  In20  1  0.628231  0.128522  0.749696  1
  In  In21  1  0.130160  0.625644  0.249982  1
  In  In22  1  0.873240  0.369497  0.250540  1
  In  In23  1  0.370557  0.872586  0.749828  1
  In  In24  1  0.871806  0.629260  0.746376  1
  In  In25  1  0.371355  0.127391  0.250483  1
  In  In26  1  0.128515  0.371761  0.748965  1
  In  In27  1  0.626738  0.874176  0.249941  1
  In  In28  1  0.999257  0.000477  0.999697  1
  Bi  Bi29  1  0.498918  0.501292  0.501020  1
  Bi  Bi30  1  0.499934  0.500781  0.000007  1
  Bi  Bi31  1  0.998809  0.001128  0.501175  1
