# generated using pymatgen
data_HoEr3Ga12Ir
_symmetry_space_group_name_H-M   'P 1'
_cell_length_a   7.43821160
_cell_length_b   7.43821129
_cell_length_c   7.43821122
_cell_angle_alpha   109.48512500
_cell_angle_beta   109.48511955
_cell_angle_gamma   109.48511207
_symmetry_Int_Tables_number   1
_chemical_formula_structural   HoEr3Ga12Ir
_chemical_formula_sum   'Ho1 Er3 Ga12 Ir1'
_cell_volume   316.63577365
_cell_formula_units_Z   1
loop_
 _symmetry_equiv_pos_site_id
 _symmetry_equiv_pos_as_xyz
  1  'x, y, z'
loop_
 _atom_site_type_symbol
 _atom_site_label
 _atom_site_symmetry_multiplicity
 _atom_site_fract_x
 _atom_site_fract_y
 _atom_site_fract_z
 _atom_site_occupancy
  Ho  Ho0  1  0.500000  0.500000  0.500000  1
  Er  Er1  1  0.000000  0.000000  0.500000  1
  Er  Er2  1  0.000000  0.500000  0.000000  1
  Er  Er3  1  0.500000  0.000000  0.000000  1
  Ga  Ga4  1  0.750058  0.249942  0.500000  1
  Ga  Ga5  1  0.750058  0.500000  0.249942  1
  Ga  Ga6  1  0.500000  0.249942  0.750058  1
  Ga  Ga7  1  0.249942  0.500000  0.750058  1
  Ga  Ga8  1  0.249942  0.750058  0.500000  1
  Ga  Ga9  1  0.500000  0.750058  0.249942  1
  Ga  Ga10  1  0.707902  0.707902  0.000083  1
  Ga  Ga11  1  0.292098  0.999917  0.292098  1
  Ga  Ga12  1  0.999917  0.292098  0.292098  1
  Ga  Ga13  1  0.292098  0.292098  0.999917  1
  Ga  Ga14  1  0.707902  0.000083  0.707902  1
  Ga  Ga15  1  0.000083  0.707902  0.707902  1
  Ir  Ir16  1  0.000000  0.000000  0.000000  1
