# generated using pymatgen
data_Ho3Tm3ZrCo17P12
_symmetry_space_group_name_H-M   'P 1'
_cell_length_a   3.69160100
_cell_length_b   10.55510704
_cell_length_c   12.25801405
_cell_angle_alpha   90.00993547
_cell_angle_beta   90.00000000
_cell_angle_gamma   90.00000000
_symmetry_Int_Tables_number   1
_chemical_formula_structural   Ho3Tm3ZrCo17P12
_chemical_formula_sum   'Ho3 Tm3 Zr1 Co17 P12'
_cell_volume   477.63649744
_cell_formula_units_Z   1
loop_
 _symmetry_equiv_pos_site_id
 _symmetry_equiv_pos_as_xyz
  1  'x, y, z'
loop_
 _atom_site_type_symbol
 _atom_site_label
 _atom_site_symmetry_multiplicity
 _atom_site_fract_x
 _atom_site_fract_y
 _atom_site_fract_z
 _atom_site_occupancy
  Ho  Ho0  1  0.000000  0.500001  0.529388  1
  Ho  Ho1  1  0.500000  0.000008  0.477640  1
  Ho  Ho2  1  0.500000  0.178331  0.207446  1
  Tm  Tm3  1  0.500000  0.821554  0.207480  1
  Tm  Tm4  1  0.000000  0.682884  0.795853  1
  Tm  Tm5  1  0.000000  0.317058  0.795913  1
  Zr  Zr6  1  0.500000  0.500161  0.154511  1
  Co  Co7  1  0.000000  0.500033  0.982591  1
  Co  Co8  1  0.500000  0.999893  0.013958  1
  Co  Co9  1  0.500000  0.294191  0.434784  1
  Co  Co10  1  0.500000  0.705872  0.434599  1
  Co  Co11  1  0.000000  0.201784  0.570704  1
  Co  Co12  1  0.000000  0.798201  0.570664  1
  Co  Co13  1  0.500000  0.879790  0.707752  1
  Co  Co14  1  0.500000  0.120219  0.707771  1
  Co  Co15  1  0.000000  0.623486  0.297610  1
  Co  Co16  1  0.000000  0.376928  0.297814  1
  Co  Co17  1  0.500000  0.326808  0.987393  1
  Co  Co18  1  0.500000  0.673286  0.987512  1
  Co  Co19  1  0.000000  0.161416  0.001228  1
  Co  Co20  1  0.000000  0.838533  0.001409  1
  Co  Co21  1  0.000000  0.000023  0.836600  1
  Co  Co22  1  0.500000  0.500017  0.702959  1
  Co  Co23  1  0.000000  0.999463  0.296296  1
  P  P24  1  0.500000  0.309435  0.618654  1
  P  P25  1  0.500000  0.690560  0.618628  1
  P  P26  1  0.000000  0.187816  0.386477  1
  P  P27  1  0.000000  0.812261  0.385964  1
  P  P28  1  0.500000  0.499999  0.880426  1
  P  P29  1  0.000000  0.999591  0.117149  1
  P  P30  1  0.500000  0.852067  0.887812  1
  P  P31  1  0.500000  0.147941  0.887883  1
  P  P32  1  0.000000  0.665947  0.100299  1
  P  P33  1  0.000000  0.334475  0.099869  1
  P  P34  1  0.500000  0.499947  0.362324  1
  P  P35  1  0.000000  0.000020  0.654640  1
