# generated using pymatgen
data_MnV2Re3Br26
_symmetry_space_group_name_H-M   'P 1'
_cell_length_a   11.74236000
_cell_length_b   9.97236117
_cell_length_c   10.72363964
_cell_angle_alpha   81.86855864
_cell_angle_beta   90.00000000
_cell_angle_gamma   90.00000000
_symmetry_Int_Tables_number   1
_chemical_formula_structural   MnV2Re3Br26
_chemical_formula_sum   'Mn1 V2 Re3 Br26'
_cell_volume   1243.10321289
_cell_formula_units_Z   1
loop_
 _symmetry_equiv_pos_site_id
 _symmetry_equiv_pos_as_xyz
  1  'x, y, z'
loop_
 _atom_site_type_symbol
 _atom_site_label
 _atom_site_symmetry_multiplicity
 _atom_site_fract_x
 _atom_site_fract_y
 _atom_site_fract_z
 _atom_site_occupancy
  Mn  Mn0  1  0.250000  0.839087  0.111416  1
  V  V1  1  0.250000  0.261878  0.503518  1
  V  V2  1  0.750000  0.737541  0.495624  1
  Re  Re3  1  0.750000  0.176199  0.912625  1
  Re  Re4  1  0.250000  0.675599  0.854083  1
  Re  Re5  1  0.750000  0.311441  0.126693  1
  Br  Br6  1  0.592466  0.814174  0.585949  1
  Br  Br7  1  0.091686  0.185709  0.414829  1
  Br  Br8  1  0.750000  0.436230  0.900116  1
  Br  Br9  1  0.250000  0.582696  0.090357  1
  Br  Br10  1  0.908759  0.147186  0.079670  1
  Br  Br11  1  0.394079  0.844368  0.926935  1
  Br  Br12  1  0.105921  0.844368  0.926935  1
  Br  Br13  1  0.591241  0.147186  0.079670  1
  Br  Br14  1  0.750000  0.195801  0.347242  1
  Br  Br15  1  0.250000  0.799647  0.639326  1
  Br  Br16  1  0.900544  0.467310  0.176652  1
  Br  Br17  1  0.403376  0.523298  0.813605  1
  Br  Br18  1  0.096624  0.523298  0.813605  1
  Br  Br19  1  0.599456  0.467310  0.176652  1
  Br  Br20  1  0.750000  0.927330  0.920319  1
  Br  Br21  1  0.250000  0.077912  0.089057  1
  Br  Br22  1  0.899464  0.200557  0.748938  1
  Br  Br23  1  0.399048  0.806969  0.259088  1
  Br  Br24  1  0.100952  0.806969  0.259088  1
  Br  Br25  1  0.600536  0.200557  0.748938  1
  Br  Br26  1  0.750000  0.807828  0.285751  1
  Br  Br27  1  0.250000  0.192381  0.713611  1
  Br  Br28  1  0.750000  0.508133  0.524775  1
  Br  Br29  1  0.250000  0.491153  0.474155  1
  Br  Br30  1  0.907534  0.814174  0.585949  1
  Br  Br31  1  0.408314  0.185709  0.414829  1
