# generated using pymatgen
data_LiEr4Sc4(B8Ir)3
_symmetry_space_group_name_H-M   'P 1'
_cell_length_a   3.53872200
_cell_length_b   8.97938801
_cell_length_c   11.32803227
_cell_angle_alpha   89.94569897
_cell_angle_beta   90.00000000
_cell_angle_gamma   90.00000000
_symmetry_Int_Tables_number   1
_chemical_formula_structural   LiEr4Sc4(B8Ir)3
_chemical_formula_sum   'Li1 Er4 Sc4 B24 Ir3'
_cell_volume   359.95438359
_cell_formula_units_Z   1
loop_
 _symmetry_equiv_pos_site_id
 _symmetry_equiv_pos_as_xyz
  1  'x, y, z'
loop_
 _atom_site_type_symbol
 _atom_site_label
 _atom_site_symmetry_multiplicity
 _atom_site_fract_x
 _atom_site_fract_y
 _atom_site_fract_z
 _atom_site_occupancy
  Li  Li0  1  0.500000  0.139971  0.180858  1
  Er  Er1  1  0.500000  0.317647  0.410727  1
  Er  Er2  1  0.500000  0.679981  0.585163  1
  Er  Er3  1  0.500000  0.178732  0.918023  1
  Er  Er4  1  0.500000  0.825026  0.087558  1
  Sc  Sc5  1  0.500000  0.441643  0.126998  1
  Sc  Sc6  1  0.500000  0.555788  0.874907  1
  Sc  Sc7  1  0.500000  0.054998  0.625865  1
  Sc  Sc8  1  0.500000  0.947540  0.371853  1
  B  B9  1  0.000000  0.101103  0.471888  1
  B  B10  1  0.000000  0.900820  0.526445  1
  B  B11  1  0.000000  0.398822  0.973673  1
  B  B12  1  0.000000  0.599828  0.027197  1
  B  B13  1  0.000000  0.130806  0.317213  1
  B  B14  1  0.000000  0.869181  0.680784  1
  B  B15  1  0.000000  0.369225  0.819098  1
  B  B16  1  0.000000  0.629935  0.182696  1
  B  B17  1  0.000000  0.054141  0.066731  1
  B  B18  1  0.000000  0.947044  0.935938  1
  B  B19  1  0.000000  0.445379  0.565532  1
  B  B20  1  0.000000  0.554059  0.433230  1
  B  B21  1  0.000000  0.479322  0.284604  1
  B  B22  1  0.000000  0.518460  0.714775  1
  B  B23  1  0.000000  0.017976  0.786536  1
  B  B24  1  0.000000  0.982192  0.213642  1
  B  B25  1  0.000000  0.252840  0.081122  1
  B  B26  1  0.000000  0.747909  0.920975  1
  B  B27  1  0.000000  0.245828  0.579750  1
  B  B28  1  0.000000  0.755376  0.418728  1
  B  B29  1  0.000000  0.295113  0.235388  1
  B  B30  1  0.000000  0.704408  0.763670  1
  B  B31  1  0.000000  0.204229  0.736205  1
  B  B32  1  0.000000  0.797634  0.263880  1
  Ir  Ir33  1  0.500000  0.856729  0.816385  1
  Ir  Ir34  1  0.500000  0.359523  0.680865  1
  Ir  Ir35  1  0.500000  0.640788  0.321098  1
