# generated using pymatgen
data_Sc20CdHg5Ru2
_symmetry_space_group_name_H-M   'P 1'
_cell_length_a   8.95488903
_cell_length_b   8.95609357
_cell_length_c   9.12375100
_cell_angle_alpha   90.00000000
_cell_angle_beta   90.00000000
_cell_angle_gamma   120.00444741
_symmetry_Int_Tables_number   1
_chemical_formula_structural   Sc20CdHg5Ru2
_chemical_formula_sum   'Sc20 Cd1 Hg5 Ru2'
_cell_volume   633.67040122
_cell_formula_units_Z   1
loop_
 _symmetry_equiv_pos_site_id
 _symmetry_equiv_pos_as_xyz
  1  'x, y, z'
loop_
 _atom_site_type_symbol
 _atom_site_label
 _atom_site_symmetry_multiplicity
 _atom_site_fract_x
 _atom_site_fract_y
 _atom_site_fract_z
 _atom_site_occupancy
  Sc  Sc0  1  0.002277  0.001139  0.498342  1
  Sc  Sc1  1  0.002277  0.001139  0.001658  1
  Sc  Sc2  1  0.209332  0.790532  0.441883  1
  Sc  Sc3  1  0.209332  0.418802  0.441883  1
  Sc  Sc4  1  0.581037  0.790520  0.441793  1
  Sc  Sc5  1  0.790010  0.209542  0.558358  1
  Sc  Sc6  1  0.790010  0.580466  0.558358  1
  Sc  Sc7  1  0.418784  0.209391  0.558609  1
  Sc  Sc8  1  0.790010  0.209542  0.941642  1
  Sc  Sc9  1  0.790010  0.580466  0.941642  1
  Sc  Sc10  1  0.418784  0.209391  0.941391  1
  Sc  Sc11  1  0.209332  0.790532  0.058117  1
  Sc  Sc12  1  0.209332  0.418802  0.058117  1
  Sc  Sc13  1  0.581037  0.790520  0.058207  1
  Sc  Sc14  1  0.540037  0.459330  0.250000  1
  Sc  Sc15  1  0.540037  0.080707  0.250000  1
  Sc  Sc16  1  0.919417  0.459708  0.250000  1
  Sc  Sc17  1  0.458248  0.538261  0.750000  1
  Sc  Sc18  1  0.458248  0.919987  0.750000  1
  Sc  Sc19  1  0.080959  0.540480  0.750000  1
  Cd  Cd20  1  0.768261  0.884130  0.750000  1
  Hg  Hg21  1  0.881543  0.118301  0.250000  1
  Hg  Hg22  1  0.881543  0.763243  0.250000  1
  Hg  Hg23  1  0.237364  0.118682  0.250000  1
  Hg  Hg24  1  0.116820  0.881691  0.750000  1
  Hg  Hg25  1  0.116820  0.235128  0.750000  1
  Ru  Ru26  1  0.332887  0.666444  0.250000  1
  Ru  Ru27  1  0.666252  0.333126  0.750000  1
