# generated using pymatgen
data_DyHo2Mg3Si2Ag
_symmetry_space_group_name_H-M   'P 1'
_cell_length_a   7.23696600
_cell_length_b   7.24100813
_cell_length_c   4.30925300
_cell_angle_alpha   90.00000000
_cell_angle_beta   90.00000000
_cell_angle_gamma   119.98152654
_symmetry_Int_Tables_number   1
_chemical_formula_structural   DyHo2Mg3Si2Ag
_chemical_formula_sum   'Dy1 Ho2 Mg3 Si2 Ag1'
_cell_volume   195.60007012
_cell_formula_units_Z   1
loop_
 _symmetry_equiv_pos_site_id
 _symmetry_equiv_pos_as_xyz
  1  'x, y, z'
loop_
 _atom_site_type_symbol
 _atom_site_label
 _atom_site_symmetry_multiplicity
 _atom_site_fract_x
 _atom_site_fract_y
 _atom_site_fract_z
 _atom_site_occupancy
  Dy  Dy0  1  0.578006  0.000000  0.000000  1
  Ho  Ho1  1  0.999867  0.577956  0.000000  1
  Ho  Ho2  1  0.421910  0.422044  0.000000  1
  Mg  Mg3  1  0.249002  0.000000  0.500000  1
  Mg  Mg4  1  0.000116  0.249249  0.500000  1
  Mg  Mg5  1  0.750867  0.750751  0.500000  1
  Si  Si6  1  0.333019  0.666194  0.500000  1
  Si  Si7  1  0.666826  0.333806  0.500000  1
  Ag  Ag8  1  0.000387  0.000000  0.000000  1
