# generated using pymatgen
data_Lu2Al10Re2Ru
_symmetry_space_group_name_H-M   'P 1'
_cell_length_a   9.09340300
_cell_length_b   9.09340300
_cell_length_c   6.18011700
_cell_angle_alpha   90.00000000
_cell_angle_beta   90.00000000
_cell_angle_gamma   90.00000000
_symmetry_Int_Tables_number   1
_chemical_formula_structural   Lu2Al10Re2Ru
_chemical_formula_sum   'Lu4 Al20 Re4 Ru2'
_cell_volume   511.03373951
_cell_formula_units_Z   2
loop_
 _symmetry_equiv_pos_site_id
 _symmetry_equiv_pos_as_xyz
  1  'x, y, z'
loop_
 _atom_site_type_symbol
 _atom_site_label
 _atom_site_symmetry_multiplicity
 _atom_site_fract_x
 _atom_site_fract_y
 _atom_site_fract_z
 _atom_site_occupancy
  Lu  Lu0  1  0.681670  0.181670  0.000000  1
  Lu  Lu1  1  0.318330  0.818330  0.000000  1
  Lu  Lu2  1  0.818330  0.681670  0.000000  1
  Lu  Lu3  1  0.181670  0.318330  0.000000  1
  Al  Al4  1  0.940552  0.203278  0.285762  1
  Al  Al5  1  0.703278  0.440552  0.285762  1
  Al  Al6  1  0.500000  0.000000  0.288769  1
  Al  Al7  1  0.559448  0.703278  0.714238  1
  Al  Al8  1  0.296722  0.559448  0.714238  1
  Al  Al9  1  0.796722  0.940552  0.285762  1
  Al  Al10  1  0.940552  0.203278  0.714238  1
  Al  Al11  1  0.296722  0.559448  0.285762  1
  Al  Al12  1  0.059448  0.796722  0.285762  1
  Al  Al13  1  0.703278  0.440552  0.714238  1
  Al  Al14  1  0.440552  0.296722  0.714238  1
  Al  Al15  1  0.059448  0.796722  0.714238  1
  Al  Al16  1  0.203278  0.059448  0.714238  1
  Al  Al17  1  0.796722  0.940552  0.714238  1
  Al  Al18  1  0.203278  0.059448  0.285762  1
  Al  Al19  1  0.000000  0.500000  0.711231  1
  Al  Al20  1  0.000000  0.500000  0.288769  1
  Al  Al21  1  0.559448  0.703278  0.285762  1
  Al  Al22  1  0.440552  0.296722  0.285762  1
  Al  Al23  1  0.500000  0.000000  0.711231  1
  Re  Re24  1  0.678869  0.178869  0.500000  1
  Re  Re25  1  0.821131  0.678869  0.500000  1
  Re  Re26  1  0.178869  0.321131  0.500000  1
  Re  Re27  1  0.321131  0.821131  0.500000  1
  Ru  Ru28  1  0.000000  0.000000  0.000000  1
  Ru  Ru29  1  0.500000  0.500000  0.000000  1
