# generated using pymatgen
data_Na5OsNO4
_symmetry_space_group_name_H-M   'P 1'
_cell_length_a   5.74032856
_cell_length_b   5.74032878
_cell_length_c   10.83443800
_cell_angle_alpha   90.00000000
_cell_angle_beta   90.00000000
_cell_angle_gamma   118.21775859
_symmetry_Int_Tables_number   1
_chemical_formula_structural   Na5OsNO4
_chemical_formula_sum   'Na10 Os2 N2 O8'
_cell_volume   314.58149714
_cell_formula_units_Z   2
loop_
 _symmetry_equiv_pos_site_id
 _symmetry_equiv_pos_as_xyz
  1  'x, y, z'
loop_
 _atom_site_type_symbol
 _atom_site_label
 _atom_site_symmetry_multiplicity
 _atom_site_fract_x
 _atom_site_fract_y
 _atom_site_fract_z
 _atom_site_occupancy
  Na  Na0  1  0.191663  0.808337  0.500000  1
  Na  Na1  1  0.191663  0.808337  0.000000  1
  Na  Na2  1  0.559466  0.173529  0.750000  1
  Na  Na3  1  0.173529  0.559466  0.750000  1
  Na  Na4  1  0.500000  0.500000  0.000000  1
  Na  Na5  1  0.808337  0.191663  0.500000  1
  Na  Na6  1  0.808337  0.191663  0.000000  1
  Na  Na7  1  0.500000  0.500000  0.500000  1
  Na  Na8  1  0.440534  0.826471  0.250000  1
  Na  Na9  1  0.826471  0.440534  0.250000  1
  Os  Os10  1  0.194411  0.194411  0.250000  1
  Os  Os11  1  0.805589  0.805589  0.750000  1
  N  N12  1  0.904661  0.904661  0.250000  1
  N  N13  1  0.095339  0.095339  0.750000  1
  O  O14  1  0.833314  0.556829  0.627809  1
  O  O15  1  0.556829  0.833314  0.627809  1
  O  O16  1  0.166686  0.443171  0.372191  1
  O  O17  1  0.443171  0.166686  0.372191  1
  O  O18  1  0.443171  0.166686  0.127809  1
  O  O19  1  0.166686  0.443171  0.127809  1
  O  O20  1  0.556829  0.833314  0.872191  1
  O  O21  1  0.833314  0.556829  0.872191  1
