# generated using pymatgen
data_Nd3Tm3(ThNi4)2
_symmetry_space_group_name_H-M   'P 1'
_cell_length_a   4.30551400
_cell_length_b   5.48668489
_cell_length_c   14.12656178
_cell_angle_alpha   89.60237808
_cell_angle_beta   90.00000000
_cell_angle_gamma   90.00000000
_symmetry_Int_Tables_number   1
_chemical_formula_structural   Nd3Tm3(ThNi4)2
_chemical_formula_sum   'Nd3 Tm3 Th2 Ni8'
_cell_volume   333.70371355
_cell_formula_units_Z   1
loop_
 _symmetry_equiv_pos_site_id
 _symmetry_equiv_pos_as_xyz
  1  'x, y, z'
loop_
 _atom_site_type_symbol
 _atom_site_label
 _atom_site_symmetry_multiplicity
 _atom_site_fract_x
 _atom_site_fract_y
 _atom_site_fract_z
 _atom_site_occupancy
  Nd  Nd0  1  0.250000  0.536501  0.281558  1
  Nd  Nd1  1  0.750000  0.467463  0.716079  1
  Nd  Nd2  1  0.250000  0.967951  0.784059  1
  Tm  Tm3  1  0.250000  0.756150  0.534232  1
  Tm  Tm4  1  0.750000  0.247446  0.966650  1
  Tm  Tm5  1  0.750000  0.033758  0.216257  1
  Th  Th6  1  0.250000  0.743966  0.034573  1
  Th  Th7  1  0.750000  0.250938  0.466713  1
  Ni  Ni8  1  0.250000  0.038234  0.358528  1
  Ni  Ni9  1  0.750000  0.526455  0.137348  1
  Ni  Ni10  1  0.750000  0.771123  0.401484  1
  Ni  Ni11  1  0.250000  0.464989  0.867153  1
  Ni  Ni12  1  0.750000  0.964748  0.633097  1
  Ni  Ni13  1  0.750000  0.738783  0.902357  1
  Ni  Ni14  1  0.250000  0.246618  0.102162  1
  Ni  Ni15  1  0.250000  0.244877  0.597751  1
