# generated using pymatgen
data_Ce3Zn3CuPdPt
_symmetry_space_group_name_H-M   'P 1'
_cell_length_a   7.29989200
_cell_length_b   7.29989207
_cell_length_c   3.97181900
_cell_angle_alpha   90.00000000
_cell_angle_beta   90.00000000
_cell_angle_gamma   119.99999967
_symmetry_Int_Tables_number   1
_chemical_formula_structural   Ce3Zn3CuPdPt
_chemical_formula_sum   'Ce3 Zn3 Cu1 Pd1 Pt1'
_cell_volume   183.29598674
_cell_formula_units_Z   1
loop_
 _symmetry_equiv_pos_site_id
 _symmetry_equiv_pos_as_xyz
  1  'x, y, z'
loop_
 _atom_site_type_symbol
 _atom_site_label
 _atom_site_symmetry_multiplicity
 _atom_site_fract_x
 _atom_site_fract_y
 _atom_site_fract_z
 _atom_site_occupancy
  Ce  Ce0  1  0.997930  0.411233  0.000000  1
  Ce  Ce1  1  0.588767  0.586697  0.000000  1
  Ce  Ce2  1  0.413303  0.002070  0.000000  1
  Zn  Zn3  1  0.000552  0.763710  0.500000  1
  Zn  Zn4  1  0.236290  0.236841  0.500000  1
  Zn  Zn5  1  0.763159  0.999448  0.500000  1
  Cu  Cu6  1  0.000000  0.000000  0.000000  1
  Pd  Pd7  1  0.333333  0.666667  0.500000  1
  Pt  Pt8  1  0.666667  0.333333  0.500000  1
