# generated using pymatgen
data_Eu4Al17Ga7Pt9
_symmetry_space_group_name_H-M   'P 1'
_cell_length_a   7.59032122
_cell_length_b   7.61637490
_cell_length_c   13.53913918
_cell_angle_alpha   84.59128946
_cell_angle_beta   79.16178733
_cell_angle_gamma   59.94365913
_symmetry_Int_Tables_number   1
_chemical_formula_structural   Eu4Al17Ga7Pt9
_chemical_formula_sum   'Eu4 Al17 Ga7 Pt9'
_cell_volume   665.37497631
_cell_formula_units_Z   1
loop_
 _symmetry_equiv_pos_site_id
 _symmetry_equiv_pos_as_xyz
  1  'x, y, z'
loop_
 _atom_site_type_symbol
 _atom_site_label
 _atom_site_symmetry_multiplicity
 _atom_site_fract_x
 _atom_site_fract_y
 _atom_site_fract_z
 _atom_site_occupancy
  Eu  Eu0  1  0.396114  0.166480  0.809196  1
  Eu  Eu1  1  0.602393  0.835145  0.191325  1
  Eu  Eu2  1  0.732149  0.500650  0.808967  1
  Eu  Eu3  1  0.267737  0.497956  0.191467  1
  Al  Al4  1  0.786424  0.835278  0.668775  1
  Al  Al5  1  0.433565  0.509272  0.669361  1
  Al  Al6  1  0.566477  0.490749  0.330540  1
  Al  Al7  1  0.110127  0.156010  0.667575  1
  Al  Al8  1  0.890061  0.843812  0.332207  1
  Al  Al9  1  0.350266  0.500384  0.948283  1
  Al  Al10  1  0.649457  0.499804  0.051659  1
  Al  Al11  1  0.015856  0.166318  0.957414  1
  Al  Al12  1  0.983951  0.833392  0.042280  1
  Al  Al13  1  0.184753  0.500026  0.443571  1
  Al  Al14  1  0.814903  0.500859  0.557164  1
  Al  Al15  1  0.737785  0.163041  0.182290  1
  Al  Al16  1  0.263057  0.836839  0.817768  1
  Al  Al17  1  0.064462  0.629539  0.816204  1
  Al  Al18  1  0.934275  0.371704  0.183697  1
  Al  Al19  1  0.857245  0.039457  0.817090  1
  Al  Al20  1  0.142650  0.959473  0.182891  1
  Ga  Ga21  1  0.686259  0.834019  0.942311  1
  Ga  Ga22  1  0.313437  0.165900  0.056934  1
  Ga  Ga23  1  0.148194  0.830805  0.557305  1
  Ga  Ga24  1  0.852345  0.169480  0.443075  1
  Ga  Ga25  1  0.477656  0.167602  0.556692  1
  Ga  Ga26  1  0.522412  0.831448  0.444371  1
  Ga  Ga27  1  0.215960  0.164647  0.327492  1
  Pt  Pt28  1  0.116632  0.492377  0.637538  1
  Pt  Pt29  1  0.879471  0.511392  0.363028  1
  Pt  Pt30  1  0.662940  0.173584  0.999633  1
  Pt  Pt31  1  0.337029  0.826294  0.000492  1
  Pt  Pt32  1  0.540057  0.170307  0.361371  1
  Pt  Pt33  1  0.463907  0.829643  0.639703  1
  Pt  Pt34  1  0.777929  0.177073  0.638508  1
  Pt  Pt35  1  0.222168  0.819206  0.361921  1
  Pt  Pt36  1  0.999897  0.500036  0.999905  1
