# generated using pymatgen
data_NdY2Hf3(SnRh)6
_symmetry_space_group_name_H-M   'P 1'
_cell_length_a   7.48755600
_cell_length_b   7.49251363
_cell_length_c   7.59476000
_cell_angle_alpha   90.00000000
_cell_angle_beta   90.00000000
_cell_angle_gamma   119.97699949
_symmetry_Int_Tables_number   1
_chemical_formula_structural   NdY2Hf3(SnRh)6
_chemical_formula_sum   'Nd1 Y2 Hf3 Sn6 Rh6'
_cell_volume   369.07354863
_cell_formula_units_Z   1
loop_
 _symmetry_equiv_pos_site_id
 _symmetry_equiv_pos_as_xyz
  1  'x, y, z'
loop_
 _atom_site_type_symbol
 _atom_site_label
 _atom_site_symmetry_multiplicity
 _atom_site_fract_x
 _atom_site_fract_y
 _atom_site_fract_z
 _atom_site_occupancy
  Nd  Nd0  1  0.408690  0.999999  0.750000  1
  Y  Y1  1  0.000540  0.405879  0.750000  1
  Y  Y2  1  0.594705  0.594065  0.750000  1
  Hf  Hf3  1  0.000468  0.394231  0.250000  1
  Hf  Hf4  1  0.606322  0.605672  0.250000  1
  Hf  Hf5  1  0.392411  0.000095  0.250000  1
  Sn  Sn6  1  0.265643  0.267643  0.492735  1
  Sn  Sn7  1  0.998179  0.732408  0.492764  1
  Sn  Sn8  1  0.998179  0.732408  0.007236  1
  Sn  Sn9  1  0.735609  0.999962  0.488417  1
  Sn  Sn10  1  0.735609  0.999962  0.011583  1
  Sn  Sn11  1  0.265643  0.267643  0.007265  1
  Rh  Rh12  1  0.333074  0.666123  0.456424  1
  Rh  Rh13  1  0.666946  0.333896  0.456552  1
  Rh  Rh14  1  0.333074  0.666123  0.043576  1
  Rh  Rh15  1  0.995388  0.999989  0.750000  1
  Rh  Rh16  1  0.002574  0.000009  0.250000  1
  Rh  Rh17  1  0.666946  0.333896  0.043448  1
