# generated using pymatgen
data_Zr7ScSi16(MoW2)4
_symmetry_space_group_name_H-M   'P 1'
_cell_length_a   6.61925730
_cell_length_b   6.77966733
_cell_length_c   12.69894903
_cell_angle_alpha   90.00039105
_cell_angle_beta   90.01349228
_cell_angle_gamma   89.97567112
_symmetry_Int_Tables_number   1
_chemical_formula_structural   Zr7ScSi16(MoW2)4
_chemical_formula_sum   'Zr7 Sc1 Si16 Mo4 W8'
_cell_volume   569.88257230
_cell_formula_units_Z   1
loop_
 _symmetry_equiv_pos_site_id
 _symmetry_equiv_pos_as_xyz
  1  'x, y, z'
loop_
 _atom_site_type_symbol
 _atom_site_label
 _atom_site_symmetry_multiplicity
 _atom_site_fract_x
 _atom_site_fract_y
 _atom_site_fract_z
 _atom_site_occupancy
  Zr  Zr0  1  0.495522  0.670972  0.592634  1
  Zr  Zr1  1  0.995078  0.828239  0.907763  1
  Zr  Zr2  1  0.505627  0.328171  0.092704  1
  Zr  Zr3  1  0.005852  0.172679  0.406947  1
  Zr  Zr4  1  0.504393  0.327623  0.407288  1
  Zr  Zr5  1  0.004461  0.172035  0.093142  1
  Zr  Zr6  1  0.494926  0.672664  0.907238  1
  Sc  Sc7  1  0.994657  0.829221  0.591775  1
  Si  Si8  1  0.667968  0.958530  0.457512  1
  Si  Si9  1  0.167569  0.541694  0.042991  1
  Si  Si10  1  0.332213  0.042324  0.957333  1
  Si  Si11  1  0.833550  0.460009  0.543617  1
  Si  Si12  1  0.331489  0.039742  0.543092  1
  Si  Si13  1  0.833238  0.458126  0.957446  1
  Si  Si14  1  0.666558  0.958315  0.042646  1
  Si  Si15  1  0.166202  0.542416  0.457343  1
  Si  Si16  1  0.465428  0.378878  0.750014  1
  Si  Si17  1  0.966220  0.120131  0.749577  1
  Si  Si18  1  0.534309  0.620543  0.249391  1
  Si  Si19  1  0.034514  0.878257  0.251009  1
  Si  Si20  1  0.700587  0.859256  0.748631  1
  Si  Si21  1  0.197201  0.641904  0.749296  1
  Si  Si22  1  0.300884  0.139514  0.249397  1
  Si  Si23  1  0.800580  0.360131  0.250706  1
  Mo  Mo24  1  0.666875  0.164036  0.623891  1
  Mo  Mo25  1  0.168220  0.337251  0.876099  1
  Mo  Mo26  1  0.331570  0.836703  0.123583  1
  Mo  Mo27  1  0.831113  0.663333  0.376436  1
  W  W28  1  0.335179  0.835630  0.375119  1
  W  W29  1  0.833365  0.664353  0.124845  1
  W  W30  1  0.666371  0.163454  0.875178  1
  W  W31  1  0.167021  0.336314  0.624869  1
  W  W32  1  0.833858  0.506636  0.750349  1
  W  W33  1  0.333677  0.991960  0.750028  1
  W  W34  1  0.166783  0.490617  0.250279  1
  W  W35  1  0.666941  0.008334  0.249827  1
