# generated using pymatgen
data_AcEr3(Si5Os3)2
_symmetry_space_group_name_H-M   'P 1'
_cell_length_a   8.30754345
_cell_length_b   8.28076862
_cell_length_c   8.28076827
_cell_angle_alpha   139.45861553
_cell_angle_beta   107.96215380
_cell_angle_gamma   86.03775027
_symmetry_Int_Tables_number   1
_chemical_formula_structural   AcEr3(Si5Os3)2
_chemical_formula_sum   'Ac1 Er3 Si10 Os6'
_cell_volume   339.41535103
_cell_formula_units_Z   1
loop_
 _symmetry_equiv_pos_site_id
 _symmetry_equiv_pos_as_xyz
  1  'x, y, z'
loop_
 _atom_site_type_symbol
 _atom_site_label
 _atom_site_symmetry_multiplicity
 _atom_site_fract_x
 _atom_site_fract_y
 _atom_site_fract_z
 _atom_site_occupancy
  Ac  Ac0  1  0.900484  0.133081  0.767403  1
  Er  Er1  1  0.103438  0.867286  0.236152  1
  Er  Er2  1  0.634727  0.363606  0.271122  1
  Er  Er3  1  0.368707  0.640423  0.728283  1
  Si  Si4  1  0.006670  0.747284  0.752827  1
  Si  Si5  1  0.006670  0.253844  0.259386  1
  Si  Si6  1  0.698391  0.448278  0.727383  1
  Si  Si7  1  0.299088  0.023158  0.741686  1
  Si  Si8  1  0.299088  0.557402  0.275930  1
  Si  Si9  1  0.698391  0.971008  0.250113  1
  Si  Si10  1  0.243572  0.412838  0.830733  1
  Si  Si11  1  0.566678  0.896149  0.670530  1
  Si  Si12  1  0.428137  0.097959  0.330177  1
  Si  Si13  1  0.749627  0.589448  0.160180  1
  Os  Os14  1  0.763143  0.851704  0.911441  1
  Os  Os15  1  0.494602  0.245804  0.744781  1
  Os  Os16  1  0.957610  0.356900  0.600710  1
  Os  Os17  1  0.039146  0.642503  0.396643  1
  Os  Os18  1  0.247228  0.151504  0.095722  1
  Os  Os19  1  0.494602  0.749822  0.248798  1
