# generated using pymatgen
data_LiTb16Cd3Pd3Pt
_symmetry_space_group_name_H-M   'P 1'
_cell_length_a   9.75042254
_cell_length_b   9.74575460
_cell_length_c   9.74575362
_cell_angle_alpha   60.01787590
_cell_angle_beta   60.05077422
_cell_angle_gamma   60.05077734
_symmetry_Int_Tables_number   1
_chemical_formula_structural   LiTb16Cd3Pd3Pt
_chemical_formula_sum   'Li1 Tb16 Cd3 Pd3 Pt1'
_cell_volume   655.43699422
_cell_formula_units_Z   1
loop_
 _symmetry_equiv_pos_site_id
 _symmetry_equiv_pos_as_xyz
  1  'x, y, z'
loop_
 _atom_site_type_symbol
 _atom_site_label
 _atom_site_symmetry_multiplicity
 _atom_site_fract_x
 _atom_site_fract_y
 _atom_site_fract_z
 _atom_site_occupancy
  Li  Li0  1  0.571813  0.571903  0.571903  1
  Tb  Tb1  1  0.351955  0.350080  0.350080  1
  Tb  Tb2  1  0.354696  0.352690  0.941460  1
  Tb  Tb3  1  0.354696  0.941460  0.352690  1
  Tb  Tb4  1  0.940274  0.353890  0.353890  1
  Tb  Tb5  1  0.808605  0.192343  0.192343  1
  Tb  Tb6  1  0.188492  0.812743  0.812743  1
  Tb  Tb7  1  0.192873  0.809838  0.192517  1
  Tb  Tb8  1  0.811632  0.188252  0.814039  1
  Tb  Tb9  1  0.192873  0.192517  0.809838  1
  Tb  Tb10  1  0.811632  0.814039  0.188252  1
  Tb  Tb11  1  0.935107  0.566280  0.566280  1
  Tb  Tb12  1  0.564668  0.935670  0.935670  1
  Tb  Tb13  1  0.566369  0.935234  0.565204  1
  Tb  Tb14  1  0.935182  0.564546  0.935042  1
  Tb  Tb15  1  0.566369  0.565204  0.935234  1
  Tb  Tb16  1  0.935182  0.935042  0.564546  1
  Cd  Cd17  1  0.581987  0.582361  0.253406  1
  Cd  Cd18  1  0.581987  0.253406  0.582361  1
  Cd  Cd19  1  0.253582  0.582050  0.582050  1
  Pd  Pd20  1  0.145009  0.145481  0.145481  1
  Pd  Pd21  1  0.142901  0.143132  0.568821  1
  Pd  Pd22  1  0.142901  0.568821  0.143132  1
  Pt  Pt23  1  0.569215  0.143018  0.143018  1
