# generated using pymatgen
data_Mn8Nb8Si13Ge
_symmetry_space_group_name_H-M   'P 1'
_cell_length_a   9.40659285
_cell_length_b   9.40659283
_cell_length_c   9.42174269
_cell_angle_alpha   94.08087663
_cell_angle_beta   94.08088009
_cell_angle_gamma   149.03055749
_symmetry_Int_Tables_number   1
_chemical_formula_structural   Mn8Nb8Si13Ge
_chemical_formula_sum   'Mn8 Nb8 Si13 Ge1'
_cell_volume   413.47158234
_cell_formula_units_Z   1
loop_
 _symmetry_equiv_pos_site_id
 _symmetry_equiv_pos_as_xyz
  1  'x, y, z'
loop_
 _atom_site_type_symbol
 _atom_site_label
 _atom_site_symmetry_multiplicity
 _atom_site_fract_x
 _atom_site_fract_y
 _atom_site_fract_z
 _atom_site_occupancy
  Mn  Mn0  1  0.399441  0.899441  0.798882  1
  Mn  Mn1  1  0.100629  0.600629  0.201261  1
  Mn  Mn2  1  0.895322  0.098220  0.498248  1
  Mn  Mn3  1  0.602925  0.400028  0.498248  1
  Mn  Mn4  1  0.600629  0.100629  0.201261  1
  Mn  Mn5  1  0.899441  0.399441  0.798882  1
  Mn  Mn6  1  0.098220  0.895322  0.498248  1
  Mn  Mn7  1  0.400028  0.602925  0.498248  1
  Nb  Nb8  1  0.308260  0.503299  0.811560  1
  Nb  Nb9  1  0.691295  0.498962  0.190257  1
  Nb  Nb10  1  0.498962  0.691295  0.190257  1
  Nb  Nb11  1  0.503299  0.308260  0.811560  1
  Nb  Nb12  1  0.134026  0.134026  0.268051  1
  Nb  Nb13  1  0.866587  0.866587  0.733174  1
  Nb  Nb14  1  0.135631  0.864498  0.000128  1
  Nb  Nb15  1  0.864498  0.135631  0.000128  1
  Si  Si16  1  0.704770  0.704770  0.409542  1
  Si  Si17  1  0.293250  0.707517  0.000767  1
  Si  Si18  1  0.707517  0.293250  0.000767  1
  Si  Si19  1  0.093935  0.500152  0.594086  1
  Si  Si20  1  0.906658  0.498769  0.405427  1
  Si  Si21  1  0.498769  0.906658  0.405427  1
  Si  Si22  1  0.500152  0.093935  0.594086  1
  Si  Si23  1  0.248661  0.248661  0.000072  1
  Si  Si24  1  0.751412  0.751412  0.000072  1
  Si  Si25  1  0.292208  0.999688  0.291896  1
  Si  Si26  1  0.707497  0.000144  0.707641  1
  Si  Si27  1  0.000144  0.707497  0.707641  1
  Si  Si28  1  0.999688  0.292208  0.291896  1
  Ge  Ge29  1  0.296144  0.296144  0.592288  1
