# generated using pymatgen
data_Tm12Tc3Ni
_symmetry_space_group_name_H-M   'P 1'
_cell_length_a   6.18464629
_cell_length_b   7.26744084
_cell_length_c   9.03776600
_cell_angle_alpha   90.00000000
_cell_angle_beta   90.00000000
_cell_angle_gamma   89.79435474
_symmetry_Int_Tables_number   1
_chemical_formula_structural   Tm12Tc3Ni
_chemical_formula_sum   'Tm12 Tc3 Ni1'
_cell_volume   406.21379438
_cell_formula_units_Z   1
loop_
 _symmetry_equiv_pos_site_id
 _symmetry_equiv_pos_as_xyz
  1  'x, y, z'
loop_
 _atom_site_type_symbol
 _atom_site_label
 _atom_site_symmetry_multiplicity
 _atom_site_fract_x
 _atom_site_fract_y
 _atom_site_fract_z
 _atom_site_occupancy
  Tm  Tm0  1  0.637485  0.041441  0.250000  1
  Tm  Tm1  1  0.374309  0.960521  0.750000  1
  Tm  Tm2  1  0.123866  0.461075  0.750000  1
  Tm  Tm3  1  0.873468  0.542248  0.250000  1
  Tm  Tm4  1  0.164074  0.177111  0.062007  1
  Tm  Tm5  1  0.830983  0.822216  0.934060  1
  Tm  Tm6  1  0.662226  0.322904  0.938052  1
  Tm  Tm7  1  0.830983  0.822216  0.565940  1
  Tm  Tm8  1  0.336084  0.676286  0.060791  1
  Tm  Tm9  1  0.164074  0.177111  0.437993  1
  Tm  Tm10  1  0.336084  0.676286  0.439209  1
  Tm  Tm11  1  0.662226  0.322904  0.561948  1
  Tc  Tc12  1  0.459865  0.385633  0.250000  1
  Tc  Tc13  1  0.539666  0.614483  0.750000  1
  Tc  Tc14  1  0.960992  0.112339  0.750000  1
  Ni  Ni15  1  0.043617  0.885226  0.250000  1
