# generated using pymatgen
data_Y6InFe2
_symmetry_space_group_name_H-M   'P 1'
_cell_length_a   8.48378883
_cell_length_b   8.48378842
_cell_length_c   8.48378935
_cell_angle_alpha   111.30019374
_cell_angle_beta   110.36250408
_cell_angle_gamma   106.78534889
_symmetry_Int_Tables_number   1
_chemical_formula_structural   Y6InFe2
_chemical_formula_sum   'Y12 In2 Fe4'
_cell_volume   469.25074527
_cell_formula_units_Z   2
loop_
 _symmetry_equiv_pos_site_id
 _symmetry_equiv_pos_as_xyz
  1  'x, y, z'
loop_
 _atom_site_type_symbol
 _atom_site_label
 _atom_site_symmetry_multiplicity
 _atom_site_fract_x
 _atom_site_fract_y
 _atom_site_fract_z
 _atom_site_occupancy
  Y  Y0  1  0.442627  0.231289  0.211338  1
  Y  Y1  1  0.557373  0.768711  0.788662  1
  Y  Y2  1  0.019951  0.231289  0.788662  1
  Y  Y3  1  0.980049  0.768711  0.211338  1
  Y  Y4  1  0.188317  0.287732  0.476049  1
  Y  Y5  1  0.811683  0.712268  0.523951  1
  Y  Y6  1  0.188317  0.712268  0.900586  1
  Y  Y7  1  0.811683  0.287732  0.099414  1
  Y  Y8  1  0.311678  0.610348  0.298671  1
  Y  Y9  1  0.688322  0.389652  0.701329  1
  Y  Y10  1  0.311678  0.013006  0.701329  1
  Y  Y11  1  0.688322  0.986994  0.298671  1
  In  In12  1  0.500000  0.500000  0.000000  1
  In  In13  1  0.000000  0.000000  0.000000  1
  Fe  Fe14  1  0.386618  0.000000  0.386618  1
  Fe  Fe15  1  0.613382  0.000000  0.613382  1
  Fe  Fe16  1  0.107165  0.607165  0.500000  1
  Fe  Fe17  1  0.892835  0.392835  0.500000  1
