# generated using pymatgen
data_RbIn3Cl8
_symmetry_space_group_name_H-M   'P 1'
_cell_length_a   7.78774500
_cell_length_b   10.29911807
_cell_length_c   10.60162220
_cell_angle_alpha   89.44372595
_cell_angle_beta   90.00000000
_cell_angle_gamma   90.00000000
_symmetry_Int_Tables_number   1
_chemical_formula_structural   RbIn3Cl8
_chemical_formula_sum   'Rb2 In6 Cl16'
_cell_volume   850.28323177
_cell_formula_units_Z   2
loop_
 _symmetry_equiv_pos_site_id
 _symmetry_equiv_pos_as_xyz
  1  'x, y, z'
loop_
 _atom_site_type_symbol
 _atom_site_label
 _atom_site_symmetry_multiplicity
 _atom_site_fract_x
 _atom_site_fract_y
 _atom_site_fract_z
 _atom_site_occupancy
  Rb  Rb0  1  0.183342  0.750000  0.750000  1
  Rb  Rb1  1  0.816658  0.250000  0.250000  1
  In  In2  1  0.749774  0.685527  0.498917  1
  In  In3  1  0.250226  0.314473  0.501083  1
  In  In4  1  0.749774  0.814473  0.001083  1
  In  In5  1  0.250226  0.185527  0.998917  1
  In  In6  1  0.320096  0.750000  0.250000  1
  In  In7  1  0.679904  0.250000  0.750000  1
  Cl  Cl8  1  0.498849  0.814496  0.536055  1
  Cl  Cl9  1  0.501151  0.185504  0.463945  1
  Cl  Cl10  1  0.001089  0.813843  0.459393  1
  Cl  Cl11  1  0.001089  0.686157  0.040607  1
  Cl  Cl12  1  0.998911  0.186157  0.540607  1
  Cl  Cl13  1  0.998911  0.313843  0.959393  1
  Cl  Cl14  1  0.498849  0.685504  0.963945  1
  Cl  Cl15  1  0.501151  0.314496  0.036055  1
  Cl  Cl16  1  0.830833  0.555086  0.678584  1
  Cl  Cl17  1  0.169167  0.444914  0.321416  1
  Cl  Cl18  1  0.664807  0.558484  0.320752  1
  Cl  Cl19  1  0.664807  0.941516  0.179248  1
  Cl  Cl20  1  0.335193  0.441516  0.679248  1
  Cl  Cl21  1  0.335193  0.058484  0.820752  1
  Cl  Cl22  1  0.830833  0.944914  0.821416  1
  Cl  Cl23  1  0.169167  0.055086  0.178584  1
