# generated using pymatgen
data_TmLu7Nb9Si16Mo3
_symmetry_space_group_name_H-M   'P 1'
_cell_length_a   6.74862706
_cell_length_b   6.99676621
_cell_length_c   13.25475606
_cell_angle_alpha   89.98913410
_cell_angle_beta   90.00260785
_cell_angle_gamma   89.93777165
_symmetry_Int_Tables_number   1
_chemical_formula_structural   TmLu7Nb9Si16Mo3
_chemical_formula_sum   'Tm1 Lu7 Nb9 Si16 Mo3'
_cell_volume   625.87018979
_cell_formula_units_Z   1
loop_
 _symmetry_equiv_pos_site_id
 _symmetry_equiv_pos_as_xyz
  1  'x, y, z'
loop_
 _atom_site_type_symbol
 _atom_site_label
 _atom_site_symmetry_multiplicity
 _atom_site_fract_x
 _atom_site_fract_y
 _atom_site_fract_z
 _atom_site_occupancy
  Tm  Tm0  1  0.501277  0.327707  0.094571  1
  Lu  Lu1  1  0.001020  0.172566  0.405213  1
  Lu  Lu2  1  0.498467  0.672807  0.594988  1
  Lu  Lu3  1  0.998280  0.827434  0.905382  1
  Lu  Lu4  1  0.498497  0.672863  0.904914  1
  Lu  Lu5  1  0.998256  0.827385  0.594572  1
  Lu  Lu6  1  0.501148  0.327478  0.405295  1
  Lu  Lu7  1  0.000988  0.172507  0.094825  1
  Nb  Nb8  1  0.834478  0.329342  0.625326  1
  Nb  Nb9  1  0.333965  0.170954  0.874695  1
  Nb  Nb10  1  0.165765  0.670325  0.126139  1
  Nb  Nb11  1  0.666548  0.829914  0.373299  1
  Nb  Nb12  1  0.165901  0.670184  0.373997  1
  Nb  Nb13  1  0.666530  0.829959  0.126773  1
  Nb  Nb14  1  0.834550  0.329348  0.874601  1
  Nb  Nb15  1  0.334117  0.171137  0.625127  1
  Nb  Nb16  1  0.660749  0.006403  0.749967  1
  Si  Si17  1  0.665342  0.036424  0.541012  1
  Si  Si18  1  0.165039  0.463099  0.957577  1
  Si  Si19  1  0.335038  0.962476  0.042936  1
  Si  Si20  1  0.834911  0.536977  0.457356  1
  Si  Si21  1  0.335244  0.962994  0.456990  1
  Si  Si22  1  0.835468  0.537332  0.042520  1
  Si  Si23  1  0.665428  0.036169  0.958847  1
  Si  Si24  1  0.165226  0.463057  0.542317  1
  Si  Si25  1  0.532827  0.383020  0.750004  1
  Si  Si26  1  0.037775  0.120071  0.749976  1
  Si  Si27  1  0.465732  0.619084  0.250133  1
  Si  Si28  1  0.966921  0.881479  0.250032  1
  Si  Si29  1  0.798094  0.631950  0.749991  1
  Si  Si30  1  0.293039  0.863245  0.749982  1
  Si  Si31  1  0.201720  0.364769  0.250189  1
  Si  Si32  1  0.702494  0.135397  0.250230  1
  Mo  Mo33  1  0.161196  0.494029  0.749938  1
  Mo  Mo34  1  0.339428  0.994672  0.250086  1
  Mo  Mo35  1  0.838545  0.505444  0.250199  1
