# generated using pymatgen
data_Tb4Dy8Co4BiRh
_symmetry_space_group_name_H-M   'P 1'
_cell_length_a   8.35407112
_cell_length_b   8.35406641
_cell_length_c   8.35407195
_cell_angle_alpha   110.90208453
_cell_angle_beta   110.55949388
_cell_angle_gamma   106.98063975
_symmetry_Int_Tables_number   1
_chemical_formula_structural   Tb4Dy8Co4BiRh
_chemical_formula_sum   'Tb4 Dy8 Co4 Bi1 Rh1'
_cell_volume   448.18332467
_cell_formula_units_Z   1
loop_
 _symmetry_equiv_pos_site_id
 _symmetry_equiv_pos_as_xyz
  1  'x, y, z'
loop_
 _atom_site_type_symbol
 _atom_site_label
 _atom_site_symmetry_multiplicity
 _atom_site_fract_x
 _atom_site_fract_y
 _atom_site_fract_z
 _atom_site_occupancy
  Tb  Tb0  1  0.815735  0.710063  0.525798  1
  Tb  Tb1  1  0.184265  0.289937  0.474202  1
  Tb  Tb2  1  0.184265  0.710063  0.894327  1
  Tb  Tb3  1  0.815735  0.289937  0.105673  1
  Dy  Dy4  1  0.688118  0.379124  0.691006  1
  Dy  Dy5  1  0.311882  0.620876  0.308994  1
  Dy  Dy6  1  0.688119  0.997113  0.308995  1
  Dy  Dy7  1  0.311881  0.002887  0.691005  1
  Dy  Dy8  1  0.594268  0.791293  0.802974  1
  Dy  Dy9  1  0.405732  0.208707  0.197026  1
  Dy  Dy10  1  0.988320  0.791293  0.197025  1
  Dy  Dy11  1  0.011680  0.208707  0.802975  1
  Co  Co12  1  0.622527  0.000000  0.622527  1
  Co  Co13  1  0.377473  0.000000  0.377473  1
  Co  Co14  1  0.111396  0.611395  0.500000  1
  Co  Co15  1  0.888604  0.388605  0.500000  1
  Bi  Bi16  1  0.500000  0.500000  0.000000  1
  Rh  Rh17  1  0.000000  0.000000  0.000000  1
