# generated using pymatgen
data_Ho16Ag3HgRh4
_symmetry_space_group_name_H-M   'P 1'
_cell_length_a   9.51392634
_cell_length_b   9.51350061
_cell_length_c   9.51392700
_cell_angle_alpha   59.99852084
_cell_angle_beta   60.00000119
_cell_angle_gamma   59.99852044
_symmetry_Int_Tables_number   1
_chemical_formula_structural   Ho16Ag3HgRh4
_chemical_formula_sum   'Ho16 Ag3 Hg1 Rh4'
_cell_volume   608.88495670
_cell_formula_units_Z   1
loop_
 _symmetry_equiv_pos_site_id
 _symmetry_equiv_pos_as_xyz
  1  'x, y, z'
loop_
 _atom_site_type_symbol
 _atom_site_label
 _atom_site_symmetry_multiplicity
 _atom_site_fract_x
 _atom_site_fract_y
 _atom_site_fract_z
 _atom_site_occupancy
  Ho  Ho0  1  0.187235  0.183055  0.814856  1
  Ho  Ho1  1  0.604016  0.603131  0.188837  1
  Ho  Ho2  1  0.437204  0.062994  0.437204  1
  Ho  Ho3  1  0.438933  0.437536  0.061766  1
  Ho  Ho4  1  0.814856  0.183055  0.814856  1
  Ho  Ho5  1  0.185697  0.813615  0.185697  1
  Ho  Ho6  1  0.437204  0.062994  0.062598  1
  Ho  Ho7  1  0.185697  0.813615  0.814991  1
  Ho  Ho8  1  0.061766  0.437536  0.061766  1
  Ho  Ho9  1  0.814991  0.813615  0.185697  1
  Ho  Ho10  1  0.188837  0.603131  0.604016  1
  Ho  Ho11  1  0.061766  0.437536  0.438933  1
  Ho  Ho12  1  0.062598  0.062994  0.437204  1
  Ho  Ho13  1  0.814856  0.183055  0.187235  1
  Ho  Ho14  1  0.603386  0.189842  0.603386  1
  Ho  Ho15  1  0.604016  0.603131  0.604016  1
  Ag  Ag16  1  0.832003  0.834646  0.832003  1
  Ag  Ag17  1  0.832003  0.834646  0.501348  1
  Ag  Ag18  1  0.501348  0.834646  0.832003  1
  Hg  Hg19  1  0.832050  0.503850  0.832050  1
  Rh  Rh20  1  0.394021  0.817937  0.394021  1
  Rh  Rh21  1  0.393569  0.394481  0.393569  1
  Rh  Rh22  1  0.818380  0.394481  0.393569  1
  Rh  Rh23  1  0.393569  0.394481  0.818380  1
