# generated using pymatgen
data_Ce10Si5Hg
_symmetry_space_group_name_H-M   'P 1'
_cell_length_a   7.84576651
_cell_length_b   7.84576468
_cell_length_c   8.60809800
_cell_angle_alpha   117.11127907
_cell_angle_beta   117.11128043
_cell_angle_gamma   89.99999779
_symmetry_Int_Tables_number   1
_chemical_formula_structural   Ce10Si5Hg
_chemical_formula_sum   'Ce10 Si5 Hg1'
_cell_volume   405.15526866
_cell_formula_units_Z   1
loop_
 _symmetry_equiv_pos_site_id
 _symmetry_equiv_pos_as_xyz
  1  'x, y, z'
loop_
 _atom_site_type_symbol
 _atom_site_label
 _atom_site_symmetry_multiplicity
 _atom_site_fract_x
 _atom_site_fract_y
 _atom_site_fract_z
 _atom_site_occupancy
  Ce  Ce0  1  0.495390  0.495390  0.990780  1
  Ce  Ce1  1  0.004610  0.004610  0.009220  1
  Ce  Ce2  1  0.979122  0.836459  0.300865  1
  Ce  Ce3  1  0.321743  0.464406  0.300865  1
  Ce  Ce4  1  0.836459  0.321743  0.300865  1
  Ce  Ce5  1  0.464406  0.979122  0.300865  1
  Ce  Ce6  1  0.035594  0.178257  0.699135  1
  Ce  Ce7  1  0.663541  0.520878  0.699135  1
  Ce  Ce8  1  0.178257  0.663541  0.699135  1
  Ce  Ce9  1  0.520878  0.035594  0.699135  1
  Si  Si10  1  0.250000  0.250000  0.500000  1
  Si  Si11  1  0.614538  0.885462  0.000000  1
  Si  Si12  1  0.385462  0.114538  0.000000  1
  Si  Si13  1  0.885462  0.385462  0.000000  1
  Si  Si14  1  0.114538  0.614538  0.000000  1
  Hg  Hg15  1  0.750000  0.750000  0.500000  1
