# generated using pymatgen
data_Tb9Lu(Bi3S)2
_symmetry_space_group_name_H-M   'P 1'
_cell_length_a   9.21654400
_cell_length_b   9.21654516
_cell_length_c   6.57597000
_cell_angle_alpha   90.00000000
_cell_angle_beta   90.00000000
_cell_angle_gamma   120.00000302
_symmetry_Int_Tables_number   1
_chemical_formula_structural   Tb9Lu(Bi3S)2
_chemical_formula_sum   'Tb9 Lu1 Bi6 S2'
_cell_volume   483.75637124
_cell_formula_units_Z   1
loop_
 _symmetry_equiv_pos_site_id
 _symmetry_equiv_pos_as_xyz
  1  'x, y, z'
loop_
 _atom_site_type_symbol
 _atom_site_label
 _atom_site_symmetry_multiplicity
 _atom_site_fract_x
 _atom_site_fract_y
 _atom_site_fract_z
 _atom_site_occupancy
  Tb  Tb0  1  0.333333  0.666667  0.500000  1
  Tb  Tb1  1  0.333333  0.666667  0.000000  1
  Tb  Tb2  1  0.666667  0.333333  0.000000  1
  Tb  Tb3  1  0.753608  0.753922  0.250155  1
  Tb  Tb4  1  0.246078  0.999686  0.250155  1
  Tb  Tb5  1  0.000314  0.246392  0.250155  1
  Tb  Tb6  1  0.246078  0.246392  0.749845  1
  Tb  Tb7  1  0.753608  0.999686  0.749845  1
  Tb  Tb8  1  0.000314  0.753922  0.749845  1
  Lu  Lu9  1  0.666667  0.333333  0.500000  1
  Bi  Bi10  1  0.397637  0.396288  0.251323  1
  Bi  Bi11  1  0.603712  0.001349  0.251323  1
  Bi  Bi12  1  0.998651  0.602363  0.251323  1
  Bi  Bi13  1  0.603712  0.602363  0.748677  1
  Bi  Bi14  1  0.397637  0.001349  0.748677  1
  Bi  Bi15  1  0.998651  0.396288  0.748677  1
  S  S16  1  0.000000  0.000000  0.500000  1
  S  S17  1  0.000000  0.000000  0.000000  1
