# generated using pymatgen
data_TbBiIr2F14
_symmetry_space_group_name_H-M   'P 1'
_cell_length_a   5.59676509
_cell_length_b   9.11563861
_cell_length_c   12.12957904
_cell_angle_alpha   62.02274631
_cell_angle_beta   90.17219720
_cell_angle_gamma   89.77202254
_symmetry_Int_Tables_number   1
_chemical_formula_structural   TbBiIr2F14
_chemical_formula_sum   'Tb2 Bi2 Ir4 F28'
_cell_volume   546.49528236
_cell_formula_units_Z   2
loop_
 _symmetry_equiv_pos_site_id
 _symmetry_equiv_pos_as_xyz
  1  'x, y, z'
loop_
 _atom_site_type_symbol
 _atom_site_label
 _atom_site_symmetry_multiplicity
 _atom_site_fract_x
 _atom_site_fract_y
 _atom_site_fract_z
 _atom_site_occupancy
  Tb  Tb0  1  0.760026  0.192845  0.234652  1
  Tb  Tb1  1  0.239974  0.807155  0.765348  1
  Bi  Bi2  1  0.265140  0.822478  0.261607  1
  Bi  Bi3  1  0.734860  0.177522  0.738393  1
  Ir  Ir4  1  0.757380  0.724016  0.041180  1
  Ir  Ir5  1  0.242620  0.275984  0.958820  1
  Ir  Ir6  1  0.258045  0.269486  0.456540  1
  Ir  Ir7  1  0.741955  0.730514  0.543460  1
  F  F8  1  0.931539  0.708911  0.416349  1
  F  F9  1  0.068461  0.291089  0.583651  1
  F  F10  1  0.439145  0.292891  0.087589  1
  F  F11  1  0.560855  0.707109  0.912411  1
  F  F12  1  0.466023  0.725742  0.130172  1
  F  F13  1  0.533977  0.274258  0.869828  1
  F  F14  1  0.966704  0.267561  0.364055  1
  F  F15  1  0.033296  0.732439  0.635945  1
  F  F16  1  0.943642  0.738839  0.172725  1
  F  F17  1  0.056358  0.261161  0.827275  1
  F  F18  1  0.449245  0.251407  0.326722  1
  F  F19  1  0.550755  0.748593  0.673278  1
  F  F20  1  0.768477  0.480472  0.137449  1
  F  F21  1  0.231523  0.519528  0.862551  1
  F  F22  1  0.267904  0.508496  0.360174  1
  F  F23  1  0.732096  0.491504  0.639826  1
  F  F24  1  0.945347  0.279827  0.046102  1
  F  F25  1  0.054653  0.720173  0.953898  1
  F  F26  1  0.441370  0.722002  0.459559  1
  F  F27  1  0.558630  0.277998  0.540441  1
  F  F28  1  0.741028  0.972830  0.447543  1
  F  F29  1  0.258972  0.027170  0.552457  1
  F  F30  1  0.241837  0.031412  0.049268  1
  F  F31  1  0.758163  0.968588  0.950732  1
  F  F32  1  0.593869  0.975274  0.229591  1
  F  F33  1  0.406131  0.024726  0.770409  1
  F  F34  1  0.090742  0.035160  0.270339  1
  F  F35  1  0.909258  0.964840  0.729661  1
