# generated using pymatgen
data_AcNbP7Ru12
_symmetry_space_group_name_H-M   'P 1'
_cell_length_a   9.48517400
_cell_length_b   9.48517331
_cell_length_c   3.92946400
_cell_angle_alpha   90.00000000
_cell_angle_beta   90.00000000
_cell_angle_gamma   119.99999450
_symmetry_Int_Tables_number   1
_chemical_formula_structural   AcNbP7Ru12
_chemical_formula_sum   'Ac1 Nb1 P7 Ru12'
_cell_volume   306.16429575
_cell_formula_units_Z   1
loop_
 _symmetry_equiv_pos_site_id
 _symmetry_equiv_pos_as_xyz
  1  'x, y, z'
loop_
 _atom_site_type_symbol
 _atom_site_label
 _atom_site_symmetry_multiplicity
 _atom_site_fract_x
 _atom_site_fract_y
 _atom_site_fract_z
 _atom_site_occupancy
  Ac  Ac0  1  0.333333  0.666667  0.000000  1
  Nb  Nb1  1  0.666667  0.333333  0.500000  1
  P  P2  1  0.609571  0.718929  0.500000  1
  P  P3  1  0.000000  0.000000  0.000000  1
  P  P4  1  0.281071  0.890642  0.500000  1
  P  P5  1  0.109358  0.390429  0.500000  1
  P  P6  1  0.887005  0.568803  0.000000  1
  P  P7  1  0.431197  0.318202  0.000000  1
  P  P8  1  0.681798  0.112995  0.000000  1
  Ru  Ru9  1  0.565167  0.969185  0.500000  1
  Ru  Ru10  1  0.404020  0.434833  0.500000  1
  Ru  Ru11  1  0.913850  0.118713  0.500000  1
  Ru  Ru12  1  0.204863  0.086150  0.500000  1
  Ru  Ru13  1  0.881287  0.795137  0.500000  1
  Ru  Ru14  1  0.727691  0.889948  0.000000  1
  Ru  Ru15  1  0.110052  0.837744  0.000000  1
  Ru  Ru16  1  0.162256  0.272309  0.000000  1
  Ru  Ru17  1  0.426623  0.081236  0.000000  1
  Ru  Ru18  1  0.918764  0.345388  0.000000  1
  Ru  Ru19  1  0.654612  0.573377  0.000000  1
  Ru  Ru20  1  0.030815  0.595980  0.500000  1
