# generated using pymatgen
data_Yb4Sc2MoOsO12
_symmetry_space_group_name_H-M   'P 1'
_cell_length_a   5.67174055
_cell_length_b   5.43755160
_cell_length_c   9.46874317
_cell_angle_alpha   55.05570030
_cell_angle_beta   89.90418454
_cell_angle_gamma   89.98669091
_symmetry_Int_Tables_number   1
_chemical_formula_structural   Yb4Sc2MoOsO12
_chemical_formula_sum   'Yb4 Sc2 Mo1 Os1 O12'
_cell_volume   239.37078734
_cell_formula_units_Z   1
loop_
 _symmetry_equiv_pos_site_id
 _symmetry_equiv_pos_as_xyz
  1  'x, y, z'
loop_
 _atom_site_type_symbol
 _atom_site_label
 _atom_site_symmetry_multiplicity
 _atom_site_fract_x
 _atom_site_fract_y
 _atom_site_fract_z
 _atom_site_occupancy
  Yb  Yb0  1  0.936923  0.233793  0.747931  1
  Yb  Yb1  1  0.557842  0.229993  0.250702  1
  Yb  Yb2  1  0.063077  0.766207  0.252069  1
  Yb  Yb3  1  0.442158  0.770007  0.749298  1
  Sc  Sc4  1  0.000000  0.500000  0.000000  1
  Sc  Sc5  1  0.500000  0.500000  0.500000  1
  Mo  Mo6  1  0.000000  0.000000  0.500000  1
  Os  Os7  1  0.500000  0.000000  0.000000  1
  O  O8  1  0.535402  0.347493  0.758547  1
  O  O9  1  0.965998  0.341957  0.260493  1
  O  O10  1  0.464598  0.652507  0.241453  1
  O  O11  1  0.034002  0.658043  0.739507  1
  O  O12  1  0.695680  0.758107  0.947735  1
  O  O13  1  0.805109  0.754785  0.445728  1
  O  O14  1  0.304320  0.241893  0.052265  1
  O  O15  1  0.194891  0.245215  0.554272  1
  O  O16  1  0.791125  0.135569  0.055185  1
  O  O17  1  0.704336  0.134029  0.557877  1
  O  O18  1  0.208875  0.864431  0.944815  1
  O  O19  1  0.295664  0.865971  0.442123  1
