# generated using pymatgen
data_Y2P7(IrRu3)3
_symmetry_space_group_name_H-M   'P 1'
_cell_length_a   9.45178900
_cell_length_b   9.45178705
_cell_length_c   3.94332200
_cell_angle_alpha   90.00000000
_cell_angle_beta   90.00000000
_cell_angle_gamma   119.99999632
_symmetry_Int_Tables_number   1
_chemical_formula_structural   Y2P7(IrRu3)3
_chemical_formula_sum   'Y2 P7 Ir3 Ru9'
_cell_volume   305.08498628
_cell_formula_units_Z   1
loop_
 _symmetry_equiv_pos_site_id
 _symmetry_equiv_pos_as_xyz
  1  'x, y, z'
loop_
 _atom_site_type_symbol
 _atom_site_label
 _atom_site_symmetry_multiplicity
 _atom_site_fract_x
 _atom_site_fract_y
 _atom_site_fract_z
 _atom_site_occupancy
  Y  Y0  1  0.666667  0.333333  0.000000  1
  Y  Y1  1  0.333333  0.666667  0.500000  1
  P  P2  1  0.299248  0.880464  0.000000  1
  P  P3  1  0.581215  0.700752  0.000000  1
  P  P4  1  0.119536  0.418785  0.000000  1
  P  P5  1  0.399895  0.285535  0.500000  1
  P  P6  1  0.885639  0.600105  0.500000  1
  P  P7  1  0.714465  0.114361  0.500000  1
  P  P8  1  0.000000  0.000000  0.000000  1
  Ir  Ir9  1  0.444987  0.057463  0.500000  1
  Ir  Ir10  1  0.612475  0.555013  0.500000  1
  Ir  Ir11  1  0.942537  0.387525  0.500000  1
  Ru  Ru12  1  0.064837  0.631988  0.000000  1
  Ru  Ru13  1  0.567150  0.935163  0.000000  1
  Ru  Ru14  1  0.368012  0.432850  0.000000  1
  Ru  Ru15  1  0.271234  0.109709  0.000000  1
  Ru  Ru16  1  0.838476  0.728766  0.000000  1
  Ru  Ru17  1  0.890291  0.161524  0.000000  1
  Ru  Ru18  1  0.089918  0.870510  0.500000  1
  Ru  Ru19  1  0.780592  0.910082  0.500000  1
  Ru  Ru20  1  0.129490  0.219408  0.500000  1
