# generated using pymatgen
data_Zr16Nb4Si15Ge
_symmetry_space_group_name_H-M   'P 1'
_cell_length_a   6.83947467
_cell_length_b   7.03950579
_cell_length_c   13.53380777
_cell_angle_alpha   90.02205289
_cell_angle_beta   89.85608802
_cell_angle_gamma   90.01352028
_symmetry_Int_Tables_number   1
_chemical_formula_structural   Zr16Nb4Si15Ge
_chemical_formula_sum   'Zr16 Nb4 Si15 Ge1'
_cell_volume   651.60364531
_cell_formula_units_Z   1
loop_
 _symmetry_equiv_pos_site_id
 _symmetry_equiv_pos_as_xyz
  1  'x, y, z'
loop_
 _atom_site_type_symbol
 _atom_site_label
 _atom_site_symmetry_multiplicity
 _atom_site_fract_x
 _atom_site_fract_y
 _atom_site_fract_z
 _atom_site_occupancy
  Zr  Zr0  1  0.335459  0.675972  0.876134  1
  Zr  Zr1  1  0.835519  0.824594  0.876029  1
  Zr  Zr2  1  0.662231  0.327921  0.374653  1
  Zr  Zr3  1  0.003844  0.677159  0.096243  1
  Zr  Zr4  1  0.498347  0.819193  0.401890  1
  Zr  Zr5  1  0.496575  0.177640  0.902918  1
  Zr  Zr6  1  0.495872  0.179643  0.598435  1
  Zr  Zr7  1  0.996695  0.322634  0.903479  1
  Zr  Zr8  1  0.165022  0.175855  0.123846  1
  Zr  Zr9  1  0.164979  0.174848  0.375724  1
  Zr  Zr10  1  0.003479  0.674771  0.403043  1
  Zr  Zr11  1  0.665061  0.324888  0.123854  1
  Zr  Zr12  1  0.503580  0.822533  0.096707  1
  Zr  Zr13  1  0.998958  0.324211  0.597730  1
  Zr  Zr14  1  0.335679  0.674732  0.624554  1
  Zr  Zr15  1  0.838092  0.823143  0.625188  1
  Nb  Nb16  1  0.663495  0.501180  0.750300  1
  Nb  Nb17  1  0.163796  0.998774  0.750204  1
  Nb  Nb18  1  0.336571  0.499050  0.249772  1
  Nb  Nb19  1  0.836564  0.001837  0.248192  1
  Si  Si20  1  0.672126  0.531224  0.538742  1
  Si  Si21  1  0.170909  0.969673  0.960979  1
  Si  Si22  1  0.293793  0.361979  0.750819  1
  Si  Si23  1  0.829572  0.030698  0.038906  1
  Si  Si24  1  0.329953  0.469377  0.038795  1
  Si  Si25  1  0.462684  0.105710  0.249629  1
  Si  Si26  1  0.706628  0.639378  0.249301  1
  Si  Si27  1  0.962989  0.393533  0.249913  1
  Si  Si28  1  0.794745  0.138549  0.750241  1
  Si  Si29  1  0.670723  0.530684  0.960971  1
  Si  Si30  1  0.176540  0.968873  0.539246  1
  Si  Si31  1  0.037739  0.605812  0.750806  1
  Si  Si32  1  0.327401  0.467794  0.461868  1
  Si  Si33  1  0.537923  0.893723  0.750013  1
  Si  Si34  1  0.204516  0.861372  0.249642  1
  Ge  Ge35  1  0.821943  0.031046  0.461232  1
