# generated using pymatgen
data_Sr6LiLu(CoO6)2
_symmetry_space_group_name_H-M   'P 1'
_cell_length_a   6.68816215
_cell_length_b   6.67769935
_cell_length_c   6.68063959
_cell_angle_alpha   92.50041701
_cell_angle_beta   92.55336008
_cell_angle_gamma   92.57453190
_symmetry_Int_Tables_number   1
_chemical_formula_structural   Sr6LiLu(CoO6)2
_chemical_formula_sum   'Sr6 Li1 Lu1 Co2 O12'
_cell_volume   297.45916305
_cell_formula_units_Z   1
loop_
 _symmetry_equiv_pos_site_id
 _symmetry_equiv_pos_as_xyz
  1  'x, y, z'
loop_
 _atom_site_type_symbol
 _atom_site_label
 _atom_site_symmetry_multiplicity
 _atom_site_fract_x
 _atom_site_fract_y
 _atom_site_fract_z
 _atom_site_occupancy
  Sr  Sr0  1  0.879924  0.248312  0.621712  1
  Sr  Sr1  1  0.250193  0.621671  0.878191  1
  Sr  Sr2  1  0.620040  0.878440  0.251429  1
  Sr  Sr3  1  0.749891  0.391465  0.108403  1
  Sr  Sr4  1  0.392700  0.107040  0.749524  1
  Sr  Sr5  1  0.107354  0.750601  0.393014  1
  Li  Li6  1  0.749857  0.751642  0.748442  1
  Lu  Lu7  1  0.250021  0.249725  0.250212  1
  Co  Co8  1  0.995016  0.995372  0.996351  1
  Co  Co9  1  0.505088  0.503764  0.504574  1
  O  O10  1  0.218898  0.410415  0.541219  1
  O  O11  1  0.412038  0.540664  0.218376  1
  O  O12  1  0.540597  0.218316  0.410165  1
  O  O13  1  0.919491  0.728970  0.046190  1
  O  O14  1  0.727793  0.046193  0.918330  1
  O  O15  1  0.046158  0.919127  0.726851  1
  O  O16  1  0.772019  0.581570  0.453912  1
  O  O17  1  0.580705  0.453917  0.771468  1
  O  O18  1  0.453497  0.772875  0.580914  1
  O  O19  1  0.087935  0.281352  0.959367  1
  O  O20  1  0.281315  0.958811  0.089516  1
  O  O21  1  0.959469  0.089762  0.281841  1
