# generated using pymatgen
data_LiAc(WO4)2
_symmetry_space_group_name_H-M   'P 1'
_cell_length_a   5.04826555
_cell_length_b   8.37722550
_cell_length_c   8.37697649
_cell_angle_alpha   103.73080590
_cell_angle_beta   90.96728257
_cell_angle_gamma   90.96821326
_symmetry_Int_Tables_number   1
_chemical_formula_structural   LiAc(WO4)2
_chemical_formula_sum   'Li2 Ac2 W4 O16'
_cell_volume   344.01308614
_cell_formula_units_Z   2
loop_
 _symmetry_equiv_pos_site_id
 _symmetry_equiv_pos_as_xyz
  1  'x, y, z'
loop_
 _atom_site_type_symbol
 _atom_site_label
 _atom_site_symmetry_multiplicity
 _atom_site_fract_x
 _atom_site_fract_y
 _atom_site_fract_z
 _atom_site_occupancy
  Li  Li0  1  0.750002  0.898665  0.101341  1
  Li  Li1  1  0.250006  0.101331  0.898655  1
  Ac  Ac2  1  0.249990  0.676722  0.323270  1
  Ac  Ac3  1  0.750012  0.323284  0.676733  1
  W  W4  1  0.715681  0.310638  0.156027  1
  W  W5  1  0.215670  0.156028  0.310643  1
  W  W6  1  0.784332  0.843982  0.689351  1
  W  W7  1  0.284323  0.689356  0.843985  1
  O  O8  1  0.429970  0.719777  0.051515  1
  O  O9  1  0.028017  0.183116  0.091534  1
  O  O10  1  0.528005  0.091533  0.183123  1
  O  O11  1  0.848249  0.520826  0.187856  1
  O  O12  1  0.405727  0.385227  0.291001  1
  O  O13  1  0.070055  0.948500  0.280217  1
  O  O14  1  0.905706  0.291004  0.385229  1
  O  O15  1  0.651748  0.812137  0.479166  1
  O  O16  1  0.348247  0.187864  0.520821  1
  O  O17  1  0.094284  0.709000  0.614761  1
  O  O18  1  0.929962  0.051521  0.719779  1
  O  O19  1  0.594266  0.614758  0.709003  1
  O  O20  1  0.151742  0.479160  0.812139  1
  O  O21  1  0.471991  0.908473  0.816876  1
  O  O22  1  0.971974  0.816883  0.908472  1
  O  O23  1  0.570042  0.280216  0.948503  1
