# generated using pymatgen
data_NaNb6AlS12
_symmetry_space_group_name_H-M   'P 1'
_cell_length_a   5.76144800
_cell_length_b   5.76144771
_cell_length_c   13.40634900
_cell_angle_alpha   90.00000000
_cell_angle_beta   90.00000000
_cell_angle_gamma   120.00000164
_symmetry_Int_Tables_number   1
_chemical_formula_structural   NaNb6AlS12
_chemical_formula_sum   'Na1 Nb6 Al1 S12'
_cell_volume   385.39352775
_cell_formula_units_Z   1
loop_
 _symmetry_equiv_pos_site_id
 _symmetry_equiv_pos_as_xyz
  1  'x, y, z'
loop_
 _atom_site_type_symbol
 _atom_site_label
 _atom_site_symmetry_multiplicity
 _atom_site_fract_x
 _atom_site_fract_y
 _atom_site_fract_z
 _atom_site_occupancy
  Na  Na0  1  0.333333  0.666667  0.250000  1
  Nb  Nb1  1  0.333333  0.666667  0.973592  1
  Nb  Nb2  1  0.000000  0.000000  0.973700  1
  Nb  Nb3  1  0.000000  0.000000  0.526300  1
  Nb  Nb4  1  0.333333  0.666667  0.526408  1
  Nb  Nb5  1  0.666667  0.333333  0.975248  1
  Nb  Nb6  1  0.666667  0.333333  0.524752  1
  Al  Al7  1  0.666667  0.333333  0.750000  1
  S  S8  1  0.332960  0.001659  0.091642  1
  S  S9  1  0.666626  0.996503  0.644859  1
  S  S10  1  0.998341  0.331300  0.091642  1
  S  S11  1  0.668700  0.001659  0.408358  1
  S  S12  1  0.332960  0.331300  0.408358  1
  S  S13  1  0.998341  0.667040  0.408358  1
  S  S14  1  0.668700  0.667040  0.091642  1
  S  S15  1  0.329877  0.333374  0.644859  1
  S  S16  1  0.003497  0.670123  0.644859  1
  S  S17  1  0.329877  0.996503  0.855141  1
  S  S18  1  0.666626  0.670123  0.855141  1
  S  S19  1  0.003497  0.333374  0.855141  1
