# generated using pymatgen
data_Tb2Er4Al24Ir5Ru3
_symmetry_space_group_name_H-M   'P 1'
_cell_length_a   8.81441500
_cell_length_b   8.81936926
_cell_length_c   9.50220412
_cell_angle_alpha   90.11770284
_cell_angle_beta   90.00000000
_cell_angle_gamma   119.98141551
_symmetry_Int_Tables_number   1
_chemical_formula_structural   Tb2Er4Al24Ir5Ru3
_chemical_formula_sum   'Tb2 Er4 Al24 Ir5 Ru3'
_cell_volume   639.83219050
_cell_formula_units_Z   1
loop_
 _symmetry_equiv_pos_site_id
 _symmetry_equiv_pos_as_xyz
  1  'x, y, z'
loop_
 _atom_site_type_symbol
 _atom_site_label
 _atom_site_symmetry_multiplicity
 _atom_site_fract_x
 _atom_site_fract_y
 _atom_site_fract_z
 _atom_site_occupancy
  Tb  Tb0  1  0.193980  0.387960  0.249614  1
  Tb  Tb1  1  0.806020  0.612040  0.750386  1
  Er  Er2  1  0.611074  0.805621  0.250799  1
  Er  Er3  1  0.388926  0.194379  0.749201  1
  Er  Er4  1  0.194548  0.805621  0.250799  1
  Er  Er5  1  0.805452  0.194379  0.749201  1
  Al  Al6  1  0.333693  0.667388  0.027923  1
  Al  Al7  1  0.666307  0.332612  0.972077  1
  Al  Al8  1  0.665431  0.330861  0.526187  1
  Al  Al9  1  0.334569  0.669139  0.473813  1
  Al  Al10  1  0.162736  0.325472  0.576889  1
  Al  Al11  1  0.837264  0.674528  0.423111  1
  Al  Al12  1  0.673811  0.837820  0.576983  1
  Al  Al13  1  0.837326  0.674652  0.077155  1
  Al  Al14  1  0.326189  0.162180  0.423017  1
  Al  Al15  1  0.162674  0.325348  0.922845  1
  Al  Al16  1  0.164010  0.837820  0.576983  1
  Al  Al17  1  0.325550  0.162440  0.076137  1
  Al  Al18  1  0.835990  0.162180  0.423017  1
  Al  Al19  1  0.674450  0.837560  0.923863  1
  Al  Al20  1  0.836890  0.162440  0.076137  1
  Al  Al21  1  0.163110  0.837560  0.923863  1
  Al  Al22  1  0.561796  0.123592  0.251095  1
  Al  Al23  1  0.438204  0.876408  0.748905  1
  Al  Al24  1  0.874965  0.438149  0.249643  1
  Al  Al25  1  0.125035  0.561851  0.750357  1
  Al  Al26  1  0.563184  0.438149  0.249643  1
  Al  Al27  1  0.436816  0.561851  0.750357  1
  Al  Al28  1  0.000143  0.000288  0.249933  1
  Al  Al29  1  0.999857  0.999712  0.750067  1
  Ir  Ir30  1  0.500000  0.000000  0.000000  1
  Ir  Ir31  1  0.000000  0.500000  0.000000  1
  Ir  Ir32  1  0.500000  0.500000  0.000000  1
  Ir  Ir33  1  0.000000  0.500000  0.500000  1
  Ir  Ir34  1  0.500000  0.500000  0.500000  1
  Ru  Ru35  1  0.500000  0.000000  0.500000  1
  Ru  Ru36  1  0.000000  0.000000  0.000000  1
  Ru  Ru37  1  0.000000  0.000000  0.500000  1
