# generated using pymatgen
data_La2TbNd9(Si2Ni)4
_symmetry_space_group_name_H-M   'P 1'
_cell_length_a   4.24774000
_cell_length_b   11.70394898
_cell_length_c   11.62058838
_cell_angle_alpha   89.38682537
_cell_angle_beta   90.00000000
_cell_angle_gamma   90.00000000
_symmetry_Int_Tables_number   1
_chemical_formula_structural   La2TbNd9(Si2Ni)4
_chemical_formula_sum   'La2 Tb1 Nd9 Si8 Ni4'
_cell_volume   577.68832926
_cell_formula_units_Z   1
loop_
 _symmetry_equiv_pos_site_id
 _symmetry_equiv_pos_as_xyz
  1  'x, y, z'
loop_
 _atom_site_type_symbol
 _atom_site_label
 _atom_site_symmetry_multiplicity
 _atom_site_fract_x
 _atom_site_fract_y
 _atom_site_fract_z
 _atom_site_occupancy
  La  La0  1  0.250000  0.061002  0.882395  1
  La  La1  1  0.750000  0.941186  0.114882  1
  Tb  Tb2  1  0.750000  0.308827  0.789100  1
  Nd  Nd3  1  0.250000  0.441444  0.387077  1
  Nd  Nd4  1  0.750000  0.558984  0.616161  1
  Nd  Nd5  1  0.250000  0.123552  0.560536  1
  Nd  Nd6  1  0.250000  0.378464  0.060128  1
  Nd  Nd7  1  0.750000  0.877041  0.439895  1
  Nd  Nd8  1  0.750000  0.619995  0.938631  1
  Nd  Nd9  1  0.250000  0.803116  0.708889  1
  Nd  Nd10  1  0.250000  0.694573  0.209991  1
  Nd  Nd11  1  0.750000  0.199365  0.288859  1
  Si  Si12  1  0.250000  0.807829  0.967574  1
  Si  Si13  1  0.250000  0.686618  0.469047  1
  Si  Si14  1  0.750000  0.192876  0.027999  1
  Si  Si15  1  0.750000  0.313673  0.534886  1
  Si  Si16  1  0.250000  0.485820  0.800973  1
  Si  Si17  1  0.250000  0.014909  0.303390  1
  Si  Si18  1  0.750000  0.508739  0.201043  1
  Si  Si19  1  0.750000  0.985980  0.695529  1
  Ni  Ni20  1  0.250000  0.361049  0.634940  1
  Ni  Ni21  1  0.250000  0.136959  0.127799  1
  Ni  Ni22  1  0.750000  0.635652  0.370234  1
  Ni  Ni23  1  0.750000  0.862346  0.870038  1
