# generated using pymatgen
data_PrSmB2Pt7Rh
_symmetry_space_group_name_H-M   'P 1'
_cell_length_a   5.49369601
_cell_length_b   5.49041685
_cell_length_c   7.68039500
_cell_angle_alpha   90.00000000
_cell_angle_beta   90.00000000
_cell_angle_gamma   119.98024261
_symmetry_Int_Tables_number   1
_chemical_formula_structural   PrSmB2Pt7Rh
_chemical_formula_sum   'Pr1 Sm1 B2 Pt7 Rh1'
_cell_volume   200.66450572
_cell_formula_units_Z   1
loop_
 _symmetry_equiv_pos_site_id
 _symmetry_equiv_pos_as_xyz
  1  'x, y, z'
loop_
 _atom_site_type_symbol
 _atom_site_label
 _atom_site_symmetry_multiplicity
 _atom_site_fract_x
 _atom_site_fract_y
 _atom_site_fract_z
 _atom_site_occupancy
  Pr  Pr0  1  0.000000  0.000000  0.998274  1
  Sm  Sm1  1  0.000000  0.000000  0.504307  1
  B  B2  1  0.666234  0.333117  0.502291  1
  B  B3  1  0.333766  0.666883  0.502291  1
  Pt  Pt4  1  0.681617  0.340808  0.998289  1
  Pt  Pt5  1  0.500000  0.500000  0.299839  1
  Pt  Pt6  1  0.500000  0.000000  0.299839  1
  Pt  Pt7  1  0.500000  0.000000  0.700635  1
  Pt  Pt8  1  0.500000  0.500000  0.700635  1
  Pt  Pt9  1  0.318383  0.659192  0.998289  1
  Pt  Pt10  1  0.000000  0.500000  0.305042  1
  Rh  Rh11  1  0.000000  0.500000  0.690272  1
