# generated using pymatgen
data_Zr2VP2Pd
_symmetry_space_group_name_H-M   'P 1'
_cell_length_a   3.67579300
_cell_length_b   6.59595270
_cell_length_c   7.79898724
_cell_angle_alpha   89.23267703
_cell_angle_beta   90.00000000
_cell_angle_gamma   90.00000000
_symmetry_Int_Tables_number   1
_chemical_formula_structural   Zr2VP2Pd
_chemical_formula_sum   'Zr4 V2 P4 Pd2'
_cell_volume   189.07227138
_cell_formula_units_Z   2
loop_
 _symmetry_equiv_pos_site_id
 _symmetry_equiv_pos_as_xyz
  1  'x, y, z'
loop_
 _atom_site_type_symbol
 _atom_site_label
 _atom_site_symmetry_multiplicity
 _atom_site_fract_x
 _atom_site_fract_y
 _atom_site_fract_z
 _atom_site_occupancy
  Zr  Zr0  1  0.250000  0.031297  0.829392  1
  Zr  Zr1  1  0.750000  0.968703  0.170608  1
  Zr  Zr2  1  0.250000  0.537984  0.670297  1
  Zr  Zr3  1  0.750000  0.462016  0.329703  1
  V  V4  1  0.750000  0.869809  0.558209  1
  V  V5  1  0.250000  0.130191  0.441791  1
  P  P6  1  0.250000  0.766666  0.373518  1
  P  P7  1  0.750000  0.233334  0.626482  1
  P  P8  1  0.250000  0.255933  0.141194  1
  P  P9  1  0.750000  0.744067  0.858806  1
  Pd  Pd10  1  0.750000  0.354298  0.937365  1
  Pd  Pd11  1  0.250000  0.645702  0.062635  1
