# generated using pymatgen
data_Eu4P4IrRh3
_symmetry_space_group_name_H-M   'P 1'
_cell_length_a   6.29246513
_cell_length_b   6.29246513
_cell_length_c   6.29246513
_cell_angle_alpha   90.04863103
_cell_angle_beta   90.04863103
_cell_angle_gamma   90.04863103
_symmetry_Int_Tables_number   1
_chemical_formula_structural   Eu4P4IrRh3
_chemical_formula_sum   'Eu4 P4 Ir1 Rh3'
_cell_volume   249.15062669
_cell_formula_units_Z   1
loop_
 _symmetry_equiv_pos_site_id
 _symmetry_equiv_pos_as_xyz
  1  'x, y, z'
loop_
 _atom_site_type_symbol
 _atom_site_label
 _atom_site_symmetry_multiplicity
 _atom_site_fract_x
 _atom_site_fract_y
 _atom_site_fract_z
 _atom_site_occupancy
  Eu  Eu0  1  0.391661  0.889825  0.608504  1
  Eu  Eu1  1  0.889825  0.608504  0.391661  1
  Eu  Eu2  1  0.608504  0.391661  0.889825  1
  Eu  Eu3  1  0.109345  0.109345  0.109345  1
  P  P4  1  0.671314  0.171888  0.329158  1
  P  P5  1  0.171888  0.329158  0.671314  1
  P  P6  1  0.329158  0.671314  0.171888  1
  P  P7  1  0.827927  0.827927  0.827927  1
  Ir  Ir8  1  0.413128  0.413128  0.413128  1
  Rh  Rh9  1  0.086583  0.587269  0.913398  1
  Rh  Rh10  1  0.587269  0.913398  0.086583  1
  Rh  Rh11  1  0.913398  0.086583  0.587269  1
