# generated using pymatgen
data_Y6Er7Tm7(Cd3Ru)2
_symmetry_space_group_name_H-M   'P 1'
_cell_length_a   9.54443206
_cell_length_b   9.54443188
_cell_length_c   9.75303403
_cell_angle_alpha   90.00779218
_cell_angle_beta   89.99220893
_cell_angle_gamma   120.00956810
_symmetry_Int_Tables_number   1
_chemical_formula_structural   Y6Er7Tm7(Cd3Ru)2
_chemical_formula_sum   'Y6 Er7 Tm7 Cd6 Ru2'
_cell_volume   769.35832718
_cell_formula_units_Z   1
loop_
 _symmetry_equiv_pos_site_id
 _symmetry_equiv_pos_as_xyz
  1  'x, y, z'
loop_
 _atom_site_type_symbol
 _atom_site_label
 _atom_site_symmetry_multiplicity
 _atom_site_fract_x
 _atom_site_fract_y
 _atom_site_fract_z
 _atom_site_occupancy
  Y  Y0  1  0.540455  0.459545  0.249754  1
  Y  Y1  1  0.540393  0.080889  0.249819  1
  Y  Y2  1  0.919111  0.459607  0.249819  1
  Y  Y3  1  0.459555  0.540445  0.750256  1
  Y  Y4  1  0.459458  0.919015  0.750195  1
  Y  Y5  1  0.080985  0.540542  0.750195  1
  Er  Er6  1  0.209795  0.790205  0.440025  1
  Er  Er7  1  0.209820  0.419610  0.440004  1
  Er  Er8  1  0.580390  0.790180  0.440004  1
  Er  Er9  1  0.790222  0.209778  0.559889  1
  Er  Er10  1  0.790157  0.580365  0.559993  1
  Er  Er11  1  0.419635  0.209843  0.559993  1
  Er  Er12  1  0.790124  0.209876  0.940131  1
  Tm  Tm13  1  0.000002  0.999998  0.500008  1
  Tm  Tm14  1  0.000040  0.999960  0.000018  1
  Tm  Tm15  1  0.790061  0.580232  0.940125  1
  Tm  Tm16  1  0.419768  0.209939  0.940125  1
  Tm  Tm17  1  0.209959  0.790041  0.059893  1
  Tm  Tm18  1  0.210011  0.419929  0.059917  1
  Tm  Tm19  1  0.580071  0.789989  0.059917  1
  Cd  Cd20  1  0.885920  0.114080  0.249934  1
  Cd  Cd21  1  0.885897  0.771800  0.249912  1
  Cd  Cd22  1  0.228200  0.114103  0.249912  1
  Cd  Cd23  1  0.114090  0.885910  0.750103  1
  Cd  Cd24  1  0.114116  0.228192  0.750092  1
  Cd  Cd25  1  0.771808  0.885884  0.750092  1
  Ru  Ru26  1  0.333334  0.666666  0.249677  1
  Ru  Ru27  1  0.666621  0.333379  0.750194  1
