# generated using pymatgen
data_Gd3Tm(MoO6)2
_symmetry_space_group_name_H-M   'P 1'
_cell_length_a   10.03403318
_cell_length_b   10.03403384
_cell_length_c   5.42158663
_cell_angle_alpha   75.01366528
_cell_angle_beta   75.01365920
_cell_angle_gamma   68.29266122
_symmetry_Int_Tables_number   1
_chemical_formula_structural   Gd3Tm(MoO6)2
_chemical_formula_sum   'Gd6 Tm2 Mo4 O24'
_cell_volume   481.75476965
_cell_formula_units_Z   2
loop_
 _symmetry_equiv_pos_site_id
 _symmetry_equiv_pos_as_xyz
  1  'x, y, z'
loop_
 _atom_site_type_symbol
 _atom_site_label
 _atom_site_symmetry_multiplicity
 _atom_site_fract_x
 _atom_site_fract_y
 _atom_site_fract_z
 _atom_site_occupancy
  Gd  Gd0  1  0.551150  0.784206  0.622223  1
  Gd  Gd1  1  0.784206  0.551150  0.122223  1
  Gd  Gd2  1  0.448850  0.215794  0.377777  1
  Gd  Gd3  1  0.215794  0.448850  0.877777  1
  Gd  Gd4  1  0.861842  0.138158  0.250000  1
  Gd  Gd5  1  0.138158  0.861842  0.750000  1
  Tm  Tm6  1  0.397689  0.602311  0.250000  1
  Tm  Tm7  1  0.602311  0.397689  0.750000  1
  Mo  Mo8  1  0.296922  0.010050  0.065612  1
  Mo  Mo9  1  0.989950  0.703078  0.434388  1
  Mo  Mo10  1  0.703078  0.989950  0.934388  1
  Mo  Mo11  1  0.010050  0.296922  0.565612  1
  O  O12  1  0.607212  0.569902  0.924772  1
  O  O13  1  0.430098  0.392788  0.575228  1
  O  O14  1  0.392788  0.430098  0.075228  1
  O  O15  1  0.569902  0.607212  0.424772  1
  O  O16  1  0.338133  0.803174  0.934657  1
  O  O17  1  0.196826  0.661867  0.565343  1
  O  O18  1  0.661867  0.196826  0.065343  1
  O  O19  1  0.803174  0.338133  0.434657  1
  O  O20  1  0.328205  0.887559  0.379284  1
  O  O21  1  0.112441  0.671795  0.120716  1
  O  O22  1  0.671795  0.112441  0.620716  1
  O  O23  1  0.887559  0.328205  0.879284  1
  O  O24  1  0.182183  0.289385  0.634350  1
  O  O25  1  0.710615  0.817817  0.865650  1
  O  O26  1  0.817817  0.710615  0.365650  1
  O  O27  1  0.289385  0.182183  0.134350  1
  O  O28  1  0.045805  0.113633  0.517801  1
  O  O29  1  0.886367  0.954195  0.982199  1
  O  O30  1  0.429963  0.022762  0.759446  1
  O  O31  1  0.113633  0.045805  0.017801  1
  O  O32  1  0.022762  0.429963  0.259446  1
  O  O33  1  0.570037  0.977238  0.240554  1
  O  O34  1  0.977238  0.570037  0.740554  1
  O  O35  1  0.954195  0.886367  0.482199  1
