# generated using pymatgen
data_Be6Fe2MoOs3
_symmetry_space_group_name_H-M   'P 1'
_cell_length_a   4.47918500
_cell_length_b   4.47918525
_cell_length_c   7.09674100
_cell_angle_alpha   90.00000000
_cell_angle_beta   90.00000000
_cell_angle_gamma   120.00000553
_symmetry_Int_Tables_number   1
_chemical_formula_structural   Be6Fe2MoOs3
_chemical_formula_sum   'Be6 Fe2 Mo1 Os3'
_cell_volume   123.30695914
_cell_formula_units_Z   1
loop_
 _symmetry_equiv_pos_site_id
 _symmetry_equiv_pos_as_xyz
  1  'x, y, z'
loop_
 _atom_site_type_symbol
 _atom_site_label
 _atom_site_symmetry_multiplicity
 _atom_site_fract_x
 _atom_site_fract_y
 _atom_site_fract_z
 _atom_site_occupancy
  Be  Be0  1  0.829643  0.170357  0.254711  1
  Be  Be1  1  0.829643  0.659285  0.254711  1
  Be  Be2  1  0.340715  0.170357  0.254711  1
  Be  Be3  1  0.169021  0.830979  0.746030  1
  Be  Be4  1  0.169021  0.338041  0.746030  1
  Be  Be5  1  0.661959  0.830979  0.746030  1
  Fe  Fe6  1  0.000000  0.000000  0.502208  1
  Fe  Fe7  1  0.000000  0.000000  0.998651  1
  Mo  Mo8  1  0.333333  0.666667  0.064863  1
  Os  Os9  1  0.333333  0.666667  0.428727  1
  Os  Os10  1  0.666667  0.333333  0.567832  1
  Os  Os11  1  0.666667  0.333333  0.935493  1
