# generated using pymatgen
data_Ce4Y5Ho(AgPb3)2
_symmetry_space_group_name_H-M   'P 1'
_cell_length_a   9.56822907
_cell_length_b   9.56627374
_cell_length_c   6.49504200
_cell_angle_alpha   90.00000000
_cell_angle_beta   90.00000000
_cell_angle_gamma   119.99324031
_symmetry_Int_Tables_number   1
_chemical_formula_structural   Ce4Y5Ho(AgPb3)2
_chemical_formula_sum   'Ce4 Y5 Ho1 Ag2 Pb6'
_cell_volume   514.89247091
_cell_formula_units_Z   1
loop_
 _symmetry_equiv_pos_site_id
 _symmetry_equiv_pos_as_xyz
  1  'x, y, z'
loop_
 _atom_site_type_symbol
 _atom_site_label
 _atom_site_symmetry_multiplicity
 _atom_site_fract_x
 _atom_site_fract_y
 _atom_site_fract_z
 _atom_site_occupancy
  Ce  Ce0  1  0.666877  0.333564  0.500145  1
  Ce  Ce1  1  0.333123  0.666688  0.500145  1
  Ce  Ce2  1  0.333123  0.666688  0.999855  1
  Ce  Ce3  1  0.666877  0.333564  0.999855  1
  Y  Y4  1  0.724515  0.724553  0.250000  1
  Y  Y5  1  0.275485  0.000038  0.250000  1
  Y  Y6  1  0.000000  0.275120  0.250000  1
  Y  Y7  1  0.275478  0.275708  0.750000  1
  Y  Y8  1  0.724522  0.000231  0.750000  1
  Ho  Ho9  1  0.000000  0.724887  0.750000  1
  Ag  Ag10  1  0.000000  0.999002  0.500956  1
  Ag  Ag11  1  0.000000  0.999002  0.999044  1
  Pb  Pb12  1  0.373307  0.373347  0.250000  1
  Pb  Pb13  1  0.626693  0.000040  0.250000  1
  Pb  Pb14  1  0.000000  0.626897  0.250000  1
  Pb  Pb15  1  0.627470  0.627129  0.750000  1
  Pb  Pb16  1  0.372530  0.999659  0.750000  1
  Pb  Pb17  1  0.000000  0.373884  0.750000  1
