# generated using pymatgen
data_Nd2Tm4Fe3(Co5P4)3
_symmetry_space_group_name_H-M   'P 1'
_cell_length_a   3.71596000
_cell_length_b   10.59851700
_cell_length_c   12.21710000
_cell_angle_alpha   90.00000000
_cell_angle_beta   90.00000000
_cell_angle_gamma   90.00000000
_symmetry_Int_Tables_number   1
_chemical_formula_structural   Nd2Tm4Fe3(Co5P4)3
_chemical_formula_sum   'Nd2 Tm4 Fe3 Co15 P12'
_cell_volume   481.15417650
_cell_formula_units_Z   1
loop_
 _symmetry_equiv_pos_site_id
 _symmetry_equiv_pos_as_xyz
  1  'x, y, z'
loop_
 _atom_site_type_symbol
 _atom_site_label
 _atom_site_symmetry_multiplicity
 _atom_site_fract_x
 _atom_site_fract_y
 _atom_site_fract_z
 _atom_site_occupancy
  Nd  Nd0  1  0.000000  0.500000  0.522972  1
  Nd  Nd1  1  0.500000  0.000000  0.477164  1
  Tm  Tm2  1  0.500000  0.818020  0.203650  1
  Tm  Tm3  1  0.500000  0.181980  0.203650  1
  Tm  Tm4  1  0.000000  0.680436  0.796779  1
  Tm  Tm5  1  0.000000  0.319564  0.796779  1
  Fe  Fe6  1  0.500000  0.500000  0.154094  1
  Fe  Fe7  1  0.000000  0.000000  0.844691  1
  Fe  Fe8  1  0.000000  0.500000  0.989125  1
  Co  Co9  1  0.500000  0.500000  0.705906  1
  Co  Co10  1  0.000000  0.000000  0.293714  1
  Co  Co11  1  0.500000  0.000000  0.012915  1
  Co  Co12  1  0.500000  0.331061  0.994361  1
  Co  Co13  1  0.500000  0.668939  0.994361  1
  Co  Co14  1  0.000000  0.166605  0.005597  1
  Co  Co15  1  0.000000  0.833395  0.005597  1
  Co  Co16  1  0.500000  0.295844  0.428848  1
  Co  Co17  1  0.500000  0.704156  0.428848  1
  Co  Co18  1  0.000000  0.204424  0.571217  1
  Co  Co19  1  0.000000  0.795576  0.571217  1
  Co  Co20  1  0.500000  0.878665  0.712257  1
  Co  Co21  1  0.500000  0.121335  0.712257  1
  Co  Co22  1  0.000000  0.621375  0.287445  1
  Co  Co23  1  0.000000  0.378625  0.287445  1
  P  P24  1  0.500000  0.500000  0.885671  1
  P  P25  1  0.000000  0.000000  0.116202  1
  P  P26  1  0.500000  0.500000  0.337809  1
  P  P27  1  0.000000  0.000000  0.661306  1
  P  P28  1  0.500000  0.307548  0.618893  1
  P  P29  1  0.500000  0.692452  0.618893  1
  P  P30  1  0.000000  0.192543  0.380977  1
  P  P31  1  0.000000  0.807457  0.380977  1
  P  P32  1  0.500000  0.846285  0.893304  1
  P  P33  1  0.500000  0.153715  0.893304  1
  P  P34  1  0.000000  0.653695  0.105886  1
  P  P35  1  0.000000  0.346305  0.105886  1
