# generated using pymatgen
data_Tb2CuP3Pd2
_symmetry_space_group_name_H-M   'P 1'
_cell_length_a   3.91391300
_cell_length_b   10.83546100
_cell_length_c   13.23303200
_cell_angle_alpha   90.00000000
_cell_angle_beta   90.00000000
_cell_angle_gamma   90.00000000
_symmetry_Int_Tables_number   1
_chemical_formula_structural   Tb2CuP3Pd2
_chemical_formula_sum   'Tb8 Cu4 P12 Pd8'
_cell_volume   561.20033782
_cell_formula_units_Z   4
loop_
 _symmetry_equiv_pos_site_id
 _symmetry_equiv_pos_as_xyz
  1  'x, y, z'
loop_
 _atom_site_type_symbol
 _atom_site_label
 _atom_site_symmetry_multiplicity
 _atom_site_fract_x
 _atom_site_fract_y
 _atom_site_fract_z
 _atom_site_occupancy
  Tb  Tb0  1  0.250000  0.928382  0.787751  1
  Tb  Tb1  1  0.750000  0.428382  0.712249  1
  Tb  Tb2  1  0.250000  0.571618  0.287751  1
  Tb  Tb3  1  0.750000  0.071618  0.212249  1
  Tb  Tb4  1  0.250000  0.840665  0.502400  1
  Tb  Tb5  1  0.750000  0.340665  0.997600  1
  Tb  Tb6  1  0.250000  0.659335  0.002400  1
  Tb  Tb7  1  0.750000  0.159335  0.497600  1
  Cu  Cu8  1  0.250000  0.868629  0.283158  1
  Cu  Cu9  1  0.750000  0.368629  0.216842  1
  Cu  Cu10  1  0.250000  0.631371  0.783158  1
  Cu  Cu11  1  0.750000  0.131371  0.716842  1
  P  P12  1  0.250000  0.236351  0.642910  1
  P  P13  1  0.750000  0.736351  0.857090  1
  P  P14  1  0.250000  0.263649  0.142910  1
  P  P15  1  0.750000  0.763649  0.357090  1
  P  P16  1  0.250000  0.602274  0.604905  1
  P  P17  1  0.750000  0.102274  0.895095  1
  P  P18  1  0.250000  0.897726  0.104905  1
  P  P19  1  0.750000  0.397726  0.395095  1
  P  P20  1  0.250000  0.052771  0.372398  1
  P  P21  1  0.750000  0.552771  0.127602  1
  P  P22  1  0.250000  0.447229  0.872398  1
  P  P23  1  0.750000  0.947229  0.627602  1
  Pd  Pd24  1  0.250000  0.404347  0.518659  1
  Pd  Pd25  1  0.750000  0.904347  0.981341  1
  Pd  Pd26  1  0.250000  0.095653  0.018659  1
  Pd  Pd27  1  0.750000  0.595653  0.481341  1
  Pd  Pd28  1  0.250000  0.272908  0.329150  1
  Pd  Pd29  1  0.750000  0.772908  0.170850  1
  Pd  Pd30  1  0.250000  0.227092  0.829150  1
  Pd  Pd31  1  0.750000  0.727092  0.670850  1
