# generated using pymatgen
data_NaSmMnPt3
_symmetry_space_group_name_H-M   'P 1'
_cell_length_a   5.56752565
_cell_length_b   5.56752518
_cell_length_c   5.26067144
_cell_angle_alpha   58.05094395
_cell_angle_beta   58.05095408
_cell_angle_gamma   59.99999840
_symmetry_Int_Tables_number   1
_chemical_formula_structural   NaSmMnPt3
_chemical_formula_sum   'Na1 Sm1 Mn1 Pt3'
_cell_volume   111.79112792
_cell_formula_units_Z   1
loop_
 _symmetry_equiv_pos_site_id
 _symmetry_equiv_pos_as_xyz
  1  'x, y, z'
loop_
 _atom_site_type_symbol
 _atom_site_label
 _atom_site_symmetry_multiplicity
 _atom_site_fract_x
 _atom_site_fract_y
 _atom_site_fract_z
 _atom_site_occupancy
  Na  Na0  1  0.252830  0.252830  0.241511  1
  Sm  Sm1  1  0.003339  0.003339  0.989983  1
  Mn  Mn2  1  0.623198  0.623198  0.130404  1
  Pt  Pt3  1  0.622817  0.124997  0.629367  1
  Pt  Pt4  1  0.124997  0.622817  0.629367  1
  Pt  Pt5  1  0.622817  0.622817  0.629367  1
