# generated using pymatgen
data_La9Pr7Cd4OsPd3
_symmetry_space_group_name_H-M   'P 1'
_cell_length_a   10.17229931
_cell_length_b   10.17230005
_cell_length_c   10.16867012
_cell_angle_alpha   59.63821780
_cell_angle_beta   59.63821204
_cell_angle_gamma   59.70900766
_symmetry_Int_Tables_number   1
_chemical_formula_structural   La9Pr7Cd4OsPd3
_chemical_formula_sum   'La9 Pr7 Cd4 Os1 Pd3'
_cell_volume   738.30724895
_cell_formula_units_Z   1
loop_
 _symmetry_equiv_pos_site_id
 _symmetry_equiv_pos_as_xyz
  1  'x, y, z'
loop_
 _atom_site_type_symbol
 _atom_site_label
 _atom_site_symmetry_multiplicity
 _atom_site_fract_x
 _atom_site_fract_y
 _atom_site_fract_z
 _atom_site_occupancy
  La  La0  1  0.351873  0.351873  0.351495  1
  La  La1  1  0.346242  0.346242  0.953329  1
  La  La2  1  0.346129  0.953848  0.346345  1
  La  La3  1  0.953848  0.346129  0.346345  1
  La  La4  1  0.816693  0.188249  0.189863  1
  La  La5  1  0.190315  0.805001  0.806299  1
  La  La6  1  0.188249  0.816693  0.189863  1
  La  La7  1  0.805001  0.190315  0.806299  1
  La  La8  1  0.189638  0.189638  0.816924  1
  Pr  Pr9  1  0.804720  0.804720  0.191479  1
  Pr  Pr10  1  0.934273  0.566957  0.565689  1
  Pr  Pr11  1  0.558608  0.935720  0.936626  1
  Pr  Pr12  1  0.566957  0.934273  0.565689  1
  Pr  Pr13  1  0.935720  0.558608  0.936626  1
  Pr  Pr14  1  0.566198  0.566198  0.935455  1
  Pr  Pr15  1  0.936441  0.936441  0.557613  1
  Cd  Cd16  1  0.580567  0.580567  0.578392  1
  Cd  Cd17  1  0.581170  0.581170  0.257615  1
  Cd  Cd18  1  0.580371  0.257937  0.580424  1
  Cd  Cd19  1  0.257937  0.580371  0.580424  1
  Os  Os20  1  0.142073  0.142073  0.143288  1
  Pd  Pd21  1  0.144679  0.144679  0.575747  1
  Pd  Pd22  1  0.147979  0.574318  0.144085  1
  Pd  Pd23  1  0.574318  0.147979  0.144085  1
