# generated using pymatgen
data_Dy3Ho(TmGa5)2
_symmetry_space_group_name_H-M   'P 1'
_cell_length_a   6.08052304
_cell_length_b   9.58170507
_cell_length_c   11.52502500
_cell_angle_alpha   90.00000000
_cell_angle_beta   90.00000000
_cell_angle_gamma   90.01374754
_symmetry_Int_Tables_number   1
_chemical_formula_structural   Dy3Ho(TmGa5)2
_chemical_formula_sum   'Dy6 Ho2 Tm4 Ga20'
_cell_volume   671.46843409
_cell_formula_units_Z   2
loop_
 _symmetry_equiv_pos_site_id
 _symmetry_equiv_pos_as_xyz
  1  'x, y, z'
loop_
 _atom_site_type_symbol
 _atom_site_label
 _atom_site_symmetry_multiplicity
 _atom_site_fract_x
 _atom_site_fract_y
 _atom_site_fract_z
 _atom_site_occupancy
  Dy  Dy0  1  0.108895  0.009675  0.648651  1
  Dy  Dy1  1  0.391105  0.490325  0.148651  1
  Dy  Dy2  1  0.108912  0.490338  0.648444  1
  Dy  Dy3  1  0.391088  0.009662  0.148444  1
  Dy  Dy4  1  0.891028  0.990304  0.351425  1
  Dy  Dy5  1  0.608972  0.509696  0.851425  1
  Ho  Ho6  1  0.891087  0.509653  0.351402  1
  Ho  Ho7  1  0.608913  0.990347  0.851402  1
  Tm  Tm8  1  0.848296  0.750040  0.074471  1
  Tm  Tm9  1  0.651704  0.749960  0.574471  1
  Tm  Tm10  1  0.151845  0.250000  0.925519  1
  Tm  Tm11  1  0.348155  0.250000  0.425519  1
  Ga  Ga12  1  0.875839  0.052932  0.089779  1
  Ga  Ga13  1  0.624161  0.447068  0.589779  1
  Ga  Ga14  1  0.124150  0.552977  0.910147  1
  Ga  Ga15  1  0.375850  0.947023  0.410147  1
  Ga  Ga16  1  0.124342  0.947105  0.910102  1
  Ga  Ga17  1  0.375658  0.552895  0.410102  1
  Ga  Ga18  1  0.875854  0.447091  0.090014  1
  Ga  Ga19  1  0.624146  0.052909  0.590014  1
  Ga  Ga20  1  0.171200  0.749867  0.251599  1
  Ga  Ga21  1  0.328800  0.750133  0.751599  1
  Ga  Ga22  1  0.828549  0.249853  0.748554  1
  Ga  Ga23  1  0.671451  0.250147  0.248554  1
  Ga  Ga24  1  0.373614  0.750065  0.004414  1
  Ga  Ga25  1  0.126386  0.749935  0.504414  1
  Ga  Ga26  1  0.626468  0.249827  0.995393  1
  Ga  Ga27  1  0.873532  0.250173  0.495393  1
  Ga  Ga28  1  0.602342  0.749791  0.299008  1
  Ga  Ga29  1  0.897658  0.750209  0.799008  1
  Ga  Ga30  1  0.397919  0.249969  0.701077  1
  Ga  Ga31  1  0.102081  0.250031  0.201077  1
