# generated using pymatgen
data_TbYB6Ir2Rh7
_symmetry_space_group_name_H-M   'P 1'
_cell_length_a   5.61862500
_cell_length_b   5.63355183
_cell_length_c   8.60652700
_cell_angle_alpha   90.00000000
_cell_angle_beta   90.00000000
_cell_angle_gamma   120.08792449
_symmetry_Int_Tables_number   1
_chemical_formula_structural   TbYB6Ir2Rh7
_chemical_formula_sum   'Tb1 Y1 B6 Ir2 Rh7'
_cell_volume   235.71403811
_cell_formula_units_Z   1
loop_
 _symmetry_equiv_pos_site_id
 _symmetry_equiv_pos_as_xyz
  1  'x, y, z'
loop_
 _atom_site_type_symbol
 _atom_site_label
 _atom_site_symmetry_multiplicity
 _atom_site_fract_x
 _atom_site_fract_y
 _atom_site_fract_z
 _atom_site_occupancy
  Tb  Tb0  1  0.000000  0.000000  0.704478  1
  Y  Y1  1  0.000000  0.000000  0.295544  1
  B  B2  1  0.666243  0.333121  0.000027  1
  B  B3  1  0.333757  0.666879  0.000027  1
  B  B4  1  0.665179  0.332589  0.667936  1
  B  B5  1  0.334821  0.667411  0.667936  1
  B  B6  1  0.334820  0.667411  0.332047  1
  B  B7  1  0.665180  0.332589  0.332047  1
  Ir  Ir8  1  0.500000  0.500000  0.499979  1
  Ir  Ir9  1  0.500000  0.000000  0.499979  1
  Rh  Rh10  1  0.500000  0.500000  0.836538  1
  Rh  Rh11  1  0.500000  0.000000  0.836538  1
  Rh  Rh12  1  0.000000  0.500000  0.836125  1
  Rh  Rh13  1  0.500000  0.500000  0.163465  1
  Rh  Rh14  1  0.500000  0.000000  0.163465  1
  Rh  Rh15  1  0.000000  0.500000  0.163881  1
  Rh  Rh16  1  0.000000  0.500000  0.499989  1
