# generated using pymatgen
data_Ho20IrPd5Rh6
_symmetry_space_group_name_H-M   'P 1'
_cell_length_a   11.00222229
_cell_length_b   11.00222233
_cell_length_c   6.33953310
_cell_angle_alpha   90.01701092
_cell_angle_beta   90.01701167
_cell_angle_gamma   90.42582929
_symmetry_Int_Tables_number   1
_chemical_formula_structural   Ho20IrPd5Rh6
_chemical_formula_sum   'Ho20 Ir1 Pd5 Rh6'
_cell_volume   767.37221876
_cell_formula_units_Z   1
loop_
 _symmetry_equiv_pos_site_id
 _symmetry_equiv_pos_as_xyz
  1  'x, y, z'
loop_
 _atom_site_type_symbol
 _atom_site_label
 _atom_site_symmetry_multiplicity
 _atom_site_fract_x
 _atom_site_fract_y
 _atom_site_fract_z
 _atom_site_occupancy
  Ho  Ho0  1  0.294199  0.083135  0.372504  1
  Ho  Ho1  1  0.292489  0.905441  0.879954  1
  Ho  Ho2  1  0.707780  0.088435  0.880100  1
  Ho  Ho3  1  0.705568  0.915413  0.372206  1
  Ho  Ho4  1  0.581592  0.793069  0.870732  1
  Ho  Ho5  1  0.591253  0.204636  0.374191  1
  Ho  Ho6  1  0.406957  0.792239  0.379823  1
  Ho  Ho7  1  0.412820  0.203734  0.872687  1
  Ho  Ho8  1  0.206931  0.418408  0.629268  1
  Ho  Ho9  1  0.207761  0.593043  0.120177  1
  Ho  Ho10  1  0.795364  0.408747  0.125809  1
  Ho  Ho11  1  0.796266  0.587180  0.627313  1
  Ho  Ho12  1  0.916865  0.705801  0.127496  1
  Ho  Ho13  1  0.911565  0.292220  0.619900  1
  Ho  Ho14  1  0.094559  0.707511  0.620046  1
  Ho  Ho15  1  0.084587  0.294432  0.127794  1
  Ho  Ho16  1  0.999845  0.999768  0.499024  1
  Ho  Ho17  1  0.000232  0.000155  0.000976  1
  Ho  Ho18  1  0.497609  0.501652  0.999896  1
  Ho  Ho19  1  0.498348  0.502391  0.500104  1
  Ir  Ir20  1  0.347139  0.652861  0.750000  1
  Pd  Pd21  1  0.843423  0.844368  0.750846  1
  Pd  Pd22  1  0.155632  0.156577  0.749154  1
  Pd  Pd23  1  0.653591  0.346409  0.750000  1
  Pd  Pd24  1  0.656559  0.655847  0.250367  1
  Pd  Pd25  1  0.344153  0.343441  0.249633  1
  Rh  Rh26  1  0.846441  0.153559  0.250000  1
  Rh  Rh27  1  0.152170  0.847830  0.250000  1
  Rh  Rh28  1  0.500418  0.000950  0.122548  1
  Rh  Rh29  1  0.500327  0.001490  0.623617  1
  Rh  Rh30  1  0.998510  0.499673  0.876383  1
  Rh  Rh31  1  0.999050  0.499582  0.377452  1
