# generated using pymatgen
data_Ce2Ho2(Ga8Pd3)3
_symmetry_space_group_name_H-M   'P 1'
_cell_length_a   7.49608267
_cell_length_b   7.56142209
_cell_length_c   13.43555300
_cell_angle_alpha   84.81631431
_cell_angle_beta   79.66574773
_cell_angle_gamma   60.20604987
_symmetry_Int_Tables_number   1
_chemical_formula_structural   Ce2Ho2(Ga8Pd3)3
_chemical_formula_sum   'Ce2 Ho2 Ga24 Pd9'
_cell_volume   650.15763484
_cell_formula_units_Z   1
loop_
 _symmetry_equiv_pos_site_id
 _symmetry_equiv_pos_as_xyz
  1  'x, y, z'
loop_
 _atom_site_type_symbol
 _atom_site_label
 _atom_site_symmetry_multiplicity
 _atom_site_fract_x
 _atom_site_fract_y
 _atom_site_fract_z
 _atom_site_occupancy
  Ce  Ce0  1  0.394185  0.168786  0.809830  1
  Ce  Ce1  1  0.605815  0.831214  0.190170  1
  Ho  Ho2  1  0.732416  0.497265  0.810736  1
  Ho  Ho3  1  0.267584  0.502735  0.189264  1
  Ga  Ga4  1  0.687542  0.831789  0.940098  1
  Ga  Ga5  1  0.312458  0.168211  0.059902  1
  Ga  Ga6  1  0.143425  0.835445  0.558524  1
  Ga  Ga7  1  0.856575  0.164555  0.441476  1
  Ga  Ga8  1  0.478088  0.167139  0.556657  1
  Ga  Ga9  1  0.521912  0.832861  0.443343  1
  Ga  Ga10  1  0.219663  0.166059  0.326574  1
  Ga  Ga11  1  0.780337  0.833941  0.673426  1
  Ga  Ga12  1  0.436629  0.505210  0.673489  1
  Ga  Ga13  1  0.563371  0.494790  0.326511  1
  Ga  Ga14  1  0.107243  0.162610  0.672775  1
  Ga  Ga15  1  0.892757  0.837390  0.327225  1
  Ga  Ga16  1  0.355627  0.500455  0.941351  1
  Ga  Ga17  1  0.644373  0.499545  0.058649  1
  Ga  Ga18  1  0.017258  0.168567  0.945942  1
  Ga  Ga19  1  0.982742  0.831433  0.054058  1
  Ga  Ga20  1  0.187412  0.500845  0.442916  1
  Ga  Ga21  1  0.812588  0.499155  0.557084  1
  Ga  Ga22  1  0.733382  0.166523  0.182497  1
  Ga  Ga23  1  0.266618  0.833477  0.817503  1
  Ga  Ga24  1  0.058955  0.631951  0.816587  1
  Ga  Ga25  1  0.941045  0.368049  0.183413  1
  Ga  Ga26  1  0.858769  0.040770  0.816730  1
  Ga  Ga27  1  0.141231  0.959230  0.183270  1
  Pd  Pd28  1  0.116108  0.497801  0.637778  1
  Pd  Pd29  1  0.883892  0.502199  0.362222  1
  Pd  Pd30  1  0.660213  0.169390  0.999227  1
  Pd  Pd31  1  0.339787  0.830610  0.000773  1
  Pd  Pd32  1  0.541394  0.168932  0.361552  1
  Pd  Pd33  1  0.458606  0.831068  0.638448  1
  Pd  Pd34  1  0.780096  0.172284  0.637728  1
  Pd  Pd35  1  0.219904  0.827716  0.362272  1
  Pd  Pd36  1  0.000000  0.500000  0.000000  1
