# generated using pymatgen
data_Li4Pr3ThPd4
_symmetry_space_group_name_H-M   'P 1'
_cell_length_a   4.11502600
_cell_length_b   7.34440434
_cell_length_c   8.73501161
_cell_angle_alpha   90.58741715
_cell_angle_beta   90.00000000
_cell_angle_gamma   90.00000000
_symmetry_Int_Tables_number   1
_chemical_formula_structural   Li4Pr3ThPd4
_chemical_formula_sum   'Li4 Pr3 Th1 Pd4'
_cell_volume   263.97927005
_cell_formula_units_Z   1
loop_
 _symmetry_equiv_pos_site_id
 _symmetry_equiv_pos_as_xyz
  1  'x, y, z'
loop_
 _atom_site_type_symbol
 _atom_site_label
 _atom_site_symmetry_multiplicity
 _atom_site_fract_x
 _atom_site_fract_y
 _atom_site_fract_z
 _atom_site_occupancy
  Li  Li0  1  0.250000  0.124629  0.055477  1
  Li  Li1  1  0.250000  0.631505  0.442990  1
  Li  Li2  1  0.750000  0.868912  0.944522  1
  Li  Li3  1  0.750000  0.377737  0.558294  1
  Pr  Pr4  1  0.250000  0.543898  0.813472  1
  Pr  Pr5  1  0.750000  0.956357  0.309683  1
  Pr  Pr6  1  0.750000  0.451771  0.188017  1
  Th  Th7  1  0.250000  0.046780  0.685762  1
  Pd  Pd8  1  0.250000  0.246399  0.393537  1
  Pd  Pd9  1  0.250000  0.743212  0.117094  1
  Pd  Pd10  1  0.750000  0.769238  0.619705  1
  Pd  Pd11  1  0.750000  0.239559  0.871446  1
