# generated using pymatgen
data_Er4TmLu3(WO6)4
_symmetry_space_group_name_H-M   'P 1'
_cell_length_a   5.34033504
_cell_length_b   7.62694863
_cell_length_c   11.32639315
_cell_angle_alpha   75.38488215
_cell_angle_beta   90.00180270
_cell_angle_gamma   90.01309319
_symmetry_Int_Tables_number   1
_chemical_formula_structural   Er4TmLu3(WO6)4
_chemical_formula_sum   'Er4 Tm1 Lu3 W4 O24'
_cell_volume   446.40180062
_cell_formula_units_Z   1
loop_
 _symmetry_equiv_pos_site_id
 _symmetry_equiv_pos_as_xyz
  1  'x, y, z'
loop_
 _atom_site_type_symbol
 _atom_site_label
 _atom_site_symmetry_multiplicity
 _atom_site_fract_x
 _atom_site_fract_y
 _atom_site_fract_z
 _atom_site_occupancy
  Er  Er0  1  0.258009  0.000097  0.749803  1
  Er  Er1  1  0.741979  0.000168  0.250192  1
  Er  Er2  1  0.315355  0.499994  0.749984  1
  Er  Er3  1  0.684693  0.499774  0.250165  1
  Tm  Tm4  1  0.182432  0.794087  0.078900  1
  Lu  Lu5  1  0.182653  0.206274  0.420785  1
  Lu  Lu6  1  0.817246  0.206492  0.920727  1
  Lu  Lu7  1  0.817294  0.793714  0.579196  1
  W  W8  1  0.743628  0.723294  0.885581  1
  W  W9  1  0.256717  0.723528  0.386121  1
  W  W10  1  0.743433  0.276446  0.614056  1
  W  W11  1  0.256583  0.276215  0.114125  1
  O  O12  1  0.540652  0.155558  0.067728  1
  O  O13  1  0.045060  0.059081  0.103455  1
  O  O14  1  0.020722  0.711852  0.770179  1
  O  O15  1  0.459241  0.155745  0.567738  1
  O  O16  1  0.359740  0.487325  0.385718  1
  O  O17  1  0.954030  0.057929  0.603359  1
  O  O18  1  0.542868  0.792697  0.724927  1
  O  O19  1  0.458324  0.792576  0.225737  1
  O  O20  1  0.147394  0.634321  0.550365  1
  O  O21  1  0.046031  0.942109  0.396628  1
  O  O22  1  0.460391  0.844780  0.931511  1
  O  O23  1  0.457124  0.207124  0.275007  1
  O  O24  1  0.852628  0.365638  0.449680  1
  O  O25  1  0.640122  0.487297  0.885627  1
  O  O26  1  0.360661  0.512004  0.114378  1
  O  O27  1  0.953768  0.942339  0.896354  1
  O  O28  1  0.540766  0.844328  0.432425  1
  O  O29  1  0.979370  0.288305  0.229919  1
  O  O30  1  0.542827  0.207232  0.774961  1
  O  O31  1  0.851074  0.633561  0.050301  1
  O  O32  1  0.020629  0.288152  0.729828  1
  O  O33  1  0.147390  0.365716  0.949607  1
  O  O34  1  0.978927  0.711646  0.270664  1
  O  O35  1  0.640239  0.512601  0.614269  1
