# generated using pymatgen
data_Pr3Lu(Sc4Pb5)2
_symmetry_space_group_name_H-M   'P 1'
_cell_length_a   6.42595489
_cell_length_b   9.32105362
_cell_length_c   11.37359617
_cell_angle_alpha   114.04411167
_cell_angle_beta   106.40913339
_cell_angle_gamma   90.00000434
_symmetry_Int_Tables_number   1
_chemical_formula_structural   Pr3Lu(Sc4Pb5)2
_chemical_formula_sum   'Pr3 Lu1 Sc8 Pb10'
_cell_volume   591.61717547
_cell_formula_units_Z   1
loop_
 _symmetry_equiv_pos_site_id
 _symmetry_equiv_pos_as_xyz
  1  'x, y, z'
loop_
 _atom_site_type_symbol
 _atom_site_label
 _atom_site_symmetry_multiplicity
 _atom_site_fract_x
 _atom_site_fract_y
 _atom_site_fract_z
 _atom_site_occupancy
  Pr  Pr0  1  0.141516  0.260836  0.283030  1
  Pr  Pr1  1  0.858740  0.741913  0.717481  1
  Pr  Pr2  1  0.641213  0.023853  0.282425  1
  Lu  Lu3  1  0.357520  0.973810  0.715040  1
  Sc  Sc4  1  0.557413  0.308426  0.615906  1
  Sc  Sc5  1  0.443156  0.694727  0.387024  1
  Sc  Sc6  1  0.943867  0.694727  0.387024  1
  Sc  Sc7  1  0.058494  0.308426  0.615906  1
  Sc  Sc8  1  0.439422  0.677574  0.878844  1
  Sc  Sc9  1  0.560674  0.319879  0.121348  1
  Sc  Sc10  1  0.938626  0.195204  0.877251  1
  Sc  Sc11  1  0.060897  0.804068  0.121795  1
  Pb  Pb12  1  0.293186  0.596415  0.586374  1
  Pb  Pb13  1  0.708538  0.411617  0.417074  1
  Pb  Pb14  1  0.791637  0.994694  0.583276  1
  Pb  Pb15  1  0.210124  0.006329  0.420248  1
  Pb  Pb16  1  0.250537  0.999207  0.996643  1
  Pb  Pb17  1  0.746105  0.999207  0.996643  1
  Pb  Pb18  1  0.069350  0.483357  0.138700  1
  Pb  Pb19  1  0.931086  0.517865  0.862171  1
  Pb  Pb20  1  0.569911  0.655827  0.139821  1
  Pb  Pb21  1  0.427988  0.332041  0.855976  1
