# generated using pymatgen
data_Ca3SmSn2Sb4Rh7
_symmetry_space_group_name_H-M   'P 1'
_cell_length_a   7.64487319
_cell_length_b   7.64487450
_cell_length_c   7.64120950
_cell_angle_alpha   109.48710129
_cell_angle_beta   109.48709299
_cell_angle_gamma   109.50026621
_symmetry_Int_Tables_number   1
_chemical_formula_structural   Ca3SmSn2Sb4Rh7
_chemical_formula_sum   'Ca3 Sm1 Sn2 Sb4 Rh7'
_cell_volume   343.52200447
_cell_formula_units_Z   1
loop_
 _symmetry_equiv_pos_site_id
 _symmetry_equiv_pos_as_xyz
  1  'x, y, z'
loop_
 _atom_site_type_symbol
 _atom_site_label
 _atom_site_symmetry_multiplicity
 _atom_site_fract_x
 _atom_site_fract_y
 _atom_site_fract_z
 _atom_site_occupancy
  Ca  Ca0  1  0.494543  0.999619  0.999787  1
  Ca  Ca1  1  0.000381  0.505457  0.000213  1
  Ca  Ca2  1  0.999644  0.000356  0.500000  1
  Sm  Sm3  1  0.499378  0.500622  0.500000  1
  Sn  Sn4  1  0.992797  0.311385  0.309282  1
  Sn  Sn5  1  0.688615  0.007203  0.690718  1
  Sb  Sb6  1  0.682749  0.686815  0.004076  1
  Sb  Sb7  1  0.001200  0.677229  0.674615  1
  Sb  Sb8  1  0.322771  0.998800  0.325385  1
  Sb  Sb9  1  0.313185  0.317251  0.995924  1
  Rh  Rh10  1  0.005089  0.994911  0.000000  1
  Rh  Rh11  1  0.501191  0.749944  0.252805  1
  Rh  Rh12  1  0.745874  0.499502  0.246505  1
  Rh  Rh13  1  0.251994  0.748006  0.500000  1
  Rh  Rh14  1  0.250056  0.498809  0.747195  1
  Rh  Rh15  1  0.500498  0.254126  0.753495  1
  Rh  Rh16  1  0.750035  0.249965  0.500000  1
