# generated using pymatgen
data_NdBiIrRhO7
_symmetry_space_group_name_H-M   'P 1'
_cell_length_a   7.38062479
_cell_length_b   7.33832537
_cell_length_c   7.38062484
_cell_angle_alpha   60.18939696
_cell_angle_beta   60.32688723
_cell_angle_gamma   60.18940085
_symmetry_Int_Tables_number   1
_chemical_formula_structural   NdBiIrRhO7
_chemical_formula_sum   'Nd2 Bi2 Ir2 Rh2 O14'
_cell_volume   284.16668275
_cell_formula_units_Z   2
loop_
 _symmetry_equiv_pos_site_id
 _symmetry_equiv_pos_as_xyz
  1  'x, y, z'
loop_
 _atom_site_type_symbol
 _atom_site_label
 _atom_site_symmetry_multiplicity
 _atom_site_fract_x
 _atom_site_fract_y
 _atom_site_fract_z
 _atom_site_occupancy
  Nd  Nd0  1  0.125000  0.125000  0.125000  1
  Nd  Nd1  1  0.125000  0.625000  0.125000  1
  Bi  Bi2  1  0.625000  0.125000  0.125000  1
  Bi  Bi3  1  0.125000  0.125000  0.625000  1
  Ir  Ir4  1  0.625000  0.625000  0.625000  1
  Ir  Ir5  1  0.625000  0.125000  0.625000  1
  Rh  Rh6  1  0.625000  0.625000  0.125000  1
  Rh  Rh7  1  0.125000  0.625000  0.625000  1
  O  O8  1  0.253738  0.246262  0.253738  1
  O  O9  1  0.289794  0.710206  0.289794  1
  O  O10  1  0.954216  0.960609  0.543190  1
  O  O11  1  0.547677  0.952323  0.547677  1
  O  O12  1  0.706810  0.708014  0.295784  1
  O  O13  1  0.954216  0.541986  0.543190  1
  O  O14  1  0.702323  0.297677  0.702323  1
  O  O15  1  0.295784  0.289391  0.706810  1
  O  O16  1  0.706810  0.289391  0.295784  1
  O  O17  1  0.295784  0.708014  0.706810  1
  O  O18  1  0.960206  0.539794  0.960206  1
  O  O19  1  0.543190  0.541986  0.954216  1
  O  O20  1  0.996262  0.003738  0.996262  1
  O  O21  1  0.543190  0.960609  0.954216  1
