# generated using pymatgen
data_Cu2H7Cl
_symmetry_space_group_name_H-M   'P 1'
_cell_length_a   3.26553144
_cell_length_b   8.31898316
_cell_length_c   5.40737119
_cell_angle_alpha   76.22718261
_cell_angle_beta   90.62071584
_cell_angle_gamma   94.15435679
_symmetry_Int_Tables_number   1
_chemical_formula_structural   Cu2H7Cl
_chemical_formula_sum   'Cu2 H7 Cl1'
_cell_volume   142.29446598
_cell_formula_units_Z   1
loop_
 _symmetry_equiv_pos_site_id
 _symmetry_equiv_pos_as_xyz
  1  'x, y, z'
loop_
 _atom_site_type_symbol
 _atom_site_label
 _atom_site_symmetry_multiplicity
 _atom_site_fract_x
 _atom_site_fract_y
 _atom_site_fract_z
 _atom_site_occupancy
  Cu  Cu0  1  0.280115  0.366067  0.335722  1
  Cu  Cu1  1  0.776230  0.385378  0.985450  1
  H  H2  1  0.785395  0.117332  0.800857  1
  H  H3  1  0.944793  0.952143  0.422945  1
  H  H4  1  0.769418  0.314649  0.291458  1
  H  H5  1  0.170752  0.706745  0.087016  1
  H  H6  1  0.921878  0.860881  0.483688  1
  H  H7  1  0.855300  0.090690  0.936735  1
  H  H8  1  0.038479  0.776889  0.033501  1
  Cl  Cl9  1  0.295761  0.480905  0.681618  1
