# generated using pymatgen
data_EuGa4Ni
_symmetry_space_group_name_H-M   'P 1'
_cell_length_a   4.22040324
_cell_length_b   6.52905200
_cell_length_c   8.17946352
_cell_angle_alpha   90.00000000
_cell_angle_beta   104.95070753
_cell_angle_gamma   90.00000000
_symmetry_Int_Tables_number   1
_chemical_formula_structural   EuGa4Ni
_chemical_formula_sum   'Eu2 Ga8 Ni2'
_cell_volume   217.75724572
_cell_formula_units_Z   2
loop_
 _symmetry_equiv_pos_site_id
 _symmetry_equiv_pos_as_xyz
  1  'x, y, z'
loop_
 _atom_site_type_symbol
 _atom_site_label
 _atom_site_symmetry_multiplicity
 _atom_site_fract_x
 _atom_site_fract_y
 _atom_site_fract_z
 _atom_site_occupancy
  Eu  Eu0  1  0.882345  0.750000  0.764689  1
  Eu  Eu1  1  0.117655  0.250000  0.235311  1
  Ga  Ga2  1  0.500000  0.500000  0.000000  1
  Ga  Ga3  1  0.500000  0.000000  0.000000  1
  Ga  Ga4  1  0.073641  0.750000  0.147283  1
  Ga  Ga5  1  0.926359  0.250000  0.852717  1
  Ga  Ga6  1  0.687811  0.551278  0.375623  1
  Ga  Ga7  1  0.312189  0.448722  0.624377  1
  Ga  Ga8  1  0.687811  0.948722  0.375623  1
  Ga  Ga9  1  0.312189  0.051278  0.624377  1
  Ni  Ni10  1  0.222500  0.750000  0.445001  1
  Ni  Ni11  1  0.777500  0.250000  0.554999  1
