# generated using pymatgen
data_Cs12K5Rb(AlBi4)2
_symmetry_space_group_name_H-M   'P 1'
_cell_length_a   11.41250800
_cell_length_b   11.47832562
_cell_length_c   11.90644000
_cell_angle_alpha   90.00000000
_cell_angle_beta   90.00000000
_cell_angle_gamma   119.81049879
_symmetry_Int_Tables_number   1
_chemical_formula_structural   Cs12K5Rb(AlBi4)2
_chemical_formula_sum   'Cs12 K5 Rb1 Al2 Bi8'
_cell_volume   1353.31325267
_cell_formula_units_Z   1
loop_
 _symmetry_equiv_pos_site_id
 _symmetry_equiv_pos_as_xyz
  1  'x, y, z'
loop_
 _atom_site_type_symbol
 _atom_site_label
 _atom_site_symmetry_multiplicity
 _atom_site_fract_x
 _atom_site_fract_y
 _atom_site_fract_z
 _atom_site_occupancy
  Cs  Cs0  1  0.208916  0.417831  0.542489  1
  Cs  Cs1  1  0.791107  0.208856  0.042627  1
  Cs  Cs2  1  0.417747  0.208856  0.042627  1
  Cs  Cs3  1  0.581774  0.791260  0.542024  1
  Cs  Cs4  1  0.209487  0.791260  0.542024  1
  Cs  Cs5  1  0.790732  0.581466  0.456386  1
  Cs  Cs6  1  0.791107  0.208856  0.457373  1
  Cs  Cs7  1  0.790732  0.581466  0.043614  1
  Cs  Cs8  1  0.417747  0.208856  0.457373  1
  Cs  Cs9  1  0.581774  0.791260  0.957976  1
  Cs  Cs10  1  0.208916  0.417831  0.957511  1
  Cs  Cs11  1  0.209487  0.791260  0.957976  1
  K  K12  1  0.119406  0.238810  0.250000  1
  K  K13  1  0.880917  0.120080  0.750000  1
  K  K14  1  0.239161  0.120080  0.750000  1
  K  K15  1  0.761709  0.880995  0.250000  1
  K  K16  1  0.119288  0.880995  0.250000  1
  Rb  Rb17  1  0.881484  0.762969  0.750000  1
  Al  Al18  1  0.333558  0.667116  0.250000  1
  Al  Al19  1  0.666357  0.332713  0.750000  1
  Bi  Bi20  1  0.474396  0.526655  0.250000  1
  Bi  Bi21  1  0.947896  0.469861  0.750000  1
  Bi  Bi22  1  0.526321  0.052641  0.750000  1
  Bi  Bi23  1  0.473424  0.946848  0.250000  1
  Bi  Bi24  1  0.052259  0.526655  0.250000  1
  Bi  Bi25  1  0.521966  0.469861  0.750000  1
  Bi  Bi26  1  0.001165  0.002332  0.002395  1
  Bi  Bi27  1  0.001165  0.002332  0.497605  1
