# generated using pymatgen
data_La10Tc3Ag
_symmetry_space_group_name_H-M   'P 1'
_cell_length_a   6.71469148
_cell_length_b   7.57313657
_cell_length_c   9.20696766
_cell_angle_alpha   96.03416318
_cell_angle_beta   111.63643264
_cell_angle_gamma   90.16510295
_symmetry_Int_Tables_number   1
_chemical_formula_structural   La10Tc3Ag
_chemical_formula_sum   'La10 Tc3 Ag1'
_cell_volume   432.34808984
_cell_formula_units_Z   1
loop_
 _symmetry_equiv_pos_site_id
 _symmetry_equiv_pos_as_xyz
  1  'x, y, z'
loop_
 _atom_site_type_symbol
 _atom_site_label
 _atom_site_symmetry_multiplicity
 _atom_site_fract_x
 _atom_site_fract_y
 _atom_site_fract_z
 _atom_site_occupancy
  La  La0  1  0.994090  0.946956  0.182682  1
  La  La1  1  0.795521  0.594792  0.808858  1
  La  La2  1  0.017182  0.093220  0.812954  1
  La  La3  1  0.231622  0.400129  0.177601  1
  La  La4  1  0.620795  0.825900  0.436778  1
  La  La5  1  0.217594  0.675845  0.581608  1
  La  La6  1  0.345527  0.186293  0.565851  1
  La  La7  1  0.787049  0.305928  0.447509  1
  La  La8  1  0.413928  0.753139  0.996477  1
  La  La9  1  0.580490  0.231812  0.983268  1
  Tc  Tc10  1  0.597706  0.911928  0.777989  1
  Tc  Tc11  1  0.176512  0.429357  0.786619  1
  Tc  Tc12  1  0.401850  0.074685  0.222151  1
  Ag  Ag13  1  0.820135  0.570016  0.219656  1
