# generated using pymatgen
data_HfFe3Si4NiMo3
_symmetry_space_group_name_H-M   'P 1'
_cell_length_a   3.67201600
_cell_length_b   6.15370545
_cell_length_c   6.99198998
_cell_angle_alpha   89.05903837
_cell_angle_beta   90.00000000
_cell_angle_gamma   90.00000000
_symmetry_Int_Tables_number   1
_chemical_formula_structural   HfFe3Si4NiMo3
_chemical_formula_sum   'Hf1 Fe3 Si4 Ni1 Mo3'
_cell_volume   157.97322989
_cell_formula_units_Z   1
loop_
 _symmetry_equiv_pos_site_id
 _symmetry_equiv_pos_as_xyz
  1  'x, y, z'
loop_
 _atom_site_type_symbol
 _atom_site_label
 _atom_site_symmetry_multiplicity
 _atom_site_fract_x
 _atom_site_fract_y
 _atom_site_fract_z
 _atom_site_occupancy
  Hf  Hf0  1  0.750000  0.481839  0.814065  1
  Fe  Fe1  1  0.250000  0.643645  0.562944  1
  Fe  Fe2  1  0.750000  0.862993  0.061101  1
  Fe  Fe3  1  0.750000  0.351270  0.438406  1
  Si  Si4  1  0.250000  0.264445  0.609883  1
  Si  Si5  1  0.250000  0.784582  0.884498  1
  Si  Si6  1  0.750000  0.721936  0.379331  1
  Si  Si7  1  0.750000  0.225698  0.132254  1
  Ni  Ni8  1  0.250000  0.150552  0.939314  1
  Mo  Mo9  1  0.250000  0.017049  0.322698  1
  Mo  Mo10  1  0.250000  0.523626  0.183956  1
  Mo  Mo11  1  0.750000  0.972364  0.671550  1
