# generated using pymatgen
data_TbNi3P3Ru2
_symmetry_space_group_name_H-M   'P 1'
_cell_length_a   3.77935100
_cell_length_b   10.67278800
_cell_length_c   11.90228400
_cell_angle_alpha   90.00000000
_cell_angle_beta   90.00000000
_cell_angle_gamma   90.00000000
_symmetry_Int_Tables_number   1
_chemical_formula_structural   TbNi3P3Ru2
_chemical_formula_sum   'Tb4 Ni12 P12 Ru8'
_cell_volume   480.09305072
_cell_formula_units_Z   4
loop_
 _symmetry_equiv_pos_site_id
 _symmetry_equiv_pos_as_xyz
  1  'x, y, z'
loop_
 _atom_site_type_symbol
 _atom_site_label
 _atom_site_symmetry_multiplicity
 _atom_site_fract_x
 _atom_site_fract_y
 _atom_site_fract_z
 _atom_site_occupancy
  Tb  Tb0  1  0.250000  0.589086  0.708340  1
  Tb  Tb1  1  0.250000  0.910914  0.208340  1
  Tb  Tb2  1  0.750000  0.410914  0.291660  1
  Tb  Tb3  1  0.750000  0.089086  0.791660  1
  Ni  Ni4  1  0.250000  0.225354  0.182068  1
  Ni  Ni5  1  0.250000  0.274646  0.682068  1
  Ni  Ni6  1  0.750000  0.774646  0.817932  1
  Ni  Ni7  1  0.750000  0.725354  0.317932  1
  Ni  Ni8  1  0.250000  0.886379  0.702761  1
  Ni  Ni9  1  0.250000  0.613621  0.202761  1
  Ni  Ni10  1  0.750000  0.113621  0.297239  1
  Ni  Ni11  1  0.750000  0.386379  0.797239  1
  Ni  Ni12  1  0.250000  0.464680  0.930924  1
  Ni  Ni13  1  0.250000  0.035320  0.430924  1
  Ni  Ni14  1  0.750000  0.535320  0.069076  1
  Ni  Ni15  1  0.750000  0.964680  0.569076  1
  P  P16  1  0.250000  0.419488  0.112185  1
  P  P17  1  0.250000  0.080512  0.612185  1
  P  P18  1  0.750000  0.580512  0.887815  1
  P  P19  1  0.750000  0.919488  0.387815  1
  P  P20  1  0.250000  0.271958  0.872081  1
  P  P21  1  0.250000  0.228042  0.372081  1
  P  P22  1  0.750000  0.728042  0.127919  1
  P  P23  1  0.750000  0.771958  0.627919  1
  P  P24  1  0.250000  0.598672  0.390207  1
  P  P25  1  0.250000  0.901328  0.890207  1
  P  P26  1  0.750000  0.401328  0.609793  1
  P  P27  1  0.750000  0.098672  0.109793  1
  Ru  Ru28  1  0.250000  0.708068  0.985619  1
  Ru  Ru29  1  0.250000  0.791932  0.485619  1
  Ru  Ru30  1  0.750000  0.291932  0.014381  1
  Ru  Ru31  1  0.750000  0.208068  0.514381  1
  Ru  Ru32  1  0.250000  0.404019  0.488818  1
  Ru  Ru33  1  0.250000  0.095981  0.988818  1
  Ru  Ru34  1  0.750000  0.595981  0.511182  1
  Ru  Ru35  1  0.750000  0.904019  0.011182  1
