# generated using pymatgen
data_Th3CdPd12
_symmetry_space_group_name_H-M   'P 1'
_cell_length_a   5.88862500
_cell_length_b   5.88862402
_cell_length_c   9.69299300
_cell_angle_alpha   90.00000000
_cell_angle_beta   90.00000000
_cell_angle_gamma   119.99999989
_symmetry_Int_Tables_number   1
_chemical_formula_structural   Th3CdPd12
_chemical_formula_sum   'Th3 Cd1 Pd12'
_cell_volume   291.08260694
_cell_formula_units_Z   1
loop_
 _symmetry_equiv_pos_site_id
 _symmetry_equiv_pos_as_xyz
  1  'x, y, z'
loop_
 _atom_site_type_symbol
 _atom_site_label
 _atom_site_symmetry_multiplicity
 _atom_site_fract_x
 _atom_site_fract_y
 _atom_site_fract_z
 _atom_site_occupancy
  Th  Th0  1  0.000000  0.000000  0.491821  1
  Th  Th1  1  0.000000  0.000000  0.008179  1
  Th  Th2  1  0.666667  0.333333  0.750000  1
  Cd  Cd3  1  0.333333  0.666667  0.250000  1
  Pd  Pd4  1  0.498990  0.501010  0.497987  1
  Pd  Pd5  1  0.498990  0.997979  0.497987  1
  Pd  Pd6  1  0.002021  0.501010  0.497987  1
  Pd  Pd7  1  0.498990  0.501010  0.002013  1
  Pd  Pd8  1  0.498990  0.997979  0.002013  1
  Pd  Pd9  1  0.002021  0.501010  0.002013  1
  Pd  Pd10  1  0.825023  0.650046  0.250000  1
  Pd  Pd11  1  0.349954  0.174977  0.250000  1
  Pd  Pd12  1  0.825023  0.174977  0.250000  1
  Pd  Pd13  1  0.172639  0.345278  0.750000  1
  Pd  Pd14  1  0.654722  0.827361  0.750000  1
  Pd  Pd15  1  0.172639  0.827361  0.750000  1
