# generated using pymatgen
data_La4NdP12Ru16Rh3
_symmetry_space_group_name_H-M   'P 1'
_cell_length_a   12.70713000
_cell_length_b   12.70713140
_cell_length_c   4.04399500
_cell_angle_alpha   90.00000000
_cell_angle_beta   90.00000000
_cell_angle_gamma   119.99999637
_symmetry_Int_Tables_number   1
_chemical_formula_structural   La4NdP12Ru16Rh3
_chemical_formula_sum   'La4 Nd1 P12 Ru16 Rh3'
_cell_volume   565.50474222
_cell_formula_units_Z   1
loop_
 _symmetry_equiv_pos_site_id
 _symmetry_equiv_pos_as_xyz
  1  'x, y, z'
loop_
 _atom_site_type_symbol
 _atom_site_label
 _atom_site_symmetry_multiplicity
 _atom_site_fract_x
 _atom_site_fract_y
 _atom_site_fract_z
 _atom_site_occupancy
  La  La0  1  0.182755  0.182807  0.500000  1
  La  La1  1  0.817193  0.999949  0.500000  1
  La  La2  1  0.000051  0.817245  0.500000  1
  La  La3  1  0.666667  0.333333  0.000000  1
  Nd  Nd4  1  0.333333  0.666667  0.000000  1
  P  P5  1  0.809617  0.809974  0.000000  1
  P  P6  1  0.190026  0.999644  0.000000  1
  P  P7  1  0.000356  0.190383  0.000000  1
  P  P8  1  0.176257  0.477084  0.500000  1
  P  P9  1  0.522916  0.699172  0.500000  1
  P  P10  1  0.300828  0.823743  0.500000  1
  P  P11  1  0.699325  0.524285  0.500000  1
  P  P12  1  0.824960  0.300675  0.500000  1
  P  P13  1  0.475715  0.175040  0.500000  1
  P  P14  1  0.373876  0.373849  0.000000  1
  P  P15  1  0.626151  0.000026  0.000000  1
  P  P16  1  0.999974  0.626124  0.000000  1
  Ru  Ru17  1  0.711081  0.711536  0.500000  1
  Ru  Ru18  1  0.288464  0.999545  0.500000  1
  Ru  Ru19  1  0.000455  0.288919  0.500000  1
  Ru  Ru20  1  0.185869  0.380187  0.000000  1
  Ru  Ru21  1  0.619813  0.805682  0.000000  1
  Ru  Ru22  1  0.194318  0.814131  0.000000  1
  Ru  Ru23  1  0.805873  0.620678  0.000000  1
  Ru  Ru24  1  0.814805  0.194127  0.000000  1
  Ru  Ru25  1  0.379322  0.185195  0.000000  1
  Ru  Ru26  1  0.369479  0.493379  0.500000  1
  Ru  Ru27  1  0.506621  0.876101  0.500000  1
  Ru  Ru28  1  0.123899  0.630521  0.500000  1
  Ru  Ru29  1  0.877299  0.508110  0.500000  1
  Ru  Ru30  1  0.630812  0.122701  0.500000  1
  Ru  Ru31  1  0.491890  0.369188  0.500000  1
  Ru  Ru32  1  0.000000  0.000000  0.000000  1
  Rh  Rh33  1  0.553263  0.553431  0.000000  1
  Rh  Rh34  1  0.446569  0.999832  0.000000  1
  Rh  Rh35  1  0.000168  0.446737  0.000000  1
