# generated using pymatgen
data_SrCa3CrSiN6
_symmetry_space_group_name_H-M   'P 1'
_cell_length_a   5.96377462
_cell_length_b   5.96377440
_cell_length_c   11.78489053
_cell_angle_alpha   90.41132714
_cell_angle_beta   89.58867236
_cell_angle_gamma   125.59233245
_symmetry_Int_Tables_number   1
_chemical_formula_structural   SrCa3CrSiN6
_chemical_formula_sum   'Sr2 Ca6 Cr2 Si2 N12'
_cell_volume   340.83156085
_cell_formula_units_Z   2
loop_
 _symmetry_equiv_pos_site_id
 _symmetry_equiv_pos_as_xyz
  1  'x, y, z'
loop_
 _atom_site_type_symbol
 _atom_site_label
 _atom_site_symmetry_multiplicity
 _atom_site_fract_x
 _atom_site_fract_y
 _atom_site_fract_z
 _atom_site_occupancy
  Sr  Sr0  1  0.548944  0.451056  0.654949  1
  Sr  Sr1  1  0.451056  0.548944  0.345051  1
  Ca  Ca2  1  0.945465  0.054535  0.129994  1
  Ca  Ca3  1  0.054535  0.945465  0.870006  1
  Ca  Ca4  1  0.857129  0.142871  0.577752  1
  Ca  Ca5  1  0.142871  0.857129  0.422248  1
  Ca  Ca6  1  0.636719  0.363281  0.072778  1
  Ca  Ca7  1  0.363281  0.636719  0.927222  1
  Cr  Cr8  1  0.759024  0.240976  0.335591  1
  Cr  Cr9  1  0.240976  0.759024  0.664409  1
  Si  Si10  1  0.742541  0.257459  0.843408  1
  Si  Si11  1  0.257459  0.742541  0.156592  1
  N  N12  1  0.846148  0.153852  0.953232  1
  N  N13  1  0.153852  0.846148  0.046768  1
  N  N14  1  0.667830  0.332170  0.457921  1
  N  N15  1  0.332170  0.667830  0.542079  1
  N  N16  1  0.582153  0.417847  0.869854  1
  N  N17  1  0.417847  0.582153  0.130146  1
  N  N18  1  0.918802  0.081198  0.368165  1
  N  N19  1  0.081198  0.918802  0.631835  1
  N  N20  1  0.535699  0.977267  0.746923  1
  N  N21  1  0.977267  0.535699  0.253077  1
  N  N22  1  0.464301  0.022733  0.253077  1
  N  N23  1  0.022733  0.464301  0.746923  1
