# generated using pymatgen
data_LiTb2ZnPd2
_symmetry_space_group_name_H-M   'P 1'
_cell_length_a   4.05968200
_cell_length_b   7.11552000
_cell_length_c   8.32103600
_cell_angle_alpha   90.00000000
_cell_angle_beta   90.00000000
_cell_angle_gamma   90.00000000
_symmetry_Int_Tables_number   1
_chemical_formula_structural   LiTb2ZnPd2
_chemical_formula_sum   'Li2 Tb4 Zn2 Pd4'
_cell_volume   240.36767390
_cell_formula_units_Z   2
loop_
 _symmetry_equiv_pos_site_id
 _symmetry_equiv_pos_as_xyz
  1  'x, y, z'
loop_
 _atom_site_type_symbol
 _atom_site_label
 _atom_site_symmetry_multiplicity
 _atom_site_fract_x
 _atom_site_fract_y
 _atom_site_fract_z
 _atom_site_occupancy
  Li  Li0  1  0.250000  0.629500  0.560147  1
  Li  Li1  1  0.250000  0.129500  0.939853  1
  Tb  Tb2  1  0.250000  0.046152  0.313507  1
  Tb  Tb3  1  0.250000  0.546152  0.186493  1
  Tb  Tb4  1  0.750000  0.957981  0.688231  1
  Tb  Tb5  1  0.750000  0.457981  0.811769  1
  Zn  Zn6  1  0.750000  0.367603  0.435866  1
  Zn  Zn7  1  0.750000  0.867603  0.064134  1
  Pd  Pd8  1  0.250000  0.249565  0.617823  1
  Pd  Pd9  1  0.250000  0.749565  0.882177  1
  Pd  Pd10  1  0.750000  0.749199  0.382122  1
  Pd  Pd11  1  0.750000  0.249199  0.117878  1
