# generated using pymatgen
data_Ba5NbSbCl2O9
_symmetry_space_group_name_H-M   'P 1'
_cell_length_a   6.05998800
_cell_length_b   6.05998802
_cell_length_c   25.19986800
_cell_angle_alpha   90.00000000
_cell_angle_beta   90.00000000
_cell_angle_gamma   120.00001081
_symmetry_Int_Tables_number   1
_chemical_formula_structural   Ba5NbSbCl2O9
_chemical_formula_sum   'Ba10 Nb2 Sb2 Cl4 O18'
_cell_volume   801.44252026
_cell_formula_units_Z   2
loop_
 _symmetry_equiv_pos_site_id
 _symmetry_equiv_pos_as_xyz
  1  'x, y, z'
loop_
 _atom_site_type_symbol
 _atom_site_label
 _atom_site_symmetry_multiplicity
 _atom_site_fract_x
 _atom_site_fract_y
 _atom_site_fract_z
 _atom_site_occupancy
  Ba  Ba0  1  0.333333  0.666667  0.416593  1
  Ba  Ba1  1  0.333333  0.666667  0.080317  1
  Ba  Ba2  1  0.333333  0.666667  0.831001  1
  Ba  Ba3  1  0.666667  0.333333  0.580317  1
  Ba  Ba4  1  0.666667  0.333333  0.916593  1
  Ba  Ba5  1  0.666667  0.333333  0.331001  1
  Ba  Ba6  1  0.666667  0.333333  0.174048  1
  Ba  Ba7  1  0.333333  0.666667  0.254588  1
  Ba  Ba8  1  0.666667  0.333333  0.754588  1
  Ba  Ba9  1  0.333333  0.666667  0.674048  1
  Nb  Nb10  1  0.000000  0.000000  0.186613  1
  Nb  Nb11  1  0.000000  0.000000  0.686613  1
  Sb  Sb12  1  0.000000  0.000000  0.806995  1
  Sb  Sb13  1  0.000000  0.000000  0.306995  1
  Cl  Cl14  1  0.333333  0.666667  0.548404  1
  Cl  Cl15  1  0.333333  0.666667  0.954873  1
  Cl  Cl16  1  0.666667  0.333333  0.048404  1
  Cl  Cl17  1  0.666667  0.333333  0.454873  1
  O  O18  1  0.162862  0.325725  0.154304  1
  O  O19  1  0.704019  0.852009  0.750268  1
  O  O20  1  0.837138  0.674275  0.654304  1
  O  O21  1  0.852009  0.147991  0.250268  1
  O  O22  1  0.163993  0.836007  0.344284  1
  O  O23  1  0.162862  0.837138  0.154304  1
  O  O24  1  0.837138  0.162862  0.654304  1
  O  O25  1  0.325725  0.162862  0.654304  1
  O  O26  1  0.836007  0.163993  0.844284  1
  O  O27  1  0.852009  0.704019  0.250268  1
  O  O28  1  0.295981  0.147991  0.250268  1
  O  O29  1  0.327987  0.163993  0.844284  1
  O  O30  1  0.147991  0.295981  0.750268  1
  O  O31  1  0.836007  0.672013  0.844284  1
  O  O32  1  0.163993  0.327987  0.344284  1
  O  O33  1  0.674275  0.837138  0.154304  1
  O  O34  1  0.147991  0.852009  0.750268  1
  O  O35  1  0.672013  0.836007  0.344284  1
