# generated using pymatgen
data_Tb4ZnCo
_symmetry_space_group_name_H-M   'P 1'
_cell_length_a   9.39473820
_cell_length_b   9.39473837
_cell_length_c   9.39473800
_cell_angle_alpha   60.00000130
_cell_angle_beta   60.00000070
_cell_angle_gamma   60.00000310
_symmetry_Int_Tables_number   1
_chemical_formula_structural   Tb4ZnCo
_chemical_formula_sum   'Tb16 Zn4 Co4'
_cell_volume   586.32588038
_cell_formula_units_Z   4
loop_
 _symmetry_equiv_pos_site_id
 _symmetry_equiv_pos_as_xyz
  1  'x, y, z'
loop_
 _atom_site_type_symbol
 _atom_site_label
 _atom_site_symmetry_multiplicity
 _atom_site_fract_x
 _atom_site_fract_y
 _atom_site_fract_z
 _atom_site_occupancy
  Tb  Tb0  1  0.349987  0.349987  0.349987  1
  Tb  Tb1  1  0.349987  0.349987  0.950038  1
  Tb  Tb2  1  0.349987  0.950038  0.349987  1
  Tb  Tb3  1  0.950038  0.349987  0.349987  1
  Tb  Tb4  1  0.809231  0.190769  0.190769  1
  Tb  Tb5  1  0.190769  0.809231  0.809231  1
  Tb  Tb6  1  0.190769  0.809231  0.190769  1
  Tb  Tb7  1  0.809231  0.190769  0.809231  1
  Tb  Tb8  1  0.190769  0.190769  0.809231  1
  Tb  Tb9  1  0.809231  0.809231  0.190769  1
  Tb  Tb10  1  0.937887  0.562113  0.562113  1
  Tb  Tb11  1  0.562113  0.937887  0.937887  1
  Tb  Tb12  1  0.562113  0.937887  0.562113  1
  Tb  Tb13  1  0.937887  0.562113  0.937887  1
  Tb  Tb14  1  0.562113  0.562113  0.937887  1
  Tb  Tb15  1  0.937887  0.937887  0.562113  1
  Zn  Zn16  1  0.577774  0.577774  0.577774  1
  Zn  Zn17  1  0.577774  0.577774  0.266678  1
  Zn  Zn18  1  0.577774  0.266678  0.577774  1
  Zn  Zn19  1  0.266678  0.577774  0.577774  1
  Co  Co20  1  0.141586  0.141586  0.141586  1
  Co  Co21  1  0.141586  0.141586  0.575241  1
  Co  Co22  1  0.141586  0.575241  0.141586  1
  Co  Co23  1  0.575241  0.141586  0.141586  1
