# generated using pymatgen
data_Sc4B8Mo3Ru7
_symmetry_space_group_name_H-M   'P 1'
_cell_length_a   3.05135000
_cell_length_b   8.65478914
_cell_length_c   10.02596419
_cell_angle_alpha   90.32992296
_cell_angle_beta   90.00000000
_cell_angle_gamma   90.00000000
_symmetry_Int_Tables_number   1
_chemical_formula_structural   Sc4B8Mo3Ru7
_chemical_formula_sum   'Sc4 B8 Mo3 Ru7'
_cell_volume   264.76920170
_cell_formula_units_Z   1
loop_
 _symmetry_equiv_pos_site_id
 _symmetry_equiv_pos_as_xyz
  1  'x, y, z'
loop_
 _atom_site_type_symbol
 _atom_site_label
 _atom_site_symmetry_multiplicity
 _atom_site_fract_x
 _atom_site_fract_y
 _atom_site_fract_z
 _atom_site_occupancy
  Sc  Sc0  1  0.500000  0.839341  0.180840  1
  Sc  Sc1  1  0.500000  0.158709  0.819452  1
  Sc  Sc2  1  0.500000  0.657076  0.680944  1
  Sc  Sc3  1  0.500000  0.340438  0.317248  1
  B  B4  1  0.500000  0.968631  0.588675  1
  B  B5  1  0.500000  0.036842  0.413394  1
  B  B6  1  0.500000  0.855034  0.898553  1
  B  B7  1  0.500000  0.147162  0.102224  1
  B  B8  1  0.500000  0.648715  0.399456  1
  B  B9  1  0.500000  0.351640  0.599809  1
  B  B10  1  0.500000  0.464661  0.913336  1
  B  B11  1  0.500000  0.534176  0.086102  1
  Mo  Mo12  1  0.000000  0.662211  0.950876  1
  Mo  Mo13  1  0.000000  0.337073  0.048006  1
  Mo  Mo14  1  0.000000  0.841296  0.453927  1
  Ru  Ru15  1  0.000000  0.163867  0.548736  1
  Ru  Ru16  1  0.000000  0.999925  0.000499  1
  Ru  Ru17  1  0.000000  0.403777  0.759478  1
  Ru  Ru18  1  0.000000  0.593233  0.239073  1
  Ru  Ru19  1  0.000000  0.497161  0.499278  1
  Ru  Ru20  1  0.000000  0.905674  0.737379  1
  Ru  Ru21  1  0.000000  0.093357  0.262716  1
