# generated using pymatgen
data_Er7LuTi9Si16Tc3
_symmetry_space_group_name_H-M   'P 1'
_cell_length_a   6.94924362
_cell_length_b   6.94995134
_cell_length_c   12.75837164
_cell_angle_alpha   90.05273856
_cell_angle_beta   89.95647236
_cell_angle_gamma   90.03495340
_symmetry_Int_Tables_number   1
_chemical_formula_structural   Er7LuTi9Si16Tc3
_chemical_formula_sum   'Er7 Lu1 Ti9 Si16 Tc3'
_cell_volume   616.18931046
_cell_formula_units_Z   1
loop_
 _symmetry_equiv_pos_site_id
 _symmetry_equiv_pos_as_xyz
  1  'x, y, z'
loop_
 _atom_site_type_symbol
 _atom_site_label
 _atom_site_symmetry_multiplicity
 _atom_site_fract_x
 _atom_site_fract_y
 _atom_site_fract_z
 _atom_site_occupancy
  Er  Er0  1  0.498761  0.841924  0.719278  1
  Er  Er1  1  0.500101  0.158547  0.218048  1
  Er  Er2  1  0.841754  0.498864  0.280724  1
  Er  Er3  1  0.158592  0.500069  0.781993  1
  Er  Er4  1  0.658772  0.999504  0.968427  1
  Er  Er5  1  0.001579  0.340530  0.532603  1
  Er  Er6  1  0.999486  0.658801  0.031597  1
  Lu  Lu7  1  0.341059  0.000742  0.467245  1
  Ti  Ti8  1  0.673605  0.674015  0.499964  1
  Ti  Ti9  1  0.151936  0.005015  0.876715  1
  Ti  Ti10  1  0.495004  0.653328  0.124424  1
  Ti  Ti11  1  0.504179  0.348067  0.627184  1
  Ti  Ti12  1  0.653301  0.494931  0.875632  1
  Ti  Ti13  1  0.348218  0.504498  0.372653  1
  Ti  Ti14  1  0.847670  0.992683  0.375798  1
  Ti  Ti15  1  0.005205  0.151887  0.123243  1
  Ti  Ti16  1  0.992781  0.847764  0.624110  1
  Si  Si17  1  0.201045  0.130023  0.682921  1
  Si  Si18  1  0.369766  0.701139  0.932528  1
  Si  Si19  1  0.631454  0.296083  0.433857  1
  Si  Si20  1  0.701148  0.369734  0.067496  1
  Si  Si21  1  0.296943  0.633058  0.565844  1
  Si  Si22  1  0.798333  0.869417  0.183222  1
  Si  Si23  1  0.130745  0.200125  0.317269  1
  Si  Si24  1  0.869339  0.798406  0.816818  1
  Si  Si25  1  0.291128  0.952317  0.066687  1
  Si  Si26  1  0.546387  0.791357  0.316199  1
  Si  Si27  1  0.452389  0.210018  0.816634  1
  Si  Si28  1  0.790819  0.546916  0.684107  1
  Si  Si29  1  0.210060  0.452206  0.183426  1
  Si  Si30  1  0.706345  0.048792  0.567113  1
  Si  Si31  1  0.952271  0.291099  0.933330  1
  Si  Si32  1  0.049609  0.707904  0.432625  1
  Tc  Tc33  1  0.327976  0.328042  0.000057  1
  Tc  Tc34  1  0.174072  0.828333  0.249022  1
  Tc  Tc35  1  0.828168  0.173860  0.751205  1
