# generated using pymatgen
data_YbSmBe25Ni
_symmetry_space_group_name_H-M   'P 1'
_cell_length_a   7.22236258
_cell_length_b   7.23523074
_cell_length_c   7.26683500
_cell_angle_alpha   59.67130393
_cell_angle_beta   59.92275072
_cell_angle_gamma   59.87870214
_symmetry_Int_Tables_number   1
_chemical_formula_structural   YbSmBe25Ni
_chemical_formula_sum   'Yb1 Sm1 Be25 Ni1'
_cell_volume   267.43688801
_cell_formula_units_Z   1
loop_
 _symmetry_equiv_pos_site_id
 _symmetry_equiv_pos_as_xyz
  1  'x, y, z'
loop_
 _atom_site_type_symbol
 _atom_site_label
 _atom_site_symmetry_multiplicity
 _atom_site_fract_x
 _atom_site_fract_y
 _atom_site_fract_z
 _atom_site_occupancy
  Yb  Yb0  1  0.250036  0.246356  0.253345  1
  Sm  Sm1  1  0.750405  0.749302  0.751549  1
  Be  Be2  1  0.498860  0.501418  0.500651  1
  Be  Be3  1  0.000413  0.999678  0.001807  1
  Be  Be4  1  0.064410  0.288184  0.713806  1
  Be  Be5  1  0.712734  0.934612  0.065204  1
  Be  Be6  1  0.065776  0.933179  0.287726  1
  Be  Be7  1  0.931568  0.067381  0.715746  1
  Be  Be8  1  0.933723  0.289797  0.064006  1
  Be  Be9  1  0.711719  0.064432  0.289326  1
  Be  Be10  1  0.565100  0.791289  0.435335  1
  Be  Be11  1  0.437043  0.790443  0.206147  1
  Be  Be12  1  0.791451  0.437846  0.565335  1
  Be  Be13  1  0.438814  0.207722  0.564490  1
  Be  Be14  1  0.791356  0.562489  0.209393  1
  Be  Be15  1  0.563027  0.207757  0.793323  1
  Be  Be16  1  0.208629  0.435972  0.790014  1
  Be  Be17  1  0.209142  0.562944  0.434714  1
  Be  Be18  1  0.709388  0.291319  0.934653  1
  Be  Be19  1  0.289036  0.064376  0.930398  1
  Be  Be20  1  0.288800  0.935914  0.711822  1
  Be  Be21  1  0.063528  0.712259  0.935399  1
  Be  Be22  1  0.934214  0.711825  0.285607  1
  Be  Be23  1  0.291593  0.709038  0.064881  1
  Be  Be24  1  0.566233  0.434412  0.208856  1
  Be  Be25  1  0.794509  0.204783  0.439189  1
  Be  Be26  1  0.434079  0.567082  0.787475  1
  Ni  Ni27  1  0.204414  0.798194  0.559805  1
