# generated using pymatgen
data_Dy3Y(Sc4Bi3)4
_symmetry_space_group_name_H-M   'P 1'
_cell_length_a   7.89882704
_cell_length_b   9.06949600
_cell_length_c   11.57375806
_cell_angle_alpha   90.00000000
_cell_angle_beta   89.98833404
_cell_angle_gamma   90.00000000
_symmetry_Int_Tables_number   1
_chemical_formula_structural   Dy3Y(Sc4Bi3)4
_chemical_formula_sum   'Dy3 Y1 Sc16 Bi12'
_cell_volume   829.12526366
_cell_formula_units_Z   1
loop_
 _symmetry_equiv_pos_site_id
 _symmetry_equiv_pos_as_xyz
  1  'x, y, z'
loop_
 _atom_site_type_symbol
 _atom_site_label
 _atom_site_symmetry_multiplicity
 _atom_site_fract_x
 _atom_site_fract_y
 _atom_site_fract_z
 _atom_site_occupancy
  Dy  Dy0  1  0.815232  0.250000  0.281061  1
  Dy  Dy1  1  0.684763  0.750000  0.781059  1
  Dy  Dy2  1  0.184777  0.750000  0.718921  1
  Y  Y3  1  0.315269  0.250000  0.218997  1
  Sc  Sc4  1  0.348589  0.750000  0.220448  1
  Sc  Sc5  1  0.848576  0.750000  0.279575  1
  Sc  Sc6  1  0.651401  0.250000  0.779607  1
  Sc  Sc7  1  0.151408  0.250000  0.720406  1
  Sc  Sc8  1  0.693286  0.567100  0.061850  1
  Sc  Sc9  1  0.193266  0.932824  0.438165  1
  Sc  Sc10  1  0.306761  0.067072  0.938120  1
  Sc  Sc11  1  0.806760  0.432892  0.561797  1
  Sc  Sc12  1  0.306761  0.432928  0.938120  1
  Sc  Sc13  1  0.806760  0.067108  0.561797  1
  Sc  Sc14  1  0.693286  0.932900  0.061850  1
  Sc  Sc15  1  0.193266  0.567176  0.438165  1
  Sc  Sc16  1  0.481521  0.250000  0.489025  1
  Sc  Sc17  1  0.981315  0.250000  0.011055  1
  Sc  Sc18  1  0.518520  0.750000  0.511146  1
  Sc  Sc19  1  0.018542  0.750000  0.988848  1
  Bi  Bi20  1  0.402582  0.750000  0.966754  1
  Bi  Bi21  1  0.902576  0.750000  0.533240  1
  Bi  Bi22  1  0.597509  0.250000  0.033158  1
  Bi  Bi23  1  0.097396  0.250000  0.466795  1
  Bi  Bi24  1  0.563811  0.989712  0.328366  1
  Bi  Bi25  1  0.063655  0.510305  0.171647  1
  Bi  Bi26  1  0.436242  0.489777  0.671678  1
  Bi  Bi27  1  0.936230  0.010245  0.828328  1
  Bi  Bi28  1  0.436242  0.010223  0.671678  1
  Bi  Bi29  1  0.936230  0.489755  0.828328  1
  Bi  Bi30  1  0.563811  0.510288  0.328366  1
  Bi  Bi31  1  0.063655  0.989695  0.171647  1
