# generated using pymatgen
data_Dy6Nb5Al2Ga9Os7
_symmetry_space_group_name_H-M   'P 1'
_cell_length_a   9.10265667
_cell_length_b   9.10265729
_cell_length_c   9.05792916
_cell_angle_alpha   59.59180741
_cell_angle_beta   59.59181639
_cell_angle_gamma   59.77464744
_symmetry_Int_Tables_number   1
_chemical_formula_structural   Dy6Nb5Al2Ga9Os7
_chemical_formula_sum   'Dy6 Nb5 Al2 Ga9 Os7'
_cell_volume   526.51066679
_cell_formula_units_Z   1
loop_
 _symmetry_equiv_pos_site_id
 _symmetry_equiv_pos_as_xyz
  1  'x, y, z'
loop_
 _atom_site_type_symbol
 _atom_site_label
 _atom_site_symmetry_multiplicity
 _atom_site_fract_x
 _atom_site_fract_y
 _atom_site_fract_z
 _atom_site_occupancy
  Dy  Dy0  1  0.706817  0.706817  0.295723  1
  Dy  Dy1  1  0.289882  0.708983  0.295185  1
  Dy  Dy2  1  0.708983  0.289882  0.295185  1
  Dy  Dy3  1  0.296496  0.296496  0.711141  1
  Dy  Dy4  1  0.696892  0.297131  0.707872  1
  Dy  Dy5  1  0.297131  0.696892  0.707872  1
  Nb  Nb6  1  0.878181  0.878181  0.364474  1
  Nb  Nb7  1  0.875160  0.367892  0.880856  1
  Nb  Nb8  1  0.367892  0.875160  0.880856  1
  Nb  Nb9  1  0.875241  0.875241  0.880711  1
  Nb  Nb10  1  0.127553  0.127553  0.617174  1
  Al  Al11  1  0.119925  0.641329  0.119967  1
  Al  Al12  1  0.641329  0.119925  0.119967  1
  Ga  Ga13  1  0.116530  0.116530  0.117998  1
  Ga  Ga14  1  0.661530  0.661530  0.015738  1
  Ga  Ga15  1  0.664078  0.009089  0.662709  1
  Ga  Ga16  1  0.009089  0.664078  0.662709  1
  Ga  Ga17  1  0.663811  0.663811  0.662568  1
  Ga  Ga18  1  0.334013  0.334013  0.000440  1
  Ga  Ga19  1  0.338475  0.993827  0.331126  1
  Ga  Ga20  1  0.993827  0.338475  0.331126  1
  Ga  Ga21  1  0.338559  0.338559  0.331918  1
  Os  Os22  1  0.003584  0.003584  0.982938  1
  Os  Os23  1  0.999290  0.999290  0.507686  1
  Os  Os24  1  0.495236  0.998921  0.507449  1
  Os  Os25  1  0.998921  0.495236  0.507449  1
  Os  Os26  1  0.502374  0.502374  0.000235  1
  Os  Os27  1  0.996264  0.502932  0.000460  1
  Os  Os28  1  0.502932  0.996264  0.000460  1
