# generated using pymatgen
data_Tb16Cd4OsPd2Pt
_symmetry_space_group_name_H-M   'P 1'
_cell_length_a   9.76204178
_cell_length_b   9.75130021
_cell_length_c   9.75130088
_cell_angle_alpha   59.46158333
_cell_angle_beta   59.49670275
_cell_angle_gamma   59.49670332
_symmetry_Int_Tables_number   1
_chemical_formula_structural   Tb16Cd4OsPd2Pt
_chemical_formula_sum   'Tb16 Cd4 Os1 Pd2 Pt1'
_cell_volume   648.68438605
_cell_formula_units_Z   1
loop_
 _symmetry_equiv_pos_site_id
 _symmetry_equiv_pos_as_xyz
  1  'x, y, z'
loop_
 _atom_site_type_symbol
 _atom_site_label
 _atom_site_symmetry_multiplicity
 _atom_site_fract_x
 _atom_site_fract_y
 _atom_site_fract_z
 _atom_site_occupancy
  Tb  Tb0  1  0.353628  0.351860  0.351860  1
  Tb  Tb1  1  0.350450  0.348877  0.948348  1
  Tb  Tb2  1  0.350450  0.948348  0.348877  1
  Tb  Tb3  1  0.947045  0.349719  0.349719  1
  Tb  Tb4  1  0.814351  0.189028  0.189028  1
  Tb  Tb5  1  0.188182  0.809548  0.809548  1
  Tb  Tb6  1  0.189086  0.815727  0.188816  1
  Tb  Tb7  1  0.808397  0.187965  0.810662  1
  Tb  Tb8  1  0.189086  0.188816  0.815727  1
  Tb  Tb9  1  0.808397  0.810662  0.187965  1
  Tb  Tb10  1  0.934726  0.566367  0.566367  1
  Tb  Tb11  1  0.558683  0.937208  0.937208  1
  Tb  Tb12  1  0.566666  0.934639  0.565150  1
  Tb  Tb13  1  0.937061  0.558507  0.936855  1
  Tb  Tb14  1  0.566666  0.565150  0.934639  1
  Tb  Tb15  1  0.937061  0.936855  0.558507  1
  Cd  Cd16  1  0.580345  0.580290  0.580290  1
  Cd  Cd17  1  0.580964  0.581132  0.254369  1
  Cd  Cd18  1  0.580964  0.254369  0.581132  1
  Cd  Cd19  1  0.254422  0.581011  0.581011  1
  Os  Os20  1  0.143619  0.143635  0.143635  1
  Pd  Pd21  1  0.144078  0.144622  0.571178  1
  Pd  Pd22  1  0.144078  0.571178  0.144622  1
  Pt  Pt23  1  0.571599  0.144491  0.144491  1
