# generated using pymatgen
data_Ho3TmLu4(WO6)4
_symmetry_space_group_name_H-M   'P 1'
_cell_length_a   5.34090400
_cell_length_b   7.62250565
_cell_length_c   11.32634992
_cell_angle_alpha   75.40506731
_cell_angle_beta   90.00000000
_cell_angle_gamma   90.00000000
_symmetry_Int_Tables_number   1
_chemical_formula_structural   Ho3TmLu4(WO6)4
_chemical_formula_sum   'Ho3 Tm1 Lu4 W4 O24'
_cell_volume   446.22855848
_cell_formula_units_Z   1
loop_
 _symmetry_equiv_pos_site_id
 _symmetry_equiv_pos_as_xyz
  1  'x, y, z'
loop_
 _atom_site_type_symbol
 _atom_site_label
 _atom_site_symmetry_multiplicity
 _atom_site_fract_x
 _atom_site_fract_y
 _atom_site_fract_z
 _atom_site_occupancy
  Ho  Ho0  1  0.258191  0.000000  0.750000  1
  Ho  Ho1  1  0.315223  0.500000  0.750000  1
  Ho  Ho2  1  0.685101  0.500000  0.250000  1
  Tm  Tm3  1  0.741287  0.000000  0.250000  1
  Lu  Lu4  1  0.182827  0.794466  0.079171  1
  Lu  Lu5  1  0.182827  0.205534  0.420829  1
  Lu  Lu6  1  0.816923  0.205728  0.921318  1
  Lu  Lu7  1  0.816923  0.794272  0.578682  1
  W  W8  1  0.743656  0.723592  0.885939  1
  W  W9  1  0.256472  0.724225  0.385621  1
  W  W10  1  0.743656  0.276408  0.614061  1
  W  W11  1  0.256472  0.275775  0.114379  1
  O  O12  1  0.540299  0.154449  0.068315  1
  O  O13  1  0.044094  0.057736  0.103989  1
  O  O14  1  0.019788  0.711857  0.770111  1
  O  O15  1  0.460180  0.155394  0.567452  1
  O  O16  1  0.359112  0.487302  0.385941  1
  O  O17  1  0.954036  0.058042  0.602935  1
  O  O18  1  0.543684  0.792395  0.725015  1
  O  O19  1  0.457858  0.793742  0.224992  1
  O  O20  1  0.146915  0.634918  0.549965  1
  O  O21  1  0.044094  0.942264  0.396011  1
  O  O22  1  0.460180  0.844606  0.932548  1
  O  O23  1  0.457858  0.206258  0.275008  1
  O  O24  1  0.853535  0.365673  0.449788  1
  O  O25  1  0.640603  0.486817  0.886250  1
  O  O26  1  0.359112  0.512698  0.114059  1
  O  O27  1  0.954036  0.941958  0.897065  1
  O  O28  1  0.540299  0.845551  0.431685  1
  O  O29  1  0.980117  0.287440  0.230033  1
  O  O30  1  0.543684  0.207605  0.774985  1
  O  O31  1  0.853535  0.634327  0.050212  1
  O  O32  1  0.019788  0.288143  0.729889  1
  O  O33  1  0.146915  0.365082  0.950035  1
  O  O34  1  0.980117  0.712560  0.269967  1
  O  O35  1  0.640603  0.513183  0.613750  1
