# generated using pymatgen
data_Pr2Er2ReTcB12
_symmetry_space_group_name_H-M   'P 1'
_cell_length_a   3.73486000
_cell_length_b   9.24342729
_cell_length_c   11.72135733
_cell_angle_alpha   90.02677121
_cell_angle_beta   90.00000000
_cell_angle_gamma   90.00000000
_symmetry_Int_Tables_number   1
_chemical_formula_structural   Pr2Er2ReTcB12
_chemical_formula_sum   'Pr4 Er4 Re2 Tc2 B24'
_cell_volume   404.65528278
_cell_formula_units_Z   2
loop_
 _symmetry_equiv_pos_site_id
 _symmetry_equiv_pos_as_xyz
  1  'x, y, z'
loop_
 _atom_site_type_symbol
 _atom_site_label
 _atom_site_symmetry_multiplicity
 _atom_site_fract_x
 _atom_site_fract_y
 _atom_site_fract_z
 _atom_site_occupancy
  Pr  Pr0  1  0.000000  0.322859  0.414870  1
  Pr  Pr1  1  0.000000  0.677141  0.585130  1
  Pr  Pr2  1  0.000000  0.822470  0.085371  1
  Pr  Pr3  1  0.000000  0.177530  0.914629  1
  Er  Er4  1  0.000000  0.941743  0.369086  1
  Er  Er5  1  0.000000  0.058257  0.630914  1
  Er  Er6  1  0.000000  0.443112  0.131515  1
  Er  Er7  1  0.000000  0.556888  0.868485  1
  Re  Re8  1  0.000000  0.139399  0.181621  1
  Re  Re9  1  0.000000  0.860601  0.818379  1
  Tc  Tc10  1  0.000000  0.640165  0.318189  1
  Tc  Tc11  1  0.000000  0.359835  0.681811  1
  B  B12  1  0.500000  0.555753  0.429403  1
  B  B13  1  0.500000  0.444247  0.570597  1
  B  B14  1  0.500000  0.055725  0.070487  1
  B  B15  1  0.500000  0.944275  0.929513  1
  B  B16  1  0.500000  0.749833  0.414774  1
  B  B17  1  0.500000  0.250167  0.585226  1
  B  B18  1  0.500000  0.250493  0.085314  1
  B  B19  1  0.500000  0.749507  0.914686  1
  B  B20  1  0.500000  0.791318  0.265727  1
  B  B21  1  0.500000  0.208682  0.734273  1
  B  B22  1  0.500000  0.291411  0.234546  1
  B  B23  1  0.500000  0.708589  0.765454  1
  B  B24  1  0.500000  0.629023  0.186221  1
  B  B25  1  0.500000  0.370977  0.813779  1
  B  B26  1  0.500000  0.128948  0.314288  1
  B  B27  1  0.500000  0.871052  0.685712  1
  B  B28  1  0.500000  0.983865  0.213692  1
  B  B29  1  0.500000  0.016135  0.786308  1
  B  B30  1  0.500000  0.484241  0.286594  1
  B  B31  1  0.500000  0.515759  0.713406  1
  B  B32  1  0.500000  0.594879  0.025836  1
  B  B33  1  0.500000  0.405121  0.974164  1
  B  B34  1  0.500000  0.094883  0.473748  1
  B  B35  1  0.500000  0.905117  0.526252  1
