# generated using pymatgen
data_Tm12InGaFe2Os
_symmetry_space_group_name_H-M   'P 1'
_cell_length_a   8.24265285
_cell_length_b   8.24272918
_cell_length_c   8.24265418
_cell_angle_alpha   108.28834336
_cell_angle_beta   109.36273226
_cell_angle_gamma   110.77182429
_symmetry_Int_Tables_number   1
_chemical_formula_structural   Tm12InGaFe2Os
_chemical_formula_sum   'Tm12 In1 Ga1 Fe2 Os1'
_cell_volume   430.90303703
_cell_formula_units_Z   1
loop_
 _symmetry_equiv_pos_site_id
 _symmetry_equiv_pos_as_xyz
  1  'x, y, z'
loop_
 _atom_site_type_symbol
 _atom_site_label
 _atom_site_symmetry_multiplicity
 _atom_site_fract_x
 _atom_site_fract_y
 _atom_site_fract_z
 _atom_site_occupancy
  Tm  Tm0  1  0.190775  0.424295  0.233520  1
  Tm  Tm1  1  0.809225  0.575705  0.766480  1
  Tm  Tm2  1  0.190769  0.957258  0.766488  1
  Tm  Tm3  1  0.943173  0.190419  0.752754  1
  Tm  Tm4  1  0.809231  0.042742  0.233512  1
  Tm  Tm5  1  0.056827  0.809581  0.247246  1
  Tm  Tm6  1  0.437665  0.190419  0.247247  1
  Tm  Tm7  1  0.562335  0.809581  0.752753  1
  Tm  Tm8  1  0.309451  0.307569  0.617023  1
  Tm  Tm9  1  0.690549  0.692431  0.382977  1
  Tm  Tm10  1  0.690546  0.307569  0.998118  1
  Tm  Tm11  1  0.309454  0.692431  0.001882  1
  In  In12  1  0.000000  0.500000  0.500000  1
  Ga  Ga13  1  0.500000  0.000000  0.500000  1
  Fe  Fe14  1  0.385123  0.385113  0.999991  1
  Fe  Fe15  1  0.614877  0.614887  0.000009  1
  Os  Os16  1  0.000000  0.000000  0.000000  1
