# generated using pymatgen
data_EuHoPa(Ga2Co3)3
_symmetry_space_group_name_H-M   'P 1'
_cell_length_a   8.94987601
_cell_length_b   8.94987474
_cell_length_c   3.87471600
_cell_angle_alpha   90.00000000
_cell_angle_beta   90.00000000
_cell_angle_gamma   119.92312841
_symmetry_Int_Tables_number   1
_chemical_formula_structural   EuHoPa(Ga2Co3)3
_chemical_formula_sum   'Eu1 Ho1 Pa1 Ga6 Co9'
_cell_volume   268.99262406
_cell_formula_units_Z   1
loop_
 _symmetry_equiv_pos_site_id
 _symmetry_equiv_pos_as_xyz
  1  'x, y, z'
loop_
 _atom_site_type_symbol
 _atom_site_label
 _atom_site_symmetry_multiplicity
 _atom_site_fract_x
 _atom_site_fract_y
 _atom_site_fract_z
 _atom_site_occupancy
  Eu  Eu0  1  0.666666  0.333334  0.500000  1
  Ho  Ho1  1  0.333326  0.666674  0.500000  1
  Pa  Pa2  1  0.000001  0.999999  0.000000  1
  Ga  Ga3  1  0.676431  0.677480  0.500000  1
  Ga  Ga4  1  0.322651  0.998948  0.500000  1
  Ga  Ga5  1  0.001005  0.323670  0.500000  1
  Ga  Ga6  1  0.322520  0.323569  0.500000  1
  Ga  Ga7  1  0.676330  0.998995  0.500000  1
  Ga  Ga8  1  0.001052  0.677349  0.500000  1
  Co  Co9  1  0.494518  0.505482  0.000000  1
  Co  Co10  1  0.494500  0.989003  0.000000  1
  Co  Co11  1  0.010997  0.505500  0.000000  1
  Co  Co12  1  0.834025  0.165975  0.000000  1
  Co  Co13  1  0.834020  0.668017  0.000000  1
  Co  Co14  1  0.331983  0.165980  0.000000  1
  Co  Co15  1  0.174109  0.825891  0.000000  1
  Co  Co16  1  0.651747  0.825879  0.000000  1
  Co  Co17  1  0.174121  0.348253  0.000000  1
