# generated using pymatgen
data_Li2Sc2Ni10P7
_symmetry_space_group_name_H-M   'P 1'
_cell_length_a   9.07025289
_cell_length_b   9.00680127
_cell_length_c   3.63880800
_cell_angle_alpha   90.00000000
_cell_angle_beta   90.00000000
_cell_angle_gamma   120.48730168
_symmetry_Int_Tables_number   1
_chemical_formula_structural   Li2Sc2Ni10P7
_chemical_formula_sum   'Li2 Sc2 Ni10 P7'
_cell_volume   256.16877260
_cell_formula_units_Z   1
loop_
 _symmetry_equiv_pos_site_id
 _symmetry_equiv_pos_as_xyz
  1  'x, y, z'
loop_
 _atom_site_type_symbol
 _atom_site_label
 _atom_site_symmetry_multiplicity
 _atom_site_fract_x
 _atom_site_fract_y
 _atom_site_fract_z
 _atom_site_occupancy
  Li  Li0  1  0.883762  0.101924  0.500000  1
  Li  Li1  1  0.219203  0.112378  0.500000  1
  Sc  Sc2  1  0.328794  0.665680  0.000000  1
  Sc  Sc3  1  0.667816  0.333485  0.500000  1
  Ni  Ni4  1  0.630491  0.061035  0.000000  1
  Ni  Ni5  1  0.119880  0.276965  0.000000  1
  Ni  Ni6  1  0.432508  0.373401  0.000000  1
  Ni  Ni7  1  0.937115  0.569911  0.000000  1
  Ni  Ni8  1  0.713133  0.837283  0.000000  1
  Ni  Ni9  1  0.162943  0.879825  0.000000  1
  Ni  Ni10  1  0.050030  0.438594  0.500000  1
  Ni  Ni11  1  0.562240  0.609427  0.500000  1
  Ni  Ni12  1  0.907470  0.792106  0.500000  1
  Ni  Ni13  1  0.393356  0.953861  0.500000  1
  P  P14  1  0.995138  0.988301  0.000000  1
  P  P15  1  0.418800  0.118601  0.000000  1
  P  P16  1  0.883988  0.301613  0.000000  1
  P  P17  1  0.704590  0.587078  0.000000  1
  P  P18  1  0.287126  0.411322  0.500000  1
  P  P19  1  0.118686  0.713361  0.500000  1
  P  P20  1  0.582932  0.873855  0.500000  1
