# generated using pymatgen
data_Tm3ZnSn3Ru2
_symmetry_space_group_name_H-M   'P 1'
_cell_length_a   7.73306600
_cell_length_b   7.73306684
_cell_length_c   3.66582100
_cell_angle_alpha   90.00000000
_cell_angle_beta   90.00000000
_cell_angle_gamma   120.00000495
_symmetry_Int_Tables_number   1
_chemical_formula_structural   Tm3ZnSn3Ru2
_chemical_formula_sum   'Tm3 Zn1 Sn3 Ru2'
_cell_volume   189.84770247
_cell_formula_units_Z   1
loop_
 _symmetry_equiv_pos_site_id
 _symmetry_equiv_pos_as_xyz
  1  'x, y, z'
loop_
 _atom_site_type_symbol
 _atom_site_label
 _atom_site_symmetry_multiplicity
 _atom_site_fract_x
 _atom_site_fract_y
 _atom_site_fract_z
 _atom_site_occupancy
  Tm  Tm0  1  0.024039  0.407241  0.500000  1
  Tm  Tm1  1  0.592759  0.616796  0.500000  1
  Tm  Tm2  1  0.383204  0.975961  0.500000  1
  Zn  Zn3  1  0.666667  0.333333  0.000000  1
  Sn  Sn4  1  0.997123  0.730434  0.000000  1
  Sn  Sn5  1  0.269566  0.266690  0.000000  1
  Sn  Sn6  1  0.733310  0.002877  0.000000  1
  Ru  Ru7  1  0.333333  0.666667  0.000000  1
  Ru  Ru8  1  0.000000  0.000000  0.500000  1
