# generated using pymatgen
data_Sc8Cr11Si16Rh
_symmetry_space_group_name_H-M   'P 1'
_cell_length_a   6.52894624
_cell_length_b   6.52894624
_cell_length_c   12.06309923
_cell_angle_alpha   90.06770153
_cell_angle_beta   89.93229847
_cell_angle_gamma   89.83100084
_symmetry_Int_Tables_number   1
_chemical_formula_structural   Sc8Cr11Si16Rh
_chemical_formula_sum   'Sc8 Cr11 Si16 Rh1'
_cell_volume   514.21245071
_cell_formula_units_Z   1
loop_
 _symmetry_equiv_pos_site_id
 _symmetry_equiv_pos_as_xyz
  1  'x, y, z'
loop_
 _atom_site_type_symbol
 _atom_site_label
 _atom_site_symmetry_multiplicity
 _atom_site_fract_x
 _atom_site_fract_y
 _atom_site_fract_z
 _atom_site_occupancy
  Sc  Sc0  1  0.000848  0.664134  0.029426  1
  Sc  Sc1  1  0.499802  0.161942  0.222236  1
  Sc  Sc2  1  0.836643  0.501310  0.279542  1
  Sc  Sc3  1  0.337639  0.998249  0.471050  1
  Sc  Sc4  1  0.998249  0.337639  0.528951  1
  Sc  Sc5  1  0.501310  0.836643  0.720459  1
  Sc  Sc6  1  0.161942  0.499802  0.777765  1
  Sc  Sc7  1  0.664134  0.000848  0.970574  1
  Cr  Cr8  1  0.504519  0.670716  0.124926  1
  Cr  Cr9  1  0.990917  0.166841  0.126230  1
  Cr  Cr10  1  0.167021  0.831976  0.249701  1
  Cr  Cr11  1  0.833591  0.003583  0.373680  1
  Cr  Cr12  1  0.333795  0.496366  0.375328  1
  Cr  Cr13  1  0.667696  0.667696  0.500000  1
  Cr  Cr14  1  0.496366  0.333795  0.624672  1
  Cr  Cr15  1  0.003583  0.833591  0.626320  1
  Cr  Cr16  1  0.831976  0.167021  0.750299  1
  Cr  Cr17  1  0.166841  0.990917  0.873770  1
  Cr  Cr18  1  0.670716  0.504519  0.875074  1
  Si  Si19  1  0.283949  0.962794  0.065868  1
  Si  Si20  1  0.700594  0.381226  0.067126  1
  Si  Si21  1  0.801872  0.876414  0.183981  1
  Si  Si22  1  0.211611  0.468036  0.185662  1
  Si  Si23  1  0.533843  0.787268  0.316435  1
  Si  Si24  1  0.123593  0.197175  0.316116  1
  Si  Si25  1  0.623600  0.302466  0.433885  1
  Si  Si26  1  0.033389  0.712671  0.434469  1
  Si  Si27  1  0.712671  0.033389  0.565532  1
  Si  Si28  1  0.302466  0.623600  0.566115  1
  Si  Si29  1  0.197175  0.123593  0.683884  1
  Si  Si30  1  0.787268  0.533843  0.683565  1
  Si  Si31  1  0.468036  0.211611  0.814339  1
  Si  Si32  1  0.876414  0.801872  0.816018  1
  Si  Si33  1  0.381226  0.700594  0.932875  1
  Si  Si34  1  0.962794  0.283949  0.934131  1
  Rh  Rh35  1  0.331915  0.331915  0.000000  1
