# generated using pymatgen
data_Gd7Hg(IO6)4
_symmetry_space_group_name_H-M   'P 1'
_cell_length_a   5.50890855
_cell_length_b   7.81035510
_cell_length_c   11.73335900
_cell_angle_alpha   76.22513059
_cell_angle_beta   89.78287722
_cell_angle_gamma   89.66401456
_symmetry_Int_Tables_number   1
_chemical_formula_structural   Gd7Hg(IO6)4
_chemical_formula_sum   'Gd7 Hg1 I4 O24'
_cell_volume   490.31586307
_cell_formula_units_Z   1
loop_
 _symmetry_equiv_pos_site_id
 _symmetry_equiv_pos_as_xyz
  1  'x, y, z'
loop_
 _atom_site_type_symbol
 _atom_site_label
 _atom_site_symmetry_multiplicity
 _atom_site_fract_x
 _atom_site_fract_y
 _atom_site_fract_z
 _atom_site_occupancy
  Gd  Gd0  1  0.254761  0.022708  0.752381  1
  Gd  Gd1  1  0.743987  0.982963  0.246475  1
  Gd  Gd2  1  0.312777  0.500877  0.752502  1
  Gd  Gd3  1  0.179122  0.198572  0.427303  1
  Gd  Gd4  1  0.692640  0.497061  0.254935  1
  Gd  Gd5  1  0.815277  0.222159  0.920054  1
  Gd  Gd6  1  0.818333  0.802947  0.573170  1
  Hg  Hg7  1  0.202543  0.765988  0.079094  1
  I  I8  1  0.742235  0.739476  0.879457  1
  I  I9  1  0.252480  0.718294  0.384755  1
  I  I10  1  0.737176  0.292437  0.609726  1
  I  I11  1  0.259259  0.261013  0.120640  1
  O  O12  1  0.832150  0.353361  0.439309  1
  O  O13  1  0.460206  0.844454  0.927113  1
  O  O14  1  0.852390  0.654396  0.034943  1
  O  O15  1  0.057984  0.286239  0.758988  1
  O  O16  1  0.986624  0.295922  0.220090  1
  O  O17  1  0.145325  0.366123  0.970415  1
  O  O18  1  0.627889  0.510743  0.883321  1
  O  O19  1  0.535536  0.156190  0.067649  1
  O  O20  1  0.137194  0.630570  0.546420  1
  O  O21  1  0.014951  0.702893  0.781945  1
  O  O22  1  0.425602  0.173862  0.271177  1
  O  O23  1  0.022908  0.942524  0.393489  1
  O  O24  1  0.468606  0.166793  0.570400  1
  O  O25  1  0.961440  0.703898  0.276302  1
  O  O26  1  0.004625  0.043427  0.600137  1
  O  O27  1  0.545693  0.233428  0.772136  1
  O  O28  1  0.567286  0.810720  0.729379  1
  O  O29  1  0.066938  0.058403  0.107911  1
  O  O30  1  0.614331  0.521066  0.603825  1
  O  O31  1  0.399744  0.475831  0.122425  1
  O  O32  1  0.464475  0.775304  0.229112  1
  O  O33  1  0.362083  0.486024  0.386198  1
  O  O34  1  0.527014  0.848270  0.431739  1
  O  O35  1  0.908419  0.955065  0.875081  1
