# generated using pymatgen
data_Np(Fe3P2)2
_symmetry_space_group_name_H-M   'P 1'
_cell_length_a   6.56988300
_cell_length_b   6.56988225
_cell_length_c   3.33360100
_cell_angle_alpha   90.00000000
_cell_angle_beta   90.00000000
_cell_angle_gamma   119.99999874
_symmetry_Int_Tables_number   1
_chemical_formula_structural   Np(Fe3P2)2
_chemical_formula_sum   'Np1 Fe6 P4'
_cell_volume   124.61188805
_cell_formula_units_Z   1
loop_
 _symmetry_equiv_pos_site_id
 _symmetry_equiv_pos_as_xyz
  1  'x, y, z'
loop_
 _atom_site_type_symbol
 _atom_site_label
 _atom_site_symmetry_multiplicity
 _atom_site_fract_x
 _atom_site_fract_y
 _atom_site_fract_z
 _atom_site_occupancy
  Np  Np0  1  0.000000  0.000000  0.000000  1
  Fe  Fe1  1  0.535437  0.070874  0.000000  1
  Fe  Fe2  1  0.535437  0.464563  0.000000  1
  Fe  Fe3  1  0.929126  0.464563  0.000000  1
  Fe  Fe4  1  0.201798  0.403595  0.500000  1
  Fe  Fe5  1  0.201798  0.798202  0.500000  1
  Fe  Fe6  1  0.596405  0.798202  0.500000  1
  P  P7  1  0.333333  0.666666  0.000000  1
  P  P8  1  0.390194  0.195096  0.500000  1
  P  P9  1  0.804902  0.195096  0.500000  1
  P  P10  1  0.804903  0.609806  0.500000  1
