# generated using pymatgen
data_Tb4MgZnCuBi
_symmetry_space_group_name_H-M   'P 1'
_cell_length_a   8.69803680
_cell_length_b   8.69803636
_cell_length_c   8.62540878
_cell_angle_alpha   126.17485297
_cell_angle_beta   126.17485590
_cell_angle_gamma   80.17462393
_symmetry_Int_Tables_number   1
_chemical_formula_structural   Tb4MgZnCuBi
_chemical_formula_sum   'Tb8 Mg2 Zn2 Cu2 Bi2'
_cell_volume   409.08509795
_cell_formula_units_Z   2
loop_
 _symmetry_equiv_pos_site_id
 _symmetry_equiv_pos_as_xyz
  1  'x, y, z'
loop_
 _atom_site_type_symbol
 _atom_site_label
 _atom_site_symmetry_multiplicity
 _atom_site_fract_x
 _atom_site_fract_y
 _atom_site_fract_z
 _atom_site_occupancy
  Tb  Tb0  1  0.803334  0.303334  0.832388  1
  Tb  Tb1  1  0.196666  0.696666  0.167612  1
  Tb  Tb2  1  0.470947  0.970947  0.167612  1
  Tb  Tb3  1  0.293627  0.479515  0.500000  1
  Tb  Tb4  1  0.020485  0.206373  0.500000  1
  Tb  Tb5  1  0.529053  0.029053  0.832388  1
  Tb  Tb6  1  0.706373  0.520485  0.500000  1
  Tb  Tb7  1  0.979515  0.793627  0.500000  1
  Mg  Mg8  1  0.000000  0.000000  0.000000  1
  Mg  Mg9  1  0.500000  0.500000  0.000000  1
  Zn  Zn10  1  0.632806  0.867194  0.500000  1
  Zn  Zn11  1  0.367194  0.132806  0.500000  1
  Cu  Cu12  1  0.126516  0.626516  0.753031  1
  Cu  Cu13  1  0.873484  0.373484  0.246969  1
  Bi  Bi14  1  0.250000  0.250000  0.000000  1
  Bi  Bi15  1  0.750000  0.750000  0.000000  1
