# generated using pymatgen
data_Rb2Dy5YF20
_symmetry_space_group_name_H-M   'P 1'
_cell_length_a   8.28516955
_cell_length_b   8.28516649
_cell_length_c   8.27985800
_cell_angle_alpha   60.02116219
_cell_angle_beta   60.02105317
_cell_angle_gamma   59.95759023
_symmetry_Int_Tables_number   1
_chemical_formula_structural   Rb2Dy5YF20
_chemical_formula_sum   'Rb2 Dy5 Y1 F20'
_cell_volume   401.89216296
_cell_formula_units_Z   1
loop_
 _symmetry_equiv_pos_site_id
 _symmetry_equiv_pos_as_xyz
  1  'x, y, z'
loop_
 _atom_site_type_symbol
 _atom_site_label
 _atom_site_symmetry_multiplicity
 _atom_site_fract_x
 _atom_site_fract_y
 _atom_site_fract_z
 _atom_site_occupancy
  Rb  Rb0  1  0.249929  0.249932  0.250071  1
  Rb  Rb1  1  0.749932  0.749929  0.750069  1
  Dy  Dy2  1  0.759581  0.240299  0.240419  1
  Dy  Dy3  1  0.240299  0.759582  0.759700  1
  Dy  Dy4  1  0.240299  0.759581  0.240418  1
  Dy  Dy5  1  0.759582  0.240298  0.759701  1
  Dy  Dy6  1  0.240356  0.240356  0.759645  1
  Y  Y7  1  0.759599  0.759599  0.240401  1
  F  F8  1  0.830059  0.499047  0.500952  1
  F  F9  1  0.170445  0.500020  0.499980  1
  F  F10  1  0.499048  0.830059  0.169940  1
  F  F11  1  0.500020  0.170444  0.829557  1
  F  F12  1  0.499047  0.830059  0.500952  1
  F  F13  1  0.170444  0.500020  0.829557  1
  F  F14  1  0.500021  0.170445  0.499980  1
  F  F15  1  0.830058  0.499048  0.169940  1
  F  F16  1  0.499988  0.499988  0.829471  1
  F  F17  1  0.499990  0.499989  0.170550  1
  F  F18  1  0.170529  0.829449  0.500011  1
  F  F19  1  0.829449  0.170529  0.500011  1
  F  F20  1  0.110526  0.110525  0.110487  1
  F  F21  1  0.889805  0.889805  0.888534  1
  F  F22  1  0.110525  0.110526  0.668464  1
  F  F23  1  0.111465  0.668146  0.110194  1
  F  F24  1  0.889806  0.889807  0.331854  1
  F  F25  1  0.889514  0.331536  0.889475  1
  F  F26  1  0.668144  0.111465  0.110194  1
  F  F27  1  0.331536  0.889513  0.889476  1
