# generated using pymatgen
data_DyTm7(SiI6)2
_symmetry_space_group_name_H-M   'P 1'
_cell_length_a   4.18071400
_cell_length_b   13.82537009
_cell_length_c   14.61910316
_cell_angle_alpha   90.04555889
_cell_angle_beta   90.00000000
_cell_angle_gamma   90.00000000
_symmetry_Int_Tables_number   1
_chemical_formula_structural   DyTm7(SiI6)2
_chemical_formula_sum   'Dy1 Tm7 Si2 I12'
_cell_volume   844.98270090
_cell_formula_units_Z   1
loop_
 _symmetry_equiv_pos_site_id
 _symmetry_equiv_pos_as_xyz
  1  'x, y, z'
loop_
 _atom_site_type_symbol
 _atom_site_label
 _atom_site_symmetry_multiplicity
 _atom_site_fract_x
 _atom_site_fract_y
 _atom_site_fract_z
 _atom_site_occupancy
  Dy  Dy0  1  0.500000  0.114080  0.347438  1
  Tm  Tm1  1  0.500000  0.886159  0.652234  1
  Tm  Tm2  1  0.500000  0.613541  0.151853  1
  Tm  Tm3  1  0.500000  0.386455  0.848121  1
  Tm  Tm4  1  0.000000  0.109547  0.573351  1
  Tm  Tm5  1  0.000000  0.890564  0.426497  1
  Tm  Tm6  1  0.000000  0.609350  0.926667  1
  Tm  Tm7  1  0.000000  0.390703  0.073248  1
  Si  Si8  1  0.500000  0.999398  0.500838  1
  Si  Si9  1  0.500000  0.500051  0.999951  1
  I  I10  1  0.500000  0.248498  0.161655  1
  I  I11  1  0.500000  0.752111  0.837548  1
  I  I12  1  0.500000  0.747672  0.337493  1
  I  I13  1  0.500000  0.252189  0.662725  1
  I  I14  1  0.000000  0.260176  0.416032  1
  I  I15  1  0.000000  0.741557  0.585431  1
  I  I16  1  0.000000  0.758251  0.085371  1
  I  I17  1  0.000000  0.241696  0.914539  1
  I  I18  1  0.000000  0.997850  0.239414  1
  I  I19  1  0.000000  0.000138  0.759632  1
  I  I20  1  0.000000  0.499888  0.259477  1
  I  I21  1  0.000000  0.500126  0.740484  1
