# generated using pymatgen
data_Sc22FeIr2Ru5
_symmetry_space_group_name_H-M   'P 1'
_cell_length_a   9.42148668
_cell_length_b   9.44391622
_cell_length_c   9.44391657
_cell_angle_alpha   59.84293281
_cell_angle_beta   60.07853435
_cell_angle_gamma   60.07853952
_symmetry_Int_Tables_number   1
_chemical_formula_structural   Sc22FeIr2Ru5
_chemical_formula_sum   'Sc22 Fe1 Ir2 Ru5'
_cell_volume   594.16058983
_cell_formula_units_Z   1
loop_
 _symmetry_equiv_pos_site_id
 _symmetry_equiv_pos_as_xyz
  1  'x, y, z'
loop_
 _atom_site_type_symbol
 _atom_site_label
 _atom_site_symmetry_multiplicity
 _atom_site_fract_x
 _atom_site_fract_y
 _atom_site_fract_z
 _atom_site_occupancy
  Sc  Sc0  1  0.802239  0.802239  0.197761  1
  Sc  Sc1  1  0.197761  0.802239  0.197761  1
  Sc  Sc2  1  0.802627  0.197373  0.197373  1
  Sc  Sc3  1  0.197761  0.197761  0.802239  1
  Sc  Sc4  1  0.802239  0.197761  0.802239  1
  Sc  Sc5  1  0.197373  0.802627  0.802627  1
  Sc  Sc6  1  0.614778  0.614592  0.155851  1
  Sc  Sc7  1  0.614778  0.155851  0.614592  1
  Sc  Sc8  1  0.155851  0.614778  0.614778  1
  Sc  Sc9  1  0.614592  0.614778  0.614778  1
  Sc  Sc10  1  0.385222  0.385408  0.844149  1
  Sc  Sc11  1  0.385222  0.844149  0.385408  1
  Sc  Sc12  1  0.844149  0.385222  0.385222  1
  Sc  Sc13  1  0.385408  0.385222  0.385222  1
  Sc  Sc14  1  0.842171  0.844226  0.471433  1
  Sc  Sc15  1  0.842171  0.471433  0.844226  1
  Sc  Sc16  1  0.471433  0.842171  0.842171  1
  Sc  Sc17  1  0.844226  0.842171  0.842171  1
  Sc  Sc18  1  0.157829  0.155774  0.528567  1
  Sc  Sc19  1  0.157829  0.528567  0.155774  1
  Sc  Sc20  1  0.528567  0.157829  0.157829  1
  Sc  Sc21  1  0.155774  0.157829  0.157829  1
  Fe  Fe22  1  0.500000  0.500000  0.500000  1
  Ir  Ir23  1  0.000000  0.500000  0.500000  1
  Ir  Ir24  1  0.500000  0.000000  0.000000  1
  Ru  Ru25  1  0.000000  0.000000  0.000000  1
  Ru  Ru26  1  0.000000  0.000000  0.500000  1
  Ru  Ru27  1  0.500000  0.000000  0.500000  1
  Ru  Ru28  1  0.500000  0.500000  0.000000  1
  Ru  Ru29  1  0.000000  0.500000  0.000000  1
