# generated using pymatgen
data_Dy3Y4Er(ZnCo)2
_symmetry_space_group_name_H-M   'P 1'
_cell_length_a   9.31404808
_cell_length_b   9.32686134
_cell_length_c   9.33001246
_cell_angle_alpha   59.89797213
_cell_angle_beta   60.03420684
_cell_angle_gamma   60.06781481
_symmetry_Int_Tables_number   1
_chemical_formula_structural   Dy3Y4Er(ZnCo)2
_chemical_formula_sum   'Dy6 Y8 Er2 Zn4 Co4'
_cell_volume   573.11141991
_cell_formula_units_Z   2
loop_
 _symmetry_equiv_pos_site_id
 _symmetry_equiv_pos_as_xyz
  1  'x, y, z'
loop_
 _atom_site_type_symbol
 _atom_site_label
 _atom_site_symmetry_multiplicity
 _atom_site_fract_x
 _atom_site_fract_y
 _atom_site_fract_z
 _atom_site_occupancy
  Dy  Dy0  1  0.598870  0.600285  0.601098  1
  Dy  Dy1  1  0.600285  0.598870  0.199747  1
  Dy  Dy2  1  0.601098  0.199747  0.598870  1
  Dy  Dy3  1  0.199747  0.601098  0.600285  1
  Dy  Dy4  1  0.059620  0.440380  0.440380  1
  Dy  Dy5  1  0.440380  0.059620  0.059620  1
  Y  Y6  1  0.439527  0.439527  0.060473  1
  Y  Y7  1  0.060473  0.060473  0.439527  1
  Y  Y8  1  0.187076  0.812924  0.812924  1
  Y  Y9  1  0.812924  0.187076  0.187076  1
  Y  Y10  1  0.812467  0.187533  0.812467  1
  Y  Y11  1  0.187533  0.812467  0.187533  1
  Y  Y12  1  0.810904  0.810904  0.189096  1
  Y  Y13  1  0.189096  0.189096  0.810904  1
  Er  Er14  1  0.441661  0.058339  0.441661  1
  Er  Er15  1  0.058339  0.441661  0.058339  1
  Zn  Zn16  1  0.827643  0.827051  0.826734  1
  Zn  Zn17  1  0.827051  0.827643  0.518569  1
  Zn  Zn18  1  0.826734  0.518569  0.827643  1
  Zn  Zn19  1  0.518569  0.826734  0.827051  1
  Co  Co20  1  0.390184  0.390277  0.395331  1
  Co  Co21  1  0.390277  0.390184  0.824208  1
  Co  Co22  1  0.395331  0.824208  0.390184  1
  Co  Co23  1  0.824208  0.395331  0.390277  1
