# generated using pymatgen
data_Cs8Ga11Ag
_symmetry_space_group_name_H-M   'P 1'
_cell_length_a   10.22519796
_cell_length_b   10.22519840
_cell_length_c   18.13562147
_cell_angle_alpha   90.00000086
_cell_angle_beta   106.37418580
_cell_angle_gamma   59.99999638
_symmetry_Int_Tables_number   1
_chemical_formula_structural   Cs8Ga11Ag
_chemical_formula_sum   'Cs16 Ga22 Ag2'
_cell_volume   1552.68762553
_cell_formula_units_Z   2
loop_
 _symmetry_equiv_pos_site_id
 _symmetry_equiv_pos_as_xyz
  1  'x, y, z'
loop_
 _atom_site_type_symbol
 _atom_site_label
 _atom_site_symmetry_multiplicity
 _atom_site_fract_x
 _atom_site_fract_y
 _atom_site_fract_z
 _atom_site_occupancy
  Cs  Cs0  1  0.969802  0.682543  0.069694  1
  Cs  Cs1  1  0.752238  0.347654  0.069694  1
  Cs  Cs2  1  0.417348  0.900108  0.069694  1
  Cs  Cs3  1  0.150565  0.924717  0.225847  1
  Cs  Cs4  1  0.849436  0.575283  0.274153  1
  Cs  Cs5  1  0.582652  0.817456  0.430306  1
  Cs  Cs6  1  0.247763  0.599891  0.430306  1
  Cs  Cs7  1  0.030198  0.152346  0.430306  1
  Cs  Cs8  1  0.969802  0.847654  0.569694  1
  Cs  Cs9  1  0.752238  0.400108  0.569694  1
  Cs  Cs10  1  0.417348  0.182543  0.569694  1
  Cs  Cs11  1  0.150564  0.424717  0.725847  1
  Cs  Cs12  1  0.849436  0.075282  0.774153  1
  Cs  Cs13  1  0.582652  0.099892  0.930306  1
  Cs  Cs14  1  0.247763  0.652346  0.930306  1
  Cs  Cs15  1  0.030198  0.317456  0.930306  1
  Ga  Ga16  1  0.411826  0.294087  0.117738  1
  Ga  Ga17  1  0.697423  0.027945  0.168777  1
  Ga  Ga18  1  0.443409  0.528646  0.168777  1
  Ga  Ga19  1  0.196721  0.274632  0.168777  1
  Ga  Ga20  1  0.687665  0.250001  0.250000  1
  Ga  Ga21  1  0.500000  0.062334  0.250000  1
  Ga  Ga22  1  0.312335  0.437666  0.250000  1
  Ga  Ga23  1  0.803278  0.971353  0.331223  1
  Ga  Ga24  1  0.556591  0.472056  0.331223  1
  Ga  Ga25  1  0.302577  0.225368  0.331223  1
  Ga  Ga26  1  0.588174  0.205912  0.382261  1
  Ga  Ga27  1  0.411826  0.794087  0.617739  1
  Ga  Ga28  1  0.697423  0.774632  0.668777  1
  Ga  Ga29  1  0.443409  0.527944  0.668777  1
  Ga  Ga30  1  0.196722  0.028646  0.668777  1
  Ga  Ga31  1  0.687665  0.562335  0.750000  1
  Ga  Ga32  1  0.500000  0.937665  0.750000  1
  Ga  Ga33  1  0.312335  0.750000  0.750000  1
  Ga  Ga34  1  0.803279  0.725368  0.831223  1
  Ga  Ga35  1  0.556591  0.471353  0.831223  1
  Ga  Ga36  1  0.302577  0.972055  0.831223  1
  Ga  Ga37  1  0.588174  0.705913  0.882261  1
  Ag  Ag38  1  0.000000  0.000000  0.000000  1
  Ag  Ag39  1  0.000000  0.500000  0.500000  1
