# generated using pymatgen
data_Y3Cd3CuHgIr
_symmetry_space_group_name_H-M   'P 1'
_cell_length_a   7.83520000
_cell_length_b   7.83520029
_cell_length_c   3.81125000
_cell_angle_alpha   90.00000000
_cell_angle_beta   90.00000000
_cell_angle_gamma   120.00000722
_symmetry_Int_Tables_number   1
_chemical_formula_structural   Y3Cd3CuHgIr
_chemical_formula_sum   'Y3 Cd3 Cu1 Hg1 Ir1'
_cell_volume   202.62742565
_cell_formula_units_Z   1
loop_
 _symmetry_equiv_pos_site_id
 _symmetry_equiv_pos_as_xyz
  1  'x, y, z'
loop_
 _atom_site_type_symbol
 _atom_site_label
 _atom_site_symmetry_multiplicity
 _atom_site_fract_x
 _atom_site_fract_y
 _atom_site_fract_z
 _atom_site_occupancy
  Y  Y0  1  0.393484  0.967500  0.500000  1
  Y  Y1  1  0.032500  0.425984  0.500000  1
  Y  Y2  1  0.574016  0.606516  0.500000  1
  Cd  Cd3  1  0.751756  0.000718  0.000000  1
  Cd  Cd4  1  0.999282  0.751038  0.000000  1
  Cd  Cd5  1  0.248962  0.248244  0.000000  1
  Cu  Cu6  1  0.000000  0.000000  0.500000  1
  Hg  Hg7  1  0.666667  0.333333  0.000000  1
  Ir  Ir8  1  0.333333  0.666667  0.000000  1
