# generated using pymatgen
data_Tm16Tl2InHgRh4
_symmetry_space_group_name_H-M   'P 1'
_cell_length_a   9.53136737
_cell_length_b   9.53136786
_cell_length_c   9.52905872
_cell_angle_alpha   59.97999787
_cell_angle_beta   59.97999636
_cell_angle_gamma   59.98979130
_symmetry_Int_Tables_number   1
_chemical_formula_structural   Tm16Tl2InHgRh4
_chemical_formula_sum   'Tm16 Tl2 In1 Hg1 Rh4'
_cell_volume   611.90017278
_cell_formula_units_Z   1
loop_
 _symmetry_equiv_pos_site_id
 _symmetry_equiv_pos_as_xyz
  1  'x, y, z'
loop_
 _atom_site_type_symbol
 _atom_site_label
 _atom_site_symmetry_multiplicity
 _atom_site_fract_x
 _atom_site_fract_y
 _atom_site_fract_z
 _atom_site_occupancy
  Tm  Tm0  1  0.061212  0.061212  0.438922  1
  Tm  Tm1  1  0.437108  0.065596  0.437121  1
  Tm  Tm2  1  0.062041  0.438548  0.060992  1
  Tm  Tm3  1  0.052329  0.647819  0.648272  1
  Tm  Tm4  1  0.436821  0.436821  0.065209  1
  Tm  Tm5  1  0.647819  0.052329  0.648272  1
  Tm  Tm6  1  0.188314  0.812637  0.188287  1
  Tm  Tm7  1  0.188716  0.188716  0.812850  1
  Tm  Tm8  1  0.811247  0.811247  0.189435  1
  Tm  Tm9  1  0.438548  0.062041  0.060992  1
  Tm  Tm10  1  0.812637  0.188314  0.188287  1
  Tm  Tm11  1  0.065596  0.437108  0.437121  1
  Tm  Tm12  1  0.810253  0.189859  0.811534  1
  Tm  Tm13  1  0.189859  0.810253  0.811534  1
  Tm  Tm14  1  0.647871  0.647871  0.052519  1
  Tm  Tm15  1  0.651240  0.651240  0.651940  1
  Tl  Tl16  1  0.754711  0.414428  0.415585  1
  Tl  Tl17  1  0.414428  0.754711  0.415585  1
  In  In18  1  0.416120  0.416120  0.751090  1
  Hg  Hg19  1  0.412186  0.412186  0.413486  1
  Rh  Rh20  1  0.858245  0.858245  0.427804  1
  Rh  Rh21  1  0.856546  0.856546  0.856630  1
  Rh  Rh22  1  0.427896  0.858254  0.858265  1
  Rh  Rh23  1  0.858254  0.427896  0.858265  1
