# generated using pymatgen
data_Y4Pd3RuO14
_symmetry_space_group_name_H-M   'P 1'
_cell_length_a   7.23111450
_cell_length_b   7.23111417
_cell_length_c   7.28387218
_cell_angle_alpha   60.23930754
_cell_angle_beta   60.23930811
_cell_angle_gamma   60.00000002
_symmetry_Int_Tables_number   1
_chemical_formula_structural   Y4Pd3RuO14
_chemical_formula_sum   'Y4 Pd3 Ru1 O14'
_cell_volume   270.28331948
_cell_formula_units_Z   1
loop_
 _symmetry_equiv_pos_site_id
 _symmetry_equiv_pos_as_xyz
  1  'x, y, z'
loop_
 _atom_site_type_symbol
 _atom_site_label
 _atom_site_symmetry_multiplicity
 _atom_site_fract_x
 _atom_site_fract_y
 _atom_site_fract_z
 _atom_site_occupancy
  Y  Y0  1  0.125000  0.625000  0.125000  1
  Y  Y1  1  0.125000  0.125000  0.625000  1
  Y  Y2  1  0.625000  0.125000  0.125000  1
  Y  Y3  1  0.125000  0.125000  0.125000  1
  Pd  Pd4  1  0.625000  0.125000  0.625000  1
  Pd  Pd5  1  0.125000  0.625000  0.625000  1
  Pd  Pd6  1  0.625000  0.625000  0.625000  1
  Ru  Ru7  1  0.625000  0.625000  0.125000  1
  O  O8  1  0.999841  0.999841  0.000477  1
  O  O9  1  0.250159  0.250159  0.249523  1
  O  O10  1  0.283416  0.283416  0.719017  1
  O  O11  1  0.539160  0.539160  0.963546  1
  O  O12  1  0.714151  0.283416  0.719017  1
  O  O13  1  0.710840  0.291866  0.286454  1
  O  O14  1  0.283416  0.714151  0.719017  1
  O  O15  1  0.291866  0.710840  0.286454  1
  O  O16  1  0.710840  0.710840  0.286454  1
  O  O17  1  0.966584  0.535849  0.530983  1
  O  O18  1  0.539160  0.958134  0.963546  1
  O  O19  1  0.966584  0.966584  0.530983  1
  O  O20  1  0.958134  0.539160  0.963546  1
  O  O21  1  0.535849  0.966584  0.530983  1
