# generated using pymatgen
data_Zr2AsRh5
_symmetry_space_group_name_H-M   'P 1'
_cell_length_a   4.07129700
_cell_length_b   5.65309500
_cell_length_c   10.97384200
_cell_angle_alpha   90.00000000
_cell_angle_beta   90.00000000
_cell_angle_gamma   90.00000000
_symmetry_Int_Tables_number   1
_chemical_formula_structural   Zr2AsRh5
_chemical_formula_sum   'Zr4 As2 Rh10'
_cell_volume   252.56767827
_cell_formula_units_Z   2
loop_
 _symmetry_equiv_pos_site_id
 _symmetry_equiv_pos_as_xyz
  1  'x, y, z'
loop_
 _atom_site_type_symbol
 _atom_site_label
 _atom_site_symmetry_multiplicity
 _atom_site_fract_x
 _atom_site_fract_y
 _atom_site_fract_z
 _atom_site_occupancy
  Zr  Zr0  1  0.500000  0.323425  0.357535  1
  Zr  Zr1  1  0.500000  0.676575  0.642465  1
  Zr  Zr2  1  0.500000  0.176575  0.857535  1
  Zr  Zr3  1  0.500000  0.823425  0.142465  1
  As  As4  1  0.000000  0.000000  0.500000  1
  As  As5  1  0.000000  0.500000  0.000000  1
  Rh  Rh6  1  0.500000  0.313864  0.106152  1
  Rh  Rh7  1  0.500000  0.686136  0.893848  1
  Rh  Rh8  1  0.500000  0.813864  0.393848  1
  Rh  Rh9  1  0.500000  0.186136  0.606152  1
  Rh  Rh10  1  0.000000  0.931351  0.744254  1
  Rh  Rh11  1  0.000000  0.068649  0.255746  1
  Rh  Rh12  1  0.000000  0.431351  0.755746  1
  Rh  Rh13  1  0.000000  0.568649  0.244254  1
  Rh  Rh14  1  0.000000  0.500000  0.500000  1
  Rh  Rh15  1  0.000000  0.000000  0.000000  1
