# generated using pymatgen
data_Zr3Pa3FeCl15
_symmetry_space_group_name_H-M   'P 1'
_cell_length_a   9.32771752
_cell_length_b   9.32771747
_cell_length_c   9.38961900
_cell_angle_alpha   109.60570888
_cell_angle_beta   109.60570876
_cell_angle_gamma   109.33639845
_symmetry_Int_Tables_number   1
_chemical_formula_structural   Zr3Pa3FeCl15
_chemical_formula_sum   'Zr3 Pa3 Fe1 Cl15'
_cell_volume   627.84628241
_cell_formula_units_Z   1
loop_
 _symmetry_equiv_pos_site_id
 _symmetry_equiv_pos_as_xyz
  1  'x, y, z'
loop_
 _atom_site_type_symbol
 _atom_site_label
 _atom_site_symmetry_multiplicity
 _atom_site_fract_x
 _atom_site_fract_y
 _atom_site_fract_z
 _atom_site_occupancy
  Zr  Zr0  1  0.223388  0.223388  0.994669  1
  Zr  Zr1  1  0.776612  0.000000  0.771281  1
  Zr  Zr2  1  0.000000  0.776612  0.771281  1
  Pa  Pa3  1  0.748382  0.748382  0.995730  1
  Pa  Pa4  1  0.251618  0.000000  0.247348  1
  Pa  Pa5  1  0.000000  0.251618  0.247348  1
  Fe  Fe6  1  0.000000  0.000000  0.006364  1
  Cl  Cl7  1  0.250264  0.250264  0.500535  1
  Cl  Cl8  1  0.749736  0.000000  0.250269  1
  Cl  Cl9  1  0.000000  0.749736  0.250269  1
  Cl  Cl10  1  0.749360  0.237373  0.983473  1
  Cl  Cl11  1  0.250640  0.488015  0.234114  1
  Cl  Cl12  1  0.000000  0.239005  0.759691  1
  Cl  Cl13  1  0.237373  0.749360  0.983473  1
  Cl  Cl14  1  0.239005  0.000000  0.759691  1
  Cl  Cl15  1  0.488015  0.250640  0.234114  1
  Cl  Cl16  1  0.760995  0.760995  0.520685  1
  Cl  Cl17  1  0.762627  0.511985  0.746100  1
  Cl  Cl18  1  0.511985  0.762627  0.746100  1
  Cl  Cl19  1  0.495519  0.495519  0.996168  1
  Cl  Cl20  1  0.504481  0.000000  0.500649  1
  Cl  Cl21  1  0.000000  0.504481  0.500649  1
