# generated using pymatgen
data_Lu2Zn3Ag4
_symmetry_space_group_name_H-M   'P 1'
_cell_length_a   5.27444733
_cell_length_b   5.27444647
_cell_length_c   13.83869400
_cell_angle_alpha   90.00000000
_cell_angle_beta   90.00000000
_cell_angle_gamma   120.19931739
_symmetry_Int_Tables_number   1
_chemical_formula_structural   Lu2Zn3Ag4
_chemical_formula_sum   'Lu4 Zn6 Ag8'
_cell_volume   332.73908439
_cell_formula_units_Z   2
loop_
 _symmetry_equiv_pos_site_id
 _symmetry_equiv_pos_as_xyz
  1  'x, y, z'
loop_
 _atom_site_type_symbol
 _atom_site_label
 _atom_site_symmetry_multiplicity
 _atom_site_fract_x
 _atom_site_fract_y
 _atom_site_fract_z
 _atom_site_occupancy
  Lu  Lu0  1  0.817025  0.817025  0.118764  1
  Lu  Lu1  1  0.182975  0.182975  0.881236  1
  Lu  Lu2  1  0.817025  0.817025  0.381236  1
  Lu  Lu3  1  0.182975  0.182975  0.618764  1
  Zn  Zn4  1  0.172910  0.676943  0.750000  1
  Zn  Zn5  1  0.676943  0.172910  0.750000  1
  Zn  Zn6  1  0.674397  0.674397  0.750000  1
  Zn  Zn7  1  0.323057  0.827090  0.250000  1
  Zn  Zn8  1  0.827090  0.323057  0.250000  1
  Zn  Zn9  1  0.325603  0.325603  0.250000  1
  Ag  Ag10  1  0.159170  0.480889  0.077838  1
  Ag  Ag11  1  0.519111  0.840830  0.922162  1
  Ag  Ag12  1  0.480889  0.159170  0.077838  1
  Ag  Ag13  1  0.840830  0.519111  0.577838  1
  Ag  Ag14  1  0.480889  0.159170  0.422162  1
  Ag  Ag15  1  0.840830  0.519111  0.922162  1
  Ag  Ag16  1  0.519111  0.840830  0.577838  1
  Ag  Ag17  1  0.159170  0.480889  0.422162  1
