# generated using pymatgen
data_K16HfSnBi8
_symmetry_space_group_name_H-M   'P 1'
_cell_length_a   11.87406084
_cell_length_b   11.87406075
_cell_length_c   11.87406100
_cell_angle_alpha   59.99999651
_cell_angle_beta   59.99999677
_cell_angle_gamma   60.00000241
_symmetry_Int_Tables_number   1
_chemical_formula_structural   K16HfSnBi8
_chemical_formula_sum   'K16 Hf1 Sn1 Bi8'
_cell_volume   1183.81216883
_cell_formula_units_Z   1
loop_
 _symmetry_equiv_pos_site_id
 _symmetry_equiv_pos_as_xyz
  1  'x, y, z'
loop_
 _atom_site_type_symbol
 _atom_site_label
 _atom_site_symmetry_multiplicity
 _atom_site_fract_x
 _atom_site_fract_y
 _atom_site_fract_z
 _atom_site_occupancy
  K  K0  1  0.622157  0.133529  0.622157  1
  K  K1  1  0.622157  0.622157  0.133529  1
  K  K2  1  0.133529  0.622157  0.622157  1
  K  K3  1  0.622157  0.622157  0.622157  1
  K  K4  1  0.020362  0.020362  0.479638  1
  K  K5  1  0.779733  0.220267  0.220267  1
  K  K6  1  0.220267  0.779733  0.779733  1
  K  K7  1  0.779733  0.779733  0.220267  1
  K  K8  1  0.779733  0.220267  0.779733  1
  K  K9  1  0.220267  0.779733  0.220267  1
  K  K10  1  0.479638  0.020362  0.479638  1
  K  K11  1  0.479638  0.020362  0.020362  1
  K  K12  1  0.020362  0.479638  0.479638  1
  K  K13  1  0.020362  0.479638  0.020362  1
  K  K14  1  0.220267  0.220267  0.779733  1
  K  K15  1  0.479638  0.479638  0.020362  1
  Hf  Hf16  1  0.750000  0.750000  0.750000  1
  Sn  Sn17  1  0.500000  0.500000  0.500000  1
  Bi  Bi18  1  0.395703  0.812890  0.395703  1
  Bi  Bi19  1  0.851065  0.851065  0.446803  1
  Bi  Bi20  1  0.446803  0.851065  0.851065  1
  Bi  Bi21  1  0.851065  0.851065  0.851065  1
  Bi  Bi22  1  0.812890  0.395703  0.395703  1
  Bi  Bi23  1  0.395703  0.395703  0.395703  1
  Bi  Bi24  1  0.395703  0.395703  0.812890  1
  Bi  Bi25  1  0.851065  0.446803  0.851065  1
