# generated using pymatgen
data_Tb16In4FePd3
_symmetry_space_group_name_H-M   'P 1'
_cell_length_a   9.73531595
_cell_length_b   9.73531689
_cell_length_c   9.73531623
_cell_angle_alpha   60.03194031
_cell_angle_beta   60.03193851
_cell_angle_gamma   60.03193600
_symmetry_Int_Tables_number   1
_chemical_formula_structural   Tb16In4FePd3
_chemical_formula_sum   'Tb16 In4 Fe1 Pd3'
_cell_volume   652.90427564
_cell_formula_units_Z   1
loop_
 _symmetry_equiv_pos_site_id
 _symmetry_equiv_pos_as_xyz
  1  'x, y, z'
loop_
 _atom_site_type_symbol
 _atom_site_label
 _atom_site_symmetry_multiplicity
 _atom_site_fract_x
 _atom_site_fract_y
 _atom_site_fract_z
 _atom_site_occupancy
  Tb  Tb0  1  0.352493  0.352493  0.352493  1
  Tb  Tb1  1  0.346048  0.346048  0.949866  1
  Tb  Tb2  1  0.346048  0.949866  0.346048  1
  Tb  Tb3  1  0.949866  0.346048  0.346048  1
  Tb  Tb4  1  0.821827  0.188423  0.188423  1
  Tb  Tb5  1  0.189913  0.809659  0.809659  1
  Tb  Tb6  1  0.188423  0.821827  0.188423  1
  Tb  Tb7  1  0.809659  0.189913  0.809659  1
  Tb  Tb8  1  0.188423  0.188423  0.821827  1
  Tb  Tb9  1  0.809659  0.809659  0.189913  1
  Tb  Tb10  1  0.935034  0.563539  0.563539  1
  Tb  Tb11  1  0.558996  0.937554  0.937554  1
  Tb  Tb12  1  0.563539  0.935034  0.563539  1
  Tb  Tb13  1  0.937554  0.558996  0.937554  1
  Tb  Tb14  1  0.563539  0.563539  0.935034  1
  Tb  Tb15  1  0.937554  0.937554  0.558996  1
  In  In16  1  0.582253  0.582253  0.582253  1
  In  In17  1  0.582689  0.582689  0.252479  1
  In  In18  1  0.582689  0.252479  0.582689  1
  In  In19  1  0.252479  0.582689  0.582689  1
  Fe  Fe20  1  0.142511  0.142511  0.142511  1
  Pd  Pd21  1  0.144176  0.144176  0.570452  1
  Pd  Pd22  1  0.144176  0.570452  0.144176  1
  Pd  Pd23  1  0.570452  0.144176  0.144176  1
