# generated using pymatgen
data_Gd9HoSi16Ag
_symmetry_space_group_name_H-M   'P 1'
_cell_length_a   11.05621126
_cell_length_b   11.05459395
_cell_length_c   11.05590300
_cell_angle_alpha   144.73153337
_cell_angle_beta   136.52221876
_cell_angle_gamma   57.18334081
_symmetry_Int_Tables_number   1
_chemical_formula_structural   Gd9HoSi16Ag
_chemical_formula_sum   'Gd9 Ho1 Si16 Ag1'
_cell_volume   532.50528010
_cell_formula_units_Z   1
loop_
 _symmetry_equiv_pos_site_id
 _symmetry_equiv_pos_as_xyz
  1  'x, y, z'
loop_
 _atom_site_type_symbol
 _atom_site_label
 _atom_site_symmetry_multiplicity
 _atom_site_fract_x
 _atom_site_fract_y
 _atom_site_fract_z
 _atom_site_occupancy
  Gd  Gd0  1  0.053509  0.565899  0.021447  1
  Gd  Gd1  1  0.352372  0.369772  0.521051  1
  Gd  Gd2  1  0.155253  0.166449  0.522041  1
  Gd  Gd3  1  0.450577  0.962291  0.014183  1
  Gd  Gd4  1  0.644565  0.166644  0.011628  1
  Gd  Gd5  1  0.948153  0.962297  0.511823  1
  Gd  Gd6  1  0.848728  0.369683  0.017243  1
  Gd  Gd7  1  0.544467  0.566102  0.512722  1
  Gd  Gd8  1  0.251669  0.766028  0.013508  1
  Ho  Ho9  1  0.752120  0.765801  0.513732  1
  Si  Si10  1  0.115428  0.073051  0.957298  1
  Si  Si11  1  0.797325  0.172232  0.375230  1
  Si  Si12  1  0.300689  0.900020  0.599924  1
  Si  Si13  1  0.400789  0.502100  0.102637  1
  Si  Si14  1  0.881842  0.854861  0.972712  1
  Si  Si15  1  0.103659  0.709642  0.605140  1
  Si  Si16  1  0.199992  0.589571  0.389613  1
  Si  Si17  1  0.700108  0.295390  0.595988  1
  Si  Si18  1  0.001589  0.431782  0.428495  1
  Si  Si19  1  0.713048  0.663570  0.951305  1
  Si  Si20  1  0.601011  0.702140  0.101698  1
  Si  Si21  1  0.997814  0.082202  0.081598  1
  Si  Si22  1  0.501821  0.397900  0.897654  1
  Si  Si23  1  0.287090  0.240234  0.953308  1
  Si  Si24  1  0.586881  0.039608  0.454902  1
  Si  Si25  1  0.414997  0.867600  0.454664  1
  Ag  Ag26  1  0.894503  0.506049  0.607368  1
