# generated using pymatgen
data_Pa2I7Cl
_symmetry_space_group_name_H-M   'P 1'
_cell_length_a   9.42478748
_cell_length_b   7.78897570
_cell_length_c   7.78897628
_cell_angle_alpha   103.31251971
_cell_angle_beta   106.90807306
_cell_angle_gamma   110.20019219
_symmetry_Int_Tables_number   1
_chemical_formula_structural   Pa2I7Cl
_chemical_formula_sum   'Pa2 I7 Cl1'
_cell_volume   477.33251560
_cell_formula_units_Z   1
loop_
 _symmetry_equiv_pos_site_id
 _symmetry_equiv_pos_as_xyz
  1  'x, y, z'
loop_
 _atom_site_type_symbol
 _atom_site_label
 _atom_site_symmetry_multiplicity
 _atom_site_fract_x
 _atom_site_fract_y
 _atom_site_fract_z
 _atom_site_occupancy
  Pa  Pa0  1  0.683787  0.204862  0.478926  1
  Pa  Pa1  1  0.577685  0.549108  0.028577  1
  I  I2  1  0.452283  0.747795  0.317293  1
  I  I3  1  0.388220  0.214922  0.173298  1
  I  I4  1  0.873059  0.540227  0.332833  1
  I  I5  1  0.809784  0.006172  0.189396  1
  I  I6  1  0.809784  0.620388  0.803612  1
  I  I7  1  0.311101  0.569079  0.742022  1
  I  I8  1  0.452283  0.134990  0.704489  1
  Cl  Cl9  1  0.892013  0.162458  0.729555  1
