# generated using pymatgen
data_Cr(IrO3)2
_symmetry_space_group_name_H-M   'P 1'
_cell_length_a   4.53934114
_cell_length_b   18.77906400
_cell_length_c   4.56303916
_cell_angle_alpha   89.99932251
_cell_angle_beta   89.99884308
_cell_angle_gamma   90.00006438
_symmetry_Int_Tables_number   1
_chemical_formula_structural   Cr(IrO3)2
_chemical_formula_sum   'Cr4 Ir8 O24'
_cell_volume   388.97434672
_cell_formula_units_Z   4
loop_
 _symmetry_equiv_pos_site_id
 _symmetry_equiv_pos_as_xyz
  1  'x, y, z'
loop_
 _atom_site_type_symbol
 _atom_site_label
 _atom_site_symmetry_multiplicity
 _atom_site_fract_x
 _atom_site_fract_y
 _atom_site_fract_z
 _atom_site_occupancy
  Cr  Cr0  1  0.999986  0.499977  0.999938  1
  Cr  Cr1  1  0.500123  0.749990  0.500044  1
  Cr  Cr2  1  0.000023  0.000009  0.999953  1
  Cr  Cr3  1  0.500034  0.249984  0.499969  1
  Ir  Ir4  1  0.000050  0.165922  0.000013  1
  Ir  Ir5  1  0.000079  0.665898  0.000024  1
  Ir  Ir6  1  0.499984  0.415929  0.500008  1
  Ir  Ir7  1  0.499847  0.915866  0.499993  1
  Ir  Ir8  1  0.500047  0.084075  0.499994  1
  Ir  Ir9  1  0.500058  0.584097  0.499983  1
  Ir  Ir10  1  0.999973  0.334118  0.999976  1
  Ir  Ir11  1  0.999883  0.834086  0.000039  1
  O  O12  1  0.806258  0.250004  0.188368  1
  O  O13  1  0.806194  0.749994  0.188396  1
  O  O14  1  0.306200  0.999995  0.311625  1
  O  O15  1  0.306258  0.500014  0.311624  1
  O  O16  1  0.693828  0.500003  0.688399  1
  O  O17  1  0.693715  0.999981  0.688394  1
  O  O18  1  0.193806  0.250013  0.811588  1
  O  O19  1  0.193764  0.750010  0.811579  1
  O  O20  1  0.802265  0.417173  0.192381  1
  O  O21  1  0.802139  0.917163  0.192403  1
  O  O22  1  0.802349  0.082847  0.192457  1
  O  O23  1  0.802381  0.582829  0.192480  1
  O  O24  1  0.302384  0.167176  0.307513  1
  O  O25  1  0.302400  0.667177  0.307589  1
  O  O26  1  0.302250  0.332826  0.307592  1
  O  O27  1  0.302125  0.832825  0.307597  1
  O  O28  1  0.697816  0.167174  0.692408  1
  O  O29  1  0.697782  0.667182  0.692412  1
  O  O30  1  0.697646  0.332821  0.692427  1
  O  O31  1  0.697597  0.832828  0.692489  1
  O  O32  1  0.197635  0.417174  0.807566  1
  O  O33  1  0.197520  0.917169  0.807595  1
  O  O34  1  0.197770  0.082835  0.807596  1
  O  O35  1  0.197827  0.582834  0.807589  1
