# generated using pymatgen
data_Ti3Ga2PdN
_symmetry_space_group_name_H-M   'P 1'
_cell_length_a   8.19108775
_cell_length_b   8.19108870
_cell_length_c   8.19108800
_cell_angle_alpha   60.00000282
_cell_angle_beta   59.99999898
_cell_angle_gamma   59.99999850
_symmetry_Int_Tables_number   1
_chemical_formula_structural   Ti3Ga2PdN
_chemical_formula_sum   'Ti12 Ga8 Pd4 N4'
_cell_volume   388.60626864
_cell_formula_units_Z   4
loop_
 _symmetry_equiv_pos_site_id
 _symmetry_equiv_pos_as_xyz
  1  'x, y, z'
loop_
 _atom_site_type_symbol
 _atom_site_label
 _atom_site_symmetry_multiplicity
 _atom_site_fract_x
 _atom_site_fract_y
 _atom_site_fract_z
 _atom_site_occupancy
  Ti  Ti0  1  0.818993  0.818993  0.181007  1
  Ti  Ti1  1  0.068993  0.431007  0.431007  1
  Ti  Ti2  1  0.431007  0.068993  0.068993  1
  Ti  Ti3  1  0.068993  0.068993  0.431007  1
  Ti  Ti4  1  0.068993  0.431007  0.068993  1
  Ti  Ti5  1  0.431007  0.068993  0.431007  1
  Ti  Ti6  1  0.181007  0.818993  0.181007  1
  Ti  Ti7  1  0.181007  0.818993  0.818993  1
  Ti  Ti8  1  0.818993  0.181007  0.181007  1
  Ti  Ti9  1  0.818993  0.181007  0.818993  1
  Ti  Ti10  1  0.431007  0.431007  0.068993  1
  Ti  Ti11  1  0.181007  0.181007  0.818993  1
  Ga  Ga12  1  0.411891  0.764325  0.411891  1
  Ga  Ga13  1  0.838109  0.838109  0.485675  1
  Ga  Ga14  1  0.485675  0.838109  0.838109  1
  Ga  Ga15  1  0.838109  0.838109  0.838109  1
  Ga  Ga16  1  0.764325  0.411891  0.411891  1
  Ga  Ga17  1  0.411891  0.411891  0.411891  1
  Ga  Ga18  1  0.411891  0.411891  0.764325  1
  Ga  Ga19  1  0.838109  0.485675  0.838109  1
  Pd  Pd20  1  0.625000  0.125000  0.625000  1
  Pd  Pd21  1  0.625000  0.625000  0.125000  1
  Pd  Pd22  1  0.125000  0.625000  0.625000  1
  Pd  Pd23  1  0.625000  0.625000  0.625000  1
  N  N24  1  0.125000  0.625000  0.125000  1
  N  N25  1  0.125000  0.125000  0.625000  1
  N  N26  1  0.625000  0.125000  0.125000  1
  N  N27  1  0.125000  0.125000  0.125000  1
