# generated using pymatgen
data_Er2Tm14In4OsRh3
_symmetry_space_group_name_H-M   'P 1'
_cell_length_a   9.53674634
_cell_length_b   9.52713494
_cell_length_c   9.55664324
_cell_angle_alpha   60.04236668
_cell_angle_beta   60.06884671
_cell_angle_gamma   59.96661811
_symmetry_Int_Tables_number   1
_chemical_formula_structural   Er2Tm14In4OsRh3
_chemical_formula_sum   'Er2 Tm14 In4 Os1 Rh3'
_cell_volume   614.33819813
_cell_formula_units_Z   1
loop_
 _symmetry_equiv_pos_site_id
 _symmetry_equiv_pos_as_xyz
  1  'x, y, z'
loop_
 _atom_site_type_symbol
 _atom_site_label
 _atom_site_symmetry_multiplicity
 _atom_site_fract_x
 _atom_site_fract_y
 _atom_site_fract_z
 _atom_site_occupancy
  Er  Er0  1  0.058063  0.058388  0.437063  1
  Er  Er1  1  0.446486  0.058388  0.437063  1
  Tm  Tm2  1  0.062348  0.438488  0.060803  1
  Tm  Tm3  1  0.047182  0.650200  0.650552  1
  Tm  Tm4  1  0.438361  0.438488  0.060803  1
  Tm  Tm5  1  0.650932  0.047855  0.650282  1
  Tm  Tm6  1  0.189410  0.808986  0.193236  1
  Tm  Tm7  1  0.190561  0.191867  0.809568  1
  Tm  Tm8  1  0.808369  0.808986  0.193236  1
  Tm  Tm9  1  0.438952  0.061879  0.060217  1
  Tm  Tm10  1  0.808664  0.189852  0.192821  1
  Tm  Tm11  1  0.058355  0.446488  0.436803  1
  Tm  Tm12  1  0.808005  0.191867  0.809568  1
  Tm  Tm13  1  0.191014  0.808603  0.809370  1
  Tm  Tm14  1  0.651194  0.649694  0.047918  1
  Tm  Tm15  1  0.652066  0.650200  0.650552  1
  In  In16  1  0.416942  0.417151  0.415494  1
  In  In17  1  0.750414  0.417151  0.415494  1
  In  In18  1  0.417322  0.749907  0.415449  1
  In  In19  1  0.417006  0.417180  0.748808  1
  Os  Os20  1  0.858152  0.857365  0.426330  1
  Rh  Rh21  1  0.858810  0.858754  0.859820  1
  Rh  Rh22  1  0.422617  0.858754  0.859820  1
  Rh  Rh23  1  0.858777  0.423512  0.858935  1
