# generated using pymatgen
data_TbTiFe4P3
_symmetry_space_group_name_H-M   'P 1'
_cell_length_a   3.68772700
_cell_length_b   10.55935100
_cell_length_c   12.07661800
_cell_angle_alpha   90.00000000
_cell_angle_beta   90.00000000
_cell_angle_gamma   90.00000000
_symmetry_Int_Tables_number   1
_chemical_formula_structural   TbTiFe4P3
_chemical_formula_sum   'Tb4 Ti4 Fe16 P12'
_cell_volume   470.26355063
_cell_formula_units_Z   4
loop_
 _symmetry_equiv_pos_site_id
 _symmetry_equiv_pos_as_xyz
  1  'x, y, z'
loop_
 _atom_site_type_symbol
 _atom_site_label
 _atom_site_symmetry_multiplicity
 _atom_site_fract_x
 _atom_site_fract_y
 _atom_site_fract_z
 _atom_site_occupancy
  Tb  Tb0  1  0.250000  0.581899  0.706366  1
  Tb  Tb1  1  0.250000  0.918101  0.206366  1
  Tb  Tb2  1  0.750000  0.418101  0.293634  1
  Tb  Tb3  1  0.750000  0.081899  0.793634  1
  Ti  Ti4  1  0.250000  0.699358  0.989069  1
  Ti  Ti5  1  0.250000  0.800642  0.489069  1
  Ti  Ti6  1  0.750000  0.300642  0.010931  1
  Ti  Ti7  1  0.750000  0.199358  0.510931  1
  Fe  Fe8  1  0.250000  0.407466  0.493850  1
  Fe  Fe9  1  0.250000  0.092534  0.993850  1
  Fe  Fe10  1  0.750000  0.592534  0.506150  1
  Fe  Fe11  1  0.750000  0.907466  0.006150  1
  Fe  Fe12  1  0.250000  0.216923  0.177389  1
  Fe  Fe13  1  0.250000  0.283077  0.677389  1
  Fe  Fe14  1  0.750000  0.783077  0.822611  1
  Fe  Fe15  1  0.750000  0.716923  0.322611  1
  Fe  Fe16  1  0.250000  0.873281  0.704761  1
  Fe  Fe17  1  0.250000  0.626719  0.204761  1
  Fe  Fe18  1  0.750000  0.126719  0.295239  1
  Fe  Fe19  1  0.750000  0.373281  0.795239  1
  Fe  Fe20  1  0.250000  0.461772  0.931420  1
  Fe  Fe21  1  0.250000  0.038228  0.431420  1
  Fe  Fe22  1  0.750000  0.538228  0.068580  1
  Fe  Fe23  1  0.750000  0.961772  0.568580  1
  P  P24  1  0.250000  0.430329  0.113390  1
  P  P25  1  0.250000  0.069671  0.613390  1
  P  P26  1  0.750000  0.569671  0.886610  1
  P  P27  1  0.750000  0.930329  0.386610  1
  P  P28  1  0.250000  0.264810  0.868847  1
  P  P29  1  0.250000  0.235190  0.368847  1
  P  P30  1  0.750000  0.735190  0.131153  1
  P  P31  1  0.750000  0.764810  0.631153  1
  P  P32  1  0.250000  0.590411  0.393253  1
  P  P33  1  0.250000  0.909589  0.893253  1
  P  P34  1  0.750000  0.409589  0.606747  1
  P  P35  1  0.750000  0.090411  0.106747  1
