# generated using pymatgen
data_Dy2LuGaSn3Ir2
_symmetry_space_group_name_H-M   'P 1'
_cell_length_a   7.44374370
_cell_length_b   7.42924430
_cell_length_c   4.09849700
_cell_angle_alpha   90.00000000
_cell_angle_beta   90.00000000
_cell_angle_gamma   120.37769755
_symmetry_Int_Tables_number   1
_chemical_formula_structural   Dy2LuGaSn3Ir2
_chemical_formula_sum   'Dy2 Lu1 Ga1 Sn3 Ir2'
_cell_volume   195.53558075
_cell_formula_units_Z   1
loop_
 _symmetry_equiv_pos_site_id
 _symmetry_equiv_pos_as_xyz
  1  'x, y, z'
loop_
 _atom_site_type_symbol
 _atom_site_label
 _atom_site_symmetry_multiplicity
 _atom_site_fract_x
 _atom_site_fract_y
 _atom_site_fract_z
 _atom_site_occupancy
  Dy  Dy0  1  0.985778  0.395963  0.500000  1
  Dy  Dy1  1  0.603257  0.589538  0.500000  1
  Lu  Lu2  1  0.409885  0.018739  0.500000  1
  Ga  Ga3  1  0.333818  0.669298  0.000000  1
  Sn  Sn4  1  0.996830  0.742978  0.000000  1
  Sn  Sn5  1  0.257215  0.252683  0.000000  1
  Sn  Sn6  1  0.746920  0.002877  0.000000  1
  Ir  Ir7  1  0.663148  0.328290  0.000000  1
  Ir  Ir8  1  0.003148  0.999635  0.500000  1
