# generated using pymatgen
data_Na3Eu(PPt)4
_symmetry_space_group_name_H-M   'P 1'
_cell_length_a   6.28045591
_cell_length_b   6.28045628
_cell_length_c   6.28045644
_cell_angle_alpha   90.24235970
_cell_angle_beta   89.75763770
_cell_angle_gamma   90.24236070
_symmetry_Int_Tables_number   1
_chemical_formula_structural   Na3Eu(PPt)4
_chemical_formula_sum   'Na3 Eu1 P4 Pt4'
_cell_volume   247.72050218
_cell_formula_units_Z   1
loop_
 _symmetry_equiv_pos_site_id
 _symmetry_equiv_pos_as_xyz
  1  'x, y, z'
loop_
 _atom_site_type_symbol
 _atom_site_label
 _atom_site_symmetry_multiplicity
 _atom_site_fract_x
 _atom_site_fract_y
 _atom_site_fract_z
 _atom_site_occupancy
  Na  Na0  1  0.630993  0.357055  0.866030  1
  Na  Na1  1  0.366030  0.869007  0.642945  1
  Na  Na2  1  0.142945  0.133970  0.130993  1
  Eu  Eu3  1  0.855439  0.644561  0.355439  1
  P  P4  1  0.582011  0.917989  0.082011  1
  P  P5  1  0.069188  0.571137  0.929406  1
  P  P6  1  0.928863  0.070594  0.569188  1
  P  P7  1  0.429406  0.430812  0.428863  1
  Pt  Pt8  1  0.153753  0.346247  0.653753  1
  Pt  Pt9  1  0.660405  0.161500  0.342467  1
  Pt  Pt10  1  0.842467  0.839595  0.838500  1
  Pt  Pt11  1  0.338500  0.657533  0.160405  1
