# generated using pymatgen
data_SrPr4(PtO6)2
_symmetry_space_group_name_H-M   'P 1'
_cell_length_a   7.22422700
_cell_length_b   7.22422732
_cell_length_c   7.73321463
_cell_angle_alpha   74.63436881
_cell_angle_beta   74.63436792
_cell_angle_gamma   50.71335968
_symmetry_Int_Tables_number   1
_chemical_formula_structural   SrPr4(PtO6)2
_chemical_formula_sum   'Sr1 Pr4 Pt2 O12'
_cell_volume   298.64434491
_cell_formula_units_Z   1
loop_
 _symmetry_equiv_pos_site_id
 _symmetry_equiv_pos_as_xyz
  1  'x, y, z'
loop_
 _atom_site_type_symbol
 _atom_site_label
 _atom_site_symmetry_multiplicity
 _atom_site_fract_x
 _atom_site_fract_y
 _atom_site_fract_z
 _atom_site_occupancy
  Sr  Sr0  1  0.000000  0.000000  0.500000  1
  Pr  Pr1  1  0.301955  0.301955  0.362199  1
  Pr  Pr2  1  0.698045  0.698045  0.637801  1
  Pr  Pr3  1  0.696250  0.696250  0.168841  1
  Pr  Pr4  1  0.303750  0.303750  0.831159  1
  Pt  Pt5  1  0.753263  0.246737  0.000000  1
  Pt  Pt6  1  0.246737  0.753263  0.000000  1
  O  O7  1  0.095324  0.582593  0.583644  1
  O  O8  1  0.998903  0.998903  0.165917  1
  O  O9  1  0.417407  0.904676  0.416356  1
  O  O10  1  0.500268  0.500268  0.171602  1
  O  O11  1  0.104226  0.576181  0.077159  1
  O  O12  1  0.904676  0.417407  0.416356  1
  O  O13  1  0.001097  0.001097  0.834083  1
  O  O14  1  0.582593  0.095323  0.583644  1
  O  O15  1  0.499732  0.499732  0.828398  1
  O  O16  1  0.576181  0.104226  0.077159  1
  O  O17  1  0.423819  0.895774  0.922841  1
  O  O18  1  0.895774  0.423819  0.922841  1
