# generated using pymatgen
data_Th3Sn3Ru2Rh
_symmetry_space_group_name_H-M   'P 1'
_cell_length_a   7.53346300
_cell_length_b   7.53346246
_cell_length_c   4.14959500
_cell_angle_alpha   90.00000000
_cell_angle_beta   90.00000000
_cell_angle_gamma   119.99999799
_symmetry_Int_Tables_number   1
_chemical_formula_structural   Th3Sn3Ru2Rh
_chemical_formula_sum   'Th3 Sn3 Ru2 Rh1'
_cell_volume   203.95090661
_cell_formula_units_Z   1
loop_
 _symmetry_equiv_pos_site_id
 _symmetry_equiv_pos_as_xyz
  1  'x, y, z'
loop_
 _atom_site_type_symbol
 _atom_site_label
 _atom_site_symmetry_multiplicity
 _atom_site_fract_x
 _atom_site_fract_y
 _atom_site_fract_z
 _atom_site_occupancy
  Th  Th0  1  0.414595  0.414595  0.500000  1
  Th  Th1  1  0.585405  0.000000  0.500000  1
  Th  Th2  1  0.000000  0.585405  0.500000  1
  Sn  Sn3  1  0.748957  0.748957  0.000000  1
  Sn  Sn4  1  0.251043  0.000000  0.000000  1
  Sn  Sn5  1  0.000000  0.251043  0.000000  1
  Ru  Ru6  1  0.666667  0.333333  0.000000  1
  Ru  Ru7  1  0.333333  0.666667  0.000000  1
  Rh  Rh8  1  0.000000  0.000000  0.500000  1
