# generated using pymatgen
data_Zr3SbTe3
_symmetry_space_group_name_H-M   'P 1'
_cell_length_a   11.20605200
_cell_length_b   11.20605275
_cell_length_c   3.97579600
_cell_angle_alpha   90.00000000
_cell_angle_beta   90.00000000
_cell_angle_gamma   120.00000879
_symmetry_Int_Tables_number   1
_chemical_formula_structural   Zr3SbTe3
_chemical_formula_sum   'Zr6 Sb2 Te6'
_cell_volume   432.37440925
_cell_formula_units_Z   2
loop_
 _symmetry_equiv_pos_site_id
 _symmetry_equiv_pos_as_xyz
  1  'x, y, z'
loop_
 _atom_site_type_symbol
 _atom_site_label
 _atom_site_symmetry_multiplicity
 _atom_site_fract_x
 _atom_site_fract_y
 _atom_site_fract_z
 _atom_site_occupancy
  Zr  Zr0  1  0.637539  0.128662  0.750000  1
  Zr  Zr1  1  0.491121  0.362461  0.750000  1
  Zr  Zr2  1  0.362461  0.871338  0.250000  1
  Zr  Zr3  1  0.871338  0.508879  0.750000  1
  Zr  Zr4  1  0.508879  0.637539  0.250000  1
  Zr  Zr5  1  0.128662  0.491121  0.250000  1
  Sb  Sb6  1  0.333333  0.666667  0.750000  1
  Sb  Sb7  1  0.666667  0.333333  0.250000  1
  Te  Te8  1  0.706258  0.653000  0.750000  1
  Te  Te9  1  0.293742  0.347000  0.250000  1
  Te  Te10  1  0.653000  0.946741  0.250000  1
  Te  Te11  1  0.946741  0.293742  0.750000  1
  Te  Te12  1  0.053259  0.706258  0.250000  1
  Te  Te13  1  0.347000  0.053259  0.750000  1
