# generated using pymatgen
data_LiCr(PS3)2
_symmetry_space_group_name_H-M   'P 1'
_cell_length_a   6.22927424
_cell_length_b   6.22927524
_cell_length_c   6.55759672
_cell_angle_alpha   83.57240617
_cell_angle_beta   83.57240039
_cell_angle_gamma   113.19140987
_symmetry_Int_Tables_number   1
_chemical_formula_structural   LiCr(PS3)2
_chemical_formula_sum   'Li1 Cr1 P2 S6'
_cell_volume   229.01172030
_cell_formula_units_Z   1
loop_
 _symmetry_equiv_pos_site_id
 _symmetry_equiv_pos_as_xyz
  1  'x, y, z'
loop_
 _atom_site_type_symbol
 _atom_site_label
 _atom_site_symmetry_multiplicity
 _atom_site_fract_x
 _atom_site_fract_y
 _atom_site_fract_z
 _atom_site_occupancy
  Li  Li0  1  0.871811  0.128189  0.000000  1
  Cr  Cr1  1  0.511327  0.488673  0.000000  1
  P  P2  1  0.023192  0.647540  0.057869  1
  P  P3  1  0.352460  0.976808  0.942131  1
  S  S4  1  0.886627  0.532613  0.801395  1
  S  S5  1  0.561376  0.851344  0.775832  1
  S  S6  1  0.768104  0.710439  0.230064  1
  S  S7  1  0.289561  0.231896  0.769936  1
  S  S8  1  0.148656  0.438624  0.224168  1
  S  S9  1  0.467387  0.113373  0.198605  1
