# generated using pymatgen
data_Tb3Ga(Ni6B)2
_symmetry_space_group_name_H-M   'P 1'
_cell_length_a   4.99418500
_cell_length_b   4.94812405
_cell_length_c   10.99311200
_cell_angle_alpha   90.00000000
_cell_angle_beta   90.00000000
_cell_angle_gamma   120.30840563
_symmetry_Int_Tables_number   1
_chemical_formula_structural   Tb3Ga(Ni6B)2
_chemical_formula_sum   'Tb3 Ga1 Ni12 B2'
_cell_volume   234.53001246
_cell_formula_units_Z   1
loop_
 _symmetry_equiv_pos_site_id
 _symmetry_equiv_pos_as_xyz
  1  'x, y, z'
loop_
 _atom_site_type_symbol
 _atom_site_label
 _atom_site_symmetry_multiplicity
 _atom_site_fract_x
 _atom_site_fract_y
 _atom_site_fract_z
 _atom_site_occupancy
  Tb  Tb0  1  0.000000  0.000000  0.000000  1
  Tb  Tb1  1  0.000000  0.000000  0.319834  1
  Tb  Tb2  1  0.000000  0.000000  0.680166  1
  Ga  Ga3  1  0.500000  0.000000  0.500000  1
  Ni  Ni4  1  0.500000  0.500000  0.500000  1
  Ni  Ni5  1  0.000000  0.500000  0.500000  1
  Ni  Ni6  1  0.333688  0.667377  0.316357  1
  Ni  Ni7  1  0.666312  0.332623  0.316357  1
  Ni  Ni8  1  0.666312  0.332623  0.683643  1
  Ni  Ni9  1  0.333688  0.667377  0.683643  1
  Ni  Ni10  1  0.500000  0.000000  0.131168  1
  Ni  Ni11  1  0.500000  0.500000  0.132077  1
  Ni  Ni12  1  0.000000  0.500000  0.132077  1
  Ni  Ni13  1  0.500000  0.000000  0.868832  1
  Ni  Ni14  1  0.500000  0.500000  0.867923  1
  Ni  Ni15  1  0.000000  0.500000  0.867923  1
  B  B16  1  0.332585  0.665171  0.000000  1
  B  B17  1  0.667415  0.334829  0.000000  1
