# generated using pymatgen
data_Er10Ga3CoBi2
_symmetry_space_group_name_H-M   'P 1'
_cell_length_a   8.55381859
_cell_length_b   8.70251989
_cell_length_c   7.95528600
_cell_angle_alpha   61.60153874
_cell_angle_beta   63.50247673
_cell_angle_gamma   54.89597048
_symmetry_Int_Tables_number   1
_chemical_formula_structural   Er10Ga3CoBi2
_chemical_formula_sum   'Er10 Ga3 Co1 Bi2'
_cell_volume   413.72753666
_cell_formula_units_Z   1
loop_
 _symmetry_equiv_pos_site_id
 _symmetry_equiv_pos_as_xyz
  1  'x, y, z'
loop_
 _atom_site_type_symbol
 _atom_site_label
 _atom_site_symmetry_multiplicity
 _atom_site_fract_x
 _atom_site_fract_y
 _atom_site_fract_z
 _atom_site_occupancy
  Er  Er0  1  0.798330  0.484259  0.515741  1
  Er  Er1  1  0.453773  0.807875  0.192125  1
  Er  Er2  1  0.295696  0.981993  0.722286  1
  Er  Er3  1  0.999975  0.277714  0.018007  1
  Er  Er4  1  0.192125  0.546227  0.453773  1
  Er  Er5  1  0.515741  0.201670  0.798330  1
  Er  Er6  1  0.722286  0.000025  0.295696  1
  Er  Er7  1  0.018007  0.704304  0.999975  1
  Er  Er8  1  0.500103  0.499897  0.999602  1
  Er  Er9  1  0.999602  0.000398  0.500103  1
  Ga  Ga10  1  0.866145  0.133855  0.866145  1
  Ga  Ga11  1  0.641171  0.358829  0.361620  1
  Ga  Ga12  1  0.361620  0.638380  0.641171  1
  Co  Co13  1  0.122586  0.877414  0.122586  1
  Bi  Bi14  1  0.756419  0.743581  0.756419  1
  Bi  Bi15  1  0.256419  0.243581  0.256419  1
