# generated using pymatgen
data_Th3SnHgGeRh3
_symmetry_space_group_name_H-M   'P 1'
_cell_length_a   7.50852557
_cell_length_b   7.60221292
_cell_length_c   4.06258900
_cell_angle_alpha   90.00000000
_cell_angle_beta   90.00000000
_cell_angle_gamma   120.92796678
_symmetry_Int_Tables_number   1
_chemical_formula_structural   Th3SnHgGeRh3
_chemical_formula_sum   'Th3 Sn1 Hg1 Ge1 Rh3'
_cell_volume   198.92564795
_cell_formula_units_Z   1
loop_
 _symmetry_equiv_pos_site_id
 _symmetry_equiv_pos_as_xyz
  1  'x, y, z'
loop_
 _atom_site_type_symbol
 _atom_site_label
 _atom_site_symmetry_multiplicity
 _atom_site_fract_x
 _atom_site_fract_y
 _atom_site_fract_z
 _atom_site_occupancy
  Th  Th0  1  0.996790  0.408983  0.500000  1
  Th  Th1  1  0.598515  0.601129  0.500000  1
  Th  Th2  1  0.422008  0.997772  0.500000  1
  Sn  Sn3  1  0.247197  0.240830  0.000000  1
  Hg  Hg4  1  0.005936  0.750421  0.000000  1
  Ge  Ge5  1  0.745836  0.001519  0.000000  1
  Rh  Rh6  1  0.353249  0.665892  0.000000  1
  Rh  Rh7  1  0.661424  0.314976  0.000000  1
  Rh  Rh8  1  0.969046  0.018479  0.500000  1
