# generated using pymatgen
data_Nd2Ge2BRu2
_symmetry_space_group_name_H-M   'P 1'
_cell_length_a   6.06695628
_cell_length_b   6.06695556
_cell_length_c   7.21354122
_cell_angle_alpha   126.47191348
_cell_angle_beta   126.47192147
_cell_angle_gamma   41.62439259
_symmetry_Int_Tables_number   1
_chemical_formula_structural   Nd2Ge2BRu2
_chemical_formula_sum   'Nd2 Ge2 B1 Ru2'
_cell_volume   136.11199385
_cell_formula_units_Z   1
loop_
 _symmetry_equiv_pos_site_id
 _symmetry_equiv_pos_as_xyz
  1  'x, y, z'
loop_
 _atom_site_type_symbol
 _atom_site_label
 _atom_site_symmetry_multiplicity
 _atom_site_fract_x
 _atom_site_fract_y
 _atom_site_fract_z
 _atom_site_occupancy
  Nd  Nd0  1  0.561914  0.561914  0.298882  1
  Nd  Nd1  1  0.438086  0.438086  0.701117  1
  Ge  Ge2  1  0.834486  0.834486  0.283117  1
  Ge  Ge3  1  0.165514  0.165514  0.716884  1
  B  B4  1  0.000000  0.000000  0.000000  1
  Ru  Ru5  1  0.206127  0.206127  0.099264  1
  Ru  Ru6  1  0.793872  0.793872  0.900736  1
