# generated using pymatgen
data_Lu3Al3GaSiIr
_symmetry_space_group_name_H-M   'P 1'
_cell_length_a   6.80782500
_cell_length_b   6.80782441
_cell_length_c   4.22065400
_cell_angle_alpha   90.00000000
_cell_angle_beta   90.00000000
_cell_angle_gamma   119.99999802
_symmetry_Int_Tables_number   1
_chemical_formula_structural   Lu3Al3GaSiIr
_chemical_formula_sum   'Lu3 Al3 Ga1 Si1 Ir1'
_cell_volume   169.40534953
_cell_formula_units_Z   1
loop_
 _symmetry_equiv_pos_site_id
 _symmetry_equiv_pos_as_xyz
  1  'x, y, z'
loop_
 _atom_site_type_symbol
 _atom_site_label
 _atom_site_symmetry_multiplicity
 _atom_site_fract_x
 _atom_site_fract_y
 _atom_site_fract_z
 _atom_site_occupancy
  Lu  Lu0  1  0.418411  0.001151  0.000000  1
  Lu  Lu1  1  0.998849  0.417259  0.000000  1
  Lu  Lu2  1  0.582740  0.581588  0.000000  1
  Al  Al3  1  0.765653  0.001188  0.500001  1
  Al  Al4  1  0.235534  0.234346  0.500001  1
  Al  Al5  1  0.998812  0.764465  0.500001  1
  Ga  Ga6  1  0.333333  0.666667  0.500001  1
  Si  Si7  1  0.666667  0.333334  0.500001  1
  Ir  Ir8  1  0.000000  0.000000  0.000000  1
