# generated using pymatgen
data_TbNd5Hf2(Co4P3)4
_symmetry_space_group_name_H-M   'P 1'
_cell_length_a   3.75889600
_cell_length_b   10.76998460
_cell_length_c   12.55641069
_cell_angle_alpha   90.03803006
_cell_angle_beta   90.00000000
_cell_angle_gamma   90.00000000
_symmetry_Int_Tables_number   1
_chemical_formula_structural   TbNd5Hf2(Co4P3)4
_chemical_formula_sum   'Tb1 Nd5 Hf2 Co16 P12'
_cell_volume   508.32422635
_cell_formula_units_Z   1
loop_
 _symmetry_equiv_pos_site_id
 _symmetry_equiv_pos_as_xyz
  1  'x, y, z'
loop_
 _atom_site_type_symbol
 _atom_site_label
 _atom_site_symmetry_multiplicity
 _atom_site_fract_x
 _atom_site_fract_y
 _atom_site_fract_z
 _atom_site_occupancy
  Tb  Tb0  1  0.000000  0.320767  0.795955  1
  Nd  Nd1  1  0.000000  0.499699  0.528908  1
  Nd  Nd2  1  0.500000  0.000284  0.471848  1
  Nd  Nd3  1  0.500000  0.821128  0.204562  1
  Nd  Nd4  1  0.500000  0.179232  0.205566  1
  Nd  Nd5  1  0.000000  0.678134  0.794763  1
  Hf  Hf6  1  0.500000  0.499794  0.155327  1
  Hf  Hf7  1  0.000000  0.000592  0.844303  1
  Co  Co8  1  0.500000  0.496207  0.705601  1
  Co  Co9  1  0.000000  0.000227  0.295537  1
  Co  Co10  1  0.000000  0.498727  0.986112  1
  Co  Co11  1  0.500000  0.001238  0.011440  1
  Co  Co12  1  0.500000  0.331879  0.992754  1
  Co  Co13  1  0.500000  0.666764  0.993277  1
  Co  Co14  1  0.000000  0.168896  0.004175  1
  Co  Co15  1  0.000000  0.832217  0.005071  1
  Co  Co16  1  0.500000  0.295723  0.434301  1
  Co  Co17  1  0.500000  0.704239  0.432698  1
  Co  Co18  1  0.000000  0.205150  0.569661  1
  Co  Co19  1  0.000000  0.795413  0.567473  1
  Co  Co20  1  0.500000  0.881097  0.703129  1
  Co  Co21  1  0.500000  0.121608  0.705733  1
  Co  Co22  1  0.000000  0.619417  0.296648  1
  Co  Co23  1  0.000000  0.380627  0.297331  1
  P  P24  1  0.500000  0.497349  0.884688  1
  P  P25  1  0.000000  0.000764  0.112690  1
  P  P26  1  0.500000  0.499925  0.357696  1
  P  P27  1  0.000000  0.999994  0.642519  1
  P  P28  1  0.500000  0.305888  0.617108  1
  P  P29  1  0.500000  0.694919  0.613610  1
  P  P30  1  0.000000  0.195816  0.387797  1
  P  P31  1  0.000000  0.804910  0.386363  1
  P  P32  1  0.500000  0.840740  0.896164  1
  P  P33  1  0.500000  0.161229  0.893575  1
  P  P34  1  0.000000  0.658809  0.102347  1
  P  P35  1  0.000000  0.340598  0.103271  1
