# generated using pymatgen
data_Nd16CdHg3Os3Pd
_symmetry_space_group_name_H-M   'P 1'
_cell_length_a   9.87598363
_cell_length_b   9.98887232
_cell_length_c   9.98887300
_cell_angle_alpha   60.00000105
_cell_angle_beta   59.62115309
_cell_angle_gamma   59.62115498
_symmetry_Int_Tables_number   1
_chemical_formula_structural   Nd16CdHg3Os3Pd
_chemical_formula_sum   'Nd16 Cd1 Hg3 Os3 Pd1'
_cell_volume   692.76758560
_cell_formula_units_Z   1
loop_
 _symmetry_equiv_pos_site_id
 _symmetry_equiv_pos_as_xyz
  1  'x, y, z'
loop_
 _atom_site_type_symbol
 _atom_site_label
 _atom_site_symmetry_multiplicity
 _atom_site_fract_x
 _atom_site_fract_y
 _atom_site_fract_z
 _atom_site_occupancy
  Nd  Nd0  1  0.345528  0.351511  0.351511  1
  Nd  Nd1  1  0.345528  0.351511  0.951450  1
  Nd  Nd2  1  0.345528  0.951450  0.351511  1
  Nd  Nd3  1  0.960017  0.346661  0.346661  1
  Nd  Nd4  1  0.814387  0.192068  0.192068  1
  Nd  Nd5  1  0.187906  0.810677  0.810677  1
  Nd  Nd6  1  0.187906  0.810677  0.190741  1
  Nd  Nd7  1  0.814387  0.192068  0.801476  1
  Nd  Nd8  1  0.187906  0.190741  0.810677  1
  Nd  Nd9  1  0.814387  0.801476  0.192068  1
  Nd  Nd10  1  0.936145  0.562193  0.562193  1
  Nd  Nd11  1  0.554288  0.940130  0.940130  1
  Nd  Nd12  1  0.554288  0.940130  0.565453  1
  Nd  Nd13  1  0.936145  0.562193  0.939470  1
  Nd  Nd14  1  0.554288  0.565453  0.940130  1
  Nd  Nd15  1  0.936145  0.939470  0.562193  1
  Cd  Cd16  1  0.263330  0.578891  0.578891  1
  Hg  Hg17  1  0.582252  0.584359  0.584359  1
  Hg  Hg18  1  0.582252  0.584359  0.249033  1
  Hg  Hg19  1  0.582252  0.249033  0.584359  1
  Os  Os20  1  0.145837  0.137508  0.137508  1
  Os  Os21  1  0.145837  0.137508  0.579148  1
  Os  Os22  1  0.145837  0.579148  0.137508  1
  Pd  Pd23  1  0.577629  0.140790  0.140790  1
