# generated using pymatgen
data_DyEr3Al18Ir5Au
_symmetry_space_group_name_H-M   'P 1'
_cell_length_a   7.57862451
_cell_length_b   7.57804209
_cell_length_c   9.45113853
_cell_angle_alpha   89.98083210
_cell_angle_beta   89.95980100
_cell_angle_gamma   119.57318594
_symmetry_Int_Tables_number   1
_chemical_formula_structural   DyEr3Al18Ir5Au
_chemical_formula_sum   'Dy1 Er3 Al18 Ir5 Au1'
_cell_volume   472.07798004
_cell_formula_units_Z   1
loop_
 _symmetry_equiv_pos_site_id
 _symmetry_equiv_pos_as_xyz
  1  'x, y, z'
loop_
 _atom_site_type_symbol
 _atom_site_label
 _atom_site_symmetry_multiplicity
 _atom_site_fract_x
 _atom_site_fract_y
 _atom_site_fract_z
 _atom_site_occupancy
  Dy  Dy0  1  0.327030  0.004206  0.248875  1
  Er  Er1  1  0.995845  0.672867  0.751394  1
  Er  Er2  1  0.004141  0.327139  0.248631  1
  Er  Er3  1  0.672961  0.995854  0.751391  1
  Al  Al4  1  0.134318  0.134383  0.755994  1
  Al  Al5  1  0.865281  0.865543  0.243934  1
  Al  Al6  1  0.001088  0.343771  0.579179  1
  Al  Al7  1  0.998559  0.655784  0.421060  1
  Al  Al8  1  0.000103  0.664337  0.073683  1
  Al  Al9  1  0.335270  0.999503  0.925636  1
  Al  Al10  1  0.999524  0.335273  0.926009  1
  Al  Al11  1  0.665083  0.000493  0.073715  1
  Al  Al12  1  0.656600  0.998886  0.421106  1
  Al  Al13  1  0.343853  0.001076  0.579526  1
  Al  Al14  1  0.333018  0.333349  0.052804  1
  Al  Al15  1  0.666976  0.666985  0.946803  1
  Al  Al16  1  0.658531  0.658533  0.559407  1
  Al  Al17  1  0.341525  0.341852  0.440956  1
  Al  Al18  1  0.339051  0.550100  0.751161  1
  Al  Al19  1  0.661309  0.450338  0.248818  1
  Al  Al20  1  0.550143  0.339104  0.751166  1
  Al  Al21  1  0.449969  0.660677  0.248808  1
  Ir  Ir22  1  0.672116  0.328138  0.500161  1
  Ir  Ir23  1  0.328033  0.671872  0.500158  1
  Ir  Ir24  1  0.328005  0.671918  0.999850  1
  Ir  Ir25  1  0.672128  0.328107  0.999808  1
  Ir  Ir26  1  0.999759  0.999944  0.999798  1
  Au  Au27  1  0.999780  0.999969  0.500170  1
