# generated using pymatgen
data_Er2TmTh(CdCu2)2
_symmetry_space_group_name_H-M   'P 1'
_cell_length_a   3.67949000
_cell_length_b   7.59412348
_cell_length_c   7.59412381
_cell_angle_alpha   91.20216645
_cell_angle_beta   90.00000000
_cell_angle_gamma   90.00000000
_symmetry_Int_Tables_number   1
_chemical_formula_structural   Er2TmTh(CdCu2)2
_chemical_formula_sum   'Er2 Tm1 Th1 Cd2 Cu4'
_cell_volume   212.15210852
_cell_formula_units_Z   1
loop_
 _symmetry_equiv_pos_site_id
 _symmetry_equiv_pos_as_xyz
  1  'x, y, z'
loop_
 _atom_site_type_symbol
 _atom_site_label
 _atom_site_symmetry_multiplicity
 _atom_site_fract_x
 _atom_site_fract_y
 _atom_site_fract_z
 _atom_site_occupancy
  Er  Er0  1  0.500000  0.330143  0.176142  1
  Er  Er1  1  0.500000  0.676142  0.830143  1
  Tm  Tm2  1  0.500000  0.823862  0.323862  1
  Th  Th3  1  0.500000  0.172038  0.672038  1
  Cd  Cd4  1  0.000000  0.996800  0.006511  1
  Cd  Cd5  1  0.000000  0.506511  0.496800  1
  Cu  Cu6  1  0.000000  0.621160  0.121160  1
  Cu  Cu7  1  0.000000  0.383819  0.883819  1
  Cu  Cu8  1  0.000000  0.873237  0.616286  1
  Cu  Cu9  1  0.000000  0.116286  0.373237  1
