# generated using pymatgen
data_Ba2Ho3Bi4
_symmetry_space_group_name_H-M   'P 1'
_cell_length_a   8.87054600
_cell_length_b   8.72120100
_cell_length_c   16.19495100
_cell_angle_alpha   90.00000000
_cell_angle_beta   90.00000000
_cell_angle_gamma   90.00000000
_symmetry_Int_Tables_number   1
_chemical_formula_structural   Ba2Ho3Bi4
_chemical_formula_sum   'Ba8 Ho12 Bi16'
_cell_volume   1252.87079746
_cell_formula_units_Z   4
loop_
 _symmetry_equiv_pos_site_id
 _symmetry_equiv_pos_as_xyz
  1  'x, y, z'
loop_
 _atom_site_type_symbol
 _atom_site_label
 _atom_site_symmetry_multiplicity
 _atom_site_fract_x
 _atom_site_fract_y
 _atom_site_fract_z
 _atom_site_occupancy
  Ba  Ba0  1  0.024896  0.172878  0.093251  1
  Ba  Ba1  1  0.524896  0.327122  0.406749  1
  Ba  Ba2  1  0.475104  0.672878  0.906749  1
  Ba  Ba3  1  0.975104  0.827122  0.593251  1
  Ba  Ba4  1  0.975104  0.827122  0.906749  1
  Ba  Ba5  1  0.475104  0.672878  0.593251  1
  Ba  Ba6  1  0.524896  0.327122  0.093251  1
  Ba  Ba7  1  0.024896  0.172878  0.406749  1
  Ho  Ho8  1  0.852512  0.646770  0.127362  1
  Ho  Ho9  1  0.352512  0.853230  0.372638  1
  Ho  Ho10  1  0.647488  0.146770  0.872638  1
  Ho  Ho11  1  0.147488  0.353230  0.627362  1
  Ho  Ho12  1  0.147488  0.353230  0.872638  1
  Ho  Ho13  1  0.647488  0.146770  0.627362  1
  Ho  Ho14  1  0.352512  0.853230  0.127362  1
  Ho  Ho15  1  0.852512  0.646770  0.372638  1
  Ho  Ho16  1  0.694684  0.994506  0.250000  1
  Ho  Ho17  1  0.194684  0.505494  0.250000  1
  Ho  Ho18  1  0.805316  0.494506  0.750000  1
  Ho  Ho19  1  0.305316  0.005494  0.750000  1
  Bi  Bi20  1  0.051645  0.847477  0.250000  1
  Bi  Bi21  1  0.551645  0.652523  0.250000  1
  Bi  Bi22  1  0.448355  0.347477  0.750000  1
  Bi  Bi23  1  0.948355  0.152523  0.750000  1
  Bi  Bi24  1  0.845482  0.353924  0.250000  1
  Bi  Bi25  1  0.345482  0.146076  0.250000  1
  Bi  Bi26  1  0.654518  0.853924  0.750000  1
  Bi  Bi27  1  0.154518  0.646076  0.750000  1
  Bi  Bi28  1  0.808050  0.446888  0.947839  1
  Bi  Bi29  1  0.308050  0.053112  0.552161  1
  Bi  Bi30  1  0.691950  0.946888  0.052161  1
  Bi  Bi31  1  0.191950  0.553112  0.447839  1
  Bi  Bi32  1  0.191950  0.553112  0.052161  1
  Bi  Bi33  1  0.691950  0.946888  0.447839  1
  Bi  Bi34  1  0.308050  0.053112  0.947839  1
  Bi  Bi35  1  0.808050  0.446888  0.552161  1
