# generated using pymatgen
data_Ho12Co2BiRu3
_symmetry_space_group_name_H-M   'P 1'
_cell_length_a   8.36231104
_cell_length_b   8.36244344
_cell_length_c   8.36231263
_cell_angle_alpha   112.68091803
_cell_angle_beta   109.91852486
_cell_angle_gamma   105.88499223
_symmetry_Int_Tables_number   1
_chemical_formula_structural   Ho12Co2BiRu3
_chemical_formula_sum   'Ho12 Co2 Bi1 Ru3'
_cell_volume   448.56950104
_cell_formula_units_Z   1
loop_
 _symmetry_equiv_pos_site_id
 _symmetry_equiv_pos_as_xyz
  1  'x, y, z'
loop_
 _atom_site_type_symbol
 _atom_site_label
 _atom_site_symmetry_multiplicity
 _atom_site_fract_x
 _atom_site_fract_y
 _atom_site_fract_z
 _atom_site_occupancy
  Ho  Ho0  1  0.821670  0.723350  0.545022  1
  Ho  Ho1  1  0.178330  0.276650  0.454978  1
  Ho  Ho2  1  0.178329  0.723350  0.901680  1
  Ho  Ho3  1  0.821671  0.276650  0.098320  1
  Ho  Ho4  1  0.681373  0.362710  0.681338  1
  Ho  Ho5  1  0.318627  0.637290  0.318662  1
  Ho  Ho6  1  0.681383  0.000037  0.318654  1
  Ho  Ho7  1  0.318617  0.999963  0.681346  1
  Ho  Ho8  1  0.585753  0.774304  0.811470  1
  Ho  Ho9  1  0.414247  0.225696  0.188530  1
  Ho  Ho10  1  0.962833  0.774304  0.188551  1
  Ho  Ho11  1  0.037167  0.225696  0.811449  1
  Co  Co12  1  0.109816  0.609815  0.500000  1
  Co  Co13  1  0.890184  0.390185  0.500000  1
  Bi  Bi14  1  0.500000  0.500000  0.000000  1
  Ru  Ru15  1  0.661892  0.000000  0.661892  1
  Ru  Ru16  1  0.338108  0.000000  0.338108  1
  Ru  Ru17  1  0.000000  0.000000  0.000000  1
