# generated using pymatgen
data_La9Pr(IrPt2)2
_symmetry_space_group_name_H-M   'P 1'
_cell_length_a   11.57384100
_cell_length_b   11.57384100
_cell_length_c   6.70028400
_cell_angle_alpha   90.00000000
_cell_angle_beta   90.00000000
_cell_angle_gamma   90.00000000
_symmetry_Int_Tables_number   1
_chemical_formula_structural   La9Pr(IrPt2)2
_chemical_formula_sum   'La18 Pr2 Ir4 Pt8'
_cell_volume   897.52847268
_cell_formula_units_Z   2
loop_
 _symmetry_equiv_pos_site_id
 _symmetry_equiv_pos_as_xyz
  1  'x, y, z'
loop_
 _atom_site_type_symbol
 _atom_site_label
 _atom_site_symmetry_multiplicity
 _atom_site_fract_x
 _atom_site_fract_y
 _atom_site_fract_z
 _atom_site_occupancy
  La  La0  1  0.296360  0.089780  0.376182  1
  La  La1  1  0.296360  0.910220  0.876182  1
  La  La2  1  0.703640  0.089780  0.876182  1
  La  La3  1  0.703640  0.910220  0.376182  1
  La  La4  1  0.589584  0.795588  0.876718  1
  La  La5  1  0.589584  0.204412  0.376718  1
  La  La6  1  0.410416  0.795588  0.376718  1
  La  La7  1  0.410416  0.204412  0.876718  1
  La  La8  1  0.204412  0.410416  0.623282  1
  La  La9  1  0.204412  0.589584  0.123282  1
  La  La10  1  0.795588  0.410416  0.123282  1
  La  La11  1  0.795588  0.589584  0.623282  1
  La  La12  1  0.910220  0.703640  0.123818  1
  La  La13  1  0.910220  0.296360  0.623818  1
  La  La14  1  0.089780  0.703640  0.623818  1
  La  La15  1  0.089780  0.296360  0.123818  1
  La  La16  1  0.000000  0.000000  0.500000  1
  La  La17  1  0.000000  0.000000  0.000000  1
  Pr  Pr18  1  0.500000  0.500000  0.000000  1
  Pr  Pr19  1  0.500000  0.500000  0.500000  1
  Ir  Ir20  1  0.500000  0.000000  0.114276  1
  Ir  Ir21  1  0.500000  0.000000  0.614276  1
  Ir  Ir22  1  0.000000  0.500000  0.885724  1
  Ir  Ir23  1  0.000000  0.500000  0.385724  1
  Pt  Pt24  1  0.845855  0.154145  0.250000  1
  Pt  Pt25  1  0.845855  0.845855  0.750000  1
  Pt  Pt26  1  0.154145  0.154145  0.750000  1
  Pt  Pt27  1  0.154145  0.845855  0.250000  1
  Pt  Pt28  1  0.654084  0.345916  0.750000  1
  Pt  Pt29  1  0.654084  0.654084  0.250000  1
  Pt  Pt30  1  0.345916  0.345916  0.250000  1
  Pt  Pt31  1  0.345916  0.654084  0.750000  1
