# generated using pymatgen
data_Pr2Hg(AsRh2)6
_symmetry_space_group_name_H-M   'P 1'
_cell_length_a   10.10760700
_cell_length_b   10.10760724
_cell_length_c   4.03480100
_cell_angle_alpha   90.00000000
_cell_angle_beta   90.00000000
_cell_angle_gamma   119.99999594
_symmetry_Int_Tables_number   1
_chemical_formula_structural   Pr2Hg(AsRh2)6
_chemical_formula_sum   'Pr2 Hg1 As6 Rh12'
_cell_volume   356.98459439
_cell_formula_units_Z   1
loop_
 _symmetry_equiv_pos_site_id
 _symmetry_equiv_pos_as_xyz
  1  'x, y, z'
loop_
 _atom_site_type_symbol
 _atom_site_label
 _atom_site_symmetry_multiplicity
 _atom_site_fract_x
 _atom_site_fract_y
 _atom_site_fract_z
 _atom_site_occupancy
  Pr  Pr0  1  0.333333  0.666667  0.758697  1
  Pr  Pr1  1  0.666667  0.333333  0.243633  1
  Hg  Hg2  1  0.000000  0.000000  0.577006  1
  As  As3  1  0.884775  0.597538  0.745710  1
  As  As4  1  0.402462  0.287237  0.745710  1
  As  As5  1  0.712763  0.115225  0.745710  1
  As  As6  1  0.113431  0.400620  0.256997  1
  As  As7  1  0.599380  0.712811  0.256997  1
  As  As8  1  0.287189  0.886569  0.256997  1
  Rh  Rh9  1  0.615590  0.553331  0.749984  1
  Rh  Rh10  1  0.446669  0.062259  0.749984  1
  Rh  Rh11  1  0.937741  0.384410  0.749984  1
  Rh  Rh12  1  0.389259  0.448428  0.253120  1
  Rh  Rh13  1  0.551572  0.940832  0.253120  1
  Rh  Rh14  1  0.059168  0.610741  0.253120  1
  Rh  Rh15  1  0.130278  0.834335  0.761243  1
  Rh  Rh16  1  0.165665  0.295943  0.761243  1
  Rh  Rh17  1  0.704057  0.869722  0.761243  1
  Rh  Rh18  1  0.872808  0.155472  0.241261  1
  Rh  Rh19  1  0.844528  0.717336  0.241261  1
  Rh  Rh20  1  0.282664  0.127192  0.241261  1
