# generated using pymatgen
data_Nd(ZrAu2)2
_symmetry_space_group_name_H-M   'P 1'
_cell_length_a   5.88401356
_cell_length_b   5.88401289
_cell_length_c   5.88401348
_cell_angle_alpha   102.83833983
_cell_angle_beta   102.83832921
_cell_angle_gamma   123.75193195
_symmetry_Int_Tables_number   1
_chemical_formula_structural   Nd(ZrAu2)2
_chemical_formula_sum   'Nd1 Zr2 Au4'
_cell_volume   149.37958658
_cell_formula_units_Z   1
loop_
 _symmetry_equiv_pos_site_id
 _symmetry_equiv_pos_as_xyz
  1  'x, y, z'
loop_
 _atom_site_type_symbol
 _atom_site_label
 _atom_site_symmetry_multiplicity
 _atom_site_fract_x
 _atom_site_fract_y
 _atom_site_fract_z
 _atom_site_occupancy
  Nd  Nd0  1  0.000000  0.000000  0.000000  1
  Zr  Zr1  1  0.250000  0.750000  0.500000  1
  Zr  Zr2  1  0.750000  0.250000  0.500000  1
  Au  Au3  1  0.303508  0.303508  0.607016  1
  Au  Au4  1  0.696492  0.696492  0.392984  1
  Au  Au5  1  0.696492  0.303508  0.000000  1
  Au  Au6  1  0.303508  0.696492  0.000000  1
