# generated using pymatgen
data_Ta3Ti8Mo3P8
_symmetry_space_group_name_H-M   'P 1'
_cell_length_a   7.52324225
_cell_length_b   7.52324025
_cell_length_c   13.60936923
_cell_angle_alpha   76.47520495
_cell_angle_beta   76.47520777
_cell_angle_gamma   26.01291327
_symmetry_Int_Tables_number   1
_chemical_formula_structural   Ta3Ti8Mo3P8
_chemical_formula_sum   'Ta3 Ti8 Mo3 P8'
_cell_volume   327.94842395
_cell_formula_units_Z   1
loop_
 _symmetry_equiv_pos_site_id
 _symmetry_equiv_pos_as_xyz
  1  'x, y, z'
loop_
 _atom_site_type_symbol
 _atom_site_label
 _atom_site_symmetry_multiplicity
 _atom_site_fract_x
 _atom_site_fract_y
 _atom_site_fract_z
 _atom_site_occupancy
  Ta  Ta0  1  0.500000  0.500000  0.500000  1
  Ta  Ta1  1  0.429066  0.429066  0.173219  1
  Ta  Ta2  1  0.570934  0.570934  0.826781  1
  Ti  Ti3  1  0.208284  0.208284  0.204183  1
  Ti  Ti4  1  0.791716  0.791716  0.795817  1
  Ti  Ti5  1  0.338602  0.338602  0.969533  1
  Ti  Ti6  1  0.661398  0.661398  0.030467  1
  Ti  Ti7  1  0.002707  0.002707  0.333243  1
  Ti  Ti8  1  0.997293  0.997293  0.666757  1
  Ti  Ti9  1  0.178093  0.178093  0.459231  1
  Ti  Ti10  1  0.821907  0.821907  0.540769  1
  Mo  Mo11  1  0.000000  0.000000  0.000000  1
  Mo  Mo12  1  0.197693  0.197693  0.688870  1
  Mo  Mo13  1  0.802307  0.802307  0.311130  1
  P  P14  1  0.179676  0.179676  0.891857  1
  P  P15  1  0.820324  0.820324  0.108143  1
  P  P16  1  0.373736  0.373736  0.396880  1
  P  P17  1  0.626264  0.626264  0.603120  1
  P  P18  1  0.370194  0.370194  0.661984  1
  P  P19  1  0.629806  0.629806  0.338016  1
  P  P20  1  0.064143  0.064143  0.150728  1
  P  P21  1  0.935857  0.935857  0.849272  1
