# generated using pymatgen
data_La6Tl7In2Ge
_symmetry_space_group_name_H-M   'P 1'
_cell_length_a   8.79701655
_cell_length_b   8.79701460
_cell_length_c   8.82887737
_cell_angle_alpha   120.06973215
_cell_angle_beta   120.04120867
_cell_angle_gamma   89.69607976
_symmetry_Int_Tables_number   1
_chemical_formula_structural   La6Tl7In2Ge
_chemical_formula_sum   'La6 Tl7 In2 Ge1'
_cell_volume   483.58809679
_cell_formula_units_Z   1
loop_
 _symmetry_equiv_pos_site_id
 _symmetry_equiv_pos_as_xyz
  1  'x, y, z'
loop_
 _atom_site_type_symbol
 _atom_site_label
 _atom_site_symmetry_multiplicity
 _atom_site_fract_x
 _atom_site_fract_y
 _atom_site_fract_z
 _atom_site_occupancy
  La  La0  1  0.736590  0.736590  0.000000  1
  La  La1  1  0.263613  0.263613  0.000000  1
  La  La2  1  0.352801  0.821583  0.175463  1
  La  La3  1  0.646118  0.177336  0.824537  1
  La  La4  1  0.820522  0.648618  0.468896  1
  La  La5  1  0.179722  0.351626  0.531104  1
  Tl  Tl6  1  0.959228  0.471721  0.787269  1
  Tl  Tl7  1  0.684452  0.171958  0.212731  1
  Tl  Tl8  1  0.472327  0.682398  0.512775  1
  Tl  Tl9  1  0.169623  0.959552  0.487225  1
  Tl  Tl10  1  0.039038  0.526009  0.213142  1
  Tl  Tl11  1  0.312868  0.825896  0.786858  1
  Tl  Tl12  1  0.001113  0.001113  0.000000  1
  In  In13  1  0.534070  0.315752  0.488177  1
  In  In14  1  0.827575  0.045894  0.511823  1
  Ge  Ge15  1  0.500341  0.500341  0.000000  1
