# generated using pymatgen
data_Pm4Ni(PdO4)3
_symmetry_space_group_name_H-M   'P 1'
_cell_length_a   5.45220610
_cell_length_b   5.90513607
_cell_length_c   7.79770524
_cell_angle_alpha   90.15663823
_cell_angle_beta   90.06101357
_cell_angle_gamma   89.76547545
_symmetry_Int_Tables_number   1
_chemical_formula_structural   Pm4Ni(PdO4)3
_chemical_formula_sum   'Pm4 Ni1 Pd3 O12'
_cell_volume   251.05188474
_cell_formula_units_Z   1
loop_
 _symmetry_equiv_pos_site_id
 _symmetry_equiv_pos_as_xyz
  1  'x, y, z'
loop_
 _atom_site_type_symbol
 _atom_site_label
 _atom_site_symmetry_multiplicity
 _atom_site_fract_x
 _atom_site_fract_y
 _atom_site_fract_z
 _atom_site_occupancy
  Pm  Pm0  1  0.980234  0.073985  0.247822  1
  Pm  Pm1  1  0.526549  0.580240  0.247091  1
  Pm  Pm2  1  0.473453  0.419759  0.752910  1
  Pm  Pm3  1  0.019766  0.926016  0.752179  1
  Ni  Ni4  1  0.500000  0.000000  0.000000  1
  Pd  Pd5  1  0.000000  0.499999  0.000000  1
  Pd  Pd6  1  0.500000  0.000000  0.500000  1
  Pd  Pd7  1  0.000000  0.499999  0.500000  1
  O  O8  1  0.693696  0.307230  0.053623  1
  O  O9  1  0.814490  0.800348  0.054861  1
  O  O10  1  0.119902  0.455968  0.249414  1
  O  O11  1  0.390846  0.961679  0.249830  1
  O  O12  1  0.686480  0.305683  0.442547  1
  O  O13  1  0.815867  0.806046  0.443744  1
  O  O14  1  0.184133  0.193953  0.556256  1
  O  O15  1  0.313520  0.694316  0.557453  1
  O  O16  1  0.609154  0.038322  0.750171  1
  O  O17  1  0.880098  0.544033  0.750587  1
  O  O18  1  0.185510  0.199651  0.945139  1
  O  O19  1  0.306304  0.692769  0.946377  1
