# generated using pymatgen
data_Tm6Fe3Co13(P6Os)2
_symmetry_space_group_name_H-M   'P 1'
_cell_length_a   3.71165500
_cell_length_b   10.55549825
_cell_length_c   12.10672734
_cell_angle_alpha   89.97381098
_cell_angle_beta   90.00000000
_cell_angle_gamma   90.00000000
_symmetry_Int_Tables_number   1
_chemical_formula_structural   Tm6Fe3Co13(P6Os)2
_chemical_formula_sum   'Tm6 Fe3 Co13 P12 Os2'
_cell_volume   474.32176798
_cell_formula_units_Z   1
loop_
 _symmetry_equiv_pos_site_id
 _symmetry_equiv_pos_as_xyz
  1  'x, y, z'
loop_
 _atom_site_type_symbol
 _atom_site_label
 _atom_site_symmetry_multiplicity
 _atom_site_fract_x
 _atom_site_fract_y
 _atom_site_fract_z
 _atom_site_occupancy
  Tm  Tm0  1  0.000000  0.499745  0.525817  1
  Tm  Tm1  1  0.500000  0.000364  0.473454  1
  Tm  Tm2  1  0.500000  0.818601  0.204643  1
  Tm  Tm3  1  0.500000  0.181608  0.203871  1
  Tm  Tm4  1  0.000000  0.680495  0.796018  1
  Tm  Tm5  1  0.000000  0.318399  0.796918  1
  Fe  Fe6  1  0.000000  0.502343  0.988726  1
  Fe  Fe7  1  0.500000  0.998940  0.011774  1
  Fe  Fe8  1  0.500000  0.331942  0.992517  1
  Co  Co9  1  0.500000  0.500390  0.700653  1
  Co  Co10  1  0.000000  0.999811  0.299826  1
  Co  Co11  1  0.500000  0.669849  0.988881  1
  Co  Co12  1  0.000000  0.165169  0.009253  1
  Co  Co13  1  0.000000  0.831520  0.010791  1
  Co  Co14  1  0.500000  0.297307  0.430649  1
  Co  Co15  1  0.500000  0.703215  0.431074  1
  Co  Co16  1  0.000000  0.203352  0.569071  1
  Co  Co17  1  0.000000  0.796386  0.569020  1
  Co  Co18  1  0.500000  0.878712  0.707962  1
  Co  Co19  1  0.500000  0.121364  0.708834  1
  Co  Co20  1  0.000000  0.621214  0.292328  1
  Co  Co21  1  0.000000  0.378462  0.289437  1
  P  P22  1  0.500000  0.498415  0.881860  1
  P  P23  1  0.000000  0.999492  0.119706  1
  P  P24  1  0.500000  0.499417  0.350197  1
  P  P25  1  0.000000  0.000344  0.649100  1
  P  P26  1  0.500000  0.312051  0.617802  1
  P  P27  1  0.500000  0.687931  0.617483  1
  P  P28  1  0.000000  0.188572  0.382333  1
  P  P29  1  0.000000  0.812076  0.382942  1
  P  P30  1  0.500000  0.846733  0.893117  1
  P  P31  1  0.500000  0.155156  0.894919  1
  P  P32  1  0.000000  0.654203  0.106907  1
  P  P33  1  0.000000  0.344476  0.102872  1
  Os  Os34  1  0.500000  0.503847  0.156898  1
  Os  Os35  1  0.000000  0.998096  0.842345  1
