# generated using pymatgen
data_Tm2LuTh(Al8Pt3)3
_symmetry_space_group_name_H-M   'P 1'
_cell_length_a   7.54899467
_cell_length_b   7.56679516
_cell_length_c   13.14677006
_cell_angle_alpha   84.53235231
_cell_angle_beta   78.97522690
_cell_angle_gamma   59.92588220
_symmetry_Int_Tables_number   1
_chemical_formula_structural   Tm2LuTh(Al8Pt3)3
_chemical_formula_sum   'Tm2 Lu1 Th1 Al24 Pt9'
_cell_volume   637.87546373
_cell_formula_units_Z   1
loop_
 _symmetry_equiv_pos_site_id
 _symmetry_equiv_pos_as_xyz
  1  'x, y, z'
loop_
 _atom_site_type_symbol
 _atom_site_label
 _atom_site_symmetry_multiplicity
 _atom_site_fract_x
 _atom_site_fract_y
 _atom_site_fract_z
 _atom_site_occupancy
  Tm  Tm0  1  0.605323  0.831137  0.194590  1
  Tm  Tm1  1  0.733662  0.499370  0.806828  1
  Lu  Lu2  1  0.265784  0.501174  0.194768  1
  Th  Th3  1  0.393774  0.167769  0.807965  1
  Al  Al4  1  0.687231  0.829984  0.947627  1
  Al  Al5  1  0.315924  0.166272  0.060264  1
  Al  Al6  1  0.147074  0.832642  0.560017  1
  Al  Al7  1  0.854221  0.167620  0.437075  1
  Al  Al8  1  0.481090  0.166512  0.556350  1
  Al  Al9  1  0.520405  0.832436  0.440322  1
  Al  Al10  1  0.218022  0.165577  0.327489  1
  Al  Al11  1  0.787518  0.830883  0.667361  1
  Al  Al12  1  0.438131  0.510306  0.668018  1
  Al  Al13  1  0.563326  0.493465  0.327325  1
  Al  Al14  1  0.106788  0.159942  0.666203  1
  Al  Al15  1  0.890888  0.839968  0.328657  1
  Al  Al16  1  0.352058  0.503057  0.947496  1
  Al  Al17  1  0.644812  0.502462  0.057525  1
  Al  Al18  1  0.011021  0.167620  0.956635  1
  Al  Al19  1  0.983305  0.830506  0.050971  1
  Al  Al20  1  0.185912  0.500026  0.440452  1
  Al  Al21  1  0.813615  0.500497  0.557899  1
  Al  Al22  1  0.733271  0.164321  0.183182  1
  Al  Al23  1  0.265697  0.831155  0.816790  1
  Al  Al24  1  0.056970  0.635474  0.815643  1
  Al  Al25  1  0.937869  0.370128  0.184575  1
  Al  Al26  1  0.859825  0.042025  0.816518  1
  Al  Al27  1  0.145020  0.957138  0.183999  1
  Pt  Pt28  1  0.120660  0.490699  0.638897  1
  Pt  Pt29  1  0.880443  0.509287  0.359964  1
  Pt  Pt30  1  0.656170  0.171891  0.000248  1
  Pt  Pt31  1  0.343165  0.829384  0.000410  1
  Pt  Pt32  1  0.536703  0.166966  0.360025  1
  Pt  Pt33  1  0.462938  0.833607  0.638713  1
  Pt  Pt34  1  0.777971  0.175666  0.637242  1
  Pt  Pt35  1  0.222333  0.823949  0.361559  1
  Pt  Pt36  1  0.001082  0.499093  0.000396  1
