# generated using pymatgen
data_Cs4PaIr7Se16
_symmetry_space_group_name_H-M   'P 1'
_cell_length_a   6.55916855
_cell_length_b   7.60344900
_cell_length_c   16.53202700
_cell_angle_alpha   90.00000000
_cell_angle_beta   90.05965283
_cell_angle_gamma   90.00000000
_symmetry_Int_Tables_number   1
_chemical_formula_structural   Cs4PaIr7Se16
_chemical_formula_sum   'Cs4 Pa1 Ir7 Se16'
_cell_volume   824.48982264
_cell_formula_units_Z   1
loop_
 _symmetry_equiv_pos_site_id
 _symmetry_equiv_pos_as_xyz
  1  'x, y, z'
loop_
 _atom_site_type_symbol
 _atom_site_label
 _atom_site_symmetry_multiplicity
 _atom_site_fract_x
 _atom_site_fract_y
 _atom_site_fract_z
 _atom_site_occupancy
  Cs  Cs0  1  0.370058  0.000000  0.009450  1
  Cs  Cs1  1  0.654879  0.500000  0.489013  1
  Cs  Cs2  1  0.038154  0.000000  0.495580  1
  Cs  Cs3  1  0.977888  0.500000  0.007914  1
  Pa  Pa4  1  0.988486  0.500000  0.748960  1
  Ir  Ir5  1  0.003283  0.000000  0.250995  1
  Ir  Ir6  1  0.999660  0.000000  0.748478  1
  Ir  Ir7  1  0.992759  0.500000  0.248724  1
  Ir  Ir8  1  0.503059  0.250352  0.251048  1
  Ir  Ir9  1  0.498737  0.749635  0.750508  1
  Ir  Ir10  1  0.503059  0.749648  0.251048  1
  Ir  Ir11  1  0.498737  0.250365  0.750508  1
  Se  Se12  1  0.836955  0.248932  0.326926  1
  Se  Se13  1  0.809618  0.776518  0.660666  1
  Se  Se14  1  0.165829  0.749747  0.176042  1
  Se  Se15  1  0.180379  0.224985  0.836935  1
  Se  Se16  1  0.165829  0.250253  0.176042  1
  Se  Se17  1  0.180379  0.775015  0.836935  1
  Se  Se18  1  0.836955  0.751068  0.326926  1
  Se  Se19  1  0.809618  0.223482  0.660666  1
  Se  Se20  1  0.672621  0.000000  0.175168  1
  Se  Se21  1  0.666982  0.000000  0.825059  1
  Se  Se22  1  0.328359  0.500000  0.322597  1
  Se  Se23  1  0.352130  0.500000  0.661252  1
  Se  Se24  1  0.341402  0.000000  0.323907  1
  Se  Se25  1  0.337737  0.000000  0.674634  1
  Se  Se26  1  0.658181  0.500000  0.172245  1
  Se  Se27  1  0.628272  0.500000  0.841774  1
