# generated using pymatgen
data_Dy(Al5Rh)2
_symmetry_space_group_name_H-M   'P 1'
_cell_length_a   6.84804584
_cell_length_b   6.84804627
_cell_length_c   9.15520400
_cell_angle_alpha   90.00000000
_cell_angle_beta   90.00000000
_cell_angle_gamma   96.96355869
_symmetry_Int_Tables_number   1
_chemical_formula_structural   Dy(Al5Rh)2
_chemical_formula_sum   'Dy2 Al20 Rh4'
_cell_volume   426.17297577
_cell_formula_units_Z   2
loop_
 _symmetry_equiv_pos_site_id
 _symmetry_equiv_pos_as_xyz
  1  'x, y, z'
loop_
 _atom_site_type_symbol
 _atom_site_label
 _atom_site_symmetry_multiplicity
 _atom_site_fract_x
 _atom_site_fract_y
 _atom_site_fract_z
 _atom_site_occupancy
  Dy  Dy0  1  0.872490  0.127510  0.750000  1
  Dy  Dy1  1  0.127510  0.872490  0.250000  1
  Al  Al2  1  0.621947  0.378053  0.549739  1
  Al  Al3  1  0.378053  0.621947  0.450261  1
  Al  Al4  1  0.378053  0.621947  0.049739  1
  Al  Al5  1  0.621947  0.378053  0.950261  1
  Al  Al6  1  0.222395  0.222395  0.500000  1
  Al  Al7  1  0.777605  0.777605  0.500000  1
  Al  Al8  1  0.777605  0.777605  0.000000  1
  Al  Al9  1  0.222395  0.222395  0.000000  1
  Al  Al10  1  0.846471  0.153529  0.102784  1
  Al  Al11  1  0.153529  0.846471  0.897216  1
  Al  Al12  1  0.153529  0.846471  0.602784  1
  Al  Al13  1  0.846471  0.153529  0.397216  1
  Al  Al14  1  0.858193  0.591591  0.750000  1
  Al  Al15  1  0.141807  0.408409  0.250000  1
  Al  Al16  1  0.408409  0.141807  0.750000  1
  Al  Al17  1  0.591591  0.858193  0.250000  1
  Al  Al18  1  0.226882  0.479876  0.750000  1
  Al  Al19  1  0.773118  0.520124  0.250000  1
  Al  Al20  1  0.520124  0.773118  0.750000  1
  Al  Al21  1  0.479876  0.226882  0.250000  1
  Rh  Rh22  1  0.000000  0.500000  0.500000  1
  Rh  Rh23  1  0.000000  0.500000  0.000000  1
  Rh  Rh24  1  0.500000  0.000000  0.000000  1
  Rh  Rh25  1  0.500000  0.000000  0.500000  1
