# generated using pymatgen
data_Cd2Ni3IrO8
_symmetry_space_group_name_H-M   'P 1'
_cell_length_a   6.27572649
_cell_length_b   6.18638308
_cell_length_c   6.15290020
_cell_angle_alpha   60.18829318
_cell_angle_beta   89.97084048
_cell_angle_gamma   119.24732451
_symmetry_Int_Tables_number   1
_chemical_formula_structural   Cd2Ni3IrO8
_chemical_formula_sum   'Cd2 Ni3 Ir1 O8'
_cell_volume   171.24286633
_cell_formula_units_Z   1
loop_
 _symmetry_equiv_pos_site_id
 _symmetry_equiv_pos_as_xyz
  1  'x, y, z'
loop_
 _atom_site_type_symbol
 _atom_site_label
 _atom_site_symmetry_multiplicity
 _atom_site_fract_x
 _atom_site_fract_y
 _atom_site_fract_z
 _atom_site_occupancy
  Cd  Cd0  1  0.961146  0.973668  0.012943  1
  Cd  Cd1  1  0.788823  0.526228  0.737111  1
  Ni  Ni2  1  0.375037  0.250069  0.374893  1
  Ni  Ni3  1  0.375038  0.750042  0.375074  1
  Ni  Ni4  1  0.375022  0.750003  0.874936  1
  Ir  Ir5  1  0.874847  0.249811  0.375009  1
  O  O6  1  0.119074  0.271384  0.148918  1
  O  O7  1  0.630792  0.228431  0.170566  1
  O  O8  1  0.547255  0.696212  0.151542  1
  O  O9  1  0.115915  0.694916  0.152641  1
  O  O10  1  0.630934  0.228643  0.601038  1
  O  O11  1  0.119267  0.271571  0.579486  1
  O  O12  1  0.202707  0.803904  0.598451  1
  O  O13  1  0.634147  0.805120  0.597395  1
