# generated using pymatgen
data_Ce3YLuIr3
_symmetry_space_group_name_H-M   'P 1'
_cell_length_a   6.50640700
_cell_length_b   8.18896549
_cell_length_c   8.19129517
_cell_angle_alpha   119.99223174
_cell_angle_beta   89.99911383
_cell_angle_gamma   90.00036530
_symmetry_Int_Tables_number   1
_chemical_formula_structural   Ce3YLuIr3
_chemical_formula_sum   'Ce6 Y2 Lu2 Ir6'
_cell_volume   377.99622724
_cell_formula_units_Z   2
loop_
 _symmetry_equiv_pos_site_id
 _symmetry_equiv_pos_as_xyz
  1  'x, y, z'
loop_
 _atom_site_type_symbol
 _atom_site_label
 _atom_site_symmetry_multiplicity
 _atom_site_fract_x
 _atom_site_fract_y
 _atom_site_fract_z
 _atom_site_occupancy
  Ce  Ce0  1  0.752954  0.254801  0.999997  1
  Ce  Ce1  1  0.752907  0.745237  0.745269  1
  Ce  Ce2  1  0.752882  0.999956  0.254712  1
  Ce  Ce3  1  0.247126  0.745172  0.999984  1
  Ce  Ce4  1  0.247038  0.254688  0.254692  1
  Ce  Ce5  1  0.247031  0.999978  0.745300  1
  Y  Y6  1  0.499992  0.333275  0.666535  1
  Y  Y7  1  0.499986  0.666739  0.333480  1
  Lu  Lu8  1  0.000038  0.666768  0.333436  1
  Lu  Lu9  1  0.000039  0.333314  0.666589  1
  Ir  Ir10  1  0.759456  0.616860  0.000000  1
  Ir  Ir11  1  0.759489  0.383207  0.383269  1
  Ir  Ir12  1  0.759485  0.999943  0.616733  1
  Ir  Ir13  1  0.240511  0.383156  0.999984  1
  Ir  Ir14  1  0.240528  0.616846  0.616768  1
  Ir  Ir15  1  0.240540  0.000058  0.383253  1
