# generated using pymatgen
data_Cs2SrOsO6
_symmetry_space_group_name_H-M   'P 1'
_cell_length_a   6.27606635
_cell_length_b   6.27606612
_cell_length_c   6.27606600
_cell_angle_alpha   119.99999937
_cell_angle_beta   119.99999814
_cell_angle_gamma   60.00001218
_symmetry_Int_Tables_number   1
_chemical_formula_structural   Cs2SrOsO6
_chemical_formula_sum   'Cs2 Sr1 Os1 O6'
_cell_volume   174.80247971
_cell_formula_units_Z   1
loop_
 _symmetry_equiv_pos_site_id
 _symmetry_equiv_pos_as_xyz
  1  'x, y, z'
loop_
 _atom_site_type_symbol
 _atom_site_label
 _atom_site_symmetry_multiplicity
 _atom_site_fract_x
 _atom_site_fract_y
 _atom_site_fract_z
 _atom_site_occupancy
  Cs  Cs0  1  0.749998  0.749998  0.249998  1
  Cs  Cs1  1  0.250000  0.250000  0.749999  1
  Sr  Sr2  1  0.500000  0.500000  0.499999  1
  Os  Os3  1  0.000000  0.000000  0.000000  1
  O  O4  1  0.212428  0.212428  0.212427  1
  O  O5  1  0.787572  0.212427  0.212427  1
  O  O6  1  0.212427  0.787572  0.212427  1
  O  O7  1  0.787573  0.787573  0.787572  1
  O  O8  1  0.787572  0.212428  0.787572  1
  O  O9  1  0.212428  0.787572  0.787572  1
