# generated using pymatgen
data_Y8Ho2IrPt5
_symmetry_space_group_name_H-M   'P 1'
_cell_length_a   11.07408600
_cell_length_b   11.07408600
_cell_length_c   6.43125500
_cell_angle_alpha   90.00000000
_cell_angle_beta   90.00000000
_cell_angle_gamma   90.00000000
_symmetry_Int_Tables_number   1
_chemical_formula_structural   Y8Ho2IrPt5
_chemical_formula_sum   'Y16 Ho4 Ir2 Pt10'
_cell_volume   788.69940553
_cell_formula_units_Z   2
loop_
 _symmetry_equiv_pos_site_id
 _symmetry_equiv_pos_as_xyz
  1  'x, y, z'
loop_
 _atom_site_type_symbol
 _atom_site_label
 _atom_site_symmetry_multiplicity
 _atom_site_fract_x
 _atom_site_fract_y
 _atom_site_fract_z
 _atom_site_occupancy
  Y  Y0  1  0.292080  0.088092  0.376561  1
  Y  Y1  1  0.292080  0.911908  0.876561  1
  Y  Y2  1  0.707920  0.088092  0.876561  1
  Y  Y3  1  0.707920  0.911908  0.376561  1
  Y  Y4  1  0.588092  0.792080  0.876561  1
  Y  Y5  1  0.588092  0.207920  0.376561  1
  Y  Y6  1  0.411908  0.792080  0.376561  1
  Y  Y7  1  0.411908  0.207920  0.876561  1
  Y  Y8  1  0.205588  0.412505  0.624014  1
  Y  Y9  1  0.205588  0.587495  0.124014  1
  Y  Y10  1  0.794412  0.412505  0.124014  1
  Y  Y11  1  0.794412  0.587495  0.624014  1
  Y  Y12  1  0.912505  0.705588  0.124014  1
  Y  Y13  1  0.912505  0.294412  0.624014  1
  Y  Y14  1  0.087495  0.705588  0.624014  1
  Y  Y15  1  0.087495  0.294412  0.124014  1
  Ho  Ho16  1  0.000000  0.000000  0.500646  1
  Ho  Ho17  1  0.000000  0.000000  0.000646  1
  Ho  Ho18  1  0.500000  0.500000  0.000646  1
  Ho  Ho19  1  0.500000  0.500000  0.500646  1
  Ir  Ir20  1  0.000000  0.500000  0.878512  1
  Ir  Ir21  1  0.000000  0.500000  0.378512  1
  Pt  Pt22  1  0.847477  0.151251  0.249949  1
  Pt  Pt23  1  0.847477  0.848749  0.749949  1
  Pt  Pt24  1  0.152523  0.151251  0.749949  1
  Pt  Pt25  1  0.152523  0.848749  0.249949  1
  Pt  Pt26  1  0.651251  0.347477  0.749949  1
  Pt  Pt27  1  0.651251  0.652523  0.249949  1
  Pt  Pt28  1  0.348749  0.347477  0.249949  1
  Pt  Pt29  1  0.348749  0.652523  0.749949  1
  Pt  Pt30  1  0.500000  0.000000  0.118101  1
  Pt  Pt31  1  0.500000  0.000000  0.618101  1
