# generated using pymatgen
data_Tb3Ho7(Pb3Cl)2
_symmetry_space_group_name_H-M   'P 1'
_cell_length_a   9.19405809
_cell_length_b   9.19561927
_cell_length_c   6.60130700
_cell_angle_alpha   90.00000000
_cell_angle_beta   90.00000000
_cell_angle_gamma   119.97806832
_symmetry_Int_Tables_number   1
_chemical_formula_structural   Tb3Ho7(Pb3Cl)2
_chemical_formula_sum   'Tb3 Ho7 Pb6 Cl2'
_cell_volume   483.44238446
_cell_formula_units_Z   1
loop_
 _symmetry_equiv_pos_site_id
 _symmetry_equiv_pos_as_xyz
  1  'x, y, z'
loop_
 _atom_site_type_symbol
 _atom_site_label
 _atom_site_symmetry_multiplicity
 _atom_site_fract_x
 _atom_site_fract_y
 _atom_site_fract_z
 _atom_site_occupancy
  Tb  Tb0  1  0.260401  0.000063  0.750000  1
  Tb  Tb1  1  0.739330  0.999953  0.250000  1
  Tb  Tb2  1  0.000120  0.260507  0.750000  1
  Ho  Ho3  1  0.999907  0.739068  0.250000  1
  Ho  Ho4  1  0.739300  0.739264  0.750000  1
  Ho  Ho5  1  0.260912  0.260980  0.250000  1
  Ho  Ho6  1  0.333327  0.666569  0.499919  1
  Ho  Ho7  1  0.666662  0.333529  0.499925  1
  Ho  Ho8  1  0.666662  0.333529  0.000075  1
  Ho  Ho9  1  0.333327  0.666569  0.000081  1
  Pb  Pb10  1  0.610347  0.999410  0.750000  1
  Pb  Pb11  1  0.388710  0.000008  0.250000  1
  Pb  Pb12  1  0.999378  0.610438  0.750000  1
  Pb  Pb13  1  0.000617  0.390345  0.250000  1
  Pb  Pb14  1  0.390596  0.390585  0.750000  1
  Pb  Pb15  1  0.610427  0.609798  0.250000  1
  Cl  Cl16  1  0.999989  0.999694  0.499552  1
  Cl  Cl17  1  0.999989  0.999694  0.000448  1
