# generated using pymatgen
data_Zr4TiAl5Pd2
_symmetry_space_group_name_H-M   'P 1'
_cell_length_a   5.41278200
_cell_length_b   5.42185119
_cell_length_c   8.38534400
_cell_angle_alpha   90.00000000
_cell_angle_beta   90.00000000
_cell_angle_gamma   119.94468256
_symmetry_Int_Tables_number   1
_chemical_formula_structural   Zr4TiAl5Pd2
_chemical_formula_sum   'Zr4 Ti1 Al5 Pd2'
_cell_volume   213.23645703
_cell_formula_units_Z   1
loop_
 _symmetry_equiv_pos_site_id
 _symmetry_equiv_pos_as_xyz
  1  'x, y, z'
loop_
 _atom_site_type_symbol
 _atom_site_label
 _atom_site_symmetry_multiplicity
 _atom_site_fract_x
 _atom_site_fract_y
 _atom_site_fract_z
 _atom_site_occupancy
  Zr  Zr0  1  0.670409  0.340817  0.071083  1
  Zr  Zr1  1  0.670409  0.340817  0.428917  1
  Zr  Zr2  1  0.332730  0.665460  0.564795  1
  Zr  Zr3  1  0.332730  0.665460  0.935204  1
  Ti  Ti4  1  0.168809  0.337618  0.250000  1
  Al  Al5  1  0.168832  0.827978  0.250000  1
  Al  Al6  1  0.659147  0.827978  0.250000  1
  Al  Al7  1  0.338626  0.169867  0.750001  1
  Al  Al8  1  0.831242  0.169867  0.750001  1
  Al  Al9  1  0.828888  0.657776  0.750001  1
  Pd  Pd10  1  0.999091  0.998181  0.995305  1
  Pd  Pd11  1  0.999091  0.998181  0.504695  1
