# generated using pymatgen
data_Sm5Y3(SiI6)2
_symmetry_space_group_name_H-M   'P 1'
_cell_length_a   4.26237300
_cell_length_b   14.20511608
_cell_length_c   14.95567462
_cell_angle_alpha   90.13651935
_cell_angle_beta   90.00000000
_cell_angle_gamma   90.00000000
_symmetry_Int_Tables_number   1
_chemical_formula_structural   Sm5Y3(SiI6)2
_chemical_formula_sum   'Sm5 Y3 Si2 I12'
_cell_volume   905.52618671
_cell_formula_units_Z   1
loop_
 _symmetry_equiv_pos_site_id
 _symmetry_equiv_pos_as_xyz
  1  'x, y, z'
loop_
 _atom_site_type_symbol
 _atom_site_label
 _atom_site_symmetry_multiplicity
 _atom_site_fract_x
 _atom_site_fract_y
 _atom_site_fract_z
 _atom_site_occupancy
  Sm  Sm0  1  0.500000  0.114504  0.347335  1
  Sm  Sm1  1  0.000000  0.113016  0.576325  1
  Sm  Sm2  1  0.000000  0.886828  0.423910  1
  Sm  Sm3  1  0.000000  0.612787  0.924035  1
  Sm  Sm4  1  0.000000  0.387625  0.075598  1
  Y  Y5  1  0.500000  0.885598  0.652585  1
  Y  Y6  1  0.500000  0.613599  0.151502  1
  Y  Y7  1  0.500000  0.386401  0.848439  1
  Si  Si8  1  0.500000  0.999144  0.501151  1
  Si  Si9  1  0.500000  0.500169  0.999868  1
  I  I10  1  0.500000  0.243802  0.162116  1
  I  I11  1  0.500000  0.757353  0.836035  1
  I  I12  1  0.500000  0.742334  0.335956  1
  I  I13  1  0.500000  0.257476  0.664385  1
  I  I14  1  0.000000  0.260596  0.415049  1
  I  I15  1  0.000000  0.742815  0.587968  1
  I  I16  1  0.000000  0.756743  0.087912  1
  I  I17  1  0.000000  0.243161  0.911905  1
  I  I18  1  0.000000  0.998223  0.238692  1
  I  I19  1  0.000000  0.997792  0.759321  1
  I  I20  1  0.000000  0.502360  0.258927  1
  I  I21  1  0.000000  0.497675  0.740987  1
