# generated using pymatgen
data_Ho2Ga9Ni2Ru
_symmetry_space_group_name_H-M   'P 1'
_cell_length_a   7.47229924
_cell_length_b   7.47229988
_cell_length_c   9.42864669
_cell_angle_alpha   89.70854561
_cell_angle_beta   89.70854269
_cell_angle_gamma   119.97114729
_symmetry_Int_Tables_number   1
_chemical_formula_structural   Ho2Ga9Ni2Ru
_chemical_formula_sum   'Ho4 Ga18 Ni4 Ru2'
_cell_volume   456.02880774
_cell_formula_units_Z   2
loop_
 _symmetry_equiv_pos_site_id
 _symmetry_equiv_pos_as_xyz
  1  'x, y, z'
loop_
 _atom_site_type_symbol
 _atom_site_label
 _atom_site_symmetry_multiplicity
 _atom_site_fract_x
 _atom_site_fract_y
 _atom_site_fract_z
 _atom_site_occupancy
  Ho  Ho0  1  0.996983  0.666396  0.249661  1
  Ho  Ho1  1  0.003017  0.333604  0.750339  1
  Ho  Ho2  1  0.666396  0.996983  0.249661  1
  Ho  Ho3  1  0.333604  0.003017  0.750339  1
  Ga  Ga4  1  0.120835  0.120835  0.249084  1
  Ga  Ga5  1  0.879165  0.879165  0.750916  1
  Ga  Ga6  1  0.000050  0.333562  0.075538  1
  Ga  Ga7  1  0.999950  0.666438  0.924462  1
  Ga  Ga8  1  0.998225  0.668293  0.575591  1
  Ga  Ga9  1  0.331707  0.001775  0.424409  1
  Ga  Ga10  1  0.001775  0.331707  0.424409  1
  Ga  Ga11  1  0.668293  0.998225  0.575591  1
  Ga  Ga12  1  0.666438  0.999950  0.924462  1
  Ga  Ga13  1  0.333562  0.000050  0.075538  1
  Ga  Ga14  1  0.331298  0.331298  0.561522  1
  Ga  Ga15  1  0.668702  0.668702  0.438478  1
  Ga  Ga16  1  0.666917  0.666917  0.064095  1
  Ga  Ga17  1  0.333083  0.333083  0.935905  1
  Ga  Ga18  1  0.336836  0.548200  0.247778  1
  Ga  Ga19  1  0.663164  0.451800  0.752222  1
  Ga  Ga20  1  0.548200  0.336836  0.247778  1
  Ga  Ga21  1  0.451800  0.663164  0.752222  1
  Ni  Ni22  1  0.671263  0.328737  0.000000  1
  Ni  Ni23  1  0.328737  0.671263  0.000000  1
  Ni  Ni24  1  0.000000  0.000000  0.000000  1
  Ni  Ni25  1  0.000000  0.000000  0.500000  1
  Ru  Ru26  1  0.327370  0.672630  0.500000  1
  Ru  Ru27  1  0.672630  0.327370  0.500000  1
