# generated using pymatgen
data_Rb3Pr(BO3)2
_symmetry_space_group_name_H-M   'P 1'
_cell_length_a   5.79185400
_cell_length_b   7.30153500
_cell_length_c   9.77778800
_cell_angle_alpha   90.00000000
_cell_angle_beta   90.00000000
_cell_angle_gamma   90.00000000
_symmetry_Int_Tables_number   1
_chemical_formula_structural   Rb3Pr(BO3)2
_chemical_formula_sum   'Rb6 Pr2 B4 O12'
_cell_volume   413.49702932
_cell_formula_units_Z   2
loop_
 _symmetry_equiv_pos_site_id
 _symmetry_equiv_pos_as_xyz
  1  'x, y, z'
loop_
 _atom_site_type_symbol
 _atom_site_label
 _atom_site_symmetry_multiplicity
 _atom_site_fract_x
 _atom_site_fract_y
 _atom_site_fract_z
 _atom_site_occupancy
  Rb  Rb0  1  0.000000  0.232553  0.332912  1
  Rb  Rb1  1  0.000000  0.767447  0.667088  1
  Rb  Rb2  1  0.500000  0.732553  0.167088  1
  Rb  Rb3  1  0.500000  0.500000  0.500000  1
  Rb  Rb4  1  0.500000  0.267447  0.832912  1
  Rb  Rb5  1  0.000000  0.000000  0.000000  1
  Pr  Pr6  1  0.000000  0.500000  0.000000  1
  Pr  Pr7  1  0.500000  0.000000  0.500000  1
  B  B8  1  0.000000  0.765305  0.333545  1
  B  B9  1  0.000000  0.234695  0.666455  1
  B  B10  1  0.500000  0.734695  0.833545  1
  B  B11  1  0.500000  0.265305  0.166455  1
  O  O12  1  0.708937  0.303494  0.100307  1
  O  O13  1  0.208937  0.196506  0.600307  1
  O  O14  1  0.500000  0.190661  0.298605  1
  O  O15  1  0.708937  0.696506  0.899693  1
  O  O16  1  0.291063  0.303494  0.100307  1
  O  O17  1  0.208937  0.803494  0.399693  1
  O  O18  1  0.791063  0.196506  0.600307  1
  O  O19  1  0.291063  0.696506  0.899693  1
  O  O20  1  0.791063  0.803494  0.399693  1
  O  O21  1  0.000000  0.309339  0.798605  1
  O  O22  1  0.000000  0.690661  0.201395  1
  O  O23  1  0.500000  0.809339  0.701395  1
