# generated using pymatgen
data_Na2ZrCr3Se8
_symmetry_space_group_name_H-M   'P 1'
_cell_length_a   14.90535500
_cell_length_b   6.31965399
_cell_length_c   7.29000040
_cell_angle_alpha   90.10086845
_cell_angle_beta   90.00000000
_cell_angle_gamma   90.00000000
_symmetry_Int_Tables_number   1
_chemical_formula_structural   Na2ZrCr3Se8
_chemical_formula_sum   'Na4 Zr2 Cr6 Se16'
_cell_volume   686.69281654
_cell_formula_units_Z   2
loop_
 _symmetry_equiv_pos_site_id
 _symmetry_equiv_pos_as_xyz
  1  'x, y, z'
loop_
 _atom_site_type_symbol
 _atom_site_label
 _atom_site_symmetry_multiplicity
 _atom_site_fract_x
 _atom_site_fract_y
 _atom_site_fract_z
 _atom_site_occupancy
  Na  Na0  1  0.250000  0.661262  0.735889  1
  Na  Na1  1  0.750000  0.338738  0.264111  1
  Na  Na2  1  0.750000  0.988486  0.733909  1
  Na  Na3  1  0.250000  0.011514  0.266091  1
  Zr  Zr4  1  0.500000  0.500000  0.000000  1
  Zr  Zr5  1  0.000000  0.500000  0.000000  1
  Cr  Cr6  1  0.499286  0.000057  0.752653  1
  Cr  Cr7  1  0.000714  0.000057  0.752653  1
  Cr  Cr8  1  0.500714  0.999943  0.247347  1
  Cr  Cr9  1  0.999286  0.999943  0.247347  1
  Cr  Cr10  1  0.000000  0.500000  0.500000  1
  Cr  Cr11  1  0.500000  0.500000  0.500000  1
  Se  Se12  1  0.603928  0.149898  0.000821  1
  Se  Se13  1  0.906120  0.167007  0.499544  1
  Se  Se14  1  0.406120  0.832993  0.500456  1
  Se  Se15  1  0.103928  0.850102  0.999179  1
  Se  Se16  1  0.396072  0.850102  0.999179  1
  Se  Se17  1  0.093880  0.832993  0.500456  1
  Se  Se18  1  0.593880  0.167007  0.499544  1
  Se  Se19  1  0.896072  0.149898  0.000821  1
  Se  Se20  1  0.397778  0.322534  0.735400  1
  Se  Se21  1  0.102222  0.322534  0.735400  1
  Se  Se22  1  0.602222  0.677466  0.264600  1
  Se  Se23  1  0.897778  0.677466  0.264600  1
  Se  Se24  1  0.601388  0.674916  0.735945  1
  Se  Se25  1  0.898612  0.674916  0.735945  1
  Se  Se26  1  0.398612  0.325084  0.264055  1
  Se  Se27  1  0.101388  0.325084  0.264055  1
