# generated using pymatgen
data_Nd3Tm6ThSn8
_symmetry_space_group_name_H-M   'P 1'
_cell_length_a   8.09645800
_cell_length_b   8.20662738
_cell_length_c   15.47524561
_cell_angle_alpha   90.06651450
_cell_angle_beta   90.00000000
_cell_angle_gamma   90.00000000
_symmetry_Int_Tables_number   1
_chemical_formula_structural   Nd3Tm6ThSn8
_chemical_formula_sum   'Nd6 Tm12 Th2 Sn16'
_cell_volume   1028.24602686
_cell_formula_units_Z   2
loop_
 _symmetry_equiv_pos_site_id
 _symmetry_equiv_pos_as_xyz
  1  'x, y, z'
loop_
 _atom_site_type_symbol
 _atom_site_label
 _atom_site_symmetry_multiplicity
 _atom_site_fract_x
 _atom_site_fract_y
 _atom_site_fract_z
 _atom_site_occupancy
  Nd  Nd0  1  0.518963  0.321338  0.903160  1
  Nd  Nd1  1  0.018963  0.178662  0.596840  1
  Nd  Nd2  1  0.482520  0.678216  0.403079  1
  Nd  Nd3  1  0.982520  0.821784  0.096921  1
  Nd  Nd4  1  0.482783  0.678399  0.096866  1
  Nd  Nd5  1  0.982783  0.821601  0.403134  1
  Tm  Tm6  1  0.360954  0.836662  0.876136  1
  Tm  Tm7  1  0.860954  0.663338  0.623864  1
  Tm  Tm8  1  0.638123  0.163161  0.376210  1
  Tm  Tm9  1  0.138123  0.336839  0.123790  1
  Tm  Tm10  1  0.639360  0.162473  0.123745  1
  Tm  Tm11  1  0.139360  0.337527  0.376255  1
  Tm  Tm12  1  0.361139  0.837289  0.623884  1
  Tm  Tm13  1  0.861139  0.662711  0.876116  1
  Tm  Tm14  1  0.192414  0.502340  0.750274  1
  Tm  Tm15  1  0.692414  0.997660  0.749726  1
  Tm  Tm16  1  0.806571  0.497351  0.250334  1
  Tm  Tm17  1  0.306571  0.002649  0.249666  1
  Th  Th18  1  0.517117  0.321430  0.596333  1
  Th  Th19  1  0.017117  0.178570  0.903667  1
  Sn  Sn20  1  0.300484  0.041744  0.041589  1
  Sn  Sn21  1  0.800484  0.458256  0.458411  1
  Sn  Sn22  1  0.698472  0.961069  0.543242  1
  Sn  Sn23  1  0.198472  0.538931  0.956758  1
  Sn  Sn24  1  0.699323  0.959698  0.957141  1
  Sn  Sn25  1  0.199323  0.540302  0.542859  1
  Sn  Sn26  1  0.302489  0.042416  0.458316  1
  Sn  Sn27  1  0.802489  0.457584  0.041684  1
  Sn  Sn28  1  0.557616  0.624812  0.749026  1
  Sn  Sn29  1  0.057616  0.875188  0.750974  1
  Sn  Sn30  1  0.441184  0.374946  0.249791  1
  Sn  Sn31  1  0.941184  0.125054  0.250209  1
  Sn  Sn32  1  0.325971  0.144376  0.750350  1
  Sn  Sn33  1  0.825971  0.355624  0.749650  1
  Sn  Sn34  1  0.674516  0.855891  0.250047  1
  Sn  Sn35  1  0.174516  0.644109  0.249953  1
