# generated using pymatgen
data_Sr2V3GeO10
_symmetry_space_group_name_H-M   'P 1'
_cell_length_a   5.78832806
_cell_length_b   7.83545166
_cell_length_c   10.30357158
_cell_angle_alpha   76.65573712
_cell_angle_beta   90.53685412
_cell_angle_gamma   71.69122211
_symmetry_Int_Tables_number   1
_chemical_formula_structural   Sr2V3GeO10
_chemical_formula_sum   'Sr4 V6 Ge2 O20'
_cell_volume   429.97628551
_cell_formula_units_Z   2
loop_
 _symmetry_equiv_pos_site_id
 _symmetry_equiv_pos_as_xyz
  1  'x, y, z'
loop_
 _atom_site_type_symbol
 _atom_site_label
 _atom_site_symmetry_multiplicity
 _atom_site_fract_x
 _atom_site_fract_y
 _atom_site_fract_z
 _atom_site_occupancy
  Sr  Sr0  1  0.132155  0.538142  0.213107  1
  Sr  Sr1  1  0.631694  0.038276  0.712806  1
  Sr  Sr2  1  0.863421  0.461884  0.786854  1
  Sr  Sr3  1  0.363265  0.961932  0.286508  1
  V  V4  1  0.497115  0.487785  0.505893  1
  V  V5  1  0.252860  0.760315  0.745353  1
  V  V6  1  0.996739  0.987047  0.006153  1
  V  V7  1  0.753404  0.259910  0.245460  1
  V  V8  1  0.399125  0.284573  0.965807  1
  V  V9  1  0.898769  0.784071  0.465715  1
  Ge  Ge10  1  0.596528  0.718134  0.031325  1
  Ge  Ge11  1  0.096196  0.218184  0.531244  1
  O  O12  1  0.536330  0.407058  0.353547  1
  O  O13  1  0.037206  0.908464  0.852811  1
  O  O14  1  0.464292  0.593668  0.646863  1
  O  O15  1  0.964323  0.094405  0.146364  1
  O  O16  1  0.787207  0.834005  0.085523  1
  O  O17  1  0.286900  0.333931  0.585318  1
  O  O18  1  0.212178  0.166622  0.924940  1
  O  O19  1  0.711959  0.666018  0.424376  1
  O  O20  1  0.767755  0.481678  0.105414  1
  O  O21  1  0.267174  0.981230  0.604933  1
  O  O22  1  0.245481  0.516715  0.888753  1
  O  O23  1  0.745243  0.016055  0.388662  1
  O  O24  1  0.567148  0.748969  0.855487  1
  O  O25  1  0.066368  0.248846  0.355321  1
  O  O26  1  0.435521  0.255792  0.139461  1
  O  O27  1  0.934656  0.755701  0.639251  1
  O  O28  1  0.311953  0.789720  0.102311  1
  O  O29  1  0.812016  0.289929  0.602439  1
  O  O30  1  0.682442  0.205324  0.900939  1
  O  O31  1  0.182579  0.705621  0.401063  1
