# generated using pymatgen
data_Er6GaCoNi
_symmetry_space_group_name_H-M   'P 1'
_cell_length_a   8.21115916
_cell_length_b   8.21115996
_cell_length_c   8.21116021
_cell_angle_alpha   112.90782461
_cell_angle_beta   109.48679765
_cell_angle_gamma   106.09081597
_symmetry_Int_Tables_number   1
_chemical_formula_structural   Er6GaCoNi
_chemical_formula_sum   'Er12 Ga2 Co2 Ni2'
_cell_volume   424.67050457
_cell_formula_units_Z   2
loop_
 _symmetry_equiv_pos_site_id
 _symmetry_equiv_pos_as_xyz
  1  'x, y, z'
loop_
 _atom_site_type_symbol
 _atom_site_label
 _atom_site_symmetry_multiplicity
 _atom_site_fract_x
 _atom_site_fract_y
 _atom_site_fract_z
 _atom_site_occupancy
  Er  Er0  1  0.042193  0.737779  0.304414  1
  Er  Er1  1  0.957807  0.262221  0.695586  1
  Er  Er2  1  0.566636  0.262221  0.304414  1
  Er  Er3  1  0.433364  0.737779  0.695586  1
  Er  Er4  1  0.669690  0.859709  0.190017  1
  Er  Er5  1  0.330310  0.520327  0.190017  1
  Er  Er6  1  0.330310  0.140291  0.809983  1
  Er  Er7  1  0.669690  0.479673  0.809983  1
  Er  Er8  1  0.180601  0.220810  0.401412  1
  Er  Er9  1  0.819399  0.220810  0.040209  1
  Er  Er10  1  0.180601  0.779190  0.959791  1
  Er  Er11  1  0.819399  0.779190  0.598588  1
  Ga  Ga12  1  0.000000  0.500000  0.500000  1
  Ga  Ga13  1  0.500000  0.000000  0.500000  1
  Co  Co14  1  0.662667  0.500000  0.162667  1
  Co  Co15  1  0.337333  0.500000  0.837333  1
  Ni  Ni16  1  0.880672  0.880672  0.000000  1
  Ni  Ni17  1  0.119328  0.119328  0.000000  1
