# generated using pymatgen
data_Tb3ScZn2Ir3
_symmetry_space_group_name_H-M   'P 1'
_cell_length_a   7.18918100
_cell_length_b   7.23867326
_cell_length_c   4.03945300
_cell_angle_alpha   90.00000000
_cell_angle_beta   90.00000000
_cell_angle_gamma   119.77407012
_symmetry_Int_Tables_number   1
_chemical_formula_structural   Tb3ScZn2Ir3
_chemical_formula_sum   'Tb3 Sc1 Zn2 Ir3'
_cell_volume   182.46342003
_cell_formula_units_Z   1
loop_
 _symmetry_equiv_pos_site_id
 _symmetry_equiv_pos_as_xyz
  1  'x, y, z'
loop_
 _atom_site_type_symbol
 _atom_site_label
 _atom_site_symmetry_multiplicity
 _atom_site_fract_x
 _atom_site_fract_y
 _atom_site_fract_z
 _atom_site_occupancy
  Tb  Tb0  1  0.390476  0.000000  0.500000  1
  Tb  Tb1  1  0.012358  0.429662  0.500000  1
  Tb  Tb2  1  0.582696  0.570339  0.500000  1
  Sc  Sc3  1  0.761726  0.000000  0.000000  1
  Zn  Zn4  1  0.244951  0.249349  0.000000  1
  Zn  Zn5  1  0.995603  0.750650  0.000000  1
  Ir  Ir6  1  0.670455  0.326110  0.000000  1
  Ir  Ir7  1  0.344343  0.673890  0.000000  1
  Ir  Ir8  1  0.997394  0.000000  0.500000  1
