# generated using pymatgen
data_Rb2V2CuO7
_symmetry_space_group_name_H-M   'P 1'
_cell_length_a   5.81810602
_cell_length_b   8.79984109
_cell_length_c   8.79854704
_cell_angle_alpha   90.00739758
_cell_angle_beta   89.99470069
_cell_angle_gamma   90.01167085
_symmetry_Int_Tables_number   1
_chemical_formula_structural   Rb2V2CuO7
_chemical_formula_sum   'Rb4 V4 Cu2 O14'
_cell_volume   450.47158984
_cell_formula_units_Z   2
loop_
 _symmetry_equiv_pos_site_id
 _symmetry_equiv_pos_as_xyz
  1  'x, y, z'
loop_
 _atom_site_type_symbol
 _atom_site_label
 _atom_site_symmetry_multiplicity
 _atom_site_fract_x
 _atom_site_fract_y
 _atom_site_fract_z
 _atom_site_occupancy
  Rb  Rb0  1  0.509278  0.164339  0.664324  1
  Rb  Rb1  1  0.490733  0.335645  0.164332  1
  Rb  Rb2  1  0.509356  0.835664  0.335647  1
  Rb  Rb3  1  0.490673  0.664372  0.835625  1
  V  V4  1  0.983889  0.638367  0.138344  1
  V  V5  1  0.016371  0.138305  0.361637  1
  V  V6  1  0.983498  0.361613  0.861696  1
  V  V7  1  0.016256  0.861668  0.638293  1
  Cu  Cu8  1  0.999557  0.500194  0.499915  1
  Cu  Cu9  1  0.999943  0.999766  0.000156  1
  O  O10  1  0.128334  0.999915  0.499909  1
  O  O11  1  0.871800  0.500087  0.000007  1
  O  O12  1  0.727767  0.136598  0.363338  1
  O  O13  1  0.272225  0.363367  0.863318  1
  O  O14  1  0.727642  0.863374  0.636552  1
  O  O15  1  0.272576  0.636660  0.136585  1
  O  O16  1  0.123772  0.316754  0.410253  1
  O  O17  1  0.876257  0.183218  0.910258  1
  O  O18  1  0.123776  0.683210  0.589912  1
  O  O19  1  0.876235  0.816726  0.089993  1
  O  O20  1  0.876387  0.589908  0.316759  1
  O  O21  1  0.123680  0.910195  0.816728  1
  O  O22  1  0.876084  0.410203  0.683232  1
  O  O23  1  0.123908  0.089855  0.183185  1
