# generated using pymatgen
data_Y2Pa(InPt)3
_symmetry_space_group_name_H-M   'P 1'
_cell_length_a   7.66086500
_cell_length_b   7.62283018
_cell_length_c   3.94804400
_cell_angle_alpha   90.00000000
_cell_angle_beta   90.00000000
_cell_angle_gamma   120.16519648
_symmetry_Int_Tables_number   1
_chemical_formula_structural   Y2Pa(InPt)3
_chemical_formula_sum   'Y2 Pa1 In3 Pt3'
_cell_volume   199.33397202
_cell_formula_units_Z   1
loop_
 _symmetry_equiv_pos_site_id
 _symmetry_equiv_pos_as_xyz
  1  'x, y, z'
loop_
 _atom_site_type_symbol
 _atom_site_label
 _atom_site_symmetry_multiplicity
 _atom_site_fract_x
 _atom_site_fract_y
 _atom_site_fract_z
 _atom_site_occupancy
  Y  Y0  1  0.997873  0.404444  0.500000  1
  Y  Y1  1  0.593429  0.595556  0.500000  1
  Pa  Pa2  1  0.410624  0.000000  0.500000  1
  In  In3  1  0.755278  0.000000  0.000000  1
  In  In4  1  0.257013  0.269935  0.000000  1
  In  In5  1  0.987079  0.730065  0.000000  1
  Pt  Pt6  1  0.016984  0.000000  0.500000  1
  Pt  Pt7  1  0.645799  0.309876  0.000000  1
  Pt  Pt8  1  0.335922  0.690124  0.000000  1
