# generated using pymatgen
data_Sc3(NbRe12)2
_symmetry_space_group_name_H-M   'P 1'
_cell_length_a   8.43676074
_cell_length_b   8.44447042
_cell_length_c   8.43676010
_cell_angle_alpha   109.49087105
_cell_angle_beta   109.39487696
_cell_angle_gamma   109.49086731
_symmetry_Int_Tables_number   1
_chemical_formula_structural   Sc3(NbRe12)2
_chemical_formula_sum   'Sc3 Nb2 Re24'
_cell_volume   462.91372690
_cell_formula_units_Z   1
loop_
 _symmetry_equiv_pos_site_id
 _symmetry_equiv_pos_as_xyz
  1  'x, y, z'
loop_
 _atom_site_type_symbol
 _atom_site_label
 _atom_site_symmetry_multiplicity
 _atom_site_fract_x
 _atom_site_fract_y
 _atom_site_fract_z
 _atom_site_occupancy
  Sc  Sc0  1  0.631731  0.000000  0.999990  1
  Sc  Sc1  1  0.999990  0.000000  0.631731  1
  Sc  Sc2  1  0.998517  0.000000  0.998517  1
  Nb  Nb3  1  0.368899  0.369022  0.368899  1
  Nb  Nb4  1  0.999876  0.630978  0.999876  1
  Re  Re5  1  0.998009  0.397852  0.680276  1
  Re  Re6  1  0.282425  0.602148  0.600158  1
  Re  Re7  1  0.720448  0.324318  0.322547  1
  Re  Re8  1  0.318534  0.718993  0.318534  1
  Re  Re9  1  0.676676  0.000000  0.395961  1
  Re  Re10  1  0.998231  0.675682  0.396131  1
  Re  Re11  1  0.600158  0.602148  0.282425  1
  Re  Re12  1  0.808009  0.807163  0.184095  1
  Re  Re13  1  0.376932  0.192837  0.000846  1
  Re  Re14  1  0.195351  0.377164  0.000772  1
  Re  Re15  1  0.623539  0.815290  0.623539  1
  Re  Re16  1  0.377159  0.000000  0.195306  1
  Re  Re17  1  0.000772  0.377164  0.195351  1
  Re  Re18  1  0.818187  0.622836  0.623607  1
  Re  Re19  1  0.184095  0.807163  0.808009  1
  Re  Re20  1  0.808249  0.184710  0.808249  1
  Re  Re21  1  0.195306  0.000000  0.377159  1
  Re  Re22  1  0.000846  0.192837  0.376932  1
  Re  Re23  1  0.623607  0.622836  0.818187  1
  Re  Re24  1  0.395961  0.000000  0.676676  1
  Re  Re25  1  0.599540  0.281007  0.599540  1
  Re  Re26  1  0.680276  0.397852  0.998009  1
  Re  Re27  1  0.396131  0.675682  0.998231  1
  Re  Re28  1  0.322547  0.324318  0.720448  1
