# generated using pymatgen
data_PaSn5Pt4
_symmetry_space_group_name_H-M   'P 1'
_cell_length_a   4.50048200
_cell_length_b   4.50048222
_cell_length_c   12.98828700
_cell_angle_alpha   90.00000000
_cell_angle_beta   90.00000000
_cell_angle_gamma   119.99999835
_symmetry_Int_Tables_number   1
_chemical_formula_structural   PaSn5Pt4
_chemical_formula_sum   'Pa1 Sn5 Pt4'
_cell_volume   227.82458887
_cell_formula_units_Z   1
loop_
 _symmetry_equiv_pos_site_id
 _symmetry_equiv_pos_as_xyz
  1  'x, y, z'
loop_
 _atom_site_type_symbol
 _atom_site_label
 _atom_site_symmetry_multiplicity
 _atom_site_fract_x
 _atom_site_fract_y
 _atom_site_fract_z
 _atom_site_occupancy
  Pa  Pa0  1  0.000000  0.000000  0.250000  1
  Sn  Sn1  1  0.333333  0.666667  0.572666  1
  Sn  Sn2  1  0.666667  0.333333  0.073344  1
  Sn  Sn3  1  0.666667  0.333333  0.426656  1
  Sn  Sn4  1  0.333333  0.666667  0.927334  1
  Sn  Sn5  1  0.000000  0.000000  0.750000  1
  Pt  Pt6  1  0.333333  0.666667  0.359086  1
  Pt  Pt7  1  0.666667  0.333333  0.858346  1
  Pt  Pt8  1  0.666667  0.333333  0.641654  1
  Pt  Pt9  1  0.333333  0.666667  0.140914  1
