# generated using pymatgen
data_Tm2UGa3Ir2Ru
_symmetry_space_group_name_H-M   'P 1'
_cell_length_a   7.29733050
_cell_length_b   7.29733216
_cell_length_c   3.68596600
_cell_angle_alpha   90.00000000
_cell_angle_beta   90.00000000
_cell_angle_gamma   120.68921661
_symmetry_Int_Tables_number   1
_chemical_formula_structural   Tm2UGa3Ir2Ru
_chemical_formula_sum   'Tm2 U1 Ga3 Ir2 Ru1'
_cell_volume   168.79198499
_cell_formula_units_Z   1
loop_
 _symmetry_equiv_pos_site_id
 _symmetry_equiv_pos_as_xyz
  1  'x, y, z'
loop_
 _atom_site_type_symbol
 _atom_site_label
 _atom_site_symmetry_multiplicity
 _atom_site_fract_x
 _atom_site_fract_y
 _atom_site_fract_z
 _atom_site_occupancy
  Tm  Tm0  1  0.407153  0.005315  0.500000  1
  Tm  Tm1  1  0.005315  0.407153  0.500000  1
  U  U2  1  0.604617  0.604617  0.500000  1
  Ga  Ga3  1  0.740814  0.022092  0.000000  1
  Ga  Ga4  1  0.022092  0.740814  0.000000  1
  Ga  Ga5  1  0.241513  0.241513  0.000000  1
  Ir  Ir6  1  0.357373  0.660509  0.000000  1
  Ir  Ir7  1  0.660509  0.357373  0.000000  1
  Ru  Ru8  1  0.960615  0.960615  0.500000  1
