# generated using pymatgen
data_Dy20IrRu5Au6
_symmetry_space_group_name_H-M   'P 1'
_cell_length_a   11.14305101
_cell_length_b   11.14305107
_cell_length_c   6.42925014
_cell_angle_alpha   89.95734218
_cell_angle_beta   89.95734294
_cell_angle_gamma   91.25239675
_symmetry_Int_Tables_number   1
_chemical_formula_structural   Dy20IrRu5Au6
_chemical_formula_sum   'Dy20 Ir1 Ru5 Au6'
_cell_volume   798.11331636
_cell_formula_units_Z   1
loop_
 _symmetry_equiv_pos_site_id
 _symmetry_equiv_pos_as_xyz
  1  'x, y, z'
loop_
 _atom_site_type_symbol
 _atom_site_label
 _atom_site_symmetry_multiplicity
 _atom_site_fract_x
 _atom_site_fract_y
 _atom_site_fract_z
 _atom_site_occupancy
  Dy  Dy0  1  0.304563  0.080901  0.366814  1
  Dy  Dy1  1  0.298614  0.907335  0.865906  1
  Dy  Dy2  1  0.705563  0.088022  0.873139  1
  Dy  Dy3  1  0.705044  0.924050  0.358704  1
  Dy  Dy4  1  0.577081  0.796904  0.859231  1
  Dy  Dy5  1  0.593470  0.201510  0.365757  1
  Dy  Dy6  1  0.413408  0.795933  0.374153  1
  Dy  Dy7  1  0.419382  0.196005  0.865618  1
  Dy  Dy8  1  0.203096  0.422919  0.640769  1
  Dy  Dy9  1  0.204067  0.586592  0.125847  1
  Dy  Dy10  1  0.798490  0.406530  0.134243  1
  Dy  Dy11  1  0.803995  0.580618  0.634382  1
  Dy  Dy12  1  0.919099  0.695437  0.133186  1
  Dy  Dy13  1  0.911978  0.294437  0.626861  1
  Dy  Dy14  1  0.092665  0.701386  0.634094  1
  Dy  Dy15  1  0.075950  0.294956  0.141296  1
  Dy  Dy16  1  0.996302  0.007790  0.499070  1
  Dy  Dy17  1  0.992210  0.003698  0.000930  1
  Dy  Dy18  1  0.493644  0.504809  0.999121  1
  Dy  Dy19  1  0.495191  0.506356  0.500879  1
  Ir  Ir20  1  0.347475  0.652525  0.750000  1
  Ru  Ru21  1  0.848421  0.151579  0.250000  1
  Ru  Ru22  1  0.500408  0.999563  0.118607  1
  Ru  Ru23  1  0.500689  0.000213  0.619149  1
  Ru  Ru24  1  0.999787  0.499311  0.880851  1
  Ru  Ru25  1  0.000437  0.499592  0.381393  1
  Au  Au26  1  0.841158  0.842890  0.748630  1
  Au  Au27  1  0.157110  0.158842  0.751370  1
  Au  Au28  1  0.152046  0.847954  0.250000  1
  Au  Au29  1  0.651366  0.348634  0.750000  1
  Au  Au30  1  0.656333  0.659045  0.250204  1
  Au  Au31  1  0.340955  0.343667  0.249796  1
