# generated using pymatgen
data_La9Co4HgAu2
_symmetry_space_group_name_H-M   'P 1'
_cell_length_a   8.96712311
_cell_length_b   8.96712372
_cell_length_c   8.96712400
_cell_angle_alpha   128.80925774
_cell_angle_beta   128.80925267
_cell_angle_gamma   75.31768220
_symmetry_Int_Tables_number   1
_chemical_formula_structural   La9Co4HgAu2
_chemical_formula_sum   'La9 Co4 Hg1 Au2'
_cell_volume   426.14073517
_cell_formula_units_Z   1
loop_
 _symmetry_equiv_pos_site_id
 _symmetry_equiv_pos_as_xyz
  1  'x, y, z'
loop_
 _atom_site_type_symbol
 _atom_site_label
 _atom_site_symmetry_multiplicity
 _atom_site_fract_x
 _atom_site_fract_y
 _atom_site_fract_z
 _atom_site_occupancy
  La  La0  1  0.500000  0.500000  0.000000  1
  La  La1  1  0.810385  0.285163  0.840203  1
  La  La2  1  0.189615  0.714837  0.159798  1
  La  La3  1  0.444961  0.970182  0.159798  1
  La  La4  1  0.285163  0.444961  0.474779  1
  La  La5  1  0.029818  0.189615  0.474779  1
  La  La6  1  0.555039  0.029818  0.840202  1
  La  La7  1  0.714837  0.555039  0.525221  1
  La  La8  1  0.970182  0.810385  0.525221  1
  Co  Co9  1  0.132037  0.621527  0.753563  1
  Co  Co10  1  0.867963  0.378473  0.246437  1
  Co  Co11  1  0.621527  0.867963  0.489490  1
  Co  Co12  1  0.378473  0.132037  0.510510  1
  Hg  Hg13  1  0.000000  0.000000  0.000000  1
  Au  Au14  1  0.260562  0.260562  0.000000  1
  Au  Au15  1  0.739438  0.739438  0.000000  1
