# generated using pymatgen
data_Tb9HoGa3NiBi2
_symmetry_space_group_name_H-M   'P 1'
_cell_length_a   8.60233130
_cell_length_b   8.60233136
_cell_length_c   8.79461889
_cell_angle_alpha   124.19311848
_cell_angle_beta   124.22323770
_cell_angle_gamma   81.39991999
_symmetry_Int_Tables_number   1
_chemical_formula_structural   Tb9HoGa3NiBi2
_chemical_formula_sum   'Tb9 Ho1 Ga3 Ni1 Bi2'
_cell_volume   431.70648179
_cell_formula_units_Z   1
loop_
 _symmetry_equiv_pos_site_id
 _symmetry_equiv_pos_as_xyz
  1  'x, y, z'
loop_
 _atom_site_type_symbol
 _atom_site_label
 _atom_site_symmetry_multiplicity
 _atom_site_fract_x
 _atom_site_fract_y
 _atom_site_fract_z
 _atom_site_occupancy
  Tb  Tb0  1  0.503462  0.507281  0.010742  1
  Tb  Tb1  1  0.779239  0.296303  0.795104  1
  Tb  Tb2  1  0.203102  0.721396  0.204850  1
  Tb  Tb3  1  0.483454  0.001748  0.204850  1
  Tb  Tb4  1  0.304497  0.457933  0.499693  1
  Tb  Tb5  1  0.041759  0.195195  0.499693  1
  Tb  Tb6  1  0.498801  0.015865  0.795104  1
  Tb  Tb7  1  0.706431  0.516489  0.500369  1
  Tb  Tb8  1  0.983880  0.793938  0.500369  1
  Ho  Ho9  1  0.993416  0.996438  0.989855  1
  Ga  Ga10  1  0.147340  0.645355  0.792695  1
  Ga  Ga11  1  0.855276  0.351912  0.207189  1
  Ga  Ga12  1  0.634734  0.866017  0.500751  1
  Ni  Ni13  1  0.376683  0.122859  0.499542  1
  Bi  Bi14  1  0.243479  0.255153  0.999598  1
  Bi  Bi15  1  0.744445  0.756119  0.999598  1
