# generated using pymatgen
data_Ce3ThCo2(RuC)10
_symmetry_space_group_name_H-M   'P 1'
_cell_length_a   8.96400243
_cell_length_b   8.96400243
_cell_length_c   4.16645000
_cell_angle_alpha   90.00000000
_cell_angle_beta   90.00000000
_cell_angle_gamma   89.91566707
_symmetry_Int_Tables_number   1
_chemical_formula_structural   Ce3ThCo2(RuC)10
_chemical_formula_sum   'Ce3 Th1 Co2 Ru10 C10'
_cell_volume   334.78780879
_cell_formula_units_Z   1
loop_
 _symmetry_equiv_pos_site_id
 _symmetry_equiv_pos_as_xyz
  1  'x, y, z'
loop_
 _atom_site_type_symbol
 _atom_site_label
 _atom_site_symmetry_multiplicity
 _atom_site_fract_x
 _atom_site_fract_y
 _atom_site_fract_z
 _atom_site_occupancy
  Ce  Ce0  1  0.320720  0.820720  0.500000  1
  Ce  Ce1  1  0.821318  0.679126  0.500000  1
  Ce  Ce2  1  0.179126  0.321318  0.500000  1
  Th  Th3  1  0.679281  0.179281  0.500000  1
  Co  Co4  1  0.498856  0.998856  0.000000  1
  Co  Co5  1  0.000614  0.500614  0.000000  1
  Ru  Ru6  1  0.719117  0.438938  0.000000  1
  Ru  Ru7  1  0.435679  0.281846  0.000000  1
  Ru  Ru8  1  0.000137  0.999593  0.500000  1
  Ru  Ru9  1  0.499593  0.500137  0.500000  1
  Ru  Ru10  1  0.781846  0.935679  0.000000  1
  Ru  Ru11  1  0.938938  0.219117  0.000000  1
  Ru  Ru12  1  0.063172  0.781649  0.000000  1
  Ru  Ru13  1  0.218068  0.062595  0.000000  1
  Ru  Ru14  1  0.562595  0.718068  0.000000  1
  Ru  Ru15  1  0.281649  0.563172  0.000000  1
  C  C16  1  0.499725  0.500213  0.000000  1
  C  C17  1  0.000213  0.999725  0.000000  1
  C  C18  1  0.886304  0.386304  0.671507  1
  C  C19  1  0.115798  0.615798  0.670973  1
  C  C20  1  0.886304  0.386304  0.328493  1
  C  C21  1  0.382974  0.114600  0.328882  1
  C  C22  1  0.614600  0.882974  0.328882  1
  C  C23  1  0.115798  0.615798  0.329027  1
  C  C24  1  0.614600  0.882974  0.671118  1
  C  C25  1  0.382974  0.114600  0.671118  1
