# generated using pymatgen
data_Zr7Co16Re(Si2P)4
_symmetry_space_group_name_H-M   'P 1'
_cell_length_a   12.17154952
_cell_length_b   12.16392043
_cell_length_c   3.69833900
_cell_angle_alpha   90.00000000
_cell_angle_beta   90.00000000
_cell_angle_gamma   119.70970084
_symmetry_Int_Tables_number   1
_chemical_formula_structural   Zr7Co16Re(Si2P)4
_chemical_formula_sum   'Zr7 Co16 Re1 Si8 P4'
_cell_volume   475.57584697
_cell_formula_units_Z   1
loop_
 _symmetry_equiv_pos_site_id
 _symmetry_equiv_pos_as_xyz
  1  'x, y, z'
loop_
 _atom_site_type_symbol
 _atom_site_label
 _atom_site_symmetry_multiplicity
 _atom_site_fract_x
 _atom_site_fract_y
 _atom_site_fract_z
 _atom_site_occupancy
  Zr  Zr0  1  0.560627  0.002280  0.000000  1
  Zr  Zr1  1  0.001800  0.558710  0.000000  1
  Zr  Zr2  1  0.663132  0.336019  0.000000  1
  Zr  Zr3  1  0.336192  0.664604  0.000000  1
  Zr  Zr4  1  0.812412  0.811727  0.500000  1
  Zr  Zr5  1  0.178888  0.999280  0.500000  1
  Zr  Zr6  1  0.000874  0.182910  0.500000  1
  Co  Co7  1  0.194260  0.366897  0.000000  1
  Co  Co8  1  0.175707  0.808354  0.000000  1
  Co  Co9  1  0.820641  0.628592  0.000000  1
  Co  Co10  1  0.812804  0.179267  0.000000  1
  Co  Co11  1  0.366685  0.198456  0.000000  1
  Co  Co12  1  0.128614  0.477691  0.500000  1
  Co  Co13  1  0.358993  0.882471  0.500000  1
  Co  Co14  1  0.519958  0.640584  0.500000  1
  Co  Co15  1  0.640132  0.519107  0.500000  1
  Co  Co16  1  0.883851  0.356599  0.500000  1
  Co  Co17  1  0.480615  0.129244  0.500000  1
  Co  Co18  1  0.998836  0.999360  0.000000  1
  Co  Co19  1  0.727919  0.999965  0.500000  1
  Co  Co20  1  0.997867  0.725035  0.500000  1
  Co  Co21  1  0.630332  0.821258  0.000000  1
  Co  Co22  1  0.272213  0.274108  0.500000  1
  Re  Re23  1  0.439858  0.441028  0.000000  1
  Si  Si24  1  0.637325  0.636752  0.000000  1
  Si  Si25  1  0.349366  0.004775  0.000000  1
  Si  Si26  1  0.477566  0.314869  0.500000  1
  Si  Si27  1  0.696335  0.179506  0.500000  1
  Si  Si28  1  0.823663  0.516556  0.500000  1
  Si  Si29  1  0.518285  0.823863  0.500000  1
  Si  Si30  1  0.178979  0.695920  0.500000  1
  Si  Si31  1  0.315924  0.479225  0.500000  1
  P  P32  1  0.004741  0.350339  0.000000  1
  P  P33  1  0.822851  0.998351  0.000000  1
  P  P34  1  0.997574  0.821832  0.000000  1
  P  P35  1  0.174181  0.174468  0.000000  1
