# generated using pymatgen
data_K3Nb2Br10O
_symmetry_space_group_name_H-M   'P 1'
_cell_length_a   7.41010700
_cell_length_b   7.41010700
_cell_length_c   19.21035800
_cell_angle_alpha   90.00000000
_cell_angle_beta   90.00000000
_cell_angle_gamma   90.00000000
_symmetry_Int_Tables_number   1
_chemical_formula_structural   K3Nb2Br10O
_chemical_formula_sum   'K6 Nb4 Br20 O2'
_cell_volume   1054.83472095
_cell_formula_units_Z   2
loop_
 _symmetry_equiv_pos_site_id
 _symmetry_equiv_pos_as_xyz
  1  'x, y, z'
loop_
 _atom_site_type_symbol
 _atom_site_label
 _atom_site_symmetry_multiplicity
 _atom_site_fract_x
 _atom_site_fract_y
 _atom_site_fract_z
 _atom_site_occupancy
  K  K0  1  0.500000  0.500000  0.000000  1
  K  K1  1  0.000000  0.000000  0.500000  1
  K  K2  1  0.000000  0.500000  0.250000  1
  K  K3  1  0.500000  0.000000  0.750000  1
  K  K4  1  0.500000  0.000000  0.250000  1
  K  K5  1  0.000000  0.500000  0.750000  1
  Nb  Nb6  1  0.500000  0.500000  0.400286  1
  Nb  Nb7  1  0.000000  0.000000  0.900286  1
  Nb  Nb8  1  0.500000  0.500000  0.599714  1
  Nb  Nb9  1  0.000000  0.000000  0.099714  1
  Br  Br10  1  0.792901  0.687450  0.394089  1
  Br  Br11  1  0.207099  0.312550  0.394089  1
  Br  Br12  1  0.707099  0.187450  0.894089  1
  Br  Br13  1  0.292901  0.812550  0.894089  1
  Br  Br14  1  0.687450  0.207099  0.394089  1
  Br  Br15  1  0.312550  0.792901  0.394089  1
  Br  Br16  1  0.187450  0.292901  0.894089  1
  Br  Br17  1  0.812550  0.707099  0.894089  1
  Br  Br18  1  0.207099  0.312550  0.605911  1
  Br  Br19  1  0.792901  0.687450  0.605911  1
  Br  Br20  1  0.292901  0.812550  0.105911  1
  Br  Br21  1  0.707099  0.187450  0.105911  1
  Br  Br22  1  0.312550  0.792901  0.605911  1
  Br  Br23  1  0.687450  0.207099  0.605911  1
  Br  Br24  1  0.812550  0.707099  0.105911  1
  Br  Br25  1  0.187450  0.292901  0.105911  1
  Br  Br26  1  0.500000  0.500000  0.260020  1
  Br  Br27  1  0.000000  0.000000  0.760020  1
  Br  Br28  1  0.500000  0.500000  0.739980  1
  Br  Br29  1  0.000000  0.000000  0.239980  1
  O  O30  1  0.500000  0.500000  0.500000  1
  O  O31  1  0.000000  0.000000  0.000000  1
