# generated using pymatgen
data_Nb2Fe12P7
_symmetry_space_group_name_H-M   'P 1'
_cell_length_a   8.81382800
_cell_length_b   8.81382804
_cell_length_c   3.56140500
_cell_angle_alpha   90.00000000
_cell_angle_beta   90.00000000
_cell_angle_gamma   119.99999985
_symmetry_Int_Tables_number   1
_chemical_formula_structural   Nb2Fe12P7
_chemical_formula_sum   'Nb2 Fe12 P7'
_cell_volume   239.59687020
_cell_formula_units_Z   1
loop_
 _symmetry_equiv_pos_site_id
 _symmetry_equiv_pos_as_xyz
  1  'x, y, z'
loop_
 _atom_site_type_symbol
 _atom_site_label
 _atom_site_symmetry_multiplicity
 _atom_site_fract_x
 _atom_site_fract_y
 _atom_site_fract_z
 _atom_site_occupancy
  Nb  Nb0  1  0.666667  0.333333  0.500000  1
  Nb  Nb1  1  0.333333  0.666667  0.000000  1
  Fe  Fe2  1  0.120918  0.843029  0.000000  1
  Fe  Fe3  1  0.387230  0.441488  0.500000  1
  Fe  Fe4  1  0.722111  0.879082  0.000000  1
  Fe  Fe5  1  0.558512  0.945742  0.500000  1
  Fe  Fe6  1  0.224907  0.099775  0.500000  1
  Fe  Fe7  1  0.874868  0.775093  0.500000  1
  Fe  Fe8  1  0.900225  0.125132  0.500000  1
  Fe  Fe9  1  0.934279  0.368479  0.000000  1
  Fe  Fe10  1  0.631521  0.565800  0.000000  1
  Fe  Fe11  1  0.434200  0.065721  0.000000  1
  Fe  Fe12  1  0.054258  0.612770  0.500000  1
  Fe  Fe13  1  0.156971  0.277889  0.000000  1
  P  P14  1  0.000000  0.000000  0.000000  1
  P  P15  1  0.593707  0.712612  0.500000  1
  P  P16  1  0.701987  0.115786  0.000000  1
  P  P17  1  0.884214  0.586201  0.000000  1
  P  P18  1  0.413799  0.298013  0.000000  1
  P  P19  1  0.287388  0.881095  0.500000  1
  P  P20  1  0.118905  0.406293  0.500000  1
