# generated using pymatgen
data_Na2SrYb2(OsN3)2
_symmetry_space_group_name_H-M   'P 1'
_cell_length_a   6.09388448
_cell_length_b   6.86036771
_cell_length_c   12.29121768
_cell_angle_alpha   90.00000047
_cell_angle_beta   104.06629692
_cell_angle_gamma   124.25586068
_symmetry_Int_Tables_number   1
_chemical_formula_structural   Na2SrYb2(OsN3)2
_chemical_formula_sum   'Na4 Sr2 Yb4 Os4 N12'
_cell_volume   405.93671499
_cell_formula_units_Z   2
loop_
 _symmetry_equiv_pos_site_id
 _symmetry_equiv_pos_as_xyz
  1  'x, y, z'
loop_
 _atom_site_type_symbol
 _atom_site_label
 _atom_site_symmetry_multiplicity
 _atom_site_fract_x
 _atom_site_fract_y
 _atom_site_fract_z
 _atom_site_occupancy
  Na  Na0  1  0.319255  0.043221  0.735748  1
  Na  Na1  1  0.680745  0.723966  0.764252  1
  Na  Na2  1  0.680745  0.956779  0.264252  1
  Na  Na3  1  0.319255  0.276034  0.235748  1
  Sr  Sr4  1  0.000000  0.395240  0.750000  1
  Sr  Sr5  1  0.000000  0.604760  0.250000  1
  Yb  Yb6  1  0.112400  0.809014  0.998441  1
  Yb  Yb7  1  0.887600  0.696613  0.501559  1
  Yb  Yb8  1  0.887600  0.190986  0.001559  1
  Yb  Yb9  1  0.112400  0.303387  0.498441  1
  Os  Os10  1  0.520065  0.846762  0.532520  1
  Os  Os11  1  0.479935  0.326697  0.967480  1
  Os  Os12  1  0.479935  0.153238  0.467480  1
  Os  Os13  1  0.520065  0.673303  0.032520  1
  N  N14  1  0.889797  0.991261  0.613157  1
  N  N15  1  0.110203  0.101465  0.886843  1
  N  N16  1  0.110203  0.008739  0.386843  1
  N  N17  1  0.889797  0.898535  0.113157  1
  N  N18  1  0.268825  0.676880  0.615443  1
  N  N19  1  0.731175  0.408054  0.884557  1
  N  N20  1  0.731175  0.323120  0.384557  1
  N  N21  1  0.268825  0.591946  0.115443  1
  N  N22  1  0.574239  0.360706  0.592569  1
  N  N23  1  0.425761  0.786466  0.907431  1
  N  N24  1  0.425761  0.639294  0.407431  1
  N  N25  1  0.574239  0.213534  0.092569  1
