# generated using pymatgen
data_Ce4PrPb3O
_symmetry_space_group_name_H-M   'P 1'
_cell_length_a   9.41194484
_cell_length_b   9.41194545
_cell_length_c   9.41194416
_cell_angle_alpha   125.60722258
_cell_angle_beta   125.60722301
_cell_angle_gamma   80.53465780
_symmetry_Int_Tables_number   1
_chemical_formula_structural   Ce4PrPb3O
_chemical_formula_sum   'Ce8 Pr2 Pb6 O2'
_cell_volume   531.56414878
_cell_formula_units_Z   2
loop_
 _symmetry_equiv_pos_site_id
 _symmetry_equiv_pos_as_xyz
  1  'x, y, z'
loop_
 _atom_site_type_symbol
 _atom_site_label
 _atom_site_symmetry_multiplicity
 _atom_site_fract_x
 _atom_site_fract_y
 _atom_site_fract_z
 _atom_site_occupancy
  Ce  Ce0  1  0.000511  0.191428  0.500000  1
  Ce  Ce1  1  0.808572  0.308572  0.809082  1
  Ce  Ce2  1  0.500511  0.000511  0.809082  1
  Ce  Ce3  1  0.499489  0.999489  0.190918  1
  Ce  Ce4  1  0.999489  0.808572  0.500000  1
  Ce  Ce5  1  0.191428  0.691428  0.190918  1
  Ce  Ce6  1  0.691428  0.500511  0.500000  1
  Ce  Ce7  1  0.308572  0.499489  0.500000  1
  Pr  Pr8  1  0.500000  0.500000  0.000000  1
  Pr  Pr9  1  0.000000  0.000000  0.000000  1
  Pb  Pb10  1  0.856954  0.356954  0.213907  1
  Pb  Pb11  1  0.143046  0.643046  0.786093  1
  Pb  Pb12  1  0.356954  0.143046  0.500000  1
  Pb  Pb13  1  0.750000  0.750000  0.000000  1
  Pb  Pb14  1  0.643046  0.856954  0.500000  1
  Pb  Pb15  1  0.250000  0.250000  0.000000  1
  O  O16  1  0.750000  0.250000  0.500000  1
  O  O17  1  0.250000  0.750000  0.500000  1
