# generated using pymatgen
data_Er16AgHg3Rh4
_symmetry_space_group_name_H-M   'P 1'
_cell_length_a   9.48652469
_cell_length_b   9.50847456
_cell_length_c   9.48652500
_cell_angle_alpha   60.07632915
_cell_angle_beta   59.99999544
_cell_angle_gamma   60.07632865
_symmetry_Int_Tables_number   1
_chemical_formula_structural   Er16AgHg3Rh4
_chemical_formula_sum   'Er16 Ag1 Hg3 Rh4'
_cell_volume   605.77343082
_cell_formula_units_Z   1
loop_
 _symmetry_equiv_pos_site_id
 _symmetry_equiv_pos_as_xyz
  1  'x, y, z'
loop_
 _atom_site_type_symbol
 _atom_site_label
 _atom_site_symmetry_multiplicity
 _atom_site_fract_x
 _atom_site_fract_y
 _atom_site_fract_z
 _atom_site_occupancy
  Er  Er0  1  0.188516  0.188641  0.811421  1
  Er  Er1  1  0.435909  0.062484  0.065698  1
  Er  Er2  1  0.435909  0.062484  0.435909  1
  Er  Er3  1  0.064134  0.435641  0.064134  1
  Er  Er4  1  0.648147  0.055559  0.648147  1
  Er  Er5  1  0.188174  0.812176  0.811477  1
  Er  Er6  1  0.065698  0.062484  0.435909  1
  Er  Er7  1  0.811421  0.188641  0.188516  1
  Er  Er8  1  0.811477  0.812176  0.188174  1
  Er  Er9  1  0.648514  0.647901  0.055073  1
  Er  Er10  1  0.648514  0.647901  0.648514  1
  Er  Er11  1  0.064134  0.435641  0.436091  1
  Er  Er12  1  0.055073  0.647901  0.648514  1
  Er  Er13  1  0.811421  0.188641  0.811421  1
  Er  Er14  1  0.436091  0.435641  0.064134  1
  Er  Er15  1  0.188174  0.812176  0.188174  1
  Ag  Ag16  1  0.416143  0.751571  0.416143  1
  Hg  Hg17  1  0.415567  0.417320  0.751546  1
  Hg  Hg18  1  0.751546  0.417320  0.415567  1
  Hg  Hg19  1  0.415567  0.417320  0.415567  1
  Rh  Rh20  1  0.856780  0.429660  0.856780  1
  Rh  Rh21  1  0.856618  0.856907  0.429857  1
  Rh  Rh22  1  0.429857  0.856907  0.856618  1
  Rh  Rh23  1  0.856618  0.856907  0.856618  1
