# generated using pymatgen
data_La5Th(SnAu2)6
_symmetry_space_group_name_H-M   'P 1'
_cell_length_a   5.11697900
_cell_length_b   7.25245800
_cell_length_c   15.44966800
_cell_angle_alpha   90.00000000
_cell_angle_beta   90.00111992
_cell_angle_gamma   90.00000000
_symmetry_Int_Tables_number   1
_chemical_formula_structural   La5Th(SnAu2)6
_chemical_formula_sum   'La5 Th1 Sn6 Au12'
_cell_volume   573.34761234
_cell_formula_units_Z   1
loop_
 _symmetry_equiv_pos_site_id
 _symmetry_equiv_pos_as_xyz
  1  'x, y, z'
loop_
 _atom_site_type_symbol
 _atom_site_label
 _atom_site_symmetry_multiplicity
 _atom_site_fract_x
 _atom_site_fract_y
 _atom_site_fract_z
 _atom_site_occupancy
  La  La0  1  0.500103  0.000000  0.166697  1
  La  La1  1  0.000099  0.500000  0.333314  1
  La  La2  1  0.499999  0.000000  0.500000  1
  La  La3  1  0.999899  0.500000  0.666685  1
  La  La4  1  0.499897  0.000000  0.833303  1
  Th  Th5  1  0.000000  0.500000  0.000000  1
  Sn  Sn6  1  0.000000  0.000000  0.000000  1
  Sn  Sn7  1  0.500086  0.500000  0.166761  1
  Sn  Sn8  1  0.000020  0.000000  0.333025  1
  Sn  Sn9  1  0.499999  0.500000  0.500000  1
  Sn  Sn10  1  0.999980  0.000000  0.666975  1
  Sn  Sn11  1  0.499915  0.500000  0.833240  1
  Au  Au12  1  0.499999  0.251726  0.000000  1
  Au  Au13  1  0.499999  0.748274  0.000000  1
  Au  Au14  1  0.000107  0.250782  0.166087  1
  Au  Au15  1  0.000107  0.749216  0.166087  1
  Au  Au16  1  0.500098  0.250247  0.333200  1
  Au  Au17  1  0.500098  0.749753  0.333200  1
  Au  Au18  1  0.000000  0.249898  0.500000  1
  Au  Au19  1  0.000000  0.750102  0.500000  1
  Au  Au20  1  0.499902  0.250247  0.666801  1
  Au  Au21  1  0.499902  0.749753  0.666801  1
  Au  Au22  1  0.999893  0.250782  0.833913  1
  Au  Au23  1  0.999893  0.749216  0.833913  1
