# generated using pymatgen
data_La12Tb8Si15Ir
_symmetry_space_group_name_H-M   'P 1'
_cell_length_a   7.95782903
_cell_length_b   7.95191555
_cell_length_c   14.66010200
_cell_angle_alpha   89.52969888
_cell_angle_beta   89.38391927
_cell_angle_gamma   90.26243186
_symmetry_Int_Tables_number   1
_chemical_formula_structural   La12Tb8Si15Ir
_chemical_formula_sum   'La12 Tb8 Si15 Ir1'
_cell_volume   927.59603724
_cell_formula_units_Z   1
loop_
 _symmetry_equiv_pos_site_id
 _symmetry_equiv_pos_as_xyz
  1  'x, y, z'
loop_
 _atom_site_type_symbol
 _atom_site_label
 _atom_site_symmetry_multiplicity
 _atom_site_fract_x
 _atom_site_fract_y
 _atom_site_fract_z
 _atom_site_occupancy
  La  La0  1  0.991740  0.634248  0.044526  1
  La  La1  1  0.015311  0.367793  0.538348  1
  La  La2  1  0.636863  0.988921  0.959326  1
  La  La3  1  0.139101  0.508562  0.793125  1
  La  La4  1  0.859110  0.488819  0.292781  1
  La  La5  1  0.504471  0.132997  0.205563  1
  La  La6  1  0.495619  0.865751  0.704851  1
  La  La7  1  0.363563  0.011393  0.459567  1
  La  La8  1  0.709179  0.686897  0.498565  1
  La  La9  1  0.818243  0.180763  0.748396  1
  La  La10  1  0.176800  0.806226  0.263442  1
  La  La11  1  0.310042  0.313288  0.999179  1
  Tb  Tb12  1  0.363040  0.490598  0.379435  1
  Tb  Tb13  1  0.858742  0.011265  0.370254  1
  Tb  Tb14  1  0.990886  0.135956  0.127016  1
  Tb  Tb15  1  0.019722  0.864924  0.623156  1
  Tb  Tb16  1  0.636065  0.509236  0.876999  1
  Tb  Tb17  1  0.495998  0.367704  0.623234  1
  Tb  Tb18  1  0.503064  0.633547  0.123840  1
  Tb  Tb19  1  0.134149  0.991692  0.874182  1
  Si  Si20  1  0.923611  0.289332  0.942286  1
  Si  Si21  1  0.707400  0.076874  0.556722  1
  Si  Si22  1  0.213260  0.424922  0.193576  1
  Si  Si23  1  0.793552  0.575752  0.694870  1
  Si  Si24  1  0.429287  0.210280  0.806139  1
  Si  Si25  1  0.569458  0.787669  0.306595  1
  Si  Si26  1  0.284106  0.926075  0.059435  1
  Si  Si27  1  0.848704  0.791885  0.813900  1
  Si  Si28  1  0.152686  0.210060  0.311964  1
  Si  Si29  1  0.784684  0.846490  0.185782  1
  Si  Si30  1  0.297014  0.655682  0.558563  1
  Si  Si31  1  0.705116  0.345751  0.060298  1
  Si  Si32  1  0.651265  0.290946  0.439121  1
  Si  Si33  1  0.343896  0.707003  0.939468  1
  Si  Si34  1  0.211822  0.155821  0.687700  1
  Ir  Ir35  1  0.062433  0.714884  0.437804  1
