# generated using pymatgen
data_Nd3Tl2InAg2Rh
_symmetry_space_group_name_H-M   'P 1'
_cell_length_a   8.03327976
_cell_length_b   7.98806226
_cell_length_c   4.01812200
_cell_angle_alpha   90.00000000
_cell_angle_beta   90.00000000
_cell_angle_gamma   119.78980636
_symmetry_Int_Tables_number   1
_chemical_formula_structural   Nd3Tl2InAg2Rh
_chemical_formula_sum   'Nd3 Tl2 In1 Ag2 Rh1'
_cell_volume   223.77112744
_cell_formula_units_Z   1
loop_
 _symmetry_equiv_pos_site_id
 _symmetry_equiv_pos_as_xyz
  1  'x, y, z'
loop_
 _atom_site_type_symbol
 _atom_site_label
 _atom_site_symmetry_multiplicity
 _atom_site_fract_x
 _atom_site_fract_y
 _atom_site_fract_z
 _atom_site_occupancy
  Nd  Nd0  1  0.603435  0.024878  0.500000  1
  Nd  Nd1  1  0.423829  0.397132  0.500000  1
  Nd  Nd2  1  0.973607  0.577855  0.500000  1
  Tl  Tl3  1  0.263871  0.999547  0.000000  1
  Tl  Tl4  1  0.733419  0.738202  0.000000  1
  In  In5  1  0.001500  0.263522  0.000000  1
  Ag  Ag6  1  0.000233  0.007441  0.500000  1
  Ag  Ag7  1  0.326484  0.659287  0.000000  1
  Rh  Rh8  1  0.673621  0.332136  0.000000  1
