# generated using pymatgen
data_BeSn5B(Ir2Rh)2
_symmetry_space_group_name_H-M   'P 1'
_cell_length_a   6.68483100
_cell_length_b   6.68856784
_cell_length_c   5.69487885
_cell_angle_alpha   89.96870550
_cell_angle_beta   90.06262400
_cell_angle_gamma   119.98152035
_symmetry_Int_Tables_number   1
_chemical_formula_structural   BeSn5B(Ir2Rh)2
_chemical_formula_sum   'Be1 Sn5 B1 Ir4 Rh2'
_cell_volume   220.55620061
_cell_formula_units_Z   1
loop_
 _symmetry_equiv_pos_site_id
 _symmetry_equiv_pos_as_xyz
  1  'x, y, z'
loop_
 _atom_site_type_symbol
 _atom_site_label
 _atom_site_symmetry_multiplicity
 _atom_site_fract_x
 _atom_site_fract_y
 _atom_site_fract_z
 _atom_site_occupancy
  Be  Be0  1  0.999732  0.000000  0.999802  1
  Sn  Sn1  1  0.395838  0.396542  0.002281  1
  Sn  Sn2  1  0.604746  0.000000  0.002541  1
  Sn  Sn3  1  0.999295  0.603458  0.002281  1
  Sn  Sn4  1  0.667666  0.334074  0.494896  1
  Sn  Sn5  1  0.333591  0.665926  0.494896  1
  B  B6  1  0.000851  0.000000  0.497284  1
  Ir  Ir7  1  0.260258  0.000000  0.739740  1
  Ir  Ir8  1  0.737948  0.738195  0.261693  1
  Ir  Ir9  1  0.999754  0.261805  0.261693  1
  Ir  Ir10  1  0.262125  0.000000  0.260891  1
  Rh  Rh11  1  0.738311  0.738424  0.741001  1
  Rh  Rh12  1  0.999887  0.261576  0.741001  1
