# generated using pymatgen
data_HfZr2BeN
_symmetry_space_group_name_H-M   'P 1'
_cell_length_a   5.86651643
_cell_length_b   5.86651675
_cell_length_c   8.55763500
_cell_angle_alpha   90.00000000
_cell_angle_beta   90.00000000
_cell_angle_gamma   147.06095867
_symmetry_Int_Tables_number   1
_chemical_formula_structural   HfZr2BeN
_chemical_formula_sum   'Hf2 Zr4 Be2 N2'
_cell_volume   160.14404453
_cell_formula_units_Z   2
loop_
 _symmetry_equiv_pos_site_id
 _symmetry_equiv_pos_as_xyz
  1  'x, y, z'
loop_
 _atom_site_type_symbol
 _atom_site_label
 _atom_site_symmetry_multiplicity
 _atom_site_fract_x
 _atom_site_fract_y
 _atom_site_fract_z
 _atom_site_occupancy
  Hf  Hf0  1  0.939968  0.060032  0.750000  1
  Hf  Hf1  1  0.060032  0.939968  0.250000  1
  Zr  Zr2  1  0.631204  0.368796  0.941673  1
  Zr  Zr3  1  0.368796  0.631204  0.441673  1
  Zr  Zr4  1  0.368796  0.631204  0.058327  1
  Zr  Zr5  1  0.631204  0.368796  0.558327  1
  Be  Be6  1  0.262806  0.737194  0.750000  1
  Be  Be7  1  0.737194  0.262806  0.250000  1
  N  N8  1  0.000000  0.000000  0.000000  1
  N  N9  1  0.000000  0.000000  0.500000  1
