# generated using pymatgen
data_TbEr2Co9(SiB2)2
_symmetry_space_group_name_H-M   'P 1'
_cell_length_a   5.11742700
_cell_length_b   5.11742694
_cell_length_c   9.34971400
_cell_angle_alpha   90.00000000
_cell_angle_beta   90.00000000
_cell_angle_gamma   119.99999394
_symmetry_Int_Tables_number   1
_chemical_formula_structural   TbEr2Co9(SiB2)2
_chemical_formula_sum   'Tb1 Er2 Co9 Si2 B4'
_cell_volume   212.04707766
_cell_formula_units_Z   1
loop_
 _symmetry_equiv_pos_site_id
 _symmetry_equiv_pos_as_xyz
  1  'x, y, z'
loop_
 _atom_site_type_symbol
 _atom_site_label
 _atom_site_symmetry_multiplicity
 _atom_site_fract_x
 _atom_site_fract_y
 _atom_site_fract_z
 _atom_site_occupancy
  Tb  Tb0  1  0.000000  0.000000  0.000000  1
  Er  Er1  1  0.000000  0.000000  0.661314  1
  Er  Er2  1  0.000000  0.000000  0.338686  1
  Co  Co3  1  0.500000  0.500000  0.500000  1
  Co  Co4  1  0.500000  0.000000  0.500000  1
  Co  Co5  1  0.000000  0.500000  0.500000  1
  Co  Co6  1  0.500000  0.500000  0.803190  1
  Co  Co7  1  0.500000  0.000000  0.803190  1
  Co  Co8  1  0.000000  0.500000  0.803190  1
  Co  Co9  1  0.500000  0.500000  0.196810  1
  Co  Co10  1  0.500000  0.000000  0.196810  1
  Co  Co11  1  0.000000  0.500000  0.196810  1
  Si  Si12  1  0.666667  0.333333  0.000000  1
  Si  Si13  1  0.333333  0.666667  0.000000  1
  B  B14  1  0.666667  0.333333  0.654301  1
  B  B15  1  0.333333  0.666667  0.654301  1
  B  B16  1  0.333333  0.666667  0.345699  1
  B  B17  1  0.666667  0.333333  0.345699  1
