# generated using pymatgen
data_Mg11Al5ZnPd7
_symmetry_space_group_name_H-M   'P 1'
_cell_length_a   8.45865778
_cell_length_b   8.42497276
_cell_length_c   8.45865920
_cell_angle_alpha   59.67419850
_cell_angle_beta   59.58973791
_cell_angle_gamma   59.67425378
_symmetry_Int_Tables_number   1
_chemical_formula_structural   Mg11Al5ZnPd7
_chemical_formula_sum   'Mg11 Al5 Zn1 Pd7'
_cell_volume   422.81365772
_cell_formula_units_Z   1
loop_
 _symmetry_equiv_pos_site_id
 _symmetry_equiv_pos_as_xyz
  1  'x, y, z'
loop_
 _atom_site_type_symbol
 _atom_site_label
 _atom_site_symmetry_multiplicity
 _atom_site_fract_x
 _atom_site_fract_y
 _atom_site_fract_z
 _atom_site_occupancy
  Mg  Mg0  1  0.197042  0.192001  0.807304  1
  Mg  Mg1  1  0.190576  0.807616  0.808723  1
  Mg  Mg2  1  0.057174  0.444171  0.057174  1
  Mg  Mg3  1  0.807304  0.192001  0.197043  1
  Mg  Mg4  1  0.058146  0.446050  0.438485  1
  Mg  Mg5  1  0.443101  0.057864  0.443100  1
  Mg  Mg6  1  0.438485  0.446050  0.058146  1
  Mg  Mg7  1  0.808723  0.807616  0.190576  1
  Mg  Mg8  1  0.440916  0.056919  0.056197  1
  Mg  Mg9  1  0.801804  0.194452  0.801803  1
  Mg  Mg10  1  0.056198  0.056919  0.440916  1
  Al  Al11  1  0.201546  0.798780  0.201547  1
  Al  Al12  1  0.617294  0.631485  0.617294  1
  Al  Al13  1  0.135495  0.627212  0.620910  1
  Al  Al14  1  0.620910  0.627212  0.135495  1
  Al  Al15  1  0.625344  0.120506  0.625344  1
  Zn  Zn16  1  0.830637  0.505489  0.830637  1
  Pd  Pd17  1  0.839419  0.830677  0.839419  1
  Pd  Pd18  1  0.481464  0.828041  0.850253  1
  Pd  Pd19  1  0.408693  0.771021  0.408693  1
  Pd  Pd20  1  0.850252  0.828041  0.481465  1
  Pd  Pd21  1  0.767098  0.409199  0.411978  1
  Pd  Pd22  1  0.410400  0.411479  0.410400  1
  Pd  Pd23  1  0.411978  0.409198  0.767098  1
