# generated using pymatgen
data_Ho2ZnSi13Ir6
_symmetry_space_group_name_H-M   'P 1'
_cell_length_a   7.99394546
_cell_length_b   7.99394522
_cell_length_c   7.99394556
_cell_angle_alpha   57.58254321
_cell_angle_beta   57.58254383
_cell_angle_gamma   57.58253336
_symmetry_Int_Tables_number   1
_chemical_formula_structural   Ho2ZnSi13Ir6
_chemical_formula_sum   'Ho2 Zn1 Si13 Ir6'
_cell_volume   341.14210212
_cell_formula_units_Z   1
loop_
 _symmetry_equiv_pos_site_id
 _symmetry_equiv_pos_as_xyz
  1  'x, y, z'
loop_
 _atom_site_type_symbol
 _atom_site_label
 _atom_site_symmetry_multiplicity
 _atom_site_fract_x
 _atom_site_fract_y
 _atom_site_fract_z
 _atom_site_occupancy
  Ho  Ho0  1  0.998692  0.998692  0.998692  1
  Ho  Ho1  1  0.501308  0.501308  0.501308  1
  Zn  Zn2  1  0.750000  0.750000  0.750000  1
  Si  Si3  1  0.250000  0.250000  0.250000  1
  Si  Si4  1  0.848307  0.061402  0.672078  1
  Si  Si5  1  0.672078  0.848307  0.061402  1
  Si  Si6  1  0.061402  0.672078  0.848307  1
  Si  Si7  1  0.651693  0.827922  0.438598  1
  Si  Si8  1  0.438598  0.651693  0.827922  1
  Si  Si9  1  0.827922  0.438598  0.651693  1
  Si  Si10  1  0.169549  0.559481  0.358499  1
  Si  Si11  1  0.559481  0.358499  0.169549  1
  Si  Si12  1  0.358499  0.169549  0.559481  1
  Si  Si13  1  0.940519  0.330451  0.141501  1
  Si  Si14  1  0.330451  0.141501  0.940519  1
  Si  Si15  1  0.141501  0.940519  0.330451  1
  Ir  Ir16  1  0.088755  0.411245  0.750000  1
  Ir  Ir17  1  0.250000  0.926952  0.573048  1
  Ir  Ir18  1  0.573048  0.250000  0.926952  1
  Ir  Ir19  1  0.926952  0.573048  0.250000  1
  Ir  Ir20  1  0.411245  0.750000  0.088755  1
  Ir  Ir21  1  0.750000  0.088755  0.411245  1
