# generated using pymatgen
data_La3TbTmSn2PbCl
_symmetry_space_group_name_H-M   'P 1'
_cell_length_a   9.48024800
_cell_length_b   9.48024921
_cell_length_c   6.73647900
_cell_angle_alpha   90.00000000
_cell_angle_beta   90.00000000
_cell_angle_gamma   119.99999578
_symmetry_Int_Tables_number   1
_chemical_formula_structural   La3TbTmSn2PbCl
_chemical_formula_sum   'La6 Tb2 Tm2 Sn4 Pb2 Cl2'
_cell_volume   524.32801506
_cell_formula_units_Z   2
loop_
 _symmetry_equiv_pos_site_id
 _symmetry_equiv_pos_as_xyz
  1  'x, y, z'
loop_
 _atom_site_type_symbol
 _atom_site_label
 _atom_site_symmetry_multiplicity
 _atom_site_fract_x
 _atom_site_fract_y
 _atom_site_fract_z
 _atom_site_occupancy
  La  La0  1  0.738068  0.000953  0.749974  1
  La  La1  1  0.737402  0.738243  0.250008  1
  La  La2  1  0.000033  0.261729  0.250049  1
  La  La3  1  0.000841  0.738243  0.749992  1
  La  La4  1  0.261696  0.261729  0.749951  1
  La  La5  1  0.262886  0.000953  0.250026  1
  Tb  Tb6  1  0.665779  0.331556  0.500000  1
  Tb  Tb7  1  0.333575  0.667151  0.000000  1
  Tm  Tm8  1  0.665826  0.331652  0.000000  1
  Tm  Tm9  1  0.333574  0.667149  0.500000  1
  Sn  Sn10  1  0.607372  0.999899  0.250025  1
  Sn  Sn11  1  0.392527  0.999899  0.749975  1
  Sn  Sn12  1  0.000284  0.392898  0.750402  1
  Sn  Sn13  1  0.392613  0.392898  0.249598  1
  Pb  Pb14  1  0.607795  0.607699  0.750008  1
  Pb  Pb15  1  0.999904  0.607699  0.249992  1
  Cl  Cl16  1  0.999903  0.999806  0.500000  1
  Cl  Cl17  1  0.999921  0.999842  0.000000  1
