# generated using pymatgen
data_Rb6MgTe4
_symmetry_space_group_name_H-M   'P 1'
_cell_length_a   11.47862500
_cell_length_b   11.47862488
_cell_length_c   8.85213200
_cell_angle_alpha   90.00000000
_cell_angle_beta   90.00000000
_cell_angle_gamma   119.99999747
_symmetry_Int_Tables_number   1
_chemical_formula_structural   Rb6MgTe4
_chemical_formula_sum   'Rb12 Mg2 Te8'
_cell_volume   1010.08577621
_cell_formula_units_Z   2
loop_
 _symmetry_equiv_pos_site_id
 _symmetry_equiv_pos_as_xyz
  1  'x, y, z'
loop_
 _atom_site_type_symbol
 _atom_site_label
 _atom_site_symmetry_multiplicity
 _atom_site_fract_x
 _atom_site_fract_y
 _atom_site_fract_z
 _atom_site_occupancy
  Rb  Rb0  1  0.147686  0.852314  0.545218  1
  Rb  Rb1  1  0.295373  0.147686  0.045218  1
  Rb  Rb2  1  0.852314  0.704627  0.045218  1
  Rb  Rb3  1  0.147686  0.295373  0.545218  1
  Rb  Rb4  1  0.704627  0.852314  0.545218  1
  Rb  Rb5  1  0.852314  0.147686  0.045218  1
  Rb  Rb6  1  0.526152  0.473848  0.364657  1
  Rb  Rb7  1  0.052303  0.526152  0.864657  1
  Rb  Rb8  1  0.473848  0.947697  0.864657  1
  Rb  Rb9  1  0.526152  0.052303  0.364657  1
  Rb  Rb10  1  0.947697  0.473848  0.364657  1
  Rb  Rb11  1  0.473848  0.526152  0.864657  1
  Mg  Mg12  1  0.333333  0.666667  0.249612  1
  Mg  Mg13  1  0.666667  0.333333  0.749612  1
  Te  Te14  1  0.333333  0.666667  0.574990  1
  Te  Te15  1  0.666667  0.333333  0.074990  1
  Te  Te16  1  0.195522  0.804478  0.149090  1
  Te  Te17  1  0.391042  0.195522  0.649090  1
  Te  Te18  1  0.804478  0.608958  0.649090  1
  Te  Te19  1  0.195522  0.391042  0.149090  1
  Te  Te20  1  0.608958  0.804478  0.149090  1
  Te  Te21  1  0.804478  0.195522  0.649090  1
