# generated using pymatgen
data_Rb2NaBS3
_symmetry_space_group_name_H-M   'P 1'
_cell_length_a   7.82648593
_cell_length_b   7.82648552
_cell_length_c   10.36654958
_cell_angle_alpha   58.11742693
_cell_angle_beta   58.11742974
_cell_angle_gamma   57.91280698
_symmetry_Int_Tables_number   1
_chemical_formula_structural   Rb2NaBS3
_chemical_formula_sum   'Rb4 Na2 B2 S6'
_cell_volume   428.91573967
_cell_formula_units_Z   2
loop_
 _symmetry_equiv_pos_site_id
 _symmetry_equiv_pos_as_xyz
  1  'x, y, z'
loop_
 _atom_site_type_symbol
 _atom_site_label
 _atom_site_symmetry_multiplicity
 _atom_site_fract_x
 _atom_site_fract_y
 _atom_site_fract_z
 _atom_site_occupancy
  Rb  Rb0  1  0.373397  0.816983  0.986934  1
  Rb  Rb1  1  0.816983  0.373397  0.486934  1
  Rb  Rb2  1  0.626603  0.183017  0.013066  1
  Rb  Rb3  1  0.183017  0.626603  0.513066  1
  Na  Na4  1  0.000000  0.500000  0.000000  1
  Na  Na5  1  0.500000  0.000000  0.500000  1
  B  B6  1  0.899175  0.100825  0.250000  1
  B  B7  1  0.100825  0.899175  0.750000  1
  S  S8  1  0.110038  0.149369  0.717890  1
  S  S9  1  0.850631  0.889962  0.782110  1
  S  S10  1  0.889962  0.850631  0.282110  1
  S  S11  1  0.149369  0.110038  0.217890  1
  S  S12  1  0.345554  0.654446  0.750000  1
  S  S13  1  0.654446  0.345554  0.250000  1
