# generated using pymatgen
data_Ho2Al20Fe3Rh
_symmetry_space_group_name_H-M   'P 1'
_cell_length_a   6.79999236
_cell_length_b   6.79194186
_cell_length_c   9.03854009
_cell_angle_alpha   90.18907503
_cell_angle_beta   89.98992003
_cell_angle_gamma   97.02028010
_symmetry_Int_Tables_number   1
_chemical_formula_structural   Ho2Al20Fe3Rh
_chemical_formula_sum   'Ho2 Al20 Fe3 Rh1'
_cell_volume   414.31447286
_cell_formula_units_Z   1
loop_
 _symmetry_equiv_pos_site_id
 _symmetry_equiv_pos_as_xyz
  1  'x, y, z'
loop_
 _atom_site_type_symbol
 _atom_site_label
 _atom_site_symmetry_multiplicity
 _atom_site_fract_x
 _atom_site_fract_y
 _atom_site_fract_z
 _atom_site_occupancy
  Ho  Ho0  1  0.874446  0.128041  0.748178  1
  Ho  Ho1  1  0.125554  0.871959  0.251822  1
  Al  Al2  1  0.413996  0.139975  0.745162  1
  Al  Al3  1  0.137201  0.416160  0.251099  1
  Al  Al4  1  0.586004  0.860025  0.254838  1
  Al  Al5  1  0.862799  0.583840  0.748901  1
  Al  Al6  1  0.520453  0.778452  0.744329  1
  Al  Al7  1  0.781415  0.519596  0.250907  1
  Al  Al8  1  0.479547  0.221548  0.255671  1
  Al  Al9  1  0.218585  0.480404  0.749093  1
  Al  Al10  1  0.843149  0.156569  0.402794  1
  Al  Al11  1  0.156851  0.843431  0.597206  1
  Al  Al12  1  0.848215  0.160702  0.100134  1
  Al  Al13  1  0.151785  0.839298  0.899866  1
  Al  Al14  1  0.628283  0.380026  0.950388  1
  Al  Al15  1  0.371717  0.619974  0.049612  1
  Al  Al16  1  0.626268  0.375182  0.547244  1
  Al  Al17  1  0.373732  0.624818  0.452756  1
  Al  Al18  1  0.776817  0.768059  0.002643  1
  Al  Al19  1  0.773553  0.771873  0.500773  1
  Al  Al20  1  0.223183  0.231940  0.997357  1
  Al  Al21  1  0.226447  0.228126  0.499227  1
  Fe  Fe22  1  0.000000  0.500000  0.000000  1
  Fe  Fe23  1  0.500000  0.000000  0.500000  1
  Fe  Fe24  1  0.000000  0.500000  0.500000  1
  Rh  Rh25  1  0.500000  0.000000  0.000000  1
