# generated using pymatgen
data_Pr7(DyIn4)5
_symmetry_space_group_name_H-M   'P 1'
_cell_length_a   6.69922419
_cell_length_b   10.45638860
_cell_length_c   12.46627000
_cell_angle_alpha   90.13291087
_cell_angle_beta   90.14066474
_cell_angle_gamma   90.11578403
_symmetry_Int_Tables_number   1
_chemical_formula_structural   Pr7(DyIn4)5
_chemical_formula_sum   'Pr7 Dy5 In20'
_cell_volume   873.25159291
_cell_formula_units_Z   1
loop_
 _symmetry_equiv_pos_site_id
 _symmetry_equiv_pos_as_xyz
  1  'x, y, z'
loop_
 _atom_site_type_symbol
 _atom_site_label
 _atom_site_symmetry_multiplicity
 _atom_site_fract_x
 _atom_site_fract_y
 _atom_site_fract_z
 _atom_site_occupancy
  Pr  Pr0  1  0.887562  0.488581  0.145027  1
  Pr  Pr1  1  0.614024  0.011763  0.645790  1
  Pr  Pr2  1  0.112288  0.988731  0.853671  1
  Pr  Pr3  1  0.385773  0.511739  0.355829  1
  Pr  Pr4  1  0.112822  0.511058  0.855244  1
  Pr  Pr5  1  0.387177  0.988887  0.355598  1
  Pr  Pr6  1  0.886107  0.010011  0.145378  1
  Dy  Dy7  1  0.352630  0.749240  0.062533  1
  Dy  Dy8  1  0.149314  0.753149  0.562873  1
  Dy  Dy9  1  0.647553  0.248519  0.937329  1
  Dy  Dy10  1  0.853665  0.250306  0.437846  1
  Dy  Dy11  1  0.611963  0.488254  0.644168  1
  In  In12  1  0.612827  0.746926  0.509446  1
  In  In13  1  0.886522  0.748631  0.004147  1
  In  In14  1  0.391919  0.252290  0.495161  1
  In  In15  1  0.112039  0.249449  0.994838  1
  In  In16  1  0.655230  0.749397  0.246759  1
  In  In17  1  0.841885  0.745947  0.743548  1
  In  In18  1  0.345095  0.252725  0.753274  1
  In  In19  1  0.155960  0.249570  0.254046  1
  In  In20  1  0.106020  0.750016  0.284800  1
  In  In21  1  0.392504  0.749395  0.784666  1
  In  In22  1  0.889150  0.255106  0.714184  1
  In  In23  1  0.607523  0.249882  0.215339  1
  In  In24  1  0.870971  0.545763  0.407367  1
  In  In25  1  0.627910  0.952219  0.906222  1
  In  In26  1  0.129185  0.050478  0.593972  1
  In  In27  1  0.373951  0.453014  0.093528  1
  In  In28  1  0.131499  0.456348  0.595049  1
  In  In29  1  0.371561  0.046135  0.093832  1
  In  In30  1  0.870924  0.952585  0.407008  1
  In  In31  1  0.626447  0.543886  0.901524  1
