# generated using pymatgen
data_Tb14Y3Ho3(CoBi2)4
_symmetry_space_group_name_H-M   'P 1'
_cell_length_a   8.09041610
_cell_length_b   8.90608204
_cell_length_c   12.45722730
_cell_angle_alpha   90.05699296
_cell_angle_beta   89.99029024
_cell_angle_gamma   89.98334169
_symmetry_Int_Tables_number   1
_chemical_formula_structural   Tb14Y3Ho3(CoBi2)4
_chemical_formula_sum   'Tb14 Y3 Ho3 Co4 Bi8'
_cell_volume   897.59143349
_cell_formula_units_Z   1
loop_
 _symmetry_equiv_pos_site_id
 _symmetry_equiv_pos_as_xyz
  1  'x, y, z'
loop_
 _atom_site_type_symbol
 _atom_site_label
 _atom_site_symmetry_multiplicity
 _atom_site_fract_x
 _atom_site_fract_y
 _atom_site_fract_z
 _atom_site_occupancy
  Tb  Tb0  1  0.347700  0.750160  0.699290  1
  Tb  Tb1  1  0.652465  0.249953  0.300606  1
  Tb  Tb2  1  0.847958  0.249561  0.801095  1
  Tb  Tb3  1  0.152085  0.750435  0.198900  1
  Tb  Tb4  1  0.882766  0.750742  0.810100  1
  Tb  Tb5  1  0.117241  0.249268  0.189640  1
  Tb  Tb6  1  0.383473  0.249912  0.690394  1
  Tb  Tb7  1  0.618129  0.750119  0.309610  1
  Tb  Tb8  1  0.676616  0.536248  0.563291  1
  Tb  Tb9  1  0.323658  0.464538  0.437185  1
  Tb  Tb10  1  0.176300  0.464340  0.936998  1
  Tb  Tb11  1  0.323705  0.035705  0.437009  1
  Tb  Tb12  1  0.823809  0.535677  0.062901  1
  Tb  Tb13  1  0.047504  0.750473  0.498068  1
  Y  Y14  1  0.950180  0.249329  0.502279  1
  Y  Y15  1  0.548521  0.248938  0.002233  1
  Y  Y16  1  0.451309  0.751139  0.997688  1
  Ho  Ho17  1  0.674390  0.963426  0.562863  1
  Ho  Ho18  1  0.825974  0.963842  0.062820  1
  Ho  Ho19  1  0.174114  0.036330  0.937041  1
  Co  Co20  1  0.061579  0.751247  0.991923  1
  Co  Co21  1  0.938478  0.248828  0.008042  1
  Co  Co22  1  0.562943  0.249432  0.508500  1
  Co  Co23  1  0.438374  0.750606  0.491637  1
  Bi  Bi24  1  0.572889  0.508891  0.827235  1
  Bi  Bi25  1  0.427436  0.491276  0.173001  1
  Bi  Bi26  1  0.072875  0.490809  0.673461  1
  Bi  Bi27  1  0.428492  0.008644  0.173312  1
  Bi  Bi28  1  0.927518  0.508330  0.326581  1
  Bi  Bi29  1  0.572005  0.991211  0.826549  1
  Bi  Bi30  1  0.927055  0.991482  0.326193  1
  Bi  Bi31  1  0.072462  0.009107  0.673556  1
