# generated using pymatgen
data_Y2NiOs3
_symmetry_space_group_name_H-M   'P 1'
_cell_length_a   5.36719943
_cell_length_b   5.36719935
_cell_length_c   5.36719995
_cell_angle_alpha   58.98570630
_cell_angle_beta   58.98570817
_cell_angle_gamma   58.98571368
_symmetry_Int_Tables_number   1
_chemical_formula_structural   Y2NiOs3
_chemical_formula_sum   'Y2 Ni1 Os3'
_cell_volume   106.79754876
_cell_formula_units_Z   1
loop_
 _symmetry_equiv_pos_site_id
 _symmetry_equiv_pos_as_xyz
  1  'x, y, z'
loop_
 _atom_site_type_symbol
 _atom_site_label
 _atom_site_symmetry_multiplicity
 _atom_site_fract_x
 _atom_site_fract_y
 _atom_site_fract_z
 _atom_site_occupancy
  Y  Y0  1  0.123000  0.123000  0.123000  1
  Y  Y1  1  0.877000  0.877000  0.877000  1
  Ni  Ni2  1  0.500000  0.500000  0.500000  1
  Os  Os3  1  0.500000  0.000000  0.500000  1
  Os  Os4  1  0.000000  0.500000  0.500000  1
  Os  Os5  1  0.500000  0.500000  0.000000  1
