# generated using pymatgen
data_Tb3UN4
_symmetry_space_group_name_H-M   'P 1'
_cell_length_a   6.96258217
_cell_length_b   9.19521260
_cell_length_c   6.00619563
_cell_angle_alpha   29.23439165
_cell_angle_beta   54.57642493
_cell_angle_gamma   40.78234865
_symmetry_Int_Tables_number   1
_chemical_formula_structural   Tb3UN4
_chemical_formula_sum   'Tb3 U1 N4'
_cell_volume   118.63389508
_cell_formula_units_Z   1
loop_
 _symmetry_equiv_pos_site_id
 _symmetry_equiv_pos_as_xyz
  1  'x, y, z'
loop_
 _atom_site_type_symbol
 _atom_site_label
 _atom_site_symmetry_multiplicity
 _atom_site_fract_x
 _atom_site_fract_y
 _atom_site_fract_z
 _atom_site_occupancy
  Tb  Tb0  1  0.250000  0.500000  0.000000  1
  Tb  Tb1  1  0.750000  0.500000  0.000000  1
  Tb  Tb2  1  0.500000  0.000000  0.000000  1
  U  U3  1  0.000000  0.000000  0.000000  1
  N  N4  1  0.500000  0.500000  0.500000  1
  N  N5  1  0.229098  0.000000  0.541802  1
  N  N6  1  0.000000  0.500000  0.500000  1
  N  N7  1  0.770902  0.000000  0.458198  1
