# generated using pymatgen
data_Li3Dy2Ni9P7
_symmetry_space_group_name_H-M   'P 1'
_cell_length_a   3.72003700
_cell_length_b   9.12718642
_cell_length_c   9.12718500
_cell_angle_alpha   119.99999124
_cell_angle_beta   90.00000000
_cell_angle_gamma   90.00000000
_symmetry_Int_Tables_number   1
_chemical_formula_structural   Li3Dy2Ni9P7
_chemical_formula_sum   'Li3 Dy2 Ni9 P7'
_cell_volume   268.38096102
_cell_formula_units_Z   1
loop_
 _symmetry_equiv_pos_site_id
 _symmetry_equiv_pos_as_xyz
  1  'x, y, z'
loop_
 _atom_site_type_symbol
 _atom_site_label
 _atom_site_symmetry_multiplicity
 _atom_site_fract_x
 _atom_site_fract_y
 _atom_site_fract_z
 _atom_site_occupancy
  Li  Li0  1  0.500000  0.787594  0.894403  1
  Li  Li1  1  0.500000  0.106809  0.212406  1
  Li  Li2  1  0.500000  0.105597  0.893191  1
  Dy  Dy3  1  0.000000  0.666667  0.333333  1
  Dy  Dy4  1  0.500000  0.333333  0.666667  1
  Ni  Ni5  1  0.000000  0.570806  0.940875  1
  Ni  Ni6  1  0.000000  0.370068  0.429194  1
  Ni  Ni7  1  0.000000  0.059125  0.629932  1
  Ni  Ni8  1  0.000000  0.878050  0.159538  1
  Ni  Ni9  1  0.000000  0.281488  0.121950  1
  Ni  Ni10  1  0.000000  0.840462  0.718512  1
  Ni  Ni11  1  0.500000  0.953468  0.391864  1
  Ni  Ni12  1  0.500000  0.438396  0.046532  1
  Ni  Ni13  1  0.500000  0.608136  0.561604  1
  P  P14  1  0.500000  0.712804  0.120032  1
  P  P15  1  0.500000  0.407229  0.287196  1
  P  P16  1  0.500000  0.879968  0.592771  1
  P  P17  1  0.000000  0.000000  0.000000  1
  P  P18  1  0.000000  0.587632  0.697643  1
  P  P19  1  0.000000  0.110009  0.412368  1
  P  P20  1  0.000000  0.302357  0.889991  1
