# generated using pymatgen
data_Ti10CuSn2Sb5
_symmetry_space_group_name_H-M   'P 1'
_cell_length_a   5.57451285
_cell_length_b   8.31501187
_cell_length_c   8.29373312
_cell_angle_alpha   120.08490883
_cell_angle_beta   90.03521680
_cell_angle_gamma   89.92974615
_symmetry_Int_Tables_number   1
_chemical_formula_structural   Ti10CuSn2Sb5
_chemical_formula_sum   'Ti10 Cu1 Sn2 Sb5'
_cell_volume   332.64265507
_cell_formula_units_Z   1
loop_
 _symmetry_equiv_pos_site_id
 _symmetry_equiv_pos_as_xyz
  1  'x, y, z'
loop_
 _atom_site_type_symbol
 _atom_site_label
 _atom_site_symmetry_multiplicity
 _atom_site_fract_x
 _atom_site_fract_y
 _atom_site_fract_z
 _atom_site_occupancy
  Ti  Ti0  1  0.498951  0.333204  0.667503  1
  Ti  Ti1  1  0.498951  0.665701  0.332497  1
  Ti  Ti2  1  0.000513  0.665204  0.331428  1
  Ti  Ti3  1  0.000513  0.333776  0.668572  1
  Ti  Ti4  1  0.739094  0.275088  0.000000  1
  Ti  Ti5  1  0.736826  0.726260  0.725485  1
  Ti  Ti6  1  0.736826  0.000775  0.274515  1
  Ti  Ti7  1  0.262378  0.721134  0.000000  1
  Ti  Ti8  1  0.263633  0.277117  0.276018  1
  Ti  Ti9  1  0.263633  0.001099  0.723982  1
  Cu  Cu10  1  0.496967  0.998493  0.000000  1
  Sn  Sn11  1  0.247562  0.615871  0.615795  1
  Sn  Sn12  1  0.247562  0.000075  0.384205  1
  Sb  Sb13  1  0.750384  0.613587  0.000000  1
  Sb  Sb14  1  0.751810  0.388986  0.389779  1
  Sb  Sb15  1  0.751810  0.999206  0.610221  1
  Sb  Sb16  1  0.249822  0.385707  0.000000  1
  Sb  Sb17  1  0.002768  0.998716  0.000000  1
