# generated using pymatgen
data_Eu9Ho(Si2Hg)2
_symmetry_space_group_name_H-M   'P 1'
_cell_length_a   9.66684580
_cell_length_b   9.66684491
_cell_length_c   9.66684600
_cell_angle_alpha   131.78090516
_cell_angle_beta   131.78090045
_cell_angle_gamma   70.57528175
_symmetry_Int_Tables_number   1
_chemical_formula_structural   Eu9Ho(Si2Hg)2
_chemical_formula_sum   'Eu9 Ho1 Si4 Hg2'
_cell_volume   492.14277728
_cell_formula_units_Z   1
loop_
 _symmetry_equiv_pos_site_id
 _symmetry_equiv_pos_as_xyz
  1  'x, y, z'
loop_
 _atom_site_type_symbol
 _atom_site_label
 _atom_site_symmetry_multiplicity
 _atom_site_fract_x
 _atom_site_fract_y
 _atom_site_fract_z
 _atom_site_occupancy
  Eu  Eu0  1  0.534263  0.037094  0.847421  1
  Eu  Eu1  1  0.189672  0.686849  0.152623  1
  Eu  Eu2  1  0.037017  0.189584  0.502760  1
  Eu  Eu3  1  0.686862  0.534237  0.497232  1
  Eu  Eu4  1  0.465737  0.962906  0.152579  1
  Eu  Eu5  1  0.810328  0.313151  0.847377  1
  Eu  Eu6  1  0.962983  0.810416  0.497240  1
  Eu  Eu7  1  0.313138  0.465763  0.502768  1
  Eu  Eu8  1  0.000000  0.000000  0.000000  1
  Ho  Ho9  1  0.500000  0.500000  0.000000  1
  Si  Si10  1  0.880360  0.394385  0.274784  1
  Si  Si11  1  0.119640  0.605615  0.725216  1
  Si  Si12  1  0.394324  0.119544  0.513861  1
  Si  Si13  1  0.605676  0.880456  0.486139  1
  Hg  Hg14  1  0.250394  0.250437  0.000004  1
  Hg  Hg15  1  0.749606  0.749563  0.999996  1
