# generated using pymatgen
data_LaPr3YIr2
_symmetry_space_group_name_H-M   'P 1'
_cell_length_a   6.72489938
_cell_length_b   7.28734201
_cell_length_c   9.05772757
_cell_angle_alpha   95.96381092
_cell_angle_beta   111.79115728
_cell_angle_gamma   89.99999714
_symmetry_Int_Tables_number   1
_chemical_formula_structural   LaPr3YIr2
_chemical_formula_sum   'La2 Pr6 Y2 Ir4'
_cell_volume   409.58144715
_cell_formula_units_Z   2
loop_
 _symmetry_equiv_pos_site_id
 _symmetry_equiv_pos_as_xyz
  1  'x, y, z'
loop_
 _atom_site_type_symbol
 _atom_site_label
 _atom_site_symmetry_multiplicity
 _atom_site_fract_x
 _atom_site_fract_y
 _atom_site_fract_z
 _atom_site_occupancy
  La  La0  1  0.980745  0.918353  0.183761  1
  La  La1  1  0.796983  0.581647  0.816239  1
  Pr  Pr2  1  0.024004  0.077920  0.817673  1
  Pr  Pr3  1  0.206331  0.422080  0.182327  1
  Pr  Pr4  1  0.644879  0.812680  0.430313  1
  Pr  Pr5  1  0.214566  0.687320  0.569687  1
  Pr  Pr6  1  0.352774  0.187174  0.570941  1
  Pr  Pr7  1  0.781834  0.312826  0.429059  1
  Y  Y8  1  0.436596  0.750000  0.000000  1
  Y  Y9  1  0.561746  0.250000  0.000000  1
  Ir  Ir10  1  0.814193  0.574627  0.212122  1
  Ir  Ir11  1  0.602071  0.925373  0.787878  1
  Ir  Ir12  1  0.185616  0.429785  0.787953  1
  Ir  Ir13  1  0.397663  0.070215  0.212047  1
