# generated using pymatgen
data_TbEu3Ti4(Co4P3)4
_symmetry_space_group_name_H-M   'P 1'
_cell_length_a   3.67918100
_cell_length_b   10.58249357
_cell_length_c   12.08231944
_cell_angle_alpha   89.83284843
_cell_angle_beta   90.00000000
_cell_angle_gamma   90.00000000
_symmetry_Int_Tables_number   1
_chemical_formula_structural   TbEu3Ti4(Co4P3)4
_chemical_formula_sum   'Tb1 Eu3 Ti4 Co16 P12'
_cell_volume   470.42200930
_cell_formula_units_Z   1
loop_
 _symmetry_equiv_pos_site_id
 _symmetry_equiv_pos_as_xyz
  1  'x, y, z'
loop_
 _atom_site_type_symbol
 _atom_site_label
 _atom_site_symmetry_multiplicity
 _atom_site_fract_x
 _atom_site_fract_y
 _atom_site_fract_z
 _atom_site_occupancy
  Tb  Tb0  1  0.750000  0.081457  0.794114  1
  Eu  Eu1  1  0.250000  0.581788  0.705237  1
  Eu  Eu2  1  0.250000  0.918285  0.204715  1
  Eu  Eu3  1  0.750000  0.418098  0.295107  1
  Ti  Ti4  1  0.250000  0.700613  0.989459  1
  Ti  Ti5  1  0.250000  0.799589  0.491105  1
  Ti  Ti6  1  0.750000  0.299637  0.009185  1
  Ti  Ti7  1  0.750000  0.200379  0.510269  1
  Co  Co8  1  0.250000  0.406091  0.492420  1
  Co  Co9  1  0.250000  0.095486  0.987174  1
  Co  Co10  1  0.750000  0.593311  0.509029  1
  Co  Co11  1  0.750000  0.908872  0.007192  1
  Co  Co12  1  0.250000  0.218427  0.172374  1
  Co  Co13  1  0.250000  0.277083  0.674779  1
  Co  Co14  1  0.750000  0.781508  0.826544  1
  Co  Co15  1  0.750000  0.719482  0.326951  1
  Co  Co16  1  0.250000  0.885382  0.700819  1
  Co  Co17  1  0.250000  0.617860  0.198992  1
  Co  Co18  1  0.750000  0.117789  0.301225  1
  Co  Co19  1  0.750000  0.380337  0.800633  1
  Co  Co20  1  0.250000  0.463114  0.933984  1
  Co  Co21  1  0.250000  0.035930  0.435302  1
  Co  Co22  1  0.750000  0.535992  0.065101  1
  Co  Co23  1  0.750000  0.964452  0.566972  1
  P  P24  1  0.250000  0.422380  0.114513  1
  P  P25  1  0.250000  0.077341  0.615560  1
  P  P26  1  0.750000  0.577304  0.884896  1
  P  P27  1  0.750000  0.922409  0.385760  1
  P  P28  1  0.250000  0.270407  0.861310  1
  P  P29  1  0.250000  0.227031  0.360521  1
  P  P30  1  0.750000  0.727552  0.138921  1
  P  P31  1  0.750000  0.772561  0.639832  1
  P  P32  1  0.250000  0.595698  0.391796  1
  P  P33  1  0.250000  0.906344  0.891196  1
  P  P34  1  0.750000  0.404458  0.608868  1
  P  P35  1  0.750000  0.095552  0.108143  1
