# generated using pymatgen
data_YbEr3Al13Au9
_symmetry_space_group_name_H-M   'P 1'
_cell_length_a   11.78572200
_cell_length_b   11.78572093
_cell_length_c   4.17372700
_cell_angle_alpha   90.00000000
_cell_angle_beta   90.00000000
_cell_angle_gamma   119.99999738
_symmetry_Int_Tables_number   1
_chemical_formula_structural   YbEr3Al13Au9
_chemical_formula_sum   'Yb1 Er3 Al13 Au9'
_cell_volume   502.07318654
_cell_formula_units_Z   1
loop_
 _symmetry_equiv_pos_site_id
 _symmetry_equiv_pos_as_xyz
  1  'x, y, z'
loop_
 _atom_site_type_symbol
 _atom_site_label
 _atom_site_symmetry_multiplicity
 _atom_site_fract_x
 _atom_site_fract_y
 _atom_site_fract_z
 _atom_site_occupancy
  Yb  Yb0  1  0.666667  0.333333  0.000000  1
  Er  Er1  1  0.205678  0.794322  0.500000  1
  Er  Er2  1  0.588644  0.794322  0.500000  1
  Er  Er3  1  0.205678  0.411356  0.500000  1
  Al  Al4  1  0.949045  0.293770  0.000000  1
  Al  Al5  1  0.706230  0.655274  0.000000  1
  Al  Al6  1  0.949045  0.655274  0.000000  1
  Al  Al7  1  0.344726  0.050955  0.000000  1
  Al  Al8  1  0.168749  0.084375  0.500000  1
  Al  Al9  1  0.915625  0.831251  0.500000  1
  Al  Al10  1  0.706230  0.050955  0.000000  1
  Al  Al11  1  0.532112  0.064222  0.500000  1
  Al  Al12  1  0.915625  0.084375  0.500000  1
  Al  Al13  1  0.344726  0.293770  0.000000  1
  Al  Al14  1  0.532112  0.467888  0.500000  1
  Al  Al15  1  0.935778  0.467888  0.500000  1
  Al  Al16  1  0.333333  0.666667  0.000000  1
  Au  Au17  1  0.454850  0.545150  0.000000  1
  Au  Au18  1  0.821090  0.910545  0.000000  1
  Au  Au19  1  0.454850  0.909699  0.000000  1
  Au  Au20  1  0.089455  0.178910  0.000000  1
  Au  Au21  1  0.089455  0.910545  0.000000  1
  Au  Au22  1  0.787197  0.574393  0.500000  1
  Au  Au23  1  0.090301  0.545150  0.000000  1
  Au  Au24  1  0.787197  0.212803  0.500000  1
  Au  Au25  1  0.425607  0.212803  0.500000  1
