# generated using pymatgen
data_Nb12AlSi2Pt5N4
_symmetry_space_group_name_H-M   'P 1'
_cell_length_a   7.03911708
_cell_length_b   7.03392334
_cell_length_c   7.04076332
_cell_angle_alpha   90.16269329
_cell_angle_beta   89.71724925
_cell_angle_gamma   89.73040216
_symmetry_Int_Tables_number   1
_chemical_formula_structural   Nb12AlSi2Pt5N4
_chemical_formula_sum   'Nb12 Al1 Si2 Pt5 N4'
_cell_volume   348.59703528
_cell_formula_units_Z   1
loop_
 _symmetry_equiv_pos_site_id
 _symmetry_equiv_pos_as_xyz
  1  'x, y, z'
loop_
 _atom_site_type_symbol
 _atom_site_label
 _atom_site_symmetry_multiplicity
 _atom_site_fract_x
 _atom_site_fract_y
 _atom_site_fract_z
 _atom_site_occupancy
  Nb  Nb0  1  0.787964  0.955498  0.377039  1
  Nb  Nb1  1  0.709498  0.049548  0.882186  1
  Nb  Nb2  1  0.213920  0.453983  0.124045  1
  Nb  Nb3  1  0.295084  0.543335  0.627537  1
  Nb  Nb4  1  0.950188  0.382847  0.789399  1
  Nb  Nb5  1  0.043991  0.876644  0.709487  1
  Nb  Nb6  1  0.457673  0.127376  0.205934  1
  Nb  Nb7  1  0.547321  0.624452  0.287726  1
  Nb  Nb8  1  0.376607  0.787342  0.951958  1
  Nb  Nb9  1  0.872210  0.703648  0.042833  1
  Nb  Nb10  1  0.121884  0.212663  0.456628  1
  Nb  Nb11  1  0.617031  0.289252  0.549821  1
  Al  Al12  1  0.073235  0.067554  0.072997  1
  Si  Si13  1  0.426956  0.926003  0.567105  1
  Si  Si14  1  0.932540  0.572915  0.426245  1
  Pt  Pt15  1  0.178836  0.820247  0.325257  1
  Pt  Pt16  1  0.313032  0.166037  0.813415  1
  Pt  Pt17  1  0.831943  0.318855  0.190923  1
  Pt  Pt18  1  0.683876  0.688894  0.665933  1
  Pt  Pt19  1  0.567324  0.432027  0.932480  1
  N  N20  1  0.872360  0.126609  0.627747  1
  N  N21  1  0.622759  0.873784  0.121808  1
  N  N22  1  0.125847  0.622897  0.877131  1
  N  N23  1  0.377921  0.377589  0.374365  1
