# generated using pymatgen
data_SrLi3Eu2Au3
_symmetry_space_group_name_H-M   'P 1'
_cell_length_a   7.72634000
_cell_length_b   7.72634048
_cell_length_c   4.38696400
_cell_angle_alpha   90.00000000
_cell_angle_beta   90.00000000
_cell_angle_gamma   119.94219843
_symmetry_Int_Tables_number   1
_chemical_formula_structural   SrLi3Eu2Au3
_chemical_formula_sum   'Sr1 Li3 Eu2 Au3'
_cell_volume   226.93162293
_cell_formula_units_Z   1
loop_
 _symmetry_equiv_pos_site_id
 _symmetry_equiv_pos_as_xyz
  1  'x, y, z'
loop_
 _atom_site_type_symbol
 _atom_site_label
 _atom_site_symmetry_multiplicity
 _atom_site_fract_x
 _atom_site_fract_y
 _atom_site_fract_z
 _atom_site_occupancy
  Sr  Sr0  1  0.411885  0.411885  0.000000  1
  Li  Li1  1  0.230771  0.997254  0.500000  1
  Li  Li2  1  0.997254  0.230771  0.500000  1
  Li  Li3  1  0.769787  0.769787  0.500000  1
  Eu  Eu4  1  0.589059  0.000883  0.000000  1
  Eu  Eu5  1  0.000883  0.589059  0.000000  1
  Au  Au6  1  0.332125  0.675265  0.500000  1
  Au  Au7  1  0.675265  0.332125  0.500000  1
  Au  Au8  1  0.992971  0.992971  0.000000  1
