# generated using pymatgen
data_Sr4LiFe4PtN6
_symmetry_space_group_name_H-M   'P 1'
_cell_length_a   6.54065072
_cell_length_b   6.54065048
_cell_length_c   6.47027804
_cell_angle_alpha   89.50614031
_cell_angle_beta   89.50614272
_cell_angle_gamma   118.13071166
_symmetry_Int_Tables_number   1
_chemical_formula_structural   Sr4LiFe4PtN6
_chemical_formula_sum   'Sr4 Li1 Fe4 Pt1 N6'
_cell_volume   244.06778337
_cell_formula_units_Z   1
loop_
 _symmetry_equiv_pos_site_id
 _symmetry_equiv_pos_as_xyz
  1  'x, y, z'
loop_
 _atom_site_type_symbol
 _atom_site_label
 _atom_site_symmetry_multiplicity
 _atom_site_fract_x
 _atom_site_fract_y
 _atom_site_fract_z
 _atom_site_occupancy
  Sr  Sr0  1  0.826368  0.681085  0.900052  1
  Sr  Sr1  1  0.318915  0.173632  0.599948  1
  Sr  Sr2  1  0.175658  0.324573  0.107246  1
  Sr  Sr3  1  0.675427  0.824342  0.392754  1
  Li  Li4  1  0.809383  0.190617  0.750000  1
  Fe  Fe5  1  0.573250  0.166585  0.102268  1
  Fe  Fe6  1  0.433524  0.833745  0.898870  1
  Fe  Fe7  1  0.833415  0.426750  0.397732  1
  Fe  Fe8  1  0.166255  0.566476  0.601130  1
  Pt  Pt9  1  0.187701  0.812299  0.250000  1
  N  N10  1  0.410307  0.589693  0.750000  1
  N  N11  1  0.587593  0.412407  0.250000  1
  N  N12  1  0.996227  0.715606  0.521818  1
  N  N13  1  0.724403  0.002820  0.007788  1
  N  N14  1  0.997180  0.275597  0.492212  1
  N  N15  1  0.284394  0.003773  0.978182  1
