# generated using pymatgen
data_Hf16Ta3Ni4Ru
_symmetry_space_group_name_H-M   'P 1'
_cell_length_a   8.70467249
_cell_length_b   8.70467054
_cell_length_c   8.70467200
_cell_angle_alpha   60.52805243
_cell_angle_beta   60.52805213
_cell_angle_gamma   60.52806171
_symmetry_Int_Tables_number   1
_chemical_formula_structural   Hf16Ta3Ni4Ru
_chemical_formula_sum   'Hf16 Ta3 Ni4 Ru1'
_cell_volume   471.94722177
_cell_formula_units_Z   1
loop_
 _symmetry_equiv_pos_site_id
 _symmetry_equiv_pos_as_xyz
  1  'x, y, z'
loop_
 _atom_site_type_symbol
 _atom_site_label
 _atom_site_symmetry_multiplicity
 _atom_site_fract_x
 _atom_site_fract_y
 _atom_site_fract_z
 _atom_site_occupancy
  Hf  Hf0  1  0.693603  0.102578  0.102578  1
  Hf  Hf1  1  0.102578  0.693603  0.102578  1
  Hf  Hf2  1  0.102578  0.102578  0.693603  1
  Hf  Hf3  1  0.102007  0.102007  0.102007  1
  Hf  Hf4  1  0.315007  0.315007  0.681916  1
  Hf  Hf5  1  0.684985  0.684985  0.315231  1
  Hf  Hf6  1  0.315007  0.681916  0.315007  1
  Hf  Hf7  1  0.684985  0.315231  0.684985  1
  Hf  Hf8  1  0.681916  0.315007  0.315007  1
  Hf  Hf9  1  0.315231  0.684985  0.684985  1
  Hf  Hf10  1  0.950311  0.950311  0.549455  1
  Hf  Hf11  1  0.550640  0.550640  0.950059  1
  Hf  Hf12  1  0.950311  0.549455  0.950311  1
  Hf  Hf13  1  0.550640  0.950059  0.550640  1
  Hf  Hf14  1  0.549455  0.950311  0.950311  1
  Hf  Hf15  1  0.950059  0.550640  0.550640  1
  Ta  Ta16  1  0.000860  0.333245  0.333245  1
  Ta  Ta17  1  0.333245  0.000860  0.333245  1
  Ta  Ta18  1  0.333245  0.333245  0.000860  1
  Ni  Ni19  1  0.324257  0.890556  0.890556  1
  Ni  Ni20  1  0.890556  0.324257  0.890556  1
  Ni  Ni21  1  0.890556  0.890556  0.324257  1
  Ni  Ni22  1  0.892948  0.892948  0.892948  1
  Ru  Ru23  1  0.335014  0.335014  0.335014  1
