# generated using pymatgen
data_Ce(DyCo)5
_symmetry_space_group_name_H-M   'P 1'
_cell_length_a   5.73123678
_cell_length_b   5.73122226
_cell_length_c   21.02743592
_cell_angle_alpha   89.94221412
_cell_angle_beta   89.94236875
_cell_angle_gamma   40.53870140
_symmetry_Int_Tables_number   1
_chemical_formula_structural   Ce(DyCo)5
_chemical_formula_sum   'Ce2 Dy10 Co10'
_cell_volume   448.92038022
_cell_formula_units_Z   2
loop_
 _symmetry_equiv_pos_site_id
 _symmetry_equiv_pos_as_xyz
  1  'x, y, z'
loop_
 _atom_site_type_symbol
 _atom_site_label
 _atom_site_symmetry_multiplicity
 _atom_site_fract_x
 _atom_site_fract_y
 _atom_site_fract_z
 _atom_site_occupancy
  Ce  Ce0  1  0.999957  0.999957  0.000007  1
  Ce  Ce1  1  0.999969  0.999969  0.500040  1
  Dy  Dy2  1  0.280813  0.280813  0.250001  1
  Dy  Dy3  1  0.719226  0.719227  0.749974  1
  Dy  Dy4  1  0.281644  0.281643  0.074465  1
  Dy  Dy5  1  0.718271  0.718271  0.574487  1
  Dy  Dy6  1  0.718235  0.718236  0.925566  1
  Dy  Dy7  1  0.281765  0.281764  0.425535  1
  Dy  Dy8  1  0.002050  0.002050  0.163638  1
  Dy  Dy9  1  0.998010  0.998010  0.663661  1
  Dy  Dy10  1  0.998016  0.998016  0.836344  1
  Dy  Dy11  1  0.001985  0.001984  0.336323  1
  Co  Co12  1  0.583281  0.583282  0.250016  1
  Co  Co13  1  0.416727  0.416728  0.749981  1
  Co  Co14  1  0.571387  0.571389  0.056864  1
  Co  Co15  1  0.428571  0.428571  0.556904  1
  Co  Co16  1  0.428561  0.428560  0.943087  1
  Co  Co17  1  0.571429  0.571429  0.443117  1
  Co  Co18  1  0.697460  0.697460  0.154825  1
  Co  Co19  1  0.302575  0.302575  0.654833  1
  Co  Co20  1  0.302596  0.302596  0.845173  1
  Co  Co21  1  0.697472  0.697472  0.345157  1
