# generated using pymatgen
data_Y4Ga2Si8IrRh5
_symmetry_space_group_name_H-M   'P 1'
_cell_length_a   8.19199897
_cell_length_b   8.20654694
_cell_length_c   5.70170127
_cell_angle_alpha   71.48659378
_cell_angle_beta   71.30418267
_cell_angle_gamma   94.29819172
_symmetry_Int_Tables_number   1
_chemical_formula_structural   Y4Ga2Si8IrRh5
_chemical_formula_sum   'Y4 Ga2 Si8 Ir1 Rh5'
_cell_volume   337.56787561
_cell_formula_units_Z   1
loop_
 _symmetry_equiv_pos_site_id
 _symmetry_equiv_pos_as_xyz
  1  'x, y, z'
loop_
 _atom_site_type_symbol
 _atom_site_label
 _atom_site_symmetry_multiplicity
 _atom_site_fract_x
 _atom_site_fract_y
 _atom_site_fract_z
 _atom_site_occupancy
  Y  Y0  1  0.866952  0.598291  0.756030  1
  Y  Y1  1  0.133028  0.402122  0.242513  1
  Y  Y2  1  0.400832  0.132843  0.744247  1
  Y  Y3  1  0.599097  0.867538  0.256685  1
  Ga  Ga4  1  0.777870  0.224952  0.746072  1
  Ga  Ga5  1  0.222586  0.775622  0.250845  1
  Si  Si6  1  0.515456  0.484806  0.752404  1
  Si  Si7  1  0.484428  0.515361  0.247650  1
  Si  Si8  1  0.211259  0.786151  0.751894  1
  Si  Si9  1  0.788193  0.212456  0.252680  1
  Si  Si10  1  0.263415  0.060634  0.340127  1
  Si  Si11  1  0.736159  0.937422  0.662205  1
  Si  Si12  1  0.938823  0.735233  0.160331  1
  Si  Si13  1  0.062205  0.265428  0.838289  1
  Ir  Ir14  1  0.534146  0.260545  0.138800  1
  Rh  Rh15  1  0.735911  0.466112  0.361562  1
  Rh  Rh16  1  0.465265  0.738045  0.861980  1
  Rh  Rh17  1  0.264664  0.534938  0.636494  1
  Rh  Rh18  1  0.992634  0.008279  0.249478  1
  Rh  Rh19  1  0.007076  0.993219  0.749715  1
