# generated using pymatgen
data_Nd2AlCdPd2
_symmetry_space_group_name_H-M   'P 1'
_cell_length_a   4.48351800
_cell_length_b   7.19619364
_cell_length_c   8.32390562
_cell_angle_alpha   91.23944461
_cell_angle_beta   90.00000000
_cell_angle_gamma   90.00000000
_symmetry_Int_Tables_number   1
_chemical_formula_structural   Nd2AlCdPd2
_chemical_formula_sum   'Nd4 Al2 Cd2 Pd4'
_cell_volume   268.50184970
_cell_formula_units_Z   2
loop_
 _symmetry_equiv_pos_site_id
 _symmetry_equiv_pos_as_xyz
  1  'x, y, z'
loop_
 _atom_site_type_symbol
 _atom_site_label
 _atom_site_symmetry_multiplicity
 _atom_site_fract_x
 _atom_site_fract_y
 _atom_site_fract_z
 _atom_site_occupancy
  Nd  Nd0  1  0.250000  0.541052  0.178034  1
  Nd  Nd1  1  0.750000  0.458948  0.821966  1
  Nd  Nd2  1  0.750000  0.958522  0.686622  1
  Nd  Nd3  1  0.250000  0.041478  0.313378  1
  Al  Al4  1  0.750000  0.860293  0.057951  1
  Al  Al5  1  0.250000  0.139707  0.942049  1
  Cd  Cd6  1  0.250000  0.639975  0.564272  1
  Cd  Cd7  1  0.750000  0.360025  0.435728  1
  Pd  Pd8  1  0.250000  0.778426  0.898837  1
  Pd  Pd9  1  0.750000  0.221574  0.101163  1
  Pd  Pd10  1  0.750000  0.755539  0.359417  1
  Pd  Pd11  1  0.250000  0.244461  0.640583  1
