# generated using pymatgen
data_SmDy7(Si4W3)4
_symmetry_space_group_name_H-M   'P 1'
_cell_length_a   6.79319444
_cell_length_b   6.95235153
_cell_length_c   12.92629322
_cell_angle_alpha   89.94591259
_cell_angle_beta   90.00235895
_cell_angle_gamma   89.97915324
_symmetry_Int_Tables_number   1
_chemical_formula_structural   SmDy7(Si4W3)4
_chemical_formula_sum   'Sm1 Dy7 Si16 W12'
_cell_volume   610.49139800
_cell_formula_units_Z   1
loop_
 _symmetry_equiv_pos_site_id
 _symmetry_equiv_pos_as_xyz
  1  'x, y, z'
loop_
 _atom_site_type_symbol
 _atom_site_label
 _atom_site_symmetry_multiplicity
 _atom_site_fract_x
 _atom_site_fract_y
 _atom_site_fract_z
 _atom_site_occupancy
  Sm  Sm0  1  0.995965  0.832971  0.592536  1
  Dy  Dy1  1  0.495319  0.667391  0.593429  1
  Dy  Dy2  1  0.995571  0.832421  0.906552  1
  Dy  Dy3  1  0.504864  0.332369  0.093596  1
  Dy  Dy4  1  0.004765  0.167717  0.406325  1
  Dy  Dy5  1  0.504676  0.332765  0.406496  1
  Dy  Dy6  1  0.004472  0.167852  0.093504  1
  Dy  Dy7  1  0.495335  0.667484  0.906789  1
  Si  Si8  1  0.660407  0.957640  0.452434  1
  Si  Si9  1  0.161705  0.542679  0.047102  1
  Si  Si10  1  0.338645  0.042817  0.953016  1
  Si  Si11  1  0.837576  0.455160  0.546790  1
  Si  Si12  1  0.340412  0.043837  0.546647  1
  Si  Si13  1  0.838428  0.457487  0.952924  1
  Si  Si14  1  0.661501  0.957155  0.047125  1
  Si  Si15  1  0.162019  0.541793  0.452330  1
  Si  Si16  1  0.463244  0.370227  0.750254  1
  Si  Si17  1  0.963310  0.130875  0.750395  1
  Si  Si18  1  0.536523  0.629800  0.249819  1
  Si  Si19  1  0.036555  0.870337  0.250124  1
  Si  Si20  1  0.695405  0.867374  0.750610  1
  Si  Si21  1  0.197425  0.631365  0.750623  1
  Si  Si22  1  0.303389  0.133013  0.250040  1
  Si  Si23  1  0.803278  0.367257  0.250071  1
  W  W24  1  0.666535  0.164210  0.626298  1
  W  W25  1  0.167501  0.336352  0.874456  1
  W  W26  1  0.332099  0.836626  0.125619  1
  W  W27  1  0.831817  0.662866  0.373817  1
  W  W28  1  0.332745  0.836325  0.373875  1
  W  W29  1  0.832633  0.663481  0.125788  1
  W  W30  1  0.667772  0.163563  0.874631  1
  W  W31  1  0.167888  0.336527  0.625641  1
  W  W32  1  0.833670  0.498510  0.750184  1
  W  W33  1  0.334346  0.001641  0.750251  1
  W  W34  1  0.166086  0.501001  0.249925  1
  W  W35  1  0.666117  0.999108  0.249987  1
