# generated using pymatgen
data_Ho3Mg2Pb3C
_symmetry_space_group_name_H-M   'P 1'
_cell_length_a   8.95994900
_cell_length_b   8.95994836
_cell_length_c   6.25815300
_cell_angle_alpha   90.00000000
_cell_angle_beta   90.00000000
_cell_angle_gamma   119.99999867
_symmetry_Int_Tables_number   1
_chemical_formula_structural   Ho3Mg2Pb3C
_chemical_formula_sum   'Ho6 Mg4 Pb6 C2'
_cell_volume   435.09877286
_cell_formula_units_Z   2
loop_
 _symmetry_equiv_pos_site_id
 _symmetry_equiv_pos_as_xyz
  1  'x, y, z'
loop_
 _atom_site_type_symbol
 _atom_site_label
 _atom_site_symmetry_multiplicity
 _atom_site_fract_x
 _atom_site_fract_y
 _atom_site_fract_z
 _atom_site_occupancy
  Ho  Ho0  1  0.213992  0.000000  0.250000  1
  Ho  Ho1  1  0.786008  0.000000  0.750000  1
  Ho  Ho2  1  0.000000  0.213992  0.250000  1
  Ho  Ho3  1  0.000000  0.786008  0.750000  1
  Ho  Ho4  1  0.786008  0.786008  0.250000  1
  Ho  Ho5  1  0.213992  0.213992  0.750000  1
  Mg  Mg6  1  0.333333  0.666667  0.000000  1
  Mg  Mg7  1  0.666667  0.333333  0.000000  1
  Mg  Mg8  1  0.666667  0.333333  0.500000  1
  Mg  Mg9  1  0.333333  0.666667  0.500000  1
  Pb  Pb10  1  0.590228  0.000000  0.250000  1
  Pb  Pb11  1  0.409772  0.000000  0.750000  1
  Pb  Pb12  1  0.000000  0.590228  0.250000  1
  Pb  Pb13  1  0.000000  0.409772  0.750000  1
  Pb  Pb14  1  0.409772  0.409772  0.250000  1
  Pb  Pb15  1  0.590228  0.590228  0.750000  1
  C  C16  1  0.000000  0.000000  0.000000  1
  C  C17  1  0.000000  0.000000  0.500000  1
