# generated using pymatgen
data_Ta3Be5Nb3SiRu6
_symmetry_space_group_name_H-M   'P 1'
_cell_length_a   7.35151124
_cell_length_b   7.36071595
_cell_length_c   7.35092691
_cell_angle_alpha   126.11108132
_cell_angle_beta   129.31438333
_cell_angle_gamma   77.09377597
_symmetry_Int_Tables_number   1
_chemical_formula_structural   Ta3Be5Nb3SiRu6
_chemical_formula_sum   'Ta3 Be5 Nb3 Si1 Ru6'
_cell_volume   241.35545433
_cell_formula_units_Z   1
loop_
 _symmetry_equiv_pos_site_id
 _symmetry_equiv_pos_as_xyz
  1  'x, y, z'
loop_
 _atom_site_type_symbol
 _atom_site_label
 _atom_site_symmetry_multiplicity
 _atom_site_fract_x
 _atom_site_fract_y
 _atom_site_fract_z
 _atom_site_occupancy
  Ta  Ta0  1  0.556948  0.089683  0.042975  1
  Ta  Ta1  1  0.458750  0.506494  0.558303  1
  Ta  Ta2  1  0.948210  0.505800  0.046853  1
  Be  Be3  1  0.750062  0.497456  0.247241  1
  Be  Be4  1  0.249927  0.496659  0.747336  1
  Be  Be5  1  0.331707  0.829884  0.498839  1
  Be  Be6  1  0.665397  0.163901  0.495983  1
  Be  Be7  1  0.834874  0.830454  0.994827  1
  Nb  Nb8  1  0.045727  0.088418  0.532803  1
  Nb  Nb9  1  0.739707  0.895660  0.644022  1
  Nb  Nb10  1  0.251134  0.894993  0.155624  1
  Si  Si11  1  0.166973  0.162495  0.996701  1
  Ru  Ru12  1  0.500521  0.246479  0.746980  1
  Ru  Ru13  1  0.999604  0.247994  0.247834  1
  Ru  Ru14  1  0.126280  0.745779  0.621028  1
  Ru  Ru15  1  0.873354  0.495311  0.621119  1
  Ru  Ru16  1  0.625654  0.746426  0.119595  1
  Ru  Ru17  1  0.375172  0.498313  0.124139  1
