# generated using pymatgen
data_CaHoPa2Ge6Ir7
_symmetry_space_group_name_H-M   'P 1'
_cell_length_a   7.28651669
_cell_length_b   7.28469204
_cell_length_c   7.31395831
_cell_angle_alpha   109.30290502
_cell_angle_beta   109.31302195
_cell_angle_gamma   109.64160475
_symmetry_Int_Tables_number   1
_chemical_formula_structural   CaHoPa2Ge6Ir7
_chemical_formula_sum   'Ca1 Ho1 Pa2 Ge6 Ir7'
_cell_volume   299.42776620
_cell_formula_units_Z   1
loop_
 _symmetry_equiv_pos_site_id
 _symmetry_equiv_pos_as_xyz
  1  'x, y, z'
loop_
 _atom_site_type_symbol
 _atom_site_label
 _atom_site_symmetry_multiplicity
 _atom_site_fract_x
 _atom_site_fract_y
 _atom_site_fract_z
 _atom_site_occupancy
  Ca  Ca0  1  0.500000  0.000000  0.000000  1
  Ho  Ho1  1  0.000000  0.500000  0.000000  1
  Pa  Pa2  1  0.000000  0.000000  0.500000  1
  Pa  Pa3  1  0.500000  0.500000  0.500000  1
  Ge  Ge4  1  0.682555  0.684460  0.000000  1
  Ge  Ge5  1  0.318584  0.995422  0.311299  1
  Ge  Ge6  1  0.992715  0.315878  0.311299  1
  Ge  Ge7  1  0.317445  0.315540  0.000000  1
  Ge  Ge8  1  0.681416  0.004578  0.688701  1
  Ge  Ge9  1  0.007285  0.684122  0.688701  1
  Ir  Ir10  1  0.751397  0.251397  0.502793  1
  Ir  Ir11  1  0.751866  0.508377  0.256401  1
  Ir  Ir12  1  0.495464  0.251976  0.743599  1
  Ir  Ir13  1  0.248134  0.491623  0.743599  1
  Ir  Ir14  1  0.248603  0.748603  0.497207  1
  Ir  Ir15  1  0.504536  0.748024  0.256401  1
  Ir  Ir16  1  0.000000  0.000000  0.000000  1
