# generated using pymatgen
data_LaPr5Cd4IrPd12
_symmetry_space_group_name_H-M   'P 1'
_cell_length_a   8.58192423
_cell_length_b   8.58193914
_cell_length_c   8.58193888
_cell_angle_alpha   109.67730447
_cell_angle_beta   109.36828346
_cell_angle_gamma   109.36827651
_symmetry_Int_Tables_number   1
_chemical_formula_structural   LaPr5Cd4IrPd12
_chemical_formula_sum   'La1 Pr5 Cd4 Ir1 Pd12'
_cell_volume   486.55213855
_cell_formula_units_Z   1
loop_
 _symmetry_equiv_pos_site_id
 _symmetry_equiv_pos_as_xyz
  1  'x, y, z'
loop_
 _atom_site_type_symbol
 _atom_site_label
 _atom_site_symmetry_multiplicity
 _atom_site_fract_x
 _atom_site_fract_y
 _atom_site_fract_z
 _atom_site_occupancy
  La  La0  1  0.999997  0.296685  0.296685  1
  Pr  Pr1  1  0.999999  0.703450  0.703450  1
  Pr  Pr2  1  0.297770  0.999800  0.297571  1
  Pr  Pr3  1  0.702230  0.702031  0.999800  1
  Pr  Pr4  1  0.702230  0.999800  0.702031  1
  Pr  Pr5  1  0.297770  0.297571  0.999800  1
  Cd  Cd6  1  0.000000  0.999582  0.500432  1
  Cd  Cd7  1  0.499150  0.999582  0.999582  1
  Cd  Cd8  1  0.000000  0.500432  0.999582  1
  Cd  Cd9  1  0.500850  0.500432  0.500432  1
  Ir  Ir10  1  0.000000  0.001154  0.001154  1
  Pd  Pd11  1  0.341655  0.658377  0.000031  1
  Pd  Pd12  1  0.000000  0.341537  0.657997  1
  Pd  Pd13  1  0.658211  0.999938  0.341726  1
  Pd  Pd14  1  0.316458  0.657996  0.657996  1
  Pd  Pd15  1  0.658346  0.316722  0.658377  1
  Pd  Pd16  1  0.683543  0.341539  0.341539  1
  Pd  Pd17  1  0.341789  0.683515  0.341726  1
  Pd  Pd18  1  0.341789  0.341726  0.683515  1
  Pd  Pd19  1  0.000000  0.657997  0.341537  1
  Pd  Pd20  1  0.658346  0.658377  0.316722  1
  Pd  Pd21  1  0.341655  0.000031  0.658377  1
  Pd  Pd22  1  0.658211  0.341726  0.999938  1
