# generated using pymatgen
data_Th2Sc3(SnSb)2
_symmetry_space_group_name_H-M   'P 1'
_cell_length_a   7.97454300
_cell_length_b   7.87348100
_cell_length_c   14.91748000
_cell_angle_alpha   90.00000000
_cell_angle_beta   90.00000000
_cell_angle_gamma   90.00000000
_symmetry_Int_Tables_number   1
_chemical_formula_structural   Th2Sc3(SnSb)2
_chemical_formula_sum   'Th8 Sc12 Sn8 Sb8'
_cell_volume   936.62997461
_cell_formula_units_Z   4
loop_
 _symmetry_equiv_pos_site_id
 _symmetry_equiv_pos_as_xyz
  1  'x, y, z'
loop_
 _atom_site_type_symbol
 _atom_site_label
 _atom_site_symmetry_multiplicity
 _atom_site_fract_x
 _atom_site_fract_y
 _atom_site_fract_z
 _atom_site_occupancy
  Th  Th0  1  0.515755  0.322281  0.907360  1
  Th  Th1  1  0.015755  0.177719  0.592640  1
  Th  Th2  1  0.484245  0.677719  0.407360  1
  Th  Th3  1  0.984245  0.822281  0.092640  1
  Th  Th4  1  0.484245  0.677719  0.092640  1
  Th  Th5  1  0.984245  0.822281  0.407360  1
  Th  Th6  1  0.515755  0.322281  0.592640  1
  Th  Th7  1  0.015755  0.177719  0.907360  1
  Sc  Sc8  1  0.352828  0.843198  0.875395  1
  Sc  Sc9  1  0.852828  0.656802  0.624605  1
  Sc  Sc10  1  0.647172  0.156802  0.375395  1
  Sc  Sc11  1  0.147172  0.343198  0.124605  1
  Sc  Sc12  1  0.647172  0.156802  0.124605  1
  Sc  Sc13  1  0.147172  0.343198  0.375395  1
  Sc  Sc14  1  0.352828  0.843198  0.624605  1
  Sc  Sc15  1  0.852828  0.656802  0.875395  1
  Sc  Sc16  1  0.182238  0.496337  0.750000  1
  Sc  Sc17  1  0.682238  0.003663  0.750000  1
  Sc  Sc18  1  0.817762  0.503663  0.250000  1
  Sc  Sc19  1  0.317762  0.996337  0.250000  1
  Sn  Sn20  1  0.546391  0.629921  0.750000  1
  Sn  Sn21  1  0.046391  0.870079  0.750000  1
  Sn  Sn22  1  0.453609  0.370079  0.250000  1
  Sn  Sn23  1  0.953609  0.129921  0.250000  1
  Sn  Sn24  1  0.318916  0.142041  0.750000  1
  Sn  Sn25  1  0.818916  0.357959  0.750000  1
  Sn  Sn26  1  0.681084  0.857959  0.250000  1
  Sn  Sn27  1  0.181084  0.642041  0.250000  1
  Sb  Sb28  1  0.306544  0.047876  0.045889  1
  Sb  Sb29  1  0.806544  0.452124  0.454111  1
  Sb  Sb30  1  0.693456  0.952124  0.545889  1
  Sb  Sb31  1  0.193456  0.547876  0.954111  1
  Sb  Sb32  1  0.693456  0.952124  0.954111  1
  Sb  Sb33  1  0.193456  0.547876  0.545889  1
  Sb  Sb34  1  0.306544  0.047876  0.454111  1
  Sb  Sb35  1  0.806544  0.452124  0.045889  1
