# generated using pymatgen
data_YErTm4FeSb2
_symmetry_space_group_name_H-M   'P 1'
_cell_length_a   8.11173553
_cell_length_b   8.11460521
_cell_length_c   4.12518200
_cell_angle_alpha   90.00000000
_cell_angle_beta   90.00000000
_cell_angle_gamma   119.83196843
_symmetry_Int_Tables_number   1
_chemical_formula_structural   YErTm4FeSb2
_chemical_formula_sum   'Y1 Er1 Tm4 Fe1 Sb2'
_cell_volume   235.55253529
_cell_formula_units_Z   1
loop_
 _symmetry_equiv_pos_site_id
 _symmetry_equiv_pos_as_xyz
  1  'x, y, z'
loop_
 _atom_site_type_symbol
 _atom_site_label
 _atom_site_symmetry_multiplicity
 _atom_site_fract_x
 _atom_site_fract_y
 _atom_site_fract_z
 _atom_site_occupancy
  Y  Y0  1  0.397390  0.397228  0.500000  1
  Er  Er1  1  0.000263  0.603682  0.500000  1
  Tm  Tm2  1  0.232362  0.999193  0.000000  1
  Tm  Tm3  1  0.766631  0.766505  0.000000  1
  Tm  Tm4  1  0.999310  0.233551  0.000000  1
  Tm  Tm5  1  0.606254  0.000042  0.500000  1
  Fe  Fe6  1  0.996222  0.999051  0.500000  1
  Sb  Sb7  1  0.334445  0.668581  0.000000  1
  Sb  Sb8  1  0.667122  0.332168  0.000000  1
