# generated using pymatgen
data_Li14Gd3Y3Hf4O24
_symmetry_space_group_name_H-M   'P 1'
_cell_length_a   10.94610112
_cell_length_b   10.94926159
_cell_length_c   10.94669102
_cell_angle_alpha   108.64300452
_cell_angle_beta   111.14518079
_cell_angle_gamma   108.63302822
_symmetry_Int_Tables_number   1
_chemical_formula_structural   Li14Gd3Y3Hf4O24
_chemical_formula_sum   'Li28 Gd6 Y6 Hf8 O48'
_cell_volume   1009.38163336
_cell_formula_units_Z   2
loop_
 _symmetry_equiv_pos_site_id
 _symmetry_equiv_pos_as_xyz
  1  'x, y, z'
loop_
 _atom_site_type_symbol
 _atom_site_label
 _atom_site_symmetry_multiplicity
 _atom_site_fract_x
 _atom_site_fract_y
 _atom_site_fract_z
 _atom_site_occupancy
  Li  Li0  1  0.940029  0.250507  0.060201  1
  Li  Li1  1  0.618124  0.833033  0.106606  1
  Li  Li2  1  0.285175  0.012094  0.118667  1
  Li  Li3  1  0.375621  0.250326  0.125732  1
  Li  Li4  1  0.440705  0.880948  0.190938  1
  Li  Li5  1  0.226304  0.332763  0.214891  1
  Li  Li6  1  0.215207  0.833461  0.226887  1
  Li  Li7  1  0.606599  0.488318  0.273198  1
  Li  Li8  1  0.117894  0.511368  0.285130  1
  Li  Li9  1  0.689998  0.749784  0.309131  1
  Li  Li10  1  0.124714  0.749919  0.374359  1
  Li  Li11  1  0.893503  0.666498  0.381419  1
  Li  Li12  1  0.726346  0.011520  0.393370  1
  Li  Li13  1  0.190356  0.379869  0.439833  1
  Li  Li14  1  0.809664  0.618574  0.559130  1
  Li  Li15  1  0.273446  0.988645  0.606347  1
  Li  Li16  1  0.106288  0.332417  0.617196  1
  Li  Li17  1  0.874558  0.249895  0.624254  1
  Li  Li18  1  0.309395  0.249782  0.689648  1
  Li  Li19  1  0.881937  0.488420  0.715145  1
  Li  Li20  1  0.393641  0.511235  0.726133  1
  Li  Li21  1  0.785017  0.167455  0.773863  1
  Li  Li22  1  0.773152  0.666777  0.784734  1
  Li  Li23  1  0.560081  0.119675  0.810266  1
  Li  Li24  1  0.625554  0.750343  0.875613  1
  Li  Li25  1  0.715275  0.989272  0.882833  1
  Li  Li26  1  0.382279  0.167059  0.893648  1
  Li  Li27  1  0.059509  0.750535  0.940753  1
  Gd  Gd28  1  0.749639  0.871854  0.621661  1
  Gd  Gd29  1  0.374887  0.749752  0.624584  1
  Gd  Gd30  1  0.122091  0.872052  0.750004  1
  Gd  Gd31  1  0.622019  0.372100  0.750148  1
  Gd  Gd32  1  0.125112  0.250217  0.875360  1
  Gd  Gd33  1  0.250206  0.627964  0.878268  1
  Y  Y34  1  0.750201  0.371935  0.122359  1
  Y  Y35  1  0.875151  0.750281  0.125374  1
  Y  Y36  1  0.378030  0.628042  0.250117  1
  Y  Y37  1  0.878009  0.128095  0.250003  1
  Y  Y38  1  0.624847  0.249748  0.374660  1
  Y  Y39  1  0.249836  0.127962  0.377756  1
  Hf  Hf40  1  0.999962  0.000179  0.001041  1
  Hf  Hf41  1  0.500929  0.000933  0.001033  1
  Hf  Hf42  1  0.000164  0.500617  0.001148  1
  Hf  Hf43  1  0.500784  0.500238  0.000741  1
  Hf  Hf44  1  0.499531  0.000000  0.499223  1
  Hf  Hf45  1  0.999198  0.498974  0.498986  1
  Hf  Hf46  1  0.499511  0.499069  0.498874  1
  Hf  Hf47  1  0.999923  0.999897  0.498922  1
  O  O48  1  0.817935  0.908232  0.027097  1
  O  O49  1  0.710122  0.127011  0.030881  1
  O  O50  1  0.209733  0.679387  0.084330  1
  O  O51  1  0.382733  0.408699  0.091423  1
  O  O52  1  0.122039  0.411346  0.098678  1
  O  O53  1  0.471202  0.679305  0.098024  1
  O  O54  1  0.527037  0.209207  0.119323  1
  O  O55  1  0.097694  0.910432  0.122323  1
  O  O56  1  0.972786  0.592109  0.182329  1
  O  O57  1  0.712101  0.589917  0.187551  1
  O  O58  1  0.083201  0.179560  0.210241  1
  O  O59  1  0.622191  0.024728  0.212124  1
  O  O60  1  0.812582  0.910109  0.287906  1
  O  O61  1  0.969280  0.372890  0.289683  1
  O  O62  1  0.402423  0.024602  0.312425  1
  O  O63  1  0.409761  0.290376  0.317606  1
  O  O64  1  0.788050  0.475328  0.377681  1
  O  O65  1  0.089901  0.907747  0.380727  1
  O  O66  1  0.581397  0.873191  0.401923  1
  O  O67  1  0.312590  0.523313  0.401246  1
  O  O68  1  0.317263  0.791317  0.408453  1
  O  O69  1  0.594992  0.625307  0.415438  1
  O  O70  1  0.096081  0.179214  0.469172  1
  O  O71  1  0.881074  0.290803  0.472874  1
  O  O72  1  0.116934  0.707082  0.524499  1
  O  O73  1  0.903174  0.820424  0.528436  1
  O  O74  1  0.402013  0.373055  0.581457  1
  O  O75  1  0.681993  0.207640  0.588828  1
  O  O76  1  0.687621  0.475902  0.596299  1
  O  O77  1  0.415336  0.125465  0.594860  1
  O  O78  1  0.909618  0.092176  0.616738  1
  O  O79  1  0.210402  0.522673  0.620153  1
  O  O80  1  0.590201  0.706699  0.682362  1
  O  O81  1  0.597512  0.977289  0.687490  1
  O  O82  1  0.028607  0.625168  0.707982  1
  O  O83  1  0.187629  0.090052  0.710261  1
  O  O84  1  0.379751  0.977372  0.789775  1
  O  O85  1  0.917390  0.820747  0.792189  1
  O  O86  1  0.289784  0.409998  0.812496  1
  O  O87  1  0.024362  0.407729  0.817588  1
  O  O88  1  0.902599  0.090306  0.879900  1
  O  O89  1  0.475390  0.792906  0.883393  1
  O  O90  1  0.530547  0.320535  0.905182  1
  O  O91  1  0.879605  0.591232  0.903650  1
  O  O92  1  0.618760  0.593116  0.911171  1
  O  O93  1  0.791683  0.320622  0.918584  1
  O  O94  1  0.291845  0.874698  0.971561  1
  O  O95  1  0.182674  0.092581  0.975502  1
