# generated using pymatgen
data_Yb4In7MoO16
_symmetry_space_group_name_H-M   'P 1'
_cell_length_a   3.23298400
_cell_length_b   9.67235075
_cell_length_c   11.38775576
_cell_angle_alpha   90.13455876
_cell_angle_beta   90.00000000
_cell_angle_gamma   90.00000000
_symmetry_Int_Tables_number   1
_chemical_formula_structural   Yb4In7MoO16
_chemical_formula_sum   'Yb4 In7 Mo1 O16'
_cell_volume   356.10046313
_cell_formula_units_Z   1
loop_
 _symmetry_equiv_pos_site_id
 _symmetry_equiv_pos_as_xyz
  1  'x, y, z'
loop_
 _atom_site_type_symbol
 _atom_site_label
 _atom_site_symmetry_multiplicity
 _atom_site_fract_x
 _atom_site_fract_y
 _atom_site_fract_z
 _atom_site_occupancy
  Yb  Yb0  1  0.250000  0.743411  0.845505  1
  Yb  Yb1  1  0.750000  0.258960  0.156684  1
  Yb  Yb2  1  0.250000  0.244500  0.653014  1
  Yb  Yb3  1  0.750000  0.757978  0.345518  1
  In  In4  1  0.750000  0.912512  0.604096  1
  In  In5  1  0.250000  0.587184  0.103299  1
  In  In6  1  0.750000  0.412044  0.896380  1
  In  In7  1  0.250000  0.089287  0.395971  1
  In  In8  1  0.250000  0.066693  0.886031  1
  In  In9  1  0.750000  0.934693  0.113939  1
  In  In10  1  0.250000  0.564115  0.615035  1
  Mo  Mo11  1  0.750000  0.438757  0.384064  1
  O  O12  1  0.750000  0.406700  0.573867  1
  O  O13  1  0.250000  0.586390  0.423825  1
  O  O14  1  0.750000  0.907615  0.925620  1
  O  O15  1  0.250000  0.092356  0.074992  1
  O  O16  1  0.750000  0.528983  0.215645  1
  O  O17  1  0.250000  0.466975  0.783427  1
  O  O18  1  0.750000  0.034718  0.282410  1
  O  O19  1  0.250000  0.965388  0.718040  1
  O  O20  1  0.750000  0.125980  0.531020  1
  O  O21  1  0.250000  0.871448  0.468067  1
  O  O22  1  0.750000  0.627604  0.969488  1
  O  O23  1  0.250000  0.372205  0.031013  1
  O  O24  1  0.250000  0.301415  0.321172  1
  O  O25  1  0.750000  0.702814  0.680961  1
  O  O26  1  0.750000  0.203251  0.817951  1
  O  O27  1  0.250000  0.796028  0.182965  1
