# generated using pymatgen
data_YTm3Zr4F28
_symmetry_space_group_name_H-M   'P 1'
_cell_length_a   5.71240065
_cell_length_b   9.03607035
_cell_length_c   12.15791175
_cell_angle_alpha   62.47751586
_cell_angle_beta   89.98871364
_cell_angle_gamma   90.02826791
_symmetry_Int_Tables_number   1
_chemical_formula_structural   YTm3Zr4F28
_chemical_formula_sum   'Y1 Tm3 Zr4 F28'
_cell_volume   556.54118748
_cell_formula_units_Z   1
loop_
 _symmetry_equiv_pos_site_id
 _symmetry_equiv_pos_as_xyz
  1  'x, y, z'
loop_
 _atom_site_type_symbol
 _atom_site_label
 _atom_site_symmetry_multiplicity
 _atom_site_fract_x
 _atom_site_fract_y
 _atom_site_fract_z
 _atom_site_occupancy
  Y  Y0  1  0.756715  0.817607  0.766013  1
  Tm  Tm1  1  0.743615  0.817926  0.265962  1
  Tm  Tm2  1  0.243588  0.183332  0.234065  1
  Tm  Tm3  1  0.257314  0.185229  0.733813  1
  Zr  Zr4  1  0.744058  0.276525  0.453535  1
  Zr  Zr5  1  0.244370  0.725323  0.047628  1
  Zr  Zr6  1  0.255021  0.725459  0.542844  1
  Zr  Zr7  1  0.755477  0.272283  0.955878  1
  F  F8  1  0.466134  0.710195  0.922206  1
  F  F9  1  0.968812  0.288854  0.579074  1
  F  F10  1  0.530095  0.287464  0.080033  1
  F  F11  1  0.030204  0.710893  0.418487  1
  F  F12  1  0.451305  0.280404  0.550806  1
  F  F13  1  0.951184  0.718357  0.952558  1
  F  F14  1  0.549666  0.720200  0.447568  1
  F  F15  1  0.048087  0.278513  0.052388  1
  F  F16  1  0.769153  0.525019  0.858176  1
  F  F17  1  0.267819  0.471972  0.641490  1
  F  F18  1  0.233724  0.471659  0.144151  1
  F  F19  1  0.732388  0.529233  0.355995  1
  F  F20  1  0.759540  0.019562  0.059969  1
  F  F21  1  0.259241  0.978431  0.439608  1
  F  F22  1  0.240150  0.977773  0.941320  1
  F  F23  1  0.739752  0.023499  0.556778  1
  F  F24  1  0.982303  0.732819  0.648291  1
  F  F25  1  0.482661  0.265702  0.849530  1
  F  F26  1  0.014826  0.265356  0.347745  1
  F  F27  1  0.516164  0.734953  0.153088  1
  F  F28  1  0.031003  0.747271  0.175680  1
  F  F29  1  0.529352  0.253629  0.325888  1
  F  F30  1  0.969573  0.251429  0.827095  1
  F  F31  1  0.465153  0.745391  0.672634  1
  F  F32  1  0.432450  0.975282  0.235698  1
  F  F33  1  0.932610  0.025472  0.264448  1
  F  F34  1  0.569939  0.031139  0.765257  1
  F  F35  1  0.076556  0.975845  0.734306  1
