# generated using pymatgen
data_GaMo6Rh3N2
_symmetry_space_group_name_H-M   'P 1'
_cell_length_a   6.84206000
_cell_length_b   6.84544388
_cell_length_c   6.83231509
_cell_angle_alpha   89.15347787
_cell_angle_beta   90.00000000
_cell_angle_gamma   90.00000000
_symmetry_Int_Tables_number   1
_chemical_formula_structural   GaMo6Rh3N2
_chemical_formula_sum   'Ga2 Mo12 Rh6 N4'
_cell_volume   319.96979035
_cell_formula_units_Z   2
loop_
 _symmetry_equiv_pos_site_id
 _symmetry_equiv_pos_as_xyz
  1  'x, y, z'
loop_
 _atom_site_type_symbol
 _atom_site_label
 _atom_site_symmetry_multiplicity
 _atom_site_fract_x
 _atom_site_fract_y
 _atom_site_fract_z
 _atom_site_occupancy
  Ga  Ga0  1  0.685687  0.179192  0.934678  1
  Ga  Ga1  1  0.185687  0.820808  0.065322  1
  Mo  Mo2  1  0.621826  0.045161  0.547116  1
  Mo  Mo3  1  0.121826  0.954839  0.452884  1
  Mo  Mo4  1  0.869860  0.543371  0.946943  1
  Mo  Mo5  1  0.369860  0.456629  0.053057  1
  Mo  Mo6  1  0.200624  0.624857  0.696607  1
  Mo  Mo7  1  0.299264  0.122646  0.788918  1
  Mo  Mo8  1  0.799264  0.877354  0.211082  1
  Mo  Mo9  1  0.700624  0.375143  0.303393  1
  Mo  Mo10  1  0.050292  0.211234  0.131396  1
  Mo  Mo11  1  0.959063  0.304552  0.623451  1
  Mo  Mo12  1  0.550292  0.788766  0.868604  1
  Mo  Mo13  1  0.459063  0.695448  0.376549  1
  Rh  Rh14  1  0.812153  0.689156  0.565939  1
  Rh  Rh15  1  0.312153  0.310844  0.434061  1
  Rh  Rh16  1  0.059959  0.568275  0.303528  1
  Rh  Rh17  1  0.437047  0.061765  0.178416  1
  Rh  Rh18  1  0.559959  0.431725  0.696472  1
  Rh  Rh19  1  0.937047  0.938235  0.821584  1
  N  N20  1  0.375332  0.872723  0.619783  1
  N  N21  1  0.875332  0.127277  0.380217  1
  N  N22  1  0.128894  0.375260  0.872559  1
  N  N23  1  0.628894  0.624740  0.127441  1
