# generated using pymatgen
data_Er2PdPbAu
_symmetry_space_group_name_H-M   'P 1'
_cell_length_a   8.02434400
_cell_length_b   8.03476000
_cell_length_c   3.61324400
_cell_angle_alpha   90.00000000
_cell_angle_beta   90.00000000
_cell_angle_gamma   90.00000000
_symmetry_Int_Tables_number   1
_chemical_formula_structural   Er2PdPbAu
_chemical_formula_sum   'Er4 Pd2 Pb2 Au2'
_cell_volume   232.95913090
_cell_formula_units_Z   2
loop_
 _symmetry_equiv_pos_site_id
 _symmetry_equiv_pos_as_xyz
  1  'x, y, z'
loop_
 _atom_site_type_symbol
 _atom_site_label
 _atom_site_symmetry_multiplicity
 _atom_site_fract_x
 _atom_site_fract_y
 _atom_site_fract_z
 _atom_site_occupancy
  Er  Er0  1  0.673751  0.168520  0.500000  1
  Er  Er1  1  0.162888  0.330645  0.500000  1
  Er  Er2  1  0.826249  0.668520  0.500000  1
  Er  Er3  1  0.337112  0.830645  0.500000  1
  Pd  Pd4  1  0.627060  0.873615  0.000000  1
  Pd  Pd5  1  0.872940  0.373615  0.000000  1
  Pb  Pb6  1  0.994382  0.002511  0.000000  1
  Pb  Pb7  1  0.505618  0.502511  0.000000  1
  Au  Au8  1  0.376280  0.124710  0.000000  1
  Au  Au9  1  0.123720  0.624710  0.000000  1
