# generated using pymatgen
data_Hf6Sn6Ir5Au
_symmetry_space_group_name_H-M   'P 1'
_cell_length_a   7.33842000
_cell_length_b   7.33841938
_cell_length_c   7.52847400
_cell_angle_alpha   90.00000000
_cell_angle_beta   90.00000000
_cell_angle_gamma   119.99999380
_symmetry_Int_Tables_number   1
_chemical_formula_structural   Hf6Sn6Ir5Au
_chemical_formula_sum   'Hf6 Sn6 Ir5 Au1'
_cell_volume   351.10960076
_cell_formula_units_Z   1
loop_
 _symmetry_equiv_pos_site_id
 _symmetry_equiv_pos_as_xyz
  1  'x, y, z'
loop_
 _atom_site_type_symbol
 _atom_site_label
 _atom_site_symmetry_multiplicity
 _atom_site_fract_x
 _atom_site_fract_y
 _atom_site_fract_z
 _atom_site_occupancy
  Hf  Hf0  1  0.012461  0.399249  0.758722  1
  Hf  Hf1  1  0.600751  0.613212  0.758722  1
  Hf  Hf2  1  0.386788  0.987539  0.758722  1
  Hf  Hf3  1  0.962430  0.376264  0.244173  1
  Hf  Hf4  1  0.623736  0.586164  0.244173  1
  Hf  Hf5  1  0.413836  0.037570  0.244173  1
  Sn  Sn6  1  0.267179  0.266437  0.505280  1
  Sn  Sn7  1  0.999257  0.732821  0.505280  1
  Sn  Sn8  1  0.004801  0.734674  0.003309  1
  Sn  Sn9  1  0.733563  0.000743  0.505280  1
  Sn  Sn10  1  0.729873  0.995199  0.003309  1
  Sn  Sn11  1  0.265326  0.270127  0.003309  1
  Ir  Ir12  1  0.666667  0.333333  0.532925  1
  Ir  Ir13  1  0.333333  0.666667  0.027117  1
  Ir  Ir14  1  0.000000  0.000000  0.754868  1
  Ir  Ir15  1  0.000000  0.000000  0.253672  1
  Ir  Ir16  1  0.666667  0.333333  0.956574  1
  Au  Au17  1  0.333333  0.666667  0.440388  1
