# generated using pymatgen
data_Tm12AlTlNi4
_symmetry_space_group_name_H-M   'P 1'
_cell_length_a   8.26151950
_cell_length_b   8.26227013
_cell_length_c   8.26181000
_cell_angle_alpha   105.89935056
_cell_angle_beta   109.99354908
_cell_angle_gamma   112.59093073
_symmetry_Int_Tables_number   1
_chemical_formula_structural   Tm12AlTlNi4
_chemical_formula_sum   'Tm12 Al1 Tl1 Ni4'
_cell_volume   432.62565039
_cell_formula_units_Z   1
loop_
 _symmetry_equiv_pos_site_id
 _symmetry_equiv_pos_as_xyz
  1  'x, y, z'
loop_
 _atom_site_type_symbol
 _atom_site_label
 _atom_site_symmetry_multiplicity
 _atom_site_fract_x
 _atom_site_fract_y
 _atom_site_fract_z
 _atom_site_occupancy
  Tm  Tm0  1  0.700249  0.267847  0.968095  1
  Tm  Tm1  1  0.299768  0.732200  0.031962  1
  Tm  Tm2  1  0.700242  0.732166  0.432399  1
  Tm  Tm3  1  0.299769  0.267793  0.567566  1
  Tm  Tm4  1  0.806812  0.131090  0.324284  1
  Tm  Tm5  1  0.806827  0.482561  0.675717  1
  Tm  Tm6  1  0.193183  0.868912  0.675698  1
  Tm  Tm7  1  0.193157  0.517431  0.324269  1
  Tm  Tm8  1  0.606640  0.787428  0.819229  1
  Tm  Tm9  1  0.968185  0.787418  0.180775  1
  Tm  Tm10  1  0.031799  0.212561  0.819238  1
  Tm  Tm11  1  0.393408  0.212614  0.180784  1
  Al  Al12  1  0.499988  0.500002  0.999983  1
  Tl  Tl13  1  0.500005  0.999999  0.500006  1
  Ni  Ni14  1  0.847070  0.499784  0.347186  1
  Ni  Ni15  1  0.152841  0.500161  0.652768  1
  Ni  Ni16  1  0.000011  0.123769  0.123963  1
  Ni  Ni17  1  0.000048  0.876266  0.876077  1
