# generated using pymatgen
data_Hf8NiMo3Ir4
_symmetry_space_group_name_H-M   'P 1'
_cell_length_a   6.53287900
_cell_length_b   4.63608500
_cell_length_c   9.24531100
_cell_angle_alpha   90.00002475
_cell_angle_beta   90.00003976
_cell_angle_gamma   89.99997887
_symmetry_Int_Tables_number   1
_chemical_formula_structural   Hf8NiMo3Ir4
_chemical_formula_sum   'Hf8 Ni1 Mo3 Ir4'
_cell_volume   280.01257097
_cell_formula_units_Z   1
loop_
 _symmetry_equiv_pos_site_id
 _symmetry_equiv_pos_as_xyz
  1  'x, y, z'
loop_
 _atom_site_type_symbol
 _atom_site_label
 _atom_site_symmetry_multiplicity
 _atom_site_fract_x
 _atom_site_fract_y
 _atom_site_fract_z
 _atom_site_occupancy
  Hf  Hf0  1  0.001415  0.750001  0.125024  1
  Hf  Hf1  1  0.498568  0.750000  0.125025  1
  Hf  Hf2  1  0.001339  0.250001  0.374658  1
  Hf  Hf3  1  0.498652  0.250001  0.374658  1
  Hf  Hf4  1  0.499205  0.750001  0.625019  1
  Hf  Hf5  1  0.000798  0.750000  0.625019  1
  Hf  Hf6  1  0.498667  0.250001  0.875311  1
  Hf  Hf7  1  0.001341  0.250001  0.875311  1
  Ni  Ni8  1  0.750027  0.249997  0.124943  1
  Mo  Mo9  1  0.249994  0.750000  0.372488  1
  Mo  Mo10  1  0.750002  0.250001  0.624988  1
  Mo  Mo11  1  0.250001  0.750001  0.877542  1
  Ir  Ir12  1  0.249994  0.250001  0.125003  1
  Ir  Ir13  1  0.749995  0.750001  0.372717  1
  Ir  Ir14  1  0.250002  0.250001  0.625002  1
  Ir  Ir15  1  0.750002  0.750001  0.877294  1
