# generated using pymatgen
data_Sc4V6(PbO8)3
_symmetry_space_group_name_H-M   'P 1'
_cell_length_a   7.05101299
_cell_length_b   9.01643063
_cell_length_c   10.58101621
_cell_angle_alpha   107.02792022
_cell_angle_beta   106.87075184
_cell_angle_gamma   104.18405189
_symmetry_Int_Tables_number   1
_chemical_formula_structural   Sc4V6(PbO8)3
_chemical_formula_sum   'Sc4 V6 Pb3 O24'
_cell_volume   574.08667302
_cell_formula_units_Z   1
loop_
 _symmetry_equiv_pos_site_id
 _symmetry_equiv_pos_as_xyz
  1  'x, y, z'
loop_
 _atom_site_type_symbol
 _atom_site_label
 _atom_site_symmetry_multiplicity
 _atom_site_fract_x
 _atom_site_fract_y
 _atom_site_fract_z
 _atom_site_occupancy
  Sc  Sc0  1  0.370065  0.957156  0.600432  1
  Sc  Sc1  1  0.629935  0.042844  0.399568  1
  Sc  Sc2  1  0.038061  0.205715  0.031055  1
  Sc  Sc3  1  0.961939  0.794285  0.968945  1
  V  V4  1  0.797812  0.336841  0.744123  1
  V  V5  1  0.202188  0.663159  0.255877  1
  V  V6  1  0.892537  0.918676  0.673062  1
  V  V7  1  0.395890  0.752104  0.859329  1
  V  V8  1  0.107463  0.081324  0.326938  1
  V  V9  1  0.604110  0.247896  0.140671  1
  Pb  Pb10  1  0.000000  0.500000  0.500000  1
  Pb  Pb11  1  0.323269  0.324130  0.823632  1
  Pb  Pb12  1  0.676731  0.675870  0.176368  1
  O  O13  1  0.850742  0.718575  0.590617  1
  O  O14  1  0.149258  0.281425  0.409383  1
  O  O15  1  0.249501  0.546620  0.744151  1
  O  O16  1  0.750499  0.453380  0.255849  1
  O  O17  1  0.802113  0.281584  0.571086  1
  O  O18  1  0.197887  0.718416  0.428914  1
  O  O19  1  0.669051  0.961192  0.579765  1
  O  O20  1  0.330949  0.038808  0.420235  1
  O  O21  1  0.645406  0.757063  0.967401  1
  O  O22  1  0.354594  0.242937  0.032599  1
  O  O23  1  0.449571  0.786304  0.273640  1
  O  O24  1  0.550429  0.213696  0.726360  1
  O  O25  1  0.127438  0.034104  0.661017  1
  O  O26  1  0.069213  0.043278  0.144204  1
  O  O27  1  0.930787  0.956722  0.855796  1
  O  O28  1  0.585410  0.139208  0.250181  1
  O  O29  1  0.414590  0.860792  0.749819  1
  O  O30  1  0.170974  0.458480  0.180137  1
  O  O31  1  0.829026  0.541520  0.819863  1
  O  O32  1  0.989287  0.286495  0.856940  1
  O  O33  1  0.010713  0.713505  0.143060  1
  O  O34  1  0.253133  0.811312  0.960714  1
  O  O35  1  0.746867  0.188688  0.039286  1
  O  O36  1  0.872562  0.965896  0.338983  1
