# generated using pymatgen
data_Er2Tm3In4IrPd
_symmetry_space_group_name_H-M   'P 1'
_cell_length_a   3.58534400
_cell_length_b   8.08753749
_cell_length_c   18.11996714
_cell_angle_alpha   90.08061278
_cell_angle_beta   90.00000000
_cell_angle_gamma   90.00000000
_symmetry_Int_Tables_number   1
_chemical_formula_structural   Er2Tm3In4IrPd
_chemical_formula_sum   'Er4 Tm6 In8 Ir2 Pd2'
_cell_volume   525.41699218
_cell_formula_units_Z   2
loop_
 _symmetry_equiv_pos_site_id
 _symmetry_equiv_pos_as_xyz
  1  'x, y, z'
loop_
 _atom_site_type_symbol
 _atom_site_label
 _atom_site_symmetry_multiplicity
 _atom_site_fract_x
 _atom_site_fract_y
 _atom_site_fract_z
 _atom_site_occupancy
  Er  Er0  1  0.000000  0.613923  0.086778  1
  Er  Er1  1  0.000000  0.386077  0.913222  1
  Er  Er2  1  0.000000  0.884321  0.584823  1
  Er  Er3  1  0.000000  0.115679  0.415177  1
  Tm  Tm4  1  0.000000  0.500000  0.500000  1
  Tm  Tm5  1  0.000000  0.000000  0.000000  1
  Tm  Tm6  1  0.000000  0.728661  0.277763  1
  Tm  Tm7  1  0.000000  0.271339  0.722237  1
  Tm  Tm8  1  0.000000  0.747849  0.779528  1
  Tm  Tm9  1  0.000000  0.252151  0.220472  1
  In  In10  1  0.500000  0.710407  0.932453  1
  In  In11  1  0.500000  0.289593  0.067547  1
  In  In12  1  0.500000  0.790040  0.432078  1
  In  In13  1  0.500000  0.209960  0.567922  1
  In  In14  1  0.500000  0.577957  0.647781  1
  In  In15  1  0.500000  0.422043  0.352219  1
  In  In16  1  0.500000  0.923810  0.149376  1
  In  In17  1  0.500000  0.076190  0.850624  1
  Ir  Ir18  1  0.500000  0.519315  0.196224  1
  Ir  Ir19  1  0.500000  0.480685  0.803776  1
  Pd  Pd20  1  0.500000  0.980999  0.696559  1
  Pd  Pd21  1  0.500000  0.019001  0.303441  1
