# generated using pymatgen
data_Er10Sn6AsSe
_symmetry_space_group_name_H-M   'P 1'
_cell_length_a   9.03517900
_cell_length_b   9.03517741
_cell_length_c   6.70164000
_cell_angle_alpha   90.00000000
_cell_angle_beta   90.00000000
_cell_angle_gamma   120.00000214
_symmetry_Int_Tables_number   1
_chemical_formula_structural   Er10Sn6AsSe
_chemical_formula_sum   'Er10 Sn6 As1 Se1'
_cell_volume   473.78920647
_cell_formula_units_Z   1
loop_
 _symmetry_equiv_pos_site_id
 _symmetry_equiv_pos_as_xyz
  1  'x, y, z'
loop_
 _atom_site_type_symbol
 _atom_site_label
 _atom_site_symmetry_multiplicity
 _atom_site_fract_x
 _atom_site_fract_y
 _atom_site_fract_z
 _atom_site_occupancy
  Er  Er0  1  0.666667  0.333333  0.000000  1
  Er  Er1  1  0.333333  0.666667  0.000000  1
  Er  Er2  1  0.333333  0.666667  0.500000  1
  Er  Er3  1  0.666667  0.333333  0.500000  1
  Er  Er4  1  0.750350  0.750350  0.752798  1
  Er  Er5  1  0.249650  0.000000  0.752798  1
  Er  Er6  1  0.000000  0.249650  0.752798  1
  Er  Er7  1  0.249650  0.249650  0.247202  1
  Er  Er8  1  0.750350  0.000000  0.247202  1
  Er  Er9  1  0.000000  0.750350  0.247202  1
  Sn  Sn10  1  0.396537  0.396537  0.750003  1
  Sn  Sn11  1  0.603463  0.000000  0.750003  1
  Sn  Sn12  1  0.000000  0.603463  0.750003  1
  Sn  Sn13  1  0.603463  0.603463  0.249997  1
  Sn  Sn14  1  0.396537  0.000000  0.249997  1
  Sn  Sn15  1  0.000000  0.396537  0.249997  1
  As  As16  1  0.000000  0.000000  0.000000  1
  Se  Se17  1  0.000000  0.000000  0.500000  1
