# generated using pymatgen
data_Hf8V12Si9Ge7
_symmetry_space_group_name_H-M   'P 1'
_cell_length_a   6.51194904
_cell_length_b   6.64826779
_cell_length_c   12.69718585
_cell_angle_alpha   89.94092170
_cell_angle_beta   89.93252578
_cell_angle_gamma   89.94006595
_symmetry_Int_Tables_number   1
_chemical_formula_structural   Hf8V12Si9Ge7
_chemical_formula_sum   'Hf8 V12 Si9 Ge7'
_cell_volume   549.70059235
_cell_formula_units_Z   1
loop_
 _symmetry_equiv_pos_site_id
 _symmetry_equiv_pos_as_xyz
  1  'x, y, z'
loop_
 _atom_site_type_symbol
 _atom_site_label
 _atom_site_symmetry_multiplicity
 _atom_site_fract_x
 _atom_site_fract_y
 _atom_site_fract_z
 _atom_site_occupancy
  Hf  Hf0  1  0.994833  0.170103  0.095916  1
  Hf  Hf1  1  0.012478  0.829962  0.906147  1
  Hf  Hf2  1  0.508321  0.674014  0.904122  1
  Hf  Hf3  1  0.009834  0.826562  0.597329  1
  Hf  Hf4  1  0.490289  0.324920  0.097205  1
  Hf  Hf5  1  0.989634  0.172750  0.403424  1
  Hf  Hf6  1  0.490177  0.326930  0.402187  1
  Hf  Hf7  1  0.509604  0.673444  0.597361  1
  V  V8  1  0.165650  0.495870  0.749643  1
  V  V9  1  0.833556  0.503937  0.249570  1
  V  V10  1  0.335182  0.994760  0.247522  1
  V  V11  1  0.664674  0.005577  0.750013  1
  V  V12  1  0.338416  0.159942  0.628714  1
  V  V13  1  0.661503  0.840049  0.371605  1
  V  V14  1  0.160858  0.662491  0.371319  1
  V  V15  1  0.658394  0.839066  0.127701  1
  V  V16  1  0.838146  0.338346  0.627572  1
  V  V17  1  0.334599  0.156865  0.874140  1
  V  V18  1  0.838895  0.336615  0.872386  1
  V  V19  1  0.164909  0.668208  0.125363  1
  Si  Si20  1  0.036510  0.126103  0.749987  1
  Si  Si21  1  0.962182  0.873051  0.249353  1
  Si  Si22  1  0.463499  0.625096  0.249933  1
  Si  Si23  1  0.535752  0.374114  0.751011  1
  Si  Si24  1  0.304416  0.863961  0.750407  1
  Si  Si25  1  0.696520  0.135106  0.249539  1
  Si  Si26  1  0.194165  0.366227  0.249279  1
  Si  Si27  1  0.805122  0.635724  0.751479  1
  Si  Si28  1  0.327173  0.954645  0.041160  1
  Ge  Ge29  1  0.178865  0.453411  0.541514  1
  Ge  Ge30  1  0.820969  0.547197  0.458254  1
  Ge  Ge31  1  0.321676  0.953595  0.457933  1
  Ge  Ge32  1  0.821619  0.545290  0.042208  1
  Ge  Ge33  1  0.678594  0.046671  0.541538  1
  Ge  Ge34  1  0.178482  0.453760  0.958182  1
  Ge  Ge35  1  0.674503  0.045639  0.958989  1
