# generated using pymatgen
data_Sb3Mo(PO4)6
_symmetry_space_group_name_H-M   'P 1'
_cell_length_a   8.36670219
_cell_length_b   8.36670266
_cell_length_c   8.92188200
_cell_angle_alpha   62.03794284
_cell_angle_beta   62.03794111
_cell_angle_gamma   59.99999089
_symmetry_Int_Tables_number   1
_chemical_formula_structural   Sb3Mo(PO4)6
_chemical_formula_sum   'Sb3 Mo1 P6 O24'
_cell_volume   454.73931998
_cell_formula_units_Z   1
loop_
 _symmetry_equiv_pos_site_id
 _symmetry_equiv_pos_as_xyz
  1  'x, y, z'
loop_
 _atom_site_type_symbol
 _atom_site_label
 _atom_site_symmetry_multiplicity
 _atom_site_fract_x
 _atom_site_fract_y
 _atom_site_fract_z
 _atom_site_occupancy
  Sb  Sb0  1  0.148928  0.148928  0.553215  1
  Sb  Sb1  1  0.357744  0.357744  0.926767  1
  Sb  Sb2  1  0.643237  0.643237  0.070289  1
  Mo  Mo3  1  0.854118  0.854118  0.437647  1
  P  P4  1  0.748983  0.040760  0.747880  1
  P  P5  1  0.040760  0.462378  0.747880  1
  P  P6  1  0.462378  0.748983  0.747880  1
  P  P7  1  0.530219  0.257630  0.249293  1
  P  P8  1  0.962859  0.530219  0.249293  1
  P  P9  1  0.257630  0.962859  0.249293  1
  O  O10  1  0.341915  0.099953  0.070303  1
  O  O11  1  0.487828  0.341915  0.070303  1
  O  O12  1  0.962708  0.013113  0.707220  1
  O  O13  1  0.099953  0.487828  0.070303  1
  O  O14  1  0.620827  0.243639  0.777659  1
  O  O15  1  0.708109  0.032988  0.604760  1
  O  O16  1  0.013113  0.316958  0.707220  1
  O  O17  1  0.243639  0.357873  0.777659  1
  O  O18  1  0.357873  0.620827  0.777659  1
  O  O19  1  0.333119  0.289552  0.403467  1
  O  O20  1  0.666478  0.050580  0.277355  1
  O  O21  1  0.973862  0.333119  0.403467  1
  O  O22  1  0.032988  0.654143  0.604760  1
  O  O23  1  0.316958  0.962708  0.707220  1
  O  O24  1  0.654143  0.708109  0.604760  1
  O  O25  1  0.616375  0.391565  0.237482  1
  O  O26  1  0.754577  0.616375  0.237482  1
  O  O27  1  0.005585  0.666478  0.277355  1
  O  O28  1  0.289552  0.973862  0.403467  1
  O  O29  1  0.391565  0.754577  0.237482  1
  O  O30  1  0.878480  0.479020  0.928605  1
  O  O31  1  0.050580  0.005585  0.277355  1
  O  O32  1  0.479020  0.713894  0.928605  1
  O  O33  1  0.713894  0.878480  0.928605  1
