# generated using pymatgen
data_CaHo2Ga2Co9B4
_symmetry_space_group_name_H-M   'P 1'
_cell_length_a   5.13370550
_cell_length_b   5.12952373
_cell_length_c   9.51614800
_cell_angle_alpha   90.00014960
_cell_angle_beta   89.99987358
_cell_angle_gamma   119.96812721
_symmetry_Int_Tables_number   1
_chemical_formula_structural   CaHo2Ga2Co9B4
_chemical_formula_sum   'Ca1 Ho2 Ga2 Co9 B4'
_cell_volume   217.08969482
_cell_formula_units_Z   1
loop_
 _symmetry_equiv_pos_site_id
 _symmetry_equiv_pos_as_xyz
  1  'x, y, z'
loop_
 _atom_site_type_symbol
 _atom_site_label
 _atom_site_symmetry_multiplicity
 _atom_site_fract_x
 _atom_site_fract_y
 _atom_site_fract_z
 _atom_site_occupancy
  Ca  Ca0  1  0.999980  0.999996  0.000029  1
  Ho  Ho1  1  0.999999  0.000003  0.338699  1
  Ho  Ho2  1  0.999998  0.999997  0.661179  1
  Ga  Ga3  1  0.333414  0.666683  0.000116  1
  Ga  Ga4  1  0.666563  0.333312  0.000116  1
  Co  Co5  1  0.499996  0.999999  0.499965  1
  Co  Co6  1  0.499996  0.500001  0.499983  1
  Co  Co7  1  0.999997  0.500002  0.499973  1
  Co  Co8  1  0.499994  0.999999  0.210227  1
  Co  Co9  1  0.499996  0.500003  0.210203  1
  Co  Co10  1  0.999992  0.500001  0.210225  1
  Co  Co11  1  0.499999  0.000001  0.789806  1
  Co  Co12  1  0.499999  0.500002  0.789809  1
  Co  Co13  1  0.999995  0.499999  0.789829  1
  B  B14  1  0.333275  0.666601  0.350742  1
  B  B15  1  0.666714  0.333400  0.350741  1
  B  B16  1  0.666537  0.333258  0.649180  1
  B  B17  1  0.333454  0.666742  0.649179  1
