# generated using pymatgen
data_LiSm6FeBr12
_symmetry_space_group_name_H-M   'P 1'
_cell_length_a   9.36566898
_cell_length_b   9.36600611
_cell_length_c   9.36589210
_cell_angle_alpha   107.53970991
_cell_angle_beta   107.54636138
_cell_angle_gamma   107.55056221
_symmetry_Int_Tables_number   1
_chemical_formula_structural   LiSm6FeBr12
_chemical_formula_sum   'Li1 Sm6 Fe1 Br12'
_cell_volume   673.76635277
_cell_formula_units_Z   1
loop_
 _symmetry_equiv_pos_site_id
 _symmetry_equiv_pos_as_xyz
  1  'x, y, z'
loop_
 _atom_site_type_symbol
 _atom_site_label
 _atom_site_symmetry_multiplicity
 _atom_site_fract_x
 _atom_site_fract_y
 _atom_site_fract_z
 _atom_site_occupancy
  Li  Li0  1  0.500000  0.500000  0.500000  1
  Sm  Sm1  1  0.314887  0.110634  0.033038  1
  Sm  Sm2  1  0.032966  0.314853  0.110507  1
  Sm  Sm3  1  0.110569  0.033017  0.314884  1
  Sm  Sm4  1  0.889430  0.966983  0.685116  1
  Sm  Sm5  1  0.967034  0.685147  0.889492  1
  Sm  Sm6  1  0.685113  0.889366  0.966961  1
  Fe  Fe7  1  0.000000  0.000000  0.000000  1
  Br  Br8  1  0.685771  0.219654  0.073820  1
  Br  Br9  1  0.380003  0.458932  0.167020  1
  Br  Br10  1  0.073872  0.685804  0.219804  1
  Br  Br11  1  0.780279  0.926294  0.314259  1
  Br  Br12  1  0.458910  0.167129  0.380068  1
  Br  Br13  1  0.167006  0.380019  0.458839  1
  Br  Br14  1  0.832995  0.619981  0.541162  1
  Br  Br15  1  0.541090  0.832872  0.619932  1
  Br  Br16  1  0.219720  0.073706  0.685741  1
  Br  Br17  1  0.926128  0.314196  0.780195  1
  Br  Br18  1  0.619998  0.541069  0.832980  1
  Br  Br19  1  0.314229  0.780345  0.926180  1
