# generated using pymatgen
data_K4Ga5(CuAu4)3
_symmetry_space_group_name_H-M   'P 1'
_cell_length_a   5.59957661
_cell_length_b   7.03568452
_cell_length_c   13.52709529
_cell_angle_alpha   89.94048619
_cell_angle_beta   89.58202797
_cell_angle_gamma   89.72614488
_symmetry_Int_Tables_number   1
_chemical_formula_structural   K4Ga5(CuAu4)3
_chemical_formula_sum   'K4 Ga5 Cu3 Au12'
_cell_volume   532.90446895
_cell_formula_units_Z   1
loop_
 _symmetry_equiv_pos_site_id
 _symmetry_equiv_pos_as_xyz
  1  'x, y, z'
loop_
 _atom_site_type_symbol
 _atom_site_label
 _atom_site_symmetry_multiplicity
 _atom_site_fract_x
 _atom_site_fract_y
 _atom_site_fract_z
 _atom_site_occupancy
  K  K0  1  0.252109  0.106369  0.080878  1
  K  K1  1  0.248871  0.390843  0.577162  1
  K  K2  1  0.747977  0.891748  0.920262  1
  K  K3  1  0.749998  0.610088  0.421328  1
  Ga  Ga4  1  0.995633  0.389181  0.850386  1
  Ga  Ga5  1  0.004300  0.107715  0.347902  1
  Ga  Ga6  1  0.497214  0.394680  0.846880  1
  Ga  Ga7  1  0.499064  0.891231  0.651840  1
  Ga  Ga8  1  0.998312  0.606842  0.152218  1
  Cu  Cu9  1  0.003851  0.897017  0.651276  1
  Cu  Cu10  1  0.501199  0.603786  0.152443  1
  Cu  Cu11  1  0.502898  0.104477  0.348905  1
  Au  Au12  1  0.249687  0.103001  0.789019  1
  Au  Au13  1  0.252309  0.395454  0.285077  1
  Au  Au14  1  0.748917  0.895389  0.214362  1
  Au  Au15  1  0.748829  0.605154  0.712092  1
  Au  Au16  1  0.237151  0.699427  0.788997  1
  Au  Au17  1  0.257237  0.801606  0.287948  1
  Au  Au18  1  0.745207  0.300711  0.212661  1
  Au  Au19  1  0.750719  0.200677  0.707342  1
  Au  Au20  1  0.245806  0.589913  0.992410  1
  Au  Au21  1  0.261646  0.917541  0.490597  1
  Au  Au22  1  0.740267  0.412774  0.009683  1
  Au  Au23  1  0.760800  0.084374  0.508331  1
