# generated using pymatgen
data_Dy3In3HgIr
_symmetry_space_group_name_H-M   'P 1'
_cell_length_a   7.86723000
_cell_length_b   7.86722947
_cell_length_c   3.67562700
_cell_angle_alpha   90.00000000
_cell_angle_beta   90.00000000
_cell_angle_gamma   119.99999383
_symmetry_Int_Tables_number   1
_chemical_formula_structural   Dy3In3HgIr
_chemical_formula_sum   'Dy3 In3 Hg1 Ir1'
_cell_volume   197.01793212
_cell_formula_units_Z   1
loop_
 _symmetry_equiv_pos_site_id
 _symmetry_equiv_pos_as_xyz
  1  'x, y, z'
loop_
 _atom_site_type_symbol
 _atom_site_label
 _atom_site_symmetry_multiplicity
 _atom_site_fract_x
 _atom_site_fract_y
 _atom_site_fract_z
 _atom_site_occupancy
  Dy  Dy0  1  0.569231  0.973429  0.500000  1
  Dy  Dy1  1  0.404198  0.430769  0.500000  1
  Dy  Dy2  1  0.026571  0.595802  0.500000  1
  In  In3  1  0.230344  0.998580  0.000000  1
  In  In4  1  0.001420  0.231763  0.000000  1
  In  In5  1  0.768237  0.769657  0.000000  1
  Hg  Hg6  1  0.666667  0.333333  0.000000  1
  Ir  Ir7  1  0.333333  0.666667  0.000000  1
