# generated using pymatgen
data_NdGdDy2(CrB4)4
_symmetry_space_group_name_H-M   'P 1'
_cell_length_a   5.96495740
_cell_length_b   11.52752553
_cell_length_c   3.47115000
_cell_angle_alpha   90.00000000
_cell_angle_beta   90.00000000
_cell_angle_gamma   89.85382302
_symmetry_Int_Tables_number   1
_chemical_formula_structural   NdGdDy2(CrB4)4
_chemical_formula_sum   'Nd1 Gd1 Dy2 Cr4 B16'
_cell_volume   238.67965808
_cell_formula_units_Z   1
loop_
 _symmetry_equiv_pos_site_id
 _symmetry_equiv_pos_as_xyz
  1  'x, y, z'
loop_
 _atom_site_type_symbol
 _atom_site_label
 _atom_site_symmetry_multiplicity
 _atom_site_fract_x
 _atom_site_fract_y
 _atom_site_fract_z
 _atom_site_occupancy
  Nd  Nd0  1  0.624216  0.348502  0.000000  1
  Gd  Gd1  1  0.376217  0.651795  0.000000  1
  Dy  Dy2  1  0.123762  0.149805  0.000000  1
  Dy  Dy3  1  0.875780  0.849437  0.000000  1
  Cr  Cr4  1  0.622689  0.078699  0.000000  1
  Cr  Cr5  1  0.376190  0.919273  0.000000  1
  Cr  Cr6  1  0.123715  0.420045  0.000000  1
  Cr  Cr7  1  0.877686  0.582034  0.000000  1
  B  B8  1  0.780779  0.181200  0.500000  1
  B  B9  1  0.219473  0.816472  0.500000  1
  B  B10  1  0.276958  0.315493  0.500000  1
  B  B11  1  0.720528  0.685188  0.500000  1
  B  B12  1  0.862274  0.031234  0.500000  1
  B  B13  1  0.137047  0.966953  0.500000  1
  B  B14  1  0.360552  0.468770  0.500000  1
  B  B15  1  0.639718  0.534860  0.500000  1
  B  B16  1  0.890047  0.455176  0.500000  1
  B  B17  1  0.113888  0.547986  0.500000  1
  B  B18  1  0.385499  0.045545  0.500000  1
  B  B19  1  0.612597  0.952829  0.500000  1
  B  B20  1  0.977511  0.308847  0.500000  1
  B  B21  1  0.025071  0.692175  0.500000  1
  B  B22  1  0.472718  0.188431  0.500000  1
  B  B23  1  0.525083  0.809251  0.500000  1
