# generated using pymatgen
data_LaNdMg(Si3Pd10)2
_symmetry_space_group_name_H-M   'P 1'
_cell_length_a   8.73045324
_cell_length_b   8.73089417
_cell_length_c   8.73082600
_cell_angle_alpha   59.99677584
_cell_angle_beta   59.99593400
_cell_angle_gamma   59.99379085
_symmetry_Int_Tables_number   1
_chemical_formula_structural   LaNdMg(Si3Pd10)2
_chemical_formula_sum   'La1 Nd1 Mg1 Si6 Pd20'
_cell_volume   470.53457252
_cell_formula_units_Z   1
loop_
 _symmetry_equiv_pos_site_id
 _symmetry_equiv_pos_as_xyz
  1  'x, y, z'
loop_
 _atom_site_type_symbol
 _atom_site_label
 _atom_site_symmetry_multiplicity
 _atom_site_fract_x
 _atom_site_fract_y
 _atom_site_fract_z
 _atom_site_occupancy
  La  La0  1  0.249986  0.249992  0.250003  1
  Nd  Nd1  1  0.750013  0.750006  0.749997  1
  Mg  Mg2  1  0.000000  0.000000  0.000000  1
  Si  Si3  1  0.734064  0.265945  0.265947  1
  Si  Si4  1  0.265935  0.734055  0.734053  1
  Si  Si5  1  0.265947  0.734054  0.265957  1
  Si  Si6  1  0.734054  0.265945  0.734044  1
  Si  Si7  1  0.265944  0.265953  0.734056  1
  Si  Si8  1  0.734057  0.734049  0.265942  1
  Pd  Pd9  1  0.343653  0.999974  0.999980  1
  Pd  Pd10  1  0.656477  0.999897  0.999890  1
  Pd  Pd11  1  0.999933  0.343697  0.656430  1
  Pd  Pd12  1  0.999936  0.656433  0.343699  1
  Pd  Pd13  1  0.999956  0.343668  0.999960  1
  Pd  Pd14  1  0.656459  0.999916  0.343712  1
  Pd  Pd15  1  0.999914  0.656461  0.999911  1
  Pd  Pd16  1  0.343671  0.999953  0.656418  1
  Pd  Pd17  1  0.999964  0.999949  0.343674  1
  Pd  Pd18  1  0.999907  0.999921  0.656455  1
  Pd  Pd19  1  0.656457  0.343712  0.999909  1
  Pd  Pd20  1  0.343673  0.656418  0.999960  1
  Pd  Pd21  1  0.385079  0.385081  0.385093  1
  Pd  Pd22  1  0.614951  0.614950  0.614938  1
  Pd  Pd23  1  0.385072  0.385090  0.844733  1
  Pd  Pd24  1  0.385084  0.844717  0.385097  1
  Pd  Pd25  1  0.614958  0.614941  0.155177  1
  Pd  Pd26  1  0.614946  0.155192  0.614932  1
  Pd  Pd27  1  0.844723  0.385088  0.385085  1
  Pd  Pd28  1  0.155188  0.614942  0.614944  1
