# generated using pymatgen
data_Pr3Be2(PPd5)4
_symmetry_space_group_name_H-M   'P 1'
_cell_length_a   8.75097448
_cell_length_b   8.66011212
_cell_length_c   8.66011222
_cell_angle_alpha   60.69536979
_cell_angle_beta   59.65231458
_cell_angle_gamma   59.65231820
_symmetry_Int_Tables_number   1
_chemical_formula_structural   Pr3Be2(PPd5)4
_chemical_formula_sum   'Pr3 Be2 P4 Pd20'
_cell_volume   463.97204951
_cell_formula_units_Z   1
loop_
 _symmetry_equiv_pos_site_id
 _symmetry_equiv_pos_as_xyz
  1  'x, y, z'
loop_
 _atom_site_type_symbol
 _atom_site_label
 _atom_site_symmetry_multiplicity
 _atom_site_fract_x
 _atom_site_fract_y
 _atom_site_fract_z
 _atom_site_occupancy
  Pr  Pr0  1  0.250000  0.250000  0.250000  1
  Pr  Pr1  1  0.750000  0.750000  0.750000  1
  Pr  Pr2  1  0.000000  0.000000  0.000000  1
  Be  Be3  1  0.732508  0.267492  0.267492  1
  Be  Be4  1  0.267492  0.732508  0.732508  1
  P  P5  1  0.266636  0.733364  0.266636  1
  P  P6  1  0.733364  0.266636  0.733364  1
  P  P7  1  0.266636  0.266636  0.733364  1
  P  P8  1  0.733364  0.733364  0.266636  1
  Pd  Pd9  1  0.389362  0.384210  0.384210  1
  Pd  Pd10  1  0.610638  0.615790  0.615790  1
  Pd  Pd11  1  0.384210  0.389362  0.842218  1
  Pd  Pd12  1  0.384210  0.842218  0.389362  1
  Pd  Pd13  1  0.615790  0.610638  0.157782  1
  Pd  Pd14  1  0.615790  0.157782  0.610638  1
  Pd  Pd15  1  0.842218  0.384210  0.384210  1
  Pd  Pd16  1  0.157782  0.615790  0.615790  1
  Pd  Pd17  1  0.346095  0.000000  0.000000  1
  Pd  Pd18  1  0.653905  0.000000  0.000000  1
  Pd  Pd19  1  0.000000  0.346095  0.653905  1
  Pd  Pd20  1  0.000000  0.653905  0.346095  1
  Pd  Pd21  1  0.996982  0.345303  0.003018  1
  Pd  Pd22  1  0.654697  0.003018  0.345303  1
  Pd  Pd23  1  0.003018  0.654697  0.996982  1
  Pd  Pd24  1  0.345303  0.996982  0.654697  1
  Pd  Pd25  1  0.996982  0.003018  0.345303  1
  Pd  Pd26  1  0.003018  0.996982  0.654697  1
  Pd  Pd27  1  0.654697  0.345303  0.003018  1
  Pd  Pd28  1  0.345303  0.654697  0.996982  1
