# generated using pymatgen
data_Y20Ir7OsRh4
_symmetry_space_group_name_H-M   'P 1'
_cell_length_a   10.92379751
_cell_length_b   10.92167835
_cell_length_c   6.44836300
_cell_angle_alpha   89.97980178
_cell_angle_beta   89.98234085
_cell_angle_gamma   89.89395515
_symmetry_Int_Tables_number   1
_chemical_formula_structural   Y20Ir7OsRh4
_chemical_formula_sum   'Y20 Ir7 Os1 Rh4'
_cell_volume   769.32830228
_cell_formula_units_Z   1
loop_
 _symmetry_equiv_pos_site_id
 _symmetry_equiv_pos_as_xyz
  1  'x, y, z'
loop_
 _atom_site_type_symbol
 _atom_site_label
 _atom_site_symmetry_multiplicity
 _atom_site_fract_x
 _atom_site_fract_y
 _atom_site_fract_z
 _atom_site_occupancy
  Y  Y0  1  0.291911  0.087531  0.379887  1
  Y  Y1  1  0.293518  0.912430  0.885837  1
  Y  Y2  1  0.705684  0.086963  0.885334  1
  Y  Y3  1  0.706476  0.909858  0.379862  1
  Y  Y4  1  0.587382  0.793080  0.886849  1
  Y  Y5  1  0.586221  0.207469  0.379091  1
  Y  Y6  1  0.411403  0.792307  0.379567  1
  Y  Y7  1  0.412075  0.206256  0.885727  1
  Y  Y8  1  0.210042  0.410814  0.617151  1
  Y  Y9  1  0.209545  0.589406  0.116714  1
  Y  Y10  1  0.790626  0.413091  0.117313  1
  Y  Y11  1  0.790647  0.589728  0.618156  1
  Y  Y12  1  0.911714  0.709922  0.116447  1
  Y  Y13  1  0.911212  0.291260  0.618571  1
  Y  Y14  1  0.089451  0.709663  0.618094  1
  Y  Y15  1  0.091134  0.291786  0.116359  1
  Y  Y16  1  0.999336  0.999775  0.498944  1
  Y  Y17  1  0.000233  0.000704  0.998690  1
  Y  Y18  1  0.499850  0.499278  0.998541  1
  Y  Y19  1  0.500755  0.499994  0.499282  1
  Ir  Ir20  1  0.847308  0.846994  0.750267  1
  Ir  Ir21  1  0.151119  0.154527  0.749150  1
  Ir  Ir22  1  0.151710  0.845492  0.250326  1
  Ir  Ir23  1  0.655186  0.346747  0.749887  1
  Ir  Ir24  1  0.655293  0.650942  0.249667  1
  Ir  Ir25  1  0.346134  0.347547  0.251102  1
  Ir  Ir26  1  0.345968  0.652331  0.749701  1
  Os  Os27  1  0.500130  0.999948  0.132827  1
  Rh  Rh28  1  0.847574  0.154950  0.250626  1
  Rh  Rh29  1  0.500357  0.999955  0.629108  1
  Rh  Rh30  1  0.000077  0.499692  0.870624  1
  Rh  Rh31  1  0.999929  0.499559  0.370297  1
