# generated using pymatgen
data_ThP2IrOs
_symmetry_space_group_name_H-M   'P 1'
_cell_length_a   4.22587100
_cell_length_b   4.22587100
_cell_length_c   9.49159900
_cell_angle_alpha   90.00000000
_cell_angle_beta   90.00000000
_cell_angle_gamma   90.00000000
_symmetry_Int_Tables_number   1
_chemical_formula_structural   ThP2IrOs
_chemical_formula_sum   'Th2 P4 Ir2 Os2'
_cell_volume   169.50083929
_cell_formula_units_Z   2
loop_
 _symmetry_equiv_pos_site_id
 _symmetry_equiv_pos_as_xyz
  1  'x, y, z'
loop_
 _atom_site_type_symbol
 _atom_site_label
 _atom_site_symmetry_multiplicity
 _atom_site_fract_x
 _atom_site_fract_y
 _atom_site_fract_z
 _atom_site_occupancy
  Th  Th0  1  0.000000  0.500000  0.244324  1
  Th  Th1  1  0.500000  0.000000  0.755676  1
  P  P2  1  0.000000  0.000000  0.000000  1
  P  P3  1  0.500000  0.500000  0.000000  1
  P  P4  1  0.000000  0.500000  0.628269  1
  P  P5  1  0.500000  0.000000  0.371731  1
  Ir  Ir6  1  0.000000  0.500000  0.887289  1
  Ir  Ir7  1  0.500000  0.000000  0.112711  1
  Os  Os8  1  0.000000  0.000000  0.500000  1
  Os  Os9  1  0.500000  0.500000  0.500000  1
