# generated using pymatgen
data_Ti4V4Si3As
_symmetry_space_group_name_H-M   'P 1'
_cell_length_a   3.36432200
_cell_length_b   6.57476128
_cell_length_c   7.93139090
_cell_angle_alpha   89.97982254
_cell_angle_beta   90.00000000
_cell_angle_gamma   90.00000000
_symmetry_Int_Tables_number   1
_chemical_formula_structural   Ti4V4Si3As
_chemical_formula_sum   'Ti4 V4 Si3 As1'
_cell_volume   175.43929438
_cell_formula_units_Z   1
loop_
 _symmetry_equiv_pos_site_id
 _symmetry_equiv_pos_as_xyz
  1  'x, y, z'
loop_
 _atom_site_type_symbol
 _atom_site_label
 _atom_site_symmetry_multiplicity
 _atom_site_fract_x
 _atom_site_fract_y
 _atom_site_fract_z
 _atom_site_occupancy
  Ti  Ti0  1  0.250000  0.550947  0.166138  1
  Ti  Ti1  1  0.750000  0.452512  0.836541  1
  Ti  Ti2  1  0.750000  0.943732  0.666286  1
  Ti  Ti3  1  0.250000  0.048635  0.329972  1
  V  V4  1  0.250000  0.629333  0.559849  1
  V  V5  1  0.750000  0.375080  0.437890  1
  V  V6  1  0.750000  0.874984  0.060362  1
  V  V7  1  0.250000  0.125575  0.942088  1
  Si  Si8  1  0.250000  0.749587  0.860884  1
  Si  Si9  1  0.750000  0.251466  0.140344  1
  Si  Si10  1  0.750000  0.750499  0.359539  1
  As  As11  1  0.250000  0.247650  0.640108  1
