# generated using pymatgen
data_Ti4MnOs2Ru
_symmetry_space_group_name_H-M   'P 1'
_cell_length_a   6.11145200
_cell_length_b   4.34480300
_cell_length_c   8.69321800
_cell_angle_alpha   90.00000000
_cell_angle_beta   90.00013153
_cell_angle_gamma   90.00000000
_symmetry_Int_Tables_number   1
_chemical_formula_structural   Ti4MnOs2Ru
_chemical_formula_sum   'Ti8 Mn2 Os4 Ru2'
_cell_volume   230.83149554
_cell_formula_units_Z   2
loop_
 _symmetry_equiv_pos_site_id
 _symmetry_equiv_pos_as_xyz
  1  'x, y, z'
loop_
 _atom_site_type_symbol
 _atom_site_label
 _atom_site_symmetry_multiplicity
 _atom_site_fract_x
 _atom_site_fract_y
 _atom_site_fract_z
 _atom_site_occupancy
  Ti  Ti0  1  0.003169  0.749999  0.121374  1
  Ti  Ti1  1  0.496850  0.749999  0.121379  1
  Ti  Ti2  1  0.996852  0.250000  0.378632  1
  Ti  Ti3  1  0.503178  0.250000  0.378636  1
  Ti  Ti4  1  0.502688  0.749999  0.628259  1
  Ti  Ti5  1  0.997287  0.749999  0.628262  1
  Ti  Ti6  1  0.497312  0.250000  0.871734  1
  Ti  Ti7  1  0.002674  0.250000  0.871735  1
  Mn  Mn8  1  0.749990  0.250000  0.624306  1
  Mn  Mn9  1  0.249987  0.749999  0.875673  1
  Os  Os10  1  0.250013  0.250000  0.123873  1
  Os  Os11  1  0.750012  0.749999  0.376136  1
  Os  Os12  1  0.249991  0.250000  0.626166  1
  Os  Os13  1  0.749990  0.749999  0.873830  1
  Ru  Ru14  1  0.750002  0.250000  0.125337  1
  Ru  Ru15  1  0.250008  0.749999  0.374667  1
