# generated using pymatgen
data_SmTm(Fe4B)2
_symmetry_space_group_name_H-M   'P 1'
_cell_length_a   5.06858600
_cell_length_b   5.06980557
_cell_length_c   7.04277100
_cell_angle_alpha   90.00000000
_cell_angle_beta   90.00000000
_cell_angle_gamma   119.99202973
_symmetry_Int_Tables_number   1
_chemical_formula_structural   SmTm(Fe4B)2
_chemical_formula_sum   'Sm1 Tm1 Fe8 B2'
_cell_volume   156.74265446
_cell_formula_units_Z   1
loop_
 _symmetry_equiv_pos_site_id
 _symmetry_equiv_pos_as_xyz
  1  'x, y, z'
loop_
 _atom_site_type_symbol
 _atom_site_label
 _atom_site_symmetry_multiplicity
 _atom_site_fract_x
 _atom_site_fract_y
 _atom_site_fract_z
 _atom_site_occupancy
  Sm  Sm0  1  0.999981  0.000000  0.000000  1
  Tm  Tm1  1  0.999987  0.000000  0.500000  1
  Fe  Fe2  1  0.333314  0.666668  0.000000  1
  Fe  Fe3  1  0.666646  0.333332  0.000000  1
  Fe  Fe4  1  0.499984  0.000000  0.288817  1
  Fe  Fe5  1  0.499984  0.499999  0.288901  1
  Fe  Fe6  1  0.999984  0.500001  0.288901  1
  Fe  Fe7  1  0.499984  0.000000  0.711183  1
  Fe  Fe8  1  0.499984  0.499999  0.711099  1
  Fe  Fe9  1  0.999984  0.500001  0.711099  1
  B  B10  1  0.333296  0.666619  0.500000  1
  B  B11  1  0.666675  0.333381  0.500000  1
