# generated using pymatgen
data_La16Ho3LuIr12
_symmetry_space_group_name_H-M   'P 1'
_cell_length_a   11.36809700
_cell_length_b   11.36809700
_cell_length_c   6.53910300
_cell_angle_alpha   90.00000000
_cell_angle_beta   90.00000000
_cell_angle_gamma   90.00000000
_symmetry_Int_Tables_number   1
_chemical_formula_structural   La16Ho3LuIr12
_chemical_formula_sum   'La16 Ho3 Lu1 Ir12'
_cell_volume   845.07201372
_cell_formula_units_Z   1
loop_
 _symmetry_equiv_pos_site_id
 _symmetry_equiv_pos_as_xyz
  1  'x, y, z'
loop_
 _atom_site_type_symbol
 _atom_site_label
 _atom_site_symmetry_multiplicity
 _atom_site_fract_x
 _atom_site_fract_y
 _atom_site_fract_z
 _atom_site_occupancy
  La  La0  1  0.287924  0.087453  0.389226  1
  La  La1  1  0.288067  0.912080  0.889525  1
  La  La2  1  0.711933  0.087920  0.889525  1
  La  La3  1  0.712076  0.912547  0.389226  1
  La  La4  1  0.587943  0.787226  0.888981  1
  La  La5  1  0.587716  0.213229  0.389277  1
  La  La6  1  0.412284  0.786771  0.389277  1
  La  La7  1  0.412057  0.212774  0.888981  1
  La  La8  1  0.213229  0.412284  0.610723  1
  La  La9  1  0.212774  0.587943  0.111019  1
  La  La10  1  0.787226  0.412057  0.111019  1
  La  La11  1  0.786771  0.587716  0.610723  1
  La  La12  1  0.912080  0.711933  0.110475  1
  La  La13  1  0.912547  0.287924  0.610774  1
  La  La14  1  0.087453  0.712076  0.610774  1
  La  La15  1  0.087920  0.288067  0.110475  1
  Ho  Ho16  1  0.000000  0.000000  0.500000  1
  Ho  Ho17  1  0.000000  0.000000  0.000000  1
  Ho  Ho18  1  0.500000  0.500000  0.000000  1
  Lu  Lu19  1  0.500000  0.500000  0.500000  1
  Ir  Ir20  1  0.851814  0.148419  0.249807  1
  Ir  Ir21  1  0.851581  0.851814  0.750193  1
  Ir  Ir22  1  0.148419  0.148186  0.750193  1
  Ir  Ir23  1  0.148186  0.851581  0.249807  1
  Ir  Ir24  1  0.646843  0.353052  0.748360  1
  Ir  Ir25  1  0.646948  0.646843  0.251640  1
  Ir  Ir26  1  0.353052  0.353157  0.251640  1
  Ir  Ir27  1  0.353157  0.646948  0.748360  1
  Ir  Ir28  1  0.500000  0.000000  0.120632  1
  Ir  Ir29  1  0.500000  0.000000  0.621246  1
  Ir  Ir30  1  0.000000  0.500000  0.879368  1
  Ir  Ir31  1  0.000000  0.500000  0.378754  1
