# generated using pymatgen
data_Sr5SiBi2
_symmetry_space_group_name_H-M   'P 1'
_cell_length_a   8.67858700
_cell_length_b   10.09396800
_cell_length_c   13.72938300
_cell_angle_alpha   90.00000000
_cell_angle_beta   90.00000000
_cell_angle_gamma   90.00000000
_symmetry_Int_Tables_number   1
_chemical_formula_structural   Sr5SiBi2
_chemical_formula_sum   'Sr20 Si4 Bi8'
_cell_volume   1202.71288998
_cell_formula_units_Z   4
loop_
 _symmetry_equiv_pos_site_id
 _symmetry_equiv_pos_as_xyz
  1  'x, y, z'
loop_
 _atom_site_type_symbol
 _atom_site_label
 _atom_site_symmetry_multiplicity
 _atom_site_fract_x
 _atom_site_fract_y
 _atom_site_fract_z
 _atom_site_occupancy
  Sr  Sr0  1  0.826140  0.528887  0.075732  1
  Sr  Sr1  1  0.673860  0.971113  0.575732  1
  Sr  Sr2  1  0.173860  0.028887  0.924268  1
  Sr  Sr3  1  0.326140  0.471113  0.424268  1
  Sr  Sr4  1  0.173860  0.471113  0.924268  1
  Sr  Sr5  1  0.326140  0.028887  0.424268  1
  Sr  Sr6  1  0.826140  0.971113  0.075732  1
  Sr  Sr7  1  0.673860  0.528887  0.575732  1
  Sr  Sr8  1  0.170244  0.750000  0.215024  1
  Sr  Sr9  1  0.329756  0.750000  0.715024  1
  Sr  Sr10  1  0.829756  0.250000  0.784976  1
  Sr  Sr11  1  0.670244  0.250000  0.284976  1
  Sr  Sr12  1  0.441838  0.750000  0.000338  1
  Sr  Sr13  1  0.058162  0.750000  0.500338  1
  Sr  Sr14  1  0.558162  0.250000  0.999662  1
  Sr  Sr15  1  0.941838  0.250000  0.499662  1
  Sr  Sr16  1  0.642233  0.750000  0.305084  1
  Sr  Sr17  1  0.857767  0.750000  0.805084  1
  Sr  Sr18  1  0.357767  0.250000  0.694916  1
  Sr  Sr19  1  0.142233  0.250000  0.194916  1
  Si  Si20  1  0.438814  0.750000  0.491501  1
  Si  Si21  1  0.061186  0.750000  0.991501  1
  Si  Si22  1  0.561186  0.250000  0.508499  1
  Si  Si23  1  0.938814  0.250000  0.008499  1
  Bi  Bi24  1  0.942284  0.507001  0.330919  1
  Bi  Bi25  1  0.557716  0.992999  0.830919  1
  Bi  Bi26  1  0.057716  0.007001  0.669081  1
  Bi  Bi27  1  0.442284  0.492999  0.169081  1
  Bi  Bi28  1  0.057716  0.492999  0.669081  1
  Bi  Bi29  1  0.442284  0.007001  0.169081  1
  Bi  Bi30  1  0.942284  0.992999  0.330919  1
  Bi  Bi31  1  0.557716  0.507001  0.830919  1
