# generated using pymatgen
data_Tm6TiZn22As
_symmetry_space_group_name_H-M   'P 1'
_cell_length_a   9.04331566
_cell_length_b   9.04331620
_cell_length_c   9.04331600
_cell_angle_alpha   60.00000072
_cell_angle_beta   59.99999876
_cell_angle_gamma   60.00000325
_symmetry_Int_Tables_number   1
_chemical_formula_structural   Tm6TiZn22As
_chemical_formula_sum   'Tm6 Ti1 Zn22 As1'
_cell_volume   522.95958133
_cell_formula_units_Z   1
loop_
 _symmetry_equiv_pos_site_id
 _symmetry_equiv_pos_as_xyz
  1  'x, y, z'
loop_
 _atom_site_type_symbol
 _atom_site_label
 _atom_site_symmetry_multiplicity
 _atom_site_fract_x
 _atom_site_fract_y
 _atom_site_fract_z
 _atom_site_occupancy
  Tm  Tm0  1  0.715494  0.284506  0.284506  1
  Tm  Tm1  1  0.715494  0.284506  0.715494  1
  Tm  Tm2  1  0.715494  0.715494  0.284506  1
  Tm  Tm3  1  0.284506  0.715494  0.715494  1
  Tm  Tm4  1  0.284506  0.715494  0.284506  1
  Tm  Tm5  1  0.284506  0.284506  0.715494  1
  Ti  Ti6  1  0.000000  0.000000  0.000000  1
  Zn  Zn7  1  0.629891  0.123370  0.123370  1
  Zn  Zn8  1  0.123370  0.629891  0.123370  1
  Zn  Zn9  1  0.123370  0.123370  0.629891  1
  Zn  Zn10  1  0.123370  0.123370  0.123370  1
  Zn  Zn11  1  0.370109  0.876630  0.876630  1
  Zn  Zn12  1  0.876630  0.370109  0.876630  1
  Zn  Zn13  1  0.876630  0.876630  0.370109  1
  Zn  Zn14  1  0.876630  0.876630  0.876630  1
  Zn  Zn15  1  0.500000  0.000000  0.000000  1
  Zn  Zn16  1  0.500000  0.000000  0.500000  1
  Zn  Zn17  1  0.500000  0.500000  0.000000  1
  Zn  Zn18  1  0.000000  0.500000  0.500000  1
  Zn  Zn19  1  0.000000  0.500000  0.000000  1
  Zn  Zn20  1  0.000000  0.000000  0.500000  1
  Zn  Zn21  1  0.013076  0.328974  0.328974  1
  Zn  Zn22  1  0.328974  0.013076  0.328974  1
  Zn  Zn23  1  0.328974  0.328974  0.013076  1
  Zn  Zn24  1  0.328974  0.328974  0.328974  1
  Zn  Zn25  1  0.986924  0.671026  0.671026  1
  Zn  Zn26  1  0.671026  0.986924  0.671026  1
  Zn  Zn27  1  0.671026  0.671026  0.986924  1
  Zn  Zn28  1  0.671026  0.671026  0.671026  1
  As  As29  1  0.500000  0.500000  0.500000  1
