# generated using pymatgen
data_Ba2Nd(AgPb)3
_symmetry_space_group_name_H-M   'P 1'
_cell_length_a   5.05813500
_cell_length_b   5.05813490
_cell_length_c   12.79951600
_cell_angle_alpha   90.00000000
_cell_angle_beta   90.00000000
_cell_angle_gamma   120.00000720
_symmetry_Int_Tables_number   1
_chemical_formula_structural   Ba2Nd(AgPb)3
_chemical_formula_sum   'Ba2 Nd1 Ag3 Pb3'
_cell_volume   283.59918061
_cell_formula_units_Z   1
loop_
 _symmetry_equiv_pos_site_id
 _symmetry_equiv_pos_as_xyz
  1  'x, y, z'
loop_
 _atom_site_type_symbol
 _atom_site_label
 _atom_site_symmetry_multiplicity
 _atom_site_fract_x
 _atom_site_fract_y
 _atom_site_fract_z
 _atom_site_occupancy
  Ba  Ba0  1  0.666667  0.333333  0.839742  1
  Ba  Ba1  1  0.666667  0.333333  0.487658  1
  Nd  Nd2  1  0.666667  0.333333  0.166646  1
  Ag  Ag3  1  0.333333  0.666667  0.043725  1
  Ag  Ag4  1  0.000000  0.000000  0.665719  1
  Ag  Ag5  1  0.000000  0.000000  0.277694  1
  Pb  Pb6  1  0.333333  0.666667  0.654867  1
  Pb  Pb7  1  0.333333  0.666667  0.309815  1
  Pb  Pb8  1  0.000000  0.000000  0.032035  1
