# generated using pymatgen
data_ErSc7(WC2)4
_symmetry_space_group_name_H-M   'P 1'
_cell_length_a   5.58203191
_cell_length_b   5.58203118
_cell_length_c   9.58638000
_cell_angle_alpha   89.95266093
_cell_angle_beta   90.04733906
_cell_angle_gamma   89.98202523
_symmetry_Int_Tables_number   1
_chemical_formula_structural   ErSc7(WC2)4
_chemical_formula_sum   'Er1 Sc7 W4 C8'
_cell_volume   298.70252575
_cell_formula_units_Z   1
loop_
 _symmetry_equiv_pos_site_id
 _symmetry_equiv_pos_as_xyz
  1  'x, y, z'
loop_
 _atom_site_type_symbol
 _atom_site_label
 _atom_site_symmetry_multiplicity
 _atom_site_fract_x
 _atom_site_fract_y
 _atom_site_fract_z
 _atom_site_occupancy
  Er  Er0  1  0.299901  0.700099  0.157869  1
  Sc  Sc1  1  0.203128  0.201532  0.344930  1
  Sc  Sc2  1  0.797636  0.796187  0.657952  1
  Sc  Sc3  1  0.295370  0.704630  0.839047  1
  Sc  Sc4  1  0.798468  0.796872  0.344930  1
  Sc  Sc5  1  0.203813  0.202364  0.657952  1
  Sc  Sc6  1  0.703824  0.296176  0.157306  1
  Sc  Sc7  1  0.702083  0.297917  0.842097  1
  W  W8  1  0.173970  0.179162  0.997571  1
  W  W9  1  0.820838  0.826030  0.997571  1
  W  W10  1  0.324642  0.675358  0.501465  1
  W  W11  1  0.679792  0.320208  0.503568  1
  C  C12  1  0.994099  0.005901  0.164549  1
  C  C13  1  0.506804  0.493196  0.339869  1
  C  C14  1  0.501303  0.498697  0.666635  1
  C  C15  1  0.499080  0.006665  0.996186  1
  C  C16  1  0.993335  0.500920  0.996186  1
  C  C17  1  0.998738  0.001262  0.832509  1
  C  C18  1  0.501319  0.998141  0.500905  1
  C  C19  1  0.001859  0.498681  0.500905  1
