# generated using pymatgen
data_Tb15ErIn4NiRh3
_symmetry_space_group_name_H-M   'P 1'
_cell_length_a   9.68981616
_cell_length_b   9.68093927
_cell_length_c   9.67117700
_cell_angle_alpha   60.03335545
_cell_angle_beta   60.06361462
_cell_angle_gamma   60.01507076
_symmetry_Int_Tables_number   1
_chemical_formula_structural   Tb15ErIn4NiRh3
_chemical_formula_sum   'Tb15 Er1 In4 Ni1 Rh3'
_cell_volume   642.04387044
_cell_formula_units_Z   1
loop_
 _symmetry_equiv_pos_site_id
 _symmetry_equiv_pos_as_xyz
  1  'x, y, z'
loop_
 _atom_site_type_symbol
 _atom_site_label
 _atom_site_symmetry_multiplicity
 _atom_site_fract_x
 _atom_site_fract_y
 _atom_site_fract_z
 _atom_site_occupancy
  Tb  Tb0  1  0.810808  0.190128  0.811282  1
  Tb  Tb1  1  0.188262  0.190395  0.810672  1
  Tb  Tb2  1  0.649381  0.049910  0.650354  1
  Tb  Tb3  1  0.061525  0.061273  0.438601  1
  Tb  Tb4  1  0.436480  0.438469  0.062526  1
  Tb  Tb5  1  0.652264  0.649095  0.652250  1
  Tb  Tb6  1  0.810808  0.190128  0.187784  1
  Tb  Tb7  1  0.189254  0.810864  0.810572  1
  Tb  Tb8  1  0.047682  0.648288  0.652015  1
  Tb  Tb9  1  0.438703  0.060822  0.062322  1
  Tb  Tb10  1  0.438703  0.060822  0.438152  1
  Tb  Tb11  1  0.061826  0.438886  0.062816  1
  Tb  Tb12  1  0.652264  0.649095  0.046390  1
  Tb  Tb13  1  0.189254  0.810864  0.189308  1
  Tb  Tb14  1  0.061826  0.438886  0.436472  1
  Er  Er15  1  0.810017  0.810906  0.189538  1
  In  In16  1  0.417090  0.418130  0.416689  1
  In  In17  1  0.417090  0.418130  0.748091  1
  In  In18  1  0.418259  0.746296  0.417722  1
  In  In19  1  0.747849  0.418342  0.416904  1
  Ni  Ni20  1  0.858294  0.426400  0.857653  1
  Rh  Rh21  1  0.857719  0.857812  0.858367  1
  Rh  Rh22  1  0.857719  0.857812  0.426103  1
  Rh  Rh23  1  0.426923  0.858245  0.857416  1
