# generated using pymatgen
data_Er12Co2Ni3Pb
_symmetry_space_group_name_H-M   'P 1'
_cell_length_a   8.23727934
_cell_length_b   8.23727889
_cell_length_c   8.23727949
_cell_angle_alpha   109.42711806
_cell_angle_beta   111.17647971
_cell_angle_gamma   107.82739560
_symmetry_Int_Tables_number   1
_chemical_formula_structural   Er12Co2Ni3Pb
_chemical_formula_sum   'Er12 Co2 Ni3 Pb1'
_cell_volume   429.89054057
_cell_formula_units_Z   1
loop_
 _symmetry_equiv_pos_site_id
 _symmetry_equiv_pos_as_xyz
  1  'x, y, z'
loop_
 _atom_site_type_symbol
 _atom_site_label
 _atom_site_symmetry_multiplicity
 _atom_site_fract_x
 _atom_site_fract_y
 _atom_site_fract_z
 _atom_site_occupancy
  Er  Er0  1  0.290837  0.182476  0.473313  1
  Er  Er1  1  0.709163  0.817524  0.526687  1
  Er  Er2  1  0.290837  0.817524  0.108360  1
  Er  Er3  1  0.709163  0.182476  0.891640  1
  Er  Er4  1  0.624891  0.316510  0.308380  1
  Er  Er5  1  0.375109  0.683490  0.691620  1
  Er  Er6  1  0.008131  0.316510  0.691620  1
  Er  Er7  1  0.991869  0.683490  0.308380  1
  Er  Er8  1  0.211771  0.405701  0.193930  1
  Er  Er9  1  0.788229  0.594299  0.806070  1
  Er  Er10  1  0.211771  0.017842  0.806070  1
  Er  Er11  1  0.788229  0.982158  0.193930  1
  Co  Co12  1  0.385058  0.885058  0.500000  1
  Co  Co13  1  0.614942  0.114942  0.500000  1
  Ni  Ni14  1  0.000000  0.365719  0.365719  1
  Ni  Ni15  1  0.000000  0.634281  0.634281  1
  Ni  Ni16  1  0.000000  0.000000  0.000000  1
  Pb  Pb17  1  0.500000  0.500000  0.000000  1
