# generated using pymatgen
data_Tb12Dy3Tm(InRh)4
_symmetry_space_group_name_H-M   'P 1'
_cell_length_a   9.68926793
_cell_length_b   9.68682545
_cell_length_c   9.67916311
_cell_angle_alpha   60.04149615
_cell_angle_beta   60.03148357
_cell_angle_gamma   59.96003333
_symmetry_Int_Tables_number   1
_chemical_formula_structural   Tb12Dy3Tm(InRh)4
_chemical_formula_sum   'Tb12 Dy3 Tm1 In4 Rh4'
_cell_volume   642.54428071
_cell_formula_units_Z   1
loop_
 _symmetry_equiv_pos_site_id
 _symmetry_equiv_pos_as_xyz
  1  'x, y, z'
loop_
 _atom_site_type_symbol
 _atom_site_label
 _atom_site_symmetry_multiplicity
 _atom_site_fract_x
 _atom_site_fract_y
 _atom_site_fract_z
 _atom_site_occupancy
  Tb  Tb0  1  0.061978  0.062265  0.438022  1
  Tb  Tb1  1  0.438055  0.437751  0.062019  1
  Tb  Tb2  1  0.650550  0.650334  0.649984  1
  Tb  Tb3  1  0.811091  0.188184  0.188646  1
  Tb  Tb4  1  0.187961  0.811424  0.811924  1
  Tb  Tb5  1  0.049064  0.650341  0.650331  1
  Tb  Tb6  1  0.439037  0.061295  0.062092  1
  Tb  Tb7  1  0.438913  0.061198  0.437732  1
  Tb  Tb8  1  0.061317  0.438721  0.062386  1
  Tb  Tb9  1  0.650546  0.650516  0.049020  1
  Tb  Tb10  1  0.188158  0.811214  0.188671  1
  Tb  Tb11  1  0.061148  0.438659  0.437794  1
  Dy  Dy12  1  0.811173  0.188111  0.811924  1
  Dy  Dy13  1  0.189043  0.189078  0.810828  1
  Dy  Dy14  1  0.650436  0.048974  0.650416  1
  Tm  Tm15  1  0.811203  0.811438  0.188576  1
  In  In16  1  0.417466  0.417259  0.417016  1
  In  In17  1  0.417527  0.417236  0.748287  1
  In  In18  1  0.417744  0.747923  0.417173  1
  In  In19  1  0.748005  0.417549  0.417265  1
  Rh  Rh20  1  0.858430  0.426999  0.857117  1
  Rh  Rh21  1  0.856823  0.857582  0.859253  1
  Rh  Rh22  1  0.856867  0.857275  0.426569  1
  Rh  Rh23  1  0.427462  0.858670  0.856953  1
