# generated using pymatgen
data_Sm5DyCo16(ReP6)2
_symmetry_space_group_name_H-M   'P 1'
_cell_length_a   3.75222000
_cell_length_b   10.57431835
_cell_length_c   12.31688541
_cell_angle_alpha   89.97038248
_cell_angle_beta   90.00000000
_cell_angle_gamma   90.00000000
_symmetry_Int_Tables_number   1
_chemical_formula_structural   Sm5DyCo16(ReP6)2
_chemical_formula_sum   'Sm5 Dy1 Co16 Re2 P12'
_cell_volume   488.69907640
_cell_formula_units_Z   1
loop_
 _symmetry_equiv_pos_site_id
 _symmetry_equiv_pos_as_xyz
  1  'x, y, z'
loop_
 _atom_site_type_symbol
 _atom_site_label
 _atom_site_symmetry_multiplicity
 _atom_site_fract_x
 _atom_site_fract_y
 _atom_site_fract_z
 _atom_site_occupancy
  Sm  Sm0  1  0.000000  0.499859  0.522540  1
  Sm  Sm1  1  0.500000  0.999758  0.476679  1
  Sm  Sm2  1  0.500000  0.182041  0.206123  1
  Sm  Sm3  1  0.000000  0.682492  0.793846  1
  Sm  Sm4  1  0.000000  0.317796  0.794550  1
  Dy  Dy5  1  0.500000  0.817297  0.205532  1
  Co  Co6  1  0.500000  0.500323  0.703373  1
  Co  Co7  1  0.000000  0.998406  0.296161  1
  Co  Co8  1  0.000000  0.500920  0.989135  1
  Co  Co9  1  0.500000  0.998875  0.012502  1
  Co  Co10  1  0.500000  0.332583  0.991454  1
  Co  Co11  1  0.500000  0.668614  0.991495  1
  Co  Co12  1  0.000000  0.166805  0.009612  1
  Co  Co13  1  0.000000  0.832139  0.010662  1
  Co  Co14  1  0.500000  0.296253  0.430472  1
  Co  Co15  1  0.500000  0.703673  0.428841  1
  Co  Co16  1  0.000000  0.203372  0.569470  1
  Co  Co17  1  0.000000  0.796295  0.568216  1
  Co  Co18  1  0.500000  0.880687  0.709053  1
  Co  Co19  1  0.500000  0.119423  0.710020  1
  Co  Co20  1  0.000000  0.620837  0.289409  1
  Co  Co21  1  0.000000  0.381223  0.290318  1
  Re  Re22  1  0.500000  0.500831  0.155360  1
  Re  Re23  1  0.000000  0.999344  0.845061  1
  P  P24  1  0.500000  0.500525  0.883334  1
  P  P25  1  0.000000  0.998399  0.118445  1
  P  P26  1  0.500000  0.499841  0.346104  1
  P  P27  1  0.000000  0.000006  0.653697  1
  P  P28  1  0.500000  0.309346  0.615041  1
  P  P29  1  0.500000  0.691008  0.614019  1
  P  P30  1  0.000000  0.190284  0.384860  1
  P  P31  1  0.000000  0.809640  0.382609  1
  P  P32  1  0.500000  0.846989  0.893563  1
  P  P33  1  0.500000  0.152781  0.894661  1
  P  P34  1  0.000000  0.654586  0.107486  1
  P  P35  1  0.000000  0.346749  0.106292  1
