# generated using pymatgen
data_Ca3TbLu4(B6Ru)4
_symmetry_space_group_name_H-M   'P 1'
_cell_length_a   3.62090100
_cell_length_b   9.10045923
_cell_length_c   11.50480556
_cell_angle_alpha   89.94034374
_cell_angle_beta   90.00000000
_cell_angle_gamma   90.00000000
_symmetry_Int_Tables_number   1
_chemical_formula_structural   Ca3TbLu4(B6Ru)4
_chemical_formula_sum   'Ca3 Tb1 Lu4 B24 Ru4'
_cell_volume   379.10455891
_cell_formula_units_Z   1
loop_
 _symmetry_equiv_pos_site_id
 _symmetry_equiv_pos_as_xyz
  1  'x, y, z'
loop_
 _atom_site_type_symbol
 _atom_site_label
 _atom_site_symmetry_multiplicity
 _atom_site_fract_x
 _atom_site_fract_y
 _atom_site_fract_z
 _atom_site_occupancy
  Ca  Ca0  1  0.000000  0.324039  0.414619  1
  Ca  Ca1  1  0.000000  0.675974  0.584791  1
  Ca  Ca2  1  0.000000  0.822729  0.085928  1
  Tb  Tb3  1  0.000000  0.176048  0.914910  1
  Lu  Lu4  1  0.000000  0.941455  0.367230  1
  Lu  Lu5  1  0.000000  0.057728  0.631304  1
  Lu  Lu6  1  0.000000  0.443322  0.132545  1
  Lu  Lu7  1  0.000000  0.558176  0.868165  1
  B  B8  1  0.500000  0.553771  0.432366  1
  B  B9  1  0.500000  0.445731  0.568110  1
  B  B10  1  0.500000  0.054497  0.067531  1
  B  B11  1  0.500000  0.945725  0.932557  1
  B  B12  1  0.500000  0.749940  0.417152  1
  B  B13  1  0.500000  0.249990  0.582883  1
  B  B14  1  0.500000  0.250222  0.082438  1
  B  B15  1  0.500000  0.750219  0.917407  1
  B  B16  1  0.500000  0.791890  0.264614  1
  B  B17  1  0.500000  0.207887  0.735521  1
  B  B18  1  0.500000  0.292045  0.234780  1
  B  B19  1  0.500000  0.708868  0.765183  1
  B  B20  1  0.500000  0.630391  0.185390  1
  B  B21  1  0.500000  0.369441  0.815403  1
  B  B22  1  0.500000  0.130479  0.314188  1
  B  B23  1  0.500000  0.869878  0.684921  1
  B  B24  1  0.500000  0.982951  0.211858  1
  B  B25  1  0.500000  0.017019  0.787694  1
  B  B26  1  0.500000  0.483390  0.287964  1
  B  B27  1  0.500000  0.516453  0.712525  1
  B  B28  1  0.500000  0.597704  0.026794  1
  B  B29  1  0.500000  0.401739  0.973192  1
  B  B30  1  0.500000  0.096009  0.473368  1
  B  B31  1  0.500000  0.903769  0.526025  1
  Ru  Ru32  1  0.000000  0.639872  0.319264  1
  Ru  Ru33  1  0.000000  0.358979  0.682141  1
  Ru  Ru34  1  0.000000  0.139619  0.180075  1
  Ru  Ru35  1  0.000000  0.862050  0.819162  1
