# generated using pymatgen
data_Sc4Sn2B4RuRh9
_symmetry_space_group_name_H-M   'P 1'
_cell_length_a   9.43838826
_cell_length_b   9.43838826
_cell_length_c   3.17702000
_cell_angle_alpha   90.00000000
_cell_angle_beta   90.00000000
_cell_angle_gamma   89.72969232
_symmetry_Int_Tables_number   1
_chemical_formula_structural   Sc4Sn2B4RuRh9
_chemical_formula_sum   'Sc4 Sn2 B4 Ru1 Rh9'
_cell_volume   283.01587245
_cell_formula_units_Z   1
loop_
 _symmetry_equiv_pos_site_id
 _symmetry_equiv_pos_as_xyz
  1  'x, y, z'
loop_
 _atom_site_type_symbol
 _atom_site_label
 _atom_site_symmetry_multiplicity
 _atom_site_fract_x
 _atom_site_fract_y
 _atom_site_fract_z
 _atom_site_occupancy
  Sc  Sc0  1  0.824987  0.324987  0.000000  1
  Sc  Sc1  1  0.327336  0.172664  0.000000  1
  Sc  Sc2  1  0.672664  0.827336  0.000000  1
  Sc  Sc3  1  0.175013  0.675013  0.000000  1
  Sn  Sn4  1  0.000000  0.000000  0.000000  1
  Sn  Sn5  1  0.500000  0.500000  0.000000  1
  B  B6  1  0.620768  0.120768  0.000000  1
  B  B7  1  0.121762  0.378238  0.000000  1
  B  B8  1  0.878238  0.621762  0.000000  1
  B  B9  1  0.379232  0.879232  0.000000  1
  Ru  Ru10  1  0.500000  0.000000  0.500000  1
  Rh  Rh11  1  0.072234  0.222963  0.500000  1
  Rh  Rh12  1  0.221262  0.926457  0.500000  1
  Rh  Rh13  1  0.778738  0.073543  0.500000  1
  Rh  Rh14  1  0.927766  0.777037  0.500000  1
  Rh  Rh15  1  0.426457  0.721262  0.500000  1
  Rh  Rh16  1  0.573543  0.278738  0.500000  1
  Rh  Rh17  1  0.722963  0.572234  0.500000  1
  Rh  Rh18  1  0.277037  0.427766  0.500000  1
  Rh  Rh19  1  0.000000  0.500000  0.500000  1
