# generated using pymatgen
data_Er3Sc3CoTe2
_symmetry_space_group_name_H-M   'P 1'
_cell_length_a   3.89775800
_cell_length_b   7.95925646
_cell_length_c   7.95925600
_cell_angle_alpha   119.99998977
_cell_angle_beta   90.00000000
_cell_angle_gamma   90.00000000
_symmetry_Int_Tables_number   1
_chemical_formula_structural   Er3Sc3CoTe2
_chemical_formula_sum   'Er3 Sc3 Co1 Te2'
_cell_volume   213.84077520
_cell_formula_units_Z   1
loop_
 _symmetry_equiv_pos_site_id
 _symmetry_equiv_pos_as_xyz
  1  'x, y, z'
loop_
 _atom_site_type_symbol
 _atom_site_label
 _atom_site_symmetry_multiplicity
 _atom_site_fract_x
 _atom_site_fract_y
 _atom_site_fract_z
 _atom_site_occupancy
  Er  Er0  1  0.000000  0.387946  0.387946  1
  Er  Er1  1  0.000000  0.000000  0.612054  1
  Er  Er2  1  0.000000  0.612054  0.000000  1
  Sc  Sc3  1  0.500000  0.770606  0.770606  1
  Sc  Sc4  1  0.500000  0.000000  0.229394  1
  Sc  Sc5  1  0.500000  0.229394  0.000000  1
  Co  Co6  1  0.000000  0.000000  0.000000  1
  Te  Te7  1  0.500000  0.666667  0.333333  1
  Te  Te8  1  0.500000  0.333333  0.666667  1
