# generated using pymatgen
data_PbS4(BrO8)2
_symmetry_space_group_name_H-M   'P 1'
_cell_length_a   6.72275926
_cell_length_b   6.72275877
_cell_length_c   9.20405189
_cell_angle_alpha   73.64414927
_cell_angle_beta   73.64414556
_cell_angle_gamma   86.70504780
_symmetry_Int_Tables_number   1
_chemical_formula_structural   PbS4(BrO8)2
_chemical_formula_sum   'Pb1 S4 Br2 O16'
_cell_volume   382.88675543
_cell_formula_units_Z   1
loop_
 _symmetry_equiv_pos_site_id
 _symmetry_equiv_pos_as_xyz
  1  'x, y, z'
loop_
 _atom_site_type_symbol
 _atom_site_label
 _atom_site_symmetry_multiplicity
 _atom_site_fract_x
 _atom_site_fract_y
 _atom_site_fract_z
 _atom_site_occupancy
  Pb  Pb0  1  0.000000  0.000000  0.000000  1
  S  S1  1  0.086569  0.589547  0.738300  1
  S  S2  1  0.589547  0.086569  0.738300  1
  S  S3  1  0.913431  0.410453  0.261700  1
  S  S4  1  0.410453  0.913431  0.261700  1
  Br  Br5  1  0.000000  0.000000  0.500000  1
  Br  Br6  1  0.500000  0.500000  0.500000  1
  O  O7  1  0.324186  0.630921  0.671368  1
  O  O8  1  0.630921  0.324186  0.671368  1
  O  O9  1  0.675814  0.369079  0.328632  1
  O  O10  1  0.369079  0.675814  0.328632  1
  O  O11  1  0.021254  0.700443  0.857147  1
  O  O12  1  0.700443  0.021254  0.857147  1
  O  O13  1  0.978746  0.299557  0.142853  1
  O  O14  1  0.299557  0.978746  0.142853  1
  O  O15  1  0.991315  0.682280  0.598494  1
  O  O16  1  0.682280  0.991315  0.598494  1
  O  O17  1  0.008685  0.317720  0.401506  1
  O  O18  1  0.317720  0.008685  0.401506  1
  O  O19  1  0.035151  0.369831  0.786169  1
  O  O20  1  0.369831  0.035151  0.786169  1
  O  O21  1  0.964849  0.630169  0.213831  1
  O  O22  1  0.630169  0.964849  0.213831  1
