# generated using pymatgen
data_Hf15Sc3Ti2(Re3P)2
_symmetry_space_group_name_H-M   'P 1'
_cell_length_a   8.62992900
_cell_length_b   8.62992947
_cell_length_c   8.52638100
_cell_angle_alpha   90.00000000
_cell_angle_beta   90.00000000
_cell_angle_gamma   120.00000203
_symmetry_Int_Tables_number   1
_chemical_formula_structural   Hf15Sc3Ti2(Re3P)2
_chemical_formula_sum   'Hf15 Sc3 Ti2 Re6 P2'
_cell_volume   549.93305780
_cell_formula_units_Z   1
loop_
 _symmetry_equiv_pos_site_id
 _symmetry_equiv_pos_as_xyz
  1  'x, y, z'
loop_
 _atom_site_type_symbol
 _atom_site_label
 _atom_site_symmetry_multiplicity
 _atom_site_fract_x
 _atom_site_fract_y
 _atom_site_fract_z
 _atom_site_occupancy
  Hf  Hf0  1  0.196194  0.803806  0.451160  1
  Hf  Hf1  1  0.196194  0.392387  0.451160  1
  Hf  Hf2  1  0.607613  0.803806  0.451160  1
  Hf  Hf3  1  0.803473  0.196527  0.548306  1
  Hf  Hf4  1  0.803473  0.606949  0.548306  1
  Hf  Hf5  1  0.393051  0.196527  0.548306  1
  Hf  Hf6  1  0.803473  0.196527  0.951694  1
  Hf  Hf7  1  0.803473  0.606949  0.951694  1
  Hf  Hf8  1  0.393051  0.196527  0.951694  1
  Hf  Hf9  1  0.196194  0.803806  0.048840  1
  Hf  Hf10  1  0.196194  0.392387  0.048840  1
  Hf  Hf11  1  0.607613  0.803806  0.048840  1
  Hf  Hf12  1  0.458507  0.541493  0.750000  1
  Hf  Hf13  1  0.458507  0.917014  0.750000  1
  Hf  Hf14  1  0.082986  0.541493  0.750000  1
  Sc  Sc15  1  0.541439  0.458561  0.250000  1
  Sc  Sc16  1  0.541439  0.082877  0.250000  1
  Sc  Sc17  1  0.917123  0.458561  0.250000  1
  Ti  Ti18  1  0.000000  0.000000  0.497704  1
  Ti  Ti19  1  0.000000  0.000000  0.002296  1
  Re  Re20  1  0.888473  0.111527  0.250000  1
  Re  Re21  1  0.888473  0.776946  0.250000  1
  Re  Re22  1  0.223054  0.111527  0.250000  1
  Re  Re23  1  0.111785  0.888215  0.750000  1
  Re  Re24  1  0.111785  0.223571  0.750000  1
  Re  Re25  1  0.776429  0.888215  0.750000  1
  P  P26  1  0.333333  0.666667  0.250000  1
  P  P27  1  0.666667  0.333333  0.750000  1
