# generated using pymatgen
data_Ho8SiPBr12
_symmetry_space_group_name_H-M   'P 1'
_cell_length_a   4.00843400
_cell_length_b   13.07966185
_cell_length_c   13.84665613
_cell_angle_alpha   89.93418277
_cell_angle_beta   90.00000000
_cell_angle_gamma   90.00000000
_symmetry_Int_Tables_number   1
_chemical_formula_structural   Ho8SiPBr12
_chemical_formula_sum   'Ho8 Si1 P1 Br12'
_cell_volume   725.96531932
_cell_formula_units_Z   1
loop_
 _symmetry_equiv_pos_site_id
 _symmetry_equiv_pos_as_xyz
  1  'x, y, z'
loop_
 _atom_site_type_symbol
 _atom_site_label
 _atom_site_symmetry_multiplicity
 _atom_site_fract_x
 _atom_site_fract_y
 _atom_site_fract_z
 _atom_site_occupancy
  Ho  Ho0  1  0.500000  0.116021  0.344234  1
  Ho  Ho1  1  0.500000  0.883979  0.655766  1
  Ho  Ho2  1  0.500000  0.618940  0.159705  1
  Ho  Ho3  1  0.500000  0.381060  0.840295  1
  Ho  Ho4  1  0.000000  0.113326  0.575142  1
  Ho  Ho5  1  0.000000  0.886674  0.424858  1
  Ho  Ho6  1  0.000000  0.618659  0.921124  1
  Ho  Ho7  1  0.000000  0.381341  0.078876  1
  Si  Si8  1  0.500000  0.500000  0.000000  1
  P  P9  1  0.500000  0.000000  0.500000  1
  Br  Br10  1  0.500000  0.242819  0.163459  1
  Br  Br11  1  0.500000  0.757181  0.836541  1
  Br  Br12  1  0.500000  0.745148  0.338182  1
  Br  Br13  1  0.500000  0.254852  0.661818  1
  Br  Br14  1  0.000000  0.255531  0.412187  1
  Br  Br15  1  0.000000  0.744469  0.587813  1
  Br  Br16  1  0.000000  0.757378  0.088458  1
  Br  Br17  1  0.000000  0.242622  0.911542  1
  Br  Br18  1  0.000000  0.001086  0.243359  1
  Br  Br19  1  0.000000  0.998914  0.756641  1
  Br  Br20  1  0.000000  0.501233  0.258752  1
  Br  Br21  1  0.000000  0.498767  0.741248  1
