# generated using pymatgen
data_TaTi3(PdPt)6
_symmetry_space_group_name_H-M   'P 1'
_cell_length_a   5.57622300
_cell_length_b   5.57622294
_cell_length_c   9.15721800
_cell_angle_alpha   90.00000000
_cell_angle_beta   90.00000000
_cell_angle_gamma   119.99999440
_symmetry_Int_Tables_number   1
_chemical_formula_structural   TaTi3(PdPt)6
_chemical_formula_sum   'Ta1 Ti3 Pd6 Pt6'
_cell_volume   246.58943868
_cell_formula_units_Z   1
loop_
 _symmetry_equiv_pos_site_id
 _symmetry_equiv_pos_as_xyz
  1  'x, y, z'
loop_
 _atom_site_type_symbol
 _atom_site_label
 _atom_site_symmetry_multiplicity
 _atom_site_fract_x
 _atom_site_fract_y
 _atom_site_fract_z
 _atom_site_occupancy
  Ta  Ta0  1  0.000000  0.000000  0.500000  1
  Ti  Ti1  1  0.000000  0.000000  0.000000  1
  Ti  Ti2  1  0.333333  0.666667  0.247965  1
  Ti  Ti3  1  0.666667  0.333333  0.752035  1
  Pd  Pd4  1  0.500000  0.500000  0.500000  1
  Pd  Pd5  1  0.500000  0.000000  0.500000  1
  Pd  Pd6  1  0.000000  0.500000  0.500000  1
  Pd  Pd7  1  0.500000  0.500000  0.000000  1
  Pd  Pd8  1  0.500000  0.000000  0.000000  1
  Pd  Pd9  1  0.000000  0.500000  0.000000  1
  Pt  Pt10  1  0.833190  0.666383  0.249819  1
  Pt  Pt11  1  0.333617  0.166810  0.249819  1
  Pt  Pt12  1  0.833190  0.166810  0.249819  1
  Pt  Pt13  1  0.166810  0.333617  0.750181  1
  Pt  Pt14  1  0.666383  0.833190  0.750181  1
  Pt  Pt15  1  0.166810  0.833190  0.750181  1
