# generated using pymatgen
data_Sr5HgPt2
_symmetry_space_group_name_H-M   'P 1'
_cell_length_a   8.31284455
_cell_length_b   8.31277018
_cell_length_c   9.69933844
_cell_angle_alpha   115.38650015
_cell_angle_beta   115.37408417
_cell_angle_gamma   90.00000814
_symmetry_Int_Tables_number   1
_chemical_formula_structural   Sr5HgPt2
_chemical_formula_sum   'Sr10 Hg2 Pt4'
_cell_volume   533.07604067
_cell_formula_units_Z   2
loop_
 _symmetry_equiv_pos_site_id
 _symmetry_equiv_pos_as_xyz
  1  'x, y, z'
loop_
 _atom_site_type_symbol
 _atom_site_label
 _atom_site_symmetry_multiplicity
 _atom_site_fract_x
 _atom_site_fract_y
 _atom_site_fract_z
 _atom_site_occupancy
  Sr  Sr0  1  0.000000  0.000000  0.000000  1
  Sr  Sr1  1  0.500000  0.500000  0.000000  1
  Sr  Sr2  1  0.465333  0.298954  0.264352  1
  Sr  Sr3  1  0.965382  0.465320  0.264187  1
  Sr  Sr4  1  0.299019  0.798954  0.264352  1
  Sr  Sr5  1  0.798803  0.965319  0.264187  1
  Sr  Sr6  1  0.201197  0.034681  0.735813  1
  Sr  Sr7  1  0.700982  0.201046  0.735648  1
  Sr  Sr8  1  0.034618  0.534682  0.735813  1
  Sr  Sr9  1  0.534669  0.701047  0.735648  1
  Hg  Hg10  1  0.250042  0.250000  0.500000  1
  Hg  Hg11  1  0.749958  0.750000  0.500000  1
  Pt  Pt12  1  0.628947  0.128949  0.000010  1
  Pt  Pt13  1  0.128940  0.371051  0.999990  1
  Pt  Pt14  1  0.871061  0.628948  0.000010  1
  Pt  Pt15  1  0.371052  0.871052  0.999990  1
