# generated using pymatgen
data_CeY3(Si3Ir)2
_symmetry_space_group_name_H-M   'P 1'
_cell_length_a   8.18831800
_cell_length_b   8.18832025
_cell_length_c   8.04269200
_cell_angle_alpha   90.00000000
_cell_angle_beta   90.00000000
_cell_angle_gamma   119.99999091
_symmetry_Int_Tables_number   1
_chemical_formula_structural   CeY3(Si3Ir)2
_chemical_formula_sum   'Ce2 Y6 Si12 Ir4'
_cell_volume   467.00510629
_cell_formula_units_Z   2
loop_
 _symmetry_equiv_pos_site_id
 _symmetry_equiv_pos_as_xyz
  1  'x, y, z'
loop_
 _atom_site_type_symbol
 _atom_site_label
 _atom_site_symmetry_multiplicity
 _atom_site_fract_x
 _atom_site_fract_y
 _atom_site_fract_z
 _atom_site_occupancy
  Ce  Ce0  1  0.000000  0.000000  0.250000  1
  Ce  Ce1  1  0.000000  0.000000  0.750000  1
  Y  Y2  1  0.509269  0.490731  0.250000  1
  Y  Y3  1  0.509269  0.018537  0.250000  1
  Y  Y4  1  0.981463  0.490731  0.250000  1
  Y  Y5  1  0.490731  0.509269  0.750000  1
  Y  Y6  1  0.490731  0.981463  0.750000  1
  Y  Y7  1  0.018537  0.509269  0.750000  1
  Si  Si8  1  0.167130  0.832870  0.499594  1
  Si  Si9  1  0.167130  0.334260  0.499594  1
  Si  Si10  1  0.665740  0.832870  0.499594  1
  Si  Si11  1  0.832870  0.167130  0.500406  1
  Si  Si12  1  0.832870  0.665740  0.500406  1
  Si  Si13  1  0.334260  0.167130  0.500406  1
  Si  Si14  1  0.832870  0.167130  0.999594  1
  Si  Si15  1  0.832870  0.665740  0.999594  1
  Si  Si16  1  0.334260  0.167130  0.999594  1
  Si  Si17  1  0.167130  0.832870  0.000406  1
  Si  Si18  1  0.167130  0.334260  0.000406  1
  Si  Si19  1  0.665740  0.832870  0.000406  1
  Ir  Ir20  1  0.333333  0.666667  0.468334  1
  Ir  Ir21  1  0.666667  0.333333  0.531666  1
  Ir  Ir22  1  0.666667  0.333333  0.968334  1
  Ir  Ir23  1  0.333333  0.666667  0.031666  1
