# generated using pymatgen
data_Tb2HoTm5(WO6)4
_symmetry_space_group_name_H-M   'P 1'
_cell_length_a   5.36383000
_cell_length_b   7.65575075
_cell_length_c   11.39334778
_cell_angle_alpha   75.36144705
_cell_angle_beta   90.00000000
_cell_angle_gamma   90.00000000
_symmetry_Int_Tables_number   1
_chemical_formula_structural   Tb2HoTm5(WO6)4
_chemical_formula_sum   'Tb2 Ho1 Tm5 W4 O24'
_cell_volume   452.67110894
_cell_formula_units_Z   1
loop_
 _symmetry_equiv_pos_site_id
 _symmetry_equiv_pos_as_xyz
  1  'x, y, z'
loop_
 _atom_site_type_symbol
 _atom_site_label
 _atom_site_symmetry_multiplicity
 _atom_site_fract_x
 _atom_site_fract_y
 _atom_site_fract_z
 _atom_site_occupancy
  Tb  Tb0  1  0.684392  0.500000  0.750000  1
  Tb  Tb1  1  0.315309  0.500000  0.250000  1
  Ho  Ho2  1  0.740612  0.000000  0.750000  1
  Tm  Tm3  1  0.259867  0.000000  0.250000  1
  Tm  Tm4  1  0.185513  0.796167  0.577911  1
  Tm  Tm5  1  0.814710  0.796343  0.078368  1
  Tm  Tm6  1  0.185513  0.203833  0.922089  1
  Tm  Tm7  1  0.814710  0.203657  0.421632  1
  W  W8  1  0.254748  0.723990  0.885739  1
  W  W9  1  0.745169  0.724586  0.385453  1
  W  W10  1  0.254748  0.276010  0.614261  1
  W  W11  1  0.745169  0.275414  0.114547  1
  O  O12  1  0.042220  0.941119  0.896547  1
  O  O13  1  0.534575  0.847454  0.931593  1
  O  O14  1  0.959621  0.941435  0.395546  1
  O  O15  1  0.458030  0.791491  0.726243  1
  O  O16  1  0.464932  0.848289  0.430808  1
  O  O17  1  0.982477  0.713336  0.769833  1
  O  O18  1  0.540415  0.792818  0.226236  1
  O  O19  1  0.853851  0.636426  0.548800  1
  O  O20  1  0.358010  0.488244  0.887228  1
  O  O21  1  0.017639  0.713984  0.269719  1
  O  O22  1  0.358010  0.511756  0.612772  1
  O  O23  1  0.853851  0.363574  0.951200  1
  O  O24  1  0.145738  0.635920  0.048999  1
  O  O25  1  0.642263  0.488657  0.386962  1
  O  O26  1  0.982477  0.286664  0.730167  1
  O  O27  1  0.642263  0.511343  0.113038  1
  O  O28  1  0.145738  0.364080  0.451001  1
  O  O29  1  0.458030  0.208509  0.773757  1
  O  O30  1  0.017639  0.286016  0.230281  1
  O  O31  1  0.534575  0.152546  0.568407  1
  O  O32  1  0.540415  0.207182  0.273764  1
  O  O33  1  0.042220  0.058881  0.603453  1
  O  O34  1  0.464932  0.151711  0.069192  1
  O  O35  1  0.959621  0.058565  0.104454  1
