# generated using pymatgen
data_Ca3In3Ni8Sn
_symmetry_space_group_name_H-M   'P 1'
_cell_length_a   7.52945100
_cell_length_b   8.95609680
_cell_length_c   8.95609600
_cell_angle_alpha   59.99999556
_cell_angle_beta   90.00000000
_cell_angle_gamma   90.00000000
_symmetry_Int_Tables_number   1
_chemical_formula_structural   Ca3In3Ni8Sn
_chemical_formula_sum   'Ca6 In6 Ni16 Sn2'
_cell_volume   523.03583223
_cell_formula_units_Z   2
loop_
 _symmetry_equiv_pos_site_id
 _symmetry_equiv_pos_as_xyz
  1  'x, y, z'
loop_
 _atom_site_type_symbol
 _atom_site_label
 _atom_site_symmetry_multiplicity
 _atom_site_fract_x
 _atom_site_fract_y
 _atom_site_fract_z
 _atom_site_occupancy
  Ca  Ca0  1  0.234520  0.939198  0.530401  1
  Ca  Ca1  1  0.734520  0.469599  0.469599  1
  Ca  Ca2  1  0.734520  0.469599  0.060802  1
  Ca  Ca3  1  0.234520  0.530401  0.939198  1
  Ca  Ca4  1  0.234520  0.530401  0.530401  1
  Ca  Ca5  1  0.734520  0.060802  0.469599  1
  In  In6  1  0.431426  0.169422  0.661156  1
  In  In7  1  0.931426  0.338844  0.830578  1
  In  In8  1  0.931426  0.830578  0.830578  1
  In  In9  1  0.431426  0.169422  0.169422  1
  In  In10  1  0.431426  0.661156  0.169422  1
  In  In11  1  0.931426  0.830578  0.338844  1
  Ni  Ni12  1  0.000814  0.000000  0.000000  1
  Ni  Ni13  1  0.500814  0.000000  0.000000  1
  Ni  Ni14  1  0.418084  0.333333  0.333333  1
  Ni  Ni15  1  0.918084  0.666667  0.666667  1
  Ni  Ni16  1  0.250065  0.901277  0.197445  1
  Ni  Ni17  1  0.750065  0.802556  0.098722  1
  Ni  Ni18  1  0.750065  0.098723  0.098722  1
  Ni  Ni19  1  0.250065  0.901277  0.901278  1
  Ni  Ni20  1  0.250065  0.197444  0.901278  1
  Ni  Ni21  1  0.750065  0.098723  0.802555  1
  Ni  Ni22  1  0.563316  0.837787  0.324427  1
  Ni  Ni23  1  0.063316  0.675572  0.162214  1
  Ni  Ni24  1  0.063316  0.162213  0.162214  1
  Ni  Ni25  1  0.563316  0.837787  0.837786  1
  Ni  Ni26  1  0.563316  0.324428  0.837786  1
  Ni  Ni27  1  0.063316  0.162213  0.675573  1
  Sn  Sn28  1  0.570870  0.666667  0.666667  1
  Sn  Sn29  1  0.070870  0.333333  0.333333  1
