# generated using pymatgen
data_Nd2GdLuPt2
_symmetry_space_group_name_H-M   'P 1'
_cell_length_a   4.86798100
_cell_length_b   7.36054200
_cell_length_c   8.87397800
_cell_angle_alpha   90.00000000
_cell_angle_beta   90.00000000
_cell_angle_gamma   90.00000000
_symmetry_Int_Tables_number   1
_chemical_formula_structural   Nd2GdLuPt2
_chemical_formula_sum   'Nd4 Gd2 Lu2 Pt4'
_cell_volume   317.96331587
_cell_formula_units_Z   2
loop_
 _symmetry_equiv_pos_site_id
 _symmetry_equiv_pos_as_xyz
  1  'x, y, z'
loop_
 _atom_site_type_symbol
 _atom_site_label
 _atom_site_symmetry_multiplicity
 _atom_site_fract_x
 _atom_site_fract_y
 _atom_site_fract_z
 _atom_site_occupancy
  Nd  Nd0  1  0.750000  0.491103  0.830544  1
  Nd  Nd1  1  0.250000  0.011526  0.327279  1
  Nd  Nd2  1  0.750000  0.991103  0.669456  1
  Nd  Nd3  1  0.250000  0.511526  0.172721  1
  Gd  Gd4  1  0.250000  0.641619  0.577882  1
  Gd  Gd5  1  0.250000  0.141619  0.922118  1
  Lu  Lu6  1  0.750000  0.357301  0.419998  1
  Lu  Lu7  1  0.750000  0.857301  0.080002  1
  Pt  Pt8  1  0.250000  0.751397  0.914806  1
  Pt  Pt9  1  0.250000  0.251397  0.585194  1
  Pt  Pt10  1  0.750000  0.747055  0.402969  1
  Pt  Pt11  1  0.750000  0.247055  0.097031  1
