# generated using pymatgen
data_Na4UAsSe6
_symmetry_space_group_name_H-M   'P 1'
_cell_length_a   7.14090994
_cell_length_b   7.14091085
_cell_length_c   7.30826845
_cell_angle_alpha   80.49974350
_cell_angle_beta   80.49973602
_cell_angle_gamma   120.17140884
_symmetry_Int_Tables_number   1
_chemical_formula_structural   Na4UAsSe6
_chemical_formula_sum   'Na4 U1 As1 Se6'
_cell_volume   304.02394387
_cell_formula_units_Z   1
loop_
 _symmetry_equiv_pos_site_id
 _symmetry_equiv_pos_as_xyz
  1  'x, y, z'
loop_
 _atom_site_type_symbol
 _atom_site_label
 _atom_site_symmetry_multiplicity
 _atom_site_fract_x
 _atom_site_fract_y
 _atom_site_fract_z
 _atom_site_occupancy
  Na  Na0  1  0.000286  0.999714  0.000000  1
  Na  Na1  1  0.503170  0.496830  0.500000  1
  Na  Na2  1  0.838686  0.161314  0.500000  1
  Na  Na3  1  0.158820  0.841180  0.500000  1
  U  U4  1  0.332963  0.667037  0.000000  1
  As  As5  1  0.671023  0.328977  0.000000  1
  Se  Se6  1  0.282096  0.281842  0.225229  1
  Se  Se7  1  0.434642  0.078276  0.777023  1
  Se  Se8  1  0.069206  0.430775  0.777473  1
  Se  Se9  1  0.718158  0.717904  0.774771  1
  Se  Se10  1  0.569225  0.930794  0.222527  1
  Se  Se11  1  0.921724  0.565358  0.222977  1
