# generated using pymatgen
data_Tb6InCoSi
_symmetry_space_group_name_H-M   'P 1'
_cell_length_a   8.51941411
_cell_length_b   8.51941450
_cell_length_c   8.51941419
_cell_angle_alpha   113.49687259
_cell_angle_beta   110.57437221
_cell_angle_gamma   104.47029441
_symmetry_Int_Tables_number   1
_chemical_formula_structural   Tb6InCoSi
_chemical_formula_sum   'Tb12 In2 Co2 Si2'
_cell_volume   472.97360908
_cell_formula_units_Z   2
loop_
 _symmetry_equiv_pos_site_id
 _symmetry_equiv_pos_as_xyz
  1  'x, y, z'
loop_
 _atom_site_type_symbol
 _atom_site_label
 _atom_site_symmetry_multiplicity
 _atom_site_fract_x
 _atom_site_fract_y
 _atom_site_fract_z
 _atom_site_occupancy
  Tb  Tb0  1  0.441282  0.240349  0.200934  1
  Tb  Tb1  1  0.558718  0.759651  0.799066  1
  Tb  Tb2  1  0.039414  0.240349  0.799066  1
  Tb  Tb3  1  0.960586  0.759651  0.200934  1
  Tb  Tb4  1  0.187971  0.287910  0.475881  1
  Tb  Tb5  1  0.812029  0.712090  0.524119  1
  Tb  Tb6  1  0.187971  0.712090  0.900061  1
  Tb  Tb7  1  0.812029  0.287910  0.099939  1
  Tb  Tb8  1  0.305090  0.615653  0.310562  1
  Tb  Tb9  1  0.694910  0.384347  0.689438  1
  Tb  Tb10  1  0.305090  0.994527  0.689438  1
  Tb  Tb11  1  0.694910  0.005473  0.310562  1
  In  In12  1  0.500000  0.500000  0.000000  1
  In  In13  1  0.000000  0.000000  0.000000  1
  Co  Co14  1  0.107144  0.607144  0.500000  1
  Co  Co15  1  0.892856  0.392856  0.500000  1
  Si  Si16  1  0.364625  0.000000  0.364625  1
  Si  Si17  1  0.635375  0.000000  0.635375  1
