# generated using pymatgen
data_YLuTaB2Ru5
_symmetry_space_group_name_H-M   'P 1'
_cell_length_a   9.66160306
_cell_length_b   9.66160306
_cell_length_c   3.11610500
_cell_angle_alpha   90.00000000
_cell_angle_beta   90.00000000
_cell_angle_gamma   90.47514533
_symmetry_Int_Tables_number   1
_chemical_formula_structural   YLuTaB2Ru5
_chemical_formula_sum   'Y2 Lu2 Ta2 B4 Ru10'
_cell_volume   290.86772274
_cell_formula_units_Z   2
loop_
 _symmetry_equiv_pos_site_id
 _symmetry_equiv_pos_as_xyz
  1  'x, y, z'
loop_
 _atom_site_type_symbol
 _atom_site_label
 _atom_site_symmetry_multiplicity
 _atom_site_fract_x
 _atom_site_fract_y
 _atom_site_fract_z
 _atom_site_occupancy
  Y  Y0  1  0.824880  0.675120  0.000000  1
  Y  Y1  1  0.175120  0.324880  0.000000  1
  Lu  Lu2  1  0.325821  0.825821  0.000000  1
  Lu  Lu3  1  0.674179  0.174179  0.000000  1
  Ta  Ta4  1  0.500000  0.500000  0.000000  1
  Ta  Ta5  1  0.000000  0.000000  0.000000  1
  B  B6  1  0.619384  0.880616  0.000000  1
  B  B7  1  0.380616  0.119384  0.000000  1
  B  B8  1  0.121133  0.621133  0.000000  1
  B  B9  1  0.878867  0.378867  0.000000  1
  Ru  Ru10  1  0.568177  0.718970  0.500000  1
  Ru  Ru11  1  0.431823  0.281030  0.500000  1
  Ru  Ru12  1  0.074939  0.783096  0.500000  1
  Ru  Ru13  1  0.925061  0.216904  0.500000  1
  Ru  Ru14  1  0.283096  0.574939  0.500000  1
  Ru  Ru15  1  0.716904  0.425061  0.500000  1
  Ru  Ru16  1  0.218970  0.068177  0.500000  1
  Ru  Ru17  1  0.781030  0.931823  0.500000  1
  Ru  Ru18  1  0.500000  0.000000  0.500000  1
  Ru  Ru19  1  0.000000  0.500000  0.500000  1
