# generated using pymatgen
data_CaAc(Cd2Ag)2
_symmetry_space_group_name_H-M   'P 1'
_cell_length_a   5.93665007
_cell_length_b   5.93665003
_cell_length_c   8.22762600
_cell_angle_alpha   90.00000000
_cell_angle_beta   90.00000000
_cell_angle_gamma   134.86288414
_symmetry_Int_Tables_number   1
_chemical_formula_structural   CaAc(Cd2Ag)2
_chemical_formula_sum   'Ca1 Ac1 Cd4 Ag2'
_cell_volume   205.53192018
_cell_formula_units_Z   1
loop_
 _symmetry_equiv_pos_site_id
 _symmetry_equiv_pos_as_xyz
  1  'x, y, z'
loop_
 _atom_site_type_symbol
 _atom_site_label
 _atom_site_symmetry_multiplicity
 _atom_site_fract_x
 _atom_site_fract_y
 _atom_site_fract_z
 _atom_site_occupancy
  Ca  Ca0  1  0.931509  0.068491  0.750000  1
  Ac  Ac1  1  0.067193  0.932807  0.250000  1
  Cd  Cd2  1  0.364105  0.635895  0.047538  1
  Cd  Cd3  1  0.364105  0.635895  0.452462  1
  Cd  Cd4  1  0.637855  0.362145  0.563631  1
  Cd  Cd5  1  0.637855  0.362145  0.936369  1
  Ag  Ag6  1  0.775467  0.224533  0.250000  1
  Ag  Ag7  1  0.221909  0.778091  0.750000  1
