# generated using pymatgen
data_Ba2Al16TcPt8
_symmetry_space_group_name_H-M   'P 1'
_cell_length_a   11.36588218
_cell_length_b   11.36588236
_cell_length_c   11.36588213
_cell_angle_alpha   158.62638137
_cell_angle_beta   116.47493603
_cell_angle_gamma   67.85016834
_symmetry_Int_Tables_number   1
_chemical_formula_structural   Ba2Al16TcPt8
_chemical_formula_sum   'Ba2 Al16 Tc1 Pt8'
_cell_volume   475.71437996
_cell_formula_units_Z   1
loop_
 _symmetry_equiv_pos_site_id
 _symmetry_equiv_pos_as_xyz
  1  'x, y, z'
loop_
 _atom_site_type_symbol
 _atom_site_label
 _atom_site_symmetry_multiplicity
 _atom_site_fract_x
 _atom_site_fract_y
 _atom_site_fract_z
 _atom_site_occupancy
  Ba  Ba0  1  0.231356  0.231710  0.999646  1
  Ba  Ba1  1  0.767937  0.768290  0.999646  1
  Al  Al2  1  0.278964  0.395001  0.883962  1
  Al  Al3  1  0.090006  0.925085  0.164921  1
  Al  Al4  1  0.498979  0.199698  0.299282  1
  Al  Al5  1  0.239835  0.074915  0.164921  1
  Al  Al6  1  0.910496  0.418378  0.492118  1
  Al  Al7  1  0.718503  0.594384  0.124120  1
  Al  Al8  1  0.908948  0.208919  0.700029  1
  Al  Al9  1  0.491112  0.791081  0.700029  1
  Al  Al10  1  0.385473  0.000000  0.385473  1
  Al  Al11  1  0.629835  0.000000  0.629835  1
  Al  Al12  1  0.488961  0.604999  0.883962  1
  Al  Al13  1  0.099584  0.800302  0.299282  1
  Al  Al14  1  0.905214  0.084300  0.820914  1
  Al  Al15  1  0.736615  0.915700  0.820914  1
  Al  Al16  1  0.529737  0.405616  0.124120  1
  Al  Al17  1  0.073740  0.581622  0.492118  1
  Tc  Tc18  1  0.786887  0.500000  0.286887  1
  Pt  Pt19  1  0.035108  0.346165  0.688942  1
  Pt  Pt20  1  0.619539  0.116368  0.503171  1
  Pt  Pt21  1  0.252527  0.500000  0.752527  1
  Pt  Pt22  1  0.386804  0.883632  0.503171  1
  Pt  Pt23  1  0.985012  0.000000  0.985012  1
  Pt  Pt24  1  0.640481  0.337454  0.303028  1
  Pt  Pt25  1  0.342776  0.653835  0.688942  1
  Pt  Pt26  1  0.965573  0.662546  0.303028  1
