# generated using pymatgen
data_LaTh(Ga2Ir3)2
_symmetry_space_group_name_H-M   'P 1'
_cell_length_a   6.86529303
_cell_length_b   6.86529455
_cell_length_c   6.86529268
_cell_angle_alpha   131.42422818
_cell_angle_beta   111.12247661
_cell_angle_gamma   88.73985307
_symmetry_Int_Tables_number   1
_chemical_formula_structural   LaTh(Ga2Ir3)2
_chemical_formula_sum   'La1 Th1 Ga4 Ir6'
_cell_volume   215.21843975
_cell_formula_units_Z   1
loop_
 _symmetry_equiv_pos_site_id
 _symmetry_equiv_pos_as_xyz
  1  'x, y, z'
loop_
 _atom_site_type_symbol
 _atom_site_label
 _atom_site_symmetry_multiplicity
 _atom_site_fract_x
 _atom_site_fract_y
 _atom_site_fract_z
 _atom_site_occupancy
  La  La0  1  0.250000  0.961795  0.711795  1
  Th  Th1  1  0.750000  0.052297  0.302297  1
  Ga  Ga2  1  0.086307  0.297585  0.211280  1
  Ga  Ga3  1  0.919994  0.714990  0.794996  1
  Ga  Ga4  1  0.413693  0.624972  0.211280  1
  Ga  Ga5  1  0.580006  0.375002  0.794996  1
  Ir  Ir6  1  0.505685  0.499262  0.504948  1
  Ir  Ir7  1  0.994315  0.499262  0.993577  1
  Ir  Ir8  1  0.277450  0.998728  0.266139  1
  Ir  Ir9  1  0.732589  0.998728  0.721277  1
  Ir  Ir10  1  0.222550  0.488690  0.721277  1
  Ir  Ir11  1  0.767411  0.488690  0.266139  1
