# generated using pymatgen
data_YEr3Ir3RhO14
_symmetry_space_group_name_H-M   'P 1'
_cell_length_a   7.19957267
_cell_length_b   7.22728290
_cell_length_c   7.19957269
_cell_angle_alpha   60.22409523
_cell_angle_beta   60.07715831
_cell_angle_gamma   60.22409556
_symmetry_Int_Tables_number   1
_chemical_formula_structural   YEr3Ir3RhO14
_chemical_formula_sum   'Y1 Er3 Ir3 Rh1 O14'
_cell_volume   265.94423245
_cell_formula_units_Z   1
loop_
 _symmetry_equiv_pos_site_id
 _symmetry_equiv_pos_as_xyz
  1  'x, y, z'
loop_
 _atom_site_type_symbol
 _atom_site_label
 _atom_site_symmetry_multiplicity
 _atom_site_fract_x
 _atom_site_fract_y
 _atom_site_fract_z
 _atom_site_occupancy
  Y  Y0  1  0.125000  0.625000  0.125000  1
  Er  Er1  1  0.625000  0.125000  0.125000  1
  Er  Er2  1  0.125000  0.125000  0.625000  1
  Er  Er3  1  0.125000  0.125000  0.125000  1
  Ir  Ir4  1  0.125000  0.625000  0.625000  1
  Ir  Ir5  1  0.625000  0.125000  0.625000  1
  Ir  Ir6  1  0.625000  0.625000  0.125000  1
  Rh  Rh7  1  0.625000  0.625000  0.625000  1
  O  O8  1  0.711184  0.719098  0.282391  1
  O  O9  1  0.288655  0.288166  0.716048  1
  O  O10  1  0.715692  0.281645  0.715692  1
  O  O11  1  0.289344  0.719641  0.289344  1
  O  O12  1  0.282391  0.719098  0.711184  1
  O  O13  1  0.716048  0.288166  0.288655  1
  O  O14  1  0.538816  0.530902  0.967609  1
  O  O15  1  0.961345  0.961834  0.533952  1
  O  O16  1  0.534308  0.968355  0.534308  1
  O  O17  1  0.960656  0.530359  0.960656  1
  O  O18  1  0.967609  0.530902  0.538816  1
  O  O19  1  0.533952  0.961834  0.961345  1
  O  O20  1  0.249967  0.248243  0.249967  1
  O  O21  1  0.000033  0.001757  0.000033  1
