# generated using pymatgen
data_Li4Pr(NdPb2)2
_symmetry_space_group_name_H-M   'P 1'
_cell_length_a   4.79745772
_cell_length_b   7.33866084
_cell_length_c   8.99836752
_cell_angle_alpha   114.06527931
_cell_angle_beta   105.46048512
_cell_angle_gamma   90.00000131
_symmetry_Int_Tables_number   1
_chemical_formula_structural   Li4Pr(NdPb2)2
_chemical_formula_sum   'Li4 Pr1 Nd2 Pb4'
_cell_volume   276.66619543
_cell_formula_units_Z   1
loop_
 _symmetry_equiv_pos_site_id
 _symmetry_equiv_pos_as_xyz
  1  'x, y, z'
loop_
 _atom_site_type_symbol
 _atom_site_label
 _atom_site_symmetry_multiplicity
 _atom_site_fract_x
 _atom_site_fract_y
 _atom_site_fract_z
 _atom_site_occupancy
  Li  Li0  1  0.672373  0.981402  0.344748  1
  Li  Li1  1  0.327717  0.018865  0.655433  1
  Li  Li2  1  0.327717  0.636569  0.655433  1
  Li  Li3  1  0.672373  0.363346  0.344748  1
  Pr  Pr4  1  0.130058  0.630058  0.260116  1
  Nd  Nd5  1  0.999900  0.999900  0.999800  1
  Nd  Nd6  1  0.869897  0.369897  0.739794  1
  Pb  Pb7  1  0.499846  0.704172  0.999692  1
  Pb  Pb8  1  0.499846  0.295520  0.999692  1
  Pb  Pb9  1  0.787063  0.787063  0.574126  1
  Pb  Pb10  1  0.213209  0.213209  0.426418  1
