# generated using pymatgen
data_HoLu19CoBi11
_symmetry_space_group_name_H-M   'P 1'
_cell_length_a   8.07045457
_cell_length_b   9.35214000
_cell_length_c   11.76062600
_cell_angle_alpha   90.00000000
_cell_angle_beta   89.73925764
_cell_angle_gamma   90.00000000
_symmetry_Int_Tables_number   1
_chemical_formula_structural   HoLu19CoBi11
_chemical_formula_sum   'Ho1 Lu19 Co1 Bi11'
_cell_volume   887.63606336
_cell_formula_units_Z   1
loop_
 _symmetry_equiv_pos_site_id
 _symmetry_equiv_pos_as_xyz
  1  'x, y, z'
loop_
 _atom_site_type_symbol
 _atom_site_label
 _atom_site_symmetry_multiplicity
 _atom_site_fract_x
 _atom_site_fract_y
 _atom_site_fract_z
 _atom_site_occupancy
  Ho  Ho0  1  0.315723  0.750000  0.281241  1
  Lu  Lu1  1  0.048954  0.250000  0.506680  1
  Lu  Lu2  1  0.987432  0.750000  0.493857  1
  Lu  Lu3  1  0.478610  0.750000  0.012020  1
  Lu  Lu4  1  0.527487  0.250000  0.989686  1
  Lu  Lu5  1  0.356360  0.250000  0.308631  1
  Lu  Lu6  1  0.659930  0.750000  0.718884  1
  Lu  Lu7  1  0.143550  0.750000  0.778104  1
  Lu  Lu8  1  0.848127  0.250000  0.215373  1
  Lu  Lu9  1  0.204810  0.250000  0.775122  1
  Lu  Lu10  1  0.809459  0.750000  0.216761  1
  Lu  Lu11  1  0.636215  0.250000  0.697512  1
  Lu  Lu12  1  0.194016  0.067457  0.065144  1
  Lu  Lu13  1  0.807589  0.933589  0.941231  1
  Lu  Lu14  1  0.317656  0.976190  0.557829  1
  Lu  Lu15  1  0.807589  0.566411  0.941231  1
  Lu  Lu16  1  0.676167  0.075846  0.446237  1
  Lu  Lu17  1  0.194016  0.432543  0.065144  1
  Lu  Lu18  1  0.676167  0.424154  0.446237  1
  Lu  Lu19  1  0.317656  0.523810  0.557829  1
  Co  Co20  1  0.416241  0.250000  0.527501  1
  Bi  Bi21  1  0.596639  0.750000  0.461744  1
  Bi  Bi22  1  0.097893  0.750000  0.041604  1
  Bi  Bi23  1  0.909968  0.250000  0.951451  1
  Bi  Bi24  1  0.055650  0.000318  0.322528  1
  Bi  Bi25  1  0.931768  0.003914  0.675253  1
  Bi  Bi26  1  0.434200  0.991115  0.828162  1
  Bi  Bi27  1  0.931768  0.496086  0.675253  1
  Bi  Bi28  1  0.564255  0.005952  0.175532  1
  Bi  Bi29  1  0.055650  0.499682  0.322528  1
  Bi  Bi30  1  0.564255  0.494048  0.175532  1
  Bi  Bi31  1  0.434200  0.508885  0.828162  1
