# generated using pymatgen
data_Ho2Ni3P6Ru7
_symmetry_space_group_name_H-M   'P 1'
_cell_length_a   3.82671900
_cell_length_b   10.70915000
_cell_length_c   12.17963600
_cell_angle_alpha   90.00000000
_cell_angle_beta   90.00000000
_cell_angle_gamma   90.00000000
_symmetry_Int_Tables_number   1
_chemical_formula_structural   Ho2Ni3P6Ru7
_chemical_formula_sum   'Ho4 Ni6 P12 Ru14'
_cell_volume   499.13253970
_cell_formula_units_Z   2
loop_
 _symmetry_equiv_pos_site_id
 _symmetry_equiv_pos_as_xyz
  1  'x, y, z'
loop_
 _atom_site_type_symbol
 _atom_site_label
 _atom_site_symmetry_multiplicity
 _atom_site_fract_x
 _atom_site_fract_y
 _atom_site_fract_z
 _atom_site_occupancy
  Ho  Ho0  1  0.250000  0.588569  0.706935  1
  Ho  Ho1  1  0.250000  0.911431  0.206935  1
  Ho  Ho2  1  0.750000  0.413659  0.295493  1
  Ho  Ho3  1  0.750000  0.086341  0.795493  1
  Ni  Ni4  1  0.750000  0.109221  0.301566  1
  Ni  Ni5  1  0.750000  0.390779  0.801566  1
  Ni  Ni6  1  0.250000  0.456705  0.930176  1
  Ni  Ni7  1  0.250000  0.043295  0.430176  1
  Ni  Ni8  1  0.750000  0.531781  0.062348  1
  Ni  Ni9  1  0.750000  0.968219  0.562348  1
  P  P10  1  0.250000  0.415209  0.110571  1
  P  P11  1  0.250000  0.084791  0.610571  1
  P  P12  1  0.750000  0.578610  0.887349  1
  P  P13  1  0.750000  0.921390  0.387349  1
  P  P14  1  0.250000  0.263991  0.875199  1
  P  P15  1  0.250000  0.236009  0.375199  1
  P  P16  1  0.750000  0.725271  0.127938  1
  P  P17  1  0.750000  0.774729  0.627938  1
  P  P18  1  0.250000  0.602373  0.390508  1
  P  P19  1  0.250000  0.897627  0.890508  1
  P  P20  1  0.750000  0.402408  0.610880  1
  P  P21  1  0.750000  0.097592  0.110880  1
  Ru  Ru22  1  0.250000  0.704533  0.982408  1
  Ru  Ru23  1  0.250000  0.795467  0.482408  1
  Ru  Ru24  1  0.750000  0.285623  0.011833  1
  Ru  Ru25  1  0.750000  0.214377  0.511833  1
  Ru  Ru26  1  0.250000  0.410130  0.489957  1
  Ru  Ru27  1  0.250000  0.089870  0.989957  1
  Ru  Ru28  1  0.750000  0.598233  0.516351  1
  Ru  Ru29  1  0.750000  0.901767  0.016351  1
  Ru  Ru30  1  0.250000  0.219348  0.183465  1
  Ru  Ru31  1  0.250000  0.280652  0.683465  1
  Ru  Ru32  1  0.750000  0.774752  0.820963  1
  Ru  Ru33  1  0.750000  0.725248  0.320963  1
  Ru  Ru34  1  0.250000  0.892511  0.696062  1
  Ru  Ru35  1  0.250000  0.607489  0.196062  1
