# generated using pymatgen
data_Er2LuZr(Co4P3)2
_symmetry_space_group_name_H-M   'P 1'
_cell_length_a   3.70675700
_cell_length_b   10.66917300
_cell_length_c   12.36536600
_cell_angle_alpha   90.00000000
_cell_angle_beta   90.00000000
_cell_angle_gamma   90.00000000
_symmetry_Int_Tables_number   1
_chemical_formula_structural   Er2LuZr(Co4P3)2
_chemical_formula_sum   'Er4 Lu2 Zr2 Co16 P12'
_cell_volume   489.02588657
_cell_formula_units_Z   2
loop_
 _symmetry_equiv_pos_site_id
 _symmetry_equiv_pos_as_xyz
  1  'x, y, z'
loop_
 _atom_site_type_symbol
 _atom_site_label
 _atom_site_symmetry_multiplicity
 _atom_site_fract_x
 _atom_site_fract_y
 _atom_site_fract_z
 _atom_site_occupancy
  Er  Er0  1  0.750000  0.250000  0.470372  1
  Er  Er1  1  0.250000  0.750000  0.530139  1
  Er  Er2  1  0.750000  0.072077  0.204672  1
  Er  Er3  1  0.750000  0.427923  0.204672  1
  Lu  Lu4  1  0.250000  0.927589  0.795383  1
  Lu  Lu5  1  0.250000  0.572411  0.795383  1
  Zr  Zr6  1  0.250000  0.250000  0.841273  1
  Zr  Zr7  1  0.750000  0.750000  0.158542  1
  Co  Co8  1  0.250000  0.250000  0.297072  1
  Co  Co9  1  0.750000  0.750000  0.703759  1
  Co  Co10  1  0.750000  0.250000  0.014003  1
  Co  Co11  1  0.250000  0.750000  0.984795  1
  Co  Co12  1  0.250000  0.418387  0.006765  1
  Co  Co13  1  0.250000  0.081613  0.006765  1
  Co  Co14  1  0.750000  0.582108  0.991959  1
  Co  Co15  1  0.750000  0.917892  0.991959  1
  Co  Co16  1  0.250000  0.455119  0.567060  1
  Co  Co17  1  0.250000  0.044881  0.567060  1
  Co  Co18  1  0.750000  0.545196  0.434007  1
  Co  Co19  1  0.750000  0.954804  0.434007  1
  Co  Co20  1  0.250000  0.873109  0.298997  1
  Co  Co21  1  0.250000  0.626891  0.298997  1
  Co  Co22  1  0.750000  0.126212  0.701651  1
  Co  Co23  1  0.750000  0.373788  0.701651  1
  P  P24  1  0.250000  0.250000  0.116867  1
  P  P25  1  0.750000  0.750000  0.881960  1
  P  P26  1  0.250000  0.250000  0.635584  1
  P  P27  1  0.750000  0.750000  0.364487  1
  P  P28  1  0.250000  0.439079  0.384264  1
  P  P29  1  0.250000  0.060921  0.384264  1
  P  P30  1  0.750000  0.561480  0.616939  1
  P  P31  1  0.750000  0.938520  0.616939  1
  P  P32  1  0.250000  0.912451  0.106718  1
  P  P33  1  0.250000  0.587549  0.106718  1
  P  P34  1  0.750000  0.086715  0.892160  1
  P  P35  1  0.750000  0.413285  0.892160  1
