# generated using pymatgen
data_Rb2Mn2CoSe4
_symmetry_space_group_name_H-M   'P 1'
_cell_length_a   9.69326015
_cell_length_b   9.69326080
_cell_length_c   9.69326080
_cell_angle_alpha   144.49472288
_cell_angle_beta   104.08630338
_cell_angle_gamma   86.70681791
_symmetry_Int_Tables_number   1
_chemical_formula_structural   Rb2Mn2CoSe4
_chemical_formula_sum   'Rb4 Mn4 Co2 Se8'
_cell_volume   496.79320603
_cell_formula_units_Z   2
loop_
 _symmetry_equiv_pos_site_id
 _symmetry_equiv_pos_as_xyz
  1  'x, y, z'
loop_
 _atom_site_type_symbol
 _atom_site_label
 _atom_site_symmetry_multiplicity
 _atom_site_fract_x
 _atom_site_fract_y
 _atom_site_fract_z
 _atom_site_occupancy
  Rb  Rb0  1  0.120807  0.232800  0.358016  1
  Rb  Rb1  1  0.379193  0.737210  0.111994  1
  Rb  Rb2  1  0.625216  0.267200  0.888006  1
  Rb  Rb3  1  0.874784  0.762790  0.641984  1
  Mn  Mn4  1  0.483430  0.250000  0.233430  1
  Mn  Mn5  1  0.750000  0.250000  0.500000  1
  Mn  Mn6  1  0.250000  0.750000  0.500000  1
  Mn  Mn7  1  0.016570  0.250000  0.766570  1
  Co  Co8  1  0.506343  0.750000  0.756343  1
  Co  Co9  1  0.993657  0.750000  0.243657  1
  Se  Se10  1  0.218399  0.071090  0.584546  1
  Se  Se11  1  0.281601  0.866147  0.852692  1
  Se  Se12  1  0.013456  0.428910  0.147308  1
  Se  Se13  1  0.486544  0.633853  0.415454  1
  Se  Se14  1  0.788336  0.911359  0.391095  1
  Se  Se15  1  0.711664  0.102759  0.123024  1
  Se  Se16  1  0.979735  0.588641  0.876976  1
  Se  Se17  1  0.520265  0.397241  0.608905  1
