# generated using pymatgen
data_TbDy2Ho3Ir2
_symmetry_space_group_name_H-M   'P 1'
_cell_length_a   6.38185790
_cell_length_b   7.23804500
_cell_length_c   9.23167039
_cell_angle_alpha   90.00000000
_cell_angle_beta   90.15865473
_cell_angle_gamma   90.00000000
_symmetry_Int_Tables_number   1
_chemical_formula_structural   TbDy2Ho3Ir2
_chemical_formula_sum   'Tb2 Dy4 Ho6 Ir4'
_cell_volume   426.42929608
_cell_formula_units_Z   2
loop_
 _symmetry_equiv_pos_site_id
 _symmetry_equiv_pos_as_xyz
  1  'x, y, z'
loop_
 _atom_site_type_symbol
 _atom_site_label
 _atom_site_symmetry_multiplicity
 _atom_site_fract_x
 _atom_site_fract_y
 _atom_site_fract_z
 _atom_site_occupancy
  Tb  Tb0  1  0.130381  0.465884  0.749916  1
  Tb  Tb1  1  0.369619  0.965884  0.750084  1
  Dy  Dy2  1  0.328065  0.676975  0.062639  1
  Dy  Dy3  1  0.171935  0.176975  0.437361  1
  Dy  Dy4  1  0.868812  0.534242  0.250228  1
  Dy  Dy5  1  0.631188  0.034242  0.249772  1
  Ho  Ho6  1  0.671347  0.323404  0.563050  1
  Ho  Ho7  1  0.828653  0.823404  0.936950  1
  Ho  Ho8  1  0.671427  0.323149  0.936987  1
  Ho  Ho9  1  0.828573  0.823149  0.563013  1
  Ho  Ho10  1  0.328696  0.676579  0.437186  1
  Ho  Ho11  1  0.171304  0.176579  0.062814  1
  Ir  Ir12  1  0.047693  0.882747  0.249968  1
  Ir  Ir13  1  0.452307  0.382747  0.250032  1
  Ir  Ir14  1  0.950813  0.117019  0.750831  1
  Ir  Ir15  1  0.549187  0.617019  0.749169  1
