# generated using pymatgen
data_Tb3Y2HoAl20(SiRu2)4
_symmetry_space_group_name_H-M   'P 1'
_cell_length_a   8.68780800
_cell_length_b   8.68918032
_cell_length_c   9.63185600
_cell_angle_alpha   90.00000000
_cell_angle_beta   90.00000000
_cell_angle_gamma   120.00291973
_symmetry_Int_Tables_number   1
_chemical_formula_structural   Tb3Y2HoAl20(SiRu2)4
_chemical_formula_sum   'Tb3 Y2 Ho1 Al20 Si4 Ru8'
_cell_volume   629.67559177
_cell_formula_units_Z   1
loop_
 _symmetry_equiv_pos_site_id
 _symmetry_equiv_pos_as_xyz
  1  'x, y, z'
loop_
 _atom_site_type_symbol
 _atom_site_label
 _atom_site_symmetry_multiplicity
 _atom_site_fract_x
 _atom_site_fract_y
 _atom_site_fract_z
 _atom_site_occupancy
  Tb  Tb0  1  0.610702  0.805311  0.250000  1
  Tb  Tb1  1  0.389514  0.194685  0.750000  1
  Tb  Tb2  1  0.194656  0.805240  0.250000  1
  Y  Y3  1  0.194481  0.389127  0.250000  1
  Y  Y4  1  0.805405  0.610725  0.750000  1
  Ho  Ho5  1  0.804786  0.195325  0.750000  1
  Al  Al6  1  0.164771  0.329894  0.577062  1
  Al  Al7  1  0.834989  0.669949  0.423144  1
  Al  Al8  1  0.670120  0.835208  0.577041  1
  Al  Al9  1  0.834989  0.669949  0.076856  1
  Al  Al10  1  0.330046  0.165044  0.423159  1
  Al  Al11  1  0.164771  0.329894  0.922938  1
  Al  Al12  1  0.164981  0.834961  0.576913  1
  Al  Al13  1  0.330046  0.165044  0.076841  1
  Al  Al14  1  0.835018  0.165049  0.423361  1
  Al  Al15  1  0.670120  0.835208  0.922959  1
  Al  Al16  1  0.835018  0.165049  0.076639  1
  Al  Al17  1  0.164981  0.834961  0.923087  1
  Al  Al18  1  0.563699  0.127332  0.250000  1
  Al  Al19  1  0.436739  0.872994  0.750000  1
  Al  Al20  1  0.872806  0.436329  0.250000  1
  Al  Al21  1  0.126878  0.563246  0.750000  1
  Al  Al22  1  0.563573  0.436340  0.250000  1
  Al  Al23  1  0.436401  0.563689  0.750000  1
  Al  Al24  1  0.999994  0.999948  0.250000  1
  Al  Al25  1  0.999664  0.000406  0.750000  1
  Si  Si26  1  0.333324  0.666527  0.036404  1
  Si  Si27  1  0.666956  0.333223  0.963229  1
  Si  Si28  1  0.666956  0.333223  0.536771  1
  Si  Si29  1  0.333324  0.666527  0.463596  1
  Ru  Ru30  1  0.500298  0.000120  0.999774  1
  Ru  Ru31  1  0.999862  0.499690  0.999785  1
  Ru  Ru32  1  0.500298  0.000120  0.500226  1
  Ru  Ru33  1  0.500036  0.499952  0.999954  1
  Ru  Ru34  1  0.999862  0.499690  0.500215  1
  Ru  Ru35  1  0.500036  0.499952  0.500046  1
  Ru  Ru36  1  0.999950  0.000037  0.999979  1
  Ru  Ru37  1  0.999950  0.000037  0.500021  1
