# generated using pymatgen
data_Ce4Fe3Si4Ir
_symmetry_space_group_name_H-M   'P 1'
_cell_length_a   7.29734761
_cell_length_b   4.29989100
_cell_length_c   6.56240960
_cell_angle_alpha   90.00000000
_cell_angle_beta   90.23952865
_cell_angle_gamma   90.00000000
_symmetry_Int_Tables_number   1
_chemical_formula_structural   Ce4Fe3Si4Ir
_chemical_formula_sum   'Ce4 Fe3 Si4 Ir1'
_cell_volume   205.91217202
_cell_formula_units_Z   1
loop_
 _symmetry_equiv_pos_site_id
 _symmetry_equiv_pos_as_xyz
  1  'x, y, z'
loop_
 _atom_site_type_symbol
 _atom_site_label
 _atom_site_symmetry_multiplicity
 _atom_site_fract_x
 _atom_site_fract_y
 _atom_site_fract_z
 _atom_site_occupancy
  Ce  Ce0  1  0.515967  0.750000  0.174403  1
  Ce  Ce1  1  0.030697  0.750000  0.339008  1
  Ce  Ce2  1  0.979924  0.249999  0.657225  1
  Ce  Ce3  1  0.479289  0.249999  0.830659  1
  Fe  Fe4  1  0.131965  0.249999  0.066813  1
  Fe  Fe5  1  0.632688  0.249999  0.434018  1
  Fe  Fe6  1  0.365710  0.750000  0.563490  1
  Si  Si7  1  0.811681  0.249999  0.126370  1
  Si  Si8  1  0.312631  0.249999  0.386657  1
  Si  Si9  1  0.686021  0.750000  0.602966  1
  Si  Si10  1  0.193694  0.750000  0.886140  1
  Ir  Ir11  1  0.859733  0.750000  0.932249  1
