# generated using pymatgen
data_Dy15Lu5Pt12
_symmetry_space_group_name_H-M   'P 1'
_cell_length_a   10.95110783
_cell_length_b   10.95422082
_cell_length_c   6.46407307
_cell_angle_alpha   90.01799050
_cell_angle_beta   89.97968237
_cell_angle_gamma   90.03112240
_symmetry_Int_Tables_number   1
_chemical_formula_structural   Dy15Lu5Pt12
_chemical_formula_sum   'Dy15 Lu5 Pt12'
_cell_volume   775.43552077
_cell_formula_units_Z   1
loop_
 _symmetry_equiv_pos_site_id
 _symmetry_equiv_pos_as_xyz
  1  'x, y, z'
loop_
 _atom_site_type_symbol
 _atom_site_label
 _atom_site_symmetry_multiplicity
 _atom_site_fract_x
 _atom_site_fract_y
 _atom_site_fract_z
 _atom_site_occupancy
  Dy  Dy0  1  0.290560  0.912850  0.878861  1
  Dy  Dy1  1  0.708867  0.087738  0.878670  1
  Dy  Dy2  1  0.709275  0.912317  0.378752  1
  Dy  Dy3  1  0.587713  0.791057  0.878795  1
  Dy  Dy4  1  0.586850  0.209125  0.378779  1
  Dy  Dy5  1  0.411634  0.791485  0.378780  1
  Dy  Dy6  1  0.411246  0.208826  0.878682  1
  Dy  Dy7  1  0.209203  0.411810  0.621181  1
  Dy  Dy8  1  0.209084  0.587867  0.121533  1
  Dy  Dy9  1  0.790959  0.411856  0.121711  1
  Dy  Dy10  1  0.790867  0.587898  0.621647  1
  Dy  Dy11  1  0.912069  0.709274  0.121412  1
  Dy  Dy12  1  0.912105  0.290774  0.621721  1
  Dy  Dy13  1  0.087967  0.709197  0.620942  1
  Dy  Dy14  1  0.089013  0.289965  0.122172  1
  Lu  Lu15  1  0.292252  0.087433  0.380157  1
  Lu  Lu16  1  0.001038  0.000517  0.499065  1
  Lu  Lu17  1  0.000138  0.000234  0.999647  1
  Lu  Lu18  1  0.499892  0.499702  0.999990  1
  Lu  Lu19  1  0.499824  0.500080  0.499685  1
  Pt  Pt20  1  0.848677  0.151068  0.249763  1
  Pt  Pt21  1  0.848973  0.849142  0.749744  1
  Pt  Pt22  1  0.152503  0.150552  0.746548  1
  Pt  Pt23  1  0.152061  0.850509  0.250764  1
  Pt  Pt24  1  0.651046  0.348873  0.749939  1
  Pt  Pt25  1  0.651190  0.651184  0.249708  1
  Pt  Pt26  1  0.348591  0.346777  0.251120  1
  Pt  Pt27  1  0.348889  0.651168  0.750172  1
  Pt  Pt28  1  0.498660  0.000589  0.122455  1
  Pt  Pt29  1  0.498438  0.000585  0.620351  1
  Pt  Pt30  1  0.000263  0.499795  0.878815  1
  Pt  Pt31  1  0.000154  0.499753  0.378438  1
