# generated using pymatgen
data_Rb6CeMnBr12
_symmetry_space_group_name_H-M   'P 1'
_cell_length_a   9.61714900
_cell_length_b   9.61403280
_cell_length_c   8.00676500
_cell_angle_alpha   90.00000000
_cell_angle_beta   90.00000000
_cell_angle_gamma   90.10710001
_symmetry_Int_Tables_number   1
_chemical_formula_structural   Rb6CeMnBr12
_chemical_formula_sum   'Rb6 Ce1 Mn1 Br12'
_cell_volume   740.30088289
_cell_formula_units_Z   1
loop_
 _symmetry_equiv_pos_site_id
 _symmetry_equiv_pos_as_xyz
  1  'x, y, z'
loop_
 _atom_site_type_symbol
 _atom_site_label
 _atom_site_symmetry_multiplicity
 _atom_site_fract_x
 _atom_site_fract_y
 _atom_site_fract_z
 _atom_site_occupancy
  Rb  Rb0  1  0.000000  0.000000  0.500000  1
  Rb  Rb1  1  0.000000  0.000000  0.000000  1
  Rb  Rb2  1  0.246777  0.592564  0.500000  1
  Rb  Rb3  1  0.753223  0.407436  0.500000  1
  Rb  Rb4  1  0.428956  0.215247  0.000000  1
  Rb  Rb5  1  0.571044  0.784753  0.000000  1
  Ce  Ce6  1  0.000000  0.500000  0.000000  1
  Mn  Mn7  1  0.500000  0.000000  0.500000  1
  Br  Br8  1  0.691736  0.056339  0.737229  1
  Br  Br9  1  0.308264  0.943661  0.737229  1
  Br  Br10  1  0.947603  0.700512  0.253001  1
  Br  Br11  1  0.052397  0.299488  0.253001  1
  Br  Br12  1  0.308264  0.943661  0.262771  1
  Br  Br13  1  0.691736  0.056339  0.262771  1
  Br  Br14  1  0.052397  0.299488  0.746999  1
  Br  Br15  1  0.947603  0.700512  0.746999  1
  Br  Br16  1  0.568530  0.748014  0.500000  1
  Br  Br17  1  0.431470  0.251986  0.500000  1
  Br  Br18  1  0.288738  0.558474  0.000000  1
  Br  Br19  1  0.711262  0.441526  0.000000  1
