# generated using pymatgen
data_Li4AcLa3Sn3Bi
_symmetry_space_group_name_H-M   'P 1'
_cell_length_a   9.78769364
_cell_length_b   9.79242941
_cell_length_c   7.97581905
_cell_angle_alpha   90.00070779
_cell_angle_beta   90.06017332
_cell_angle_gamma   120.01981064
_symmetry_Int_Tables_number   1
_chemical_formula_structural   Li4AcLa3Sn3Bi
_chemical_formula_sum   'Li8 Ac2 La6 Sn6 Bi2'
_cell_volume   661.89589313
_cell_formula_units_Z   2
loop_
 _symmetry_equiv_pos_site_id
 _symmetry_equiv_pos_as_xyz
  1  'x, y, z'
loop_
 _atom_site_type_symbol
 _atom_site_label
 _atom_site_symmetry_multiplicity
 _atom_site_fract_x
 _atom_site_fract_y
 _atom_site_fract_z
 _atom_site_occupancy
  Li  Li0  1  0.830586  0.167529  0.723621  1
  Li  Li1  1  0.830581  0.663070  0.723666  1
  Li  Li2  1  0.337942  0.168984  0.716743  1
  Li  Li3  1  0.172151  0.833844  0.216869  1
  Li  Li4  1  0.172149  0.338277  0.216904  1
  Li  Li5  1  0.660240  0.830106  0.209263  1
  Li  Li6  1  0.662992  0.331478  0.332144  1
  Li  Li7  1  0.334196  0.667116  0.825307  1
  Ac  Ac8  1  0.003115  0.001544  0.506179  1
  Ac  Ac9  1  0.005277  0.002656  0.998076  1
  La  La10  1  0.484736  0.509135  0.506942  1
  La  La11  1  0.484728  0.975603  0.506947  1
  La  La12  1  0.025966  0.512987  0.509326  1
  La  La13  1  0.506160  0.486309  0.001114  1
  La  La14  1  0.506177  0.019872  0.001116  1
  La  La15  1  0.983769  0.491880  0.999312  1
  Sn  Sn16  1  0.339149  0.169585  0.267874  1
  Sn  Sn17  1  0.168952  0.830001  0.766345  1
  Sn  Sn18  1  0.168959  0.338957  0.766304  1
  Sn  Sn19  1  0.661154  0.830550  0.768876  1
  Sn  Sn20  1  0.668098  0.334077  0.733637  1
  Sn  Sn21  1  0.332580  0.666278  0.233738  1
  Bi  Bi22  1  0.830173  0.170264  0.263877  1
  Bi  Bi23  1  0.830170  0.659899  0.263828  1
