# generated using pymatgen
data_Tb3CeP4
_symmetry_space_group_name_H-M   'P 1'
_cell_length_a   8.09774200
_cell_length_b   4.04655100
_cell_length_c   5.70291300
_cell_angle_alpha   90.00000000
_cell_angle_beta   90.00172313
_cell_angle_gamma   90.00000000
_symmetry_Int_Tables_number   1
_chemical_formula_structural   Tb3CeP4
_chemical_formula_sum   'Tb3 Ce1 P4'
_cell_volume   186.87263106
_cell_formula_units_Z   1
loop_
 _symmetry_equiv_pos_site_id
 _symmetry_equiv_pos_as_xyz
  1  'x, y, z'
loop_
 _atom_site_type_symbol
 _atom_site_label
 _atom_site_symmetry_multiplicity
 _atom_site_fract_x
 _atom_site_fract_y
 _atom_site_fract_z
 _atom_site_occupancy
  Tb  Tb0  1  0.129644  0.749999  0.250281  1
  Tb  Tb1  1  0.620963  0.749999  0.249680  1
  Tb  Tb2  1  0.374709  0.249999  0.750007  1
  Ce  Ce3  1  0.874691  0.249999  0.750013  1
  P  P4  1  0.375315  0.249999  0.250008  1
  P  P5  1  0.875395  0.249999  0.250056  1
  P  P6  1  0.125086  0.749999  0.750267  1
  P  P7  1  0.624198  0.749999  0.749691  1
