# generated using pymatgen
data_CsDy(NbBr3)6
_symmetry_space_group_name_H-M   'P 1'
_cell_length_a   10.84068878
_cell_length_b   10.84068841
_cell_length_c   10.84069000
_cell_angle_alpha   55.48504778
_cell_angle_beta   55.48504417
_cell_angle_gamma   55.48505044
_symmetry_Int_Tables_number   1
_chemical_formula_structural   CsDy(NbBr3)6
_chemical_formula_sum   'Cs1 Dy1 Nb6 Br18'
_cell_volume   806.41455542
_cell_formula_units_Z   1
loop_
 _symmetry_equiv_pos_site_id
 _symmetry_equiv_pos_as_xyz
  1  'x, y, z'
loop_
 _atom_site_type_symbol
 _atom_site_label
 _atom_site_symmetry_multiplicity
 _atom_site_fract_x
 _atom_site_fract_y
 _atom_site_fract_z
 _atom_site_occupancy
  Cs  Cs0  1  0.222626  0.222626  0.222626  1
  Dy  Dy1  1  0.498088  0.498088  0.498088  1
  Nb  Nb2  1  0.810749  0.142107  0.915328  1
  Nb  Nb3  1  0.915328  0.810749  0.142107  1
  Nb  Nb4  1  0.142107  0.915328  0.810749  1
  Nb  Nb5  1  0.190641  0.858151  0.083605  1
  Nb  Nb6  1  0.083605  0.190641  0.858151  1
  Nb  Nb7  1  0.858151  0.083605  0.190641  1
  Br  Br8  1  0.867687  0.408333  0.725745  1
  Br  Br9  1  0.725745  0.867687  0.408333  1
  Br  Br10  1  0.408333  0.725745  0.867687  1
  Br  Br11  1  0.130953  0.592433  0.277487  1
  Br  Br12  1  0.277487  0.130953  0.592433  1
  Br  Br13  1  0.592433  0.277487  0.130953  1
  Br  Br14  1  0.538692  0.340864  0.799652  1
  Br  Br15  1  0.799652  0.538692  0.340864  1
  Br  Br16  1  0.340864  0.799652  0.538692  1
  Br  Br17  1  0.460653  0.661910  0.199912  1
  Br  Br18  1  0.199912  0.460653  0.661910  1
  Br  Br19  1  0.661910  0.199912  0.460653  1
  Br  Br20  1  0.665987  0.939333  0.068405  1
  Br  Br21  1  0.068405  0.665987  0.939333  1
  Br  Br22  1  0.939333  0.068405  0.665987  1
  Br  Br23  1  0.340183  0.057844  0.923771  1
  Br  Br24  1  0.923771  0.340183  0.057844  1
  Br  Br25  1  0.057844  0.923771  0.340183  1
