# generated using pymatgen
data_Nd2Y4CoCl10
_symmetry_space_group_name_H-M   'P 1'
_cell_length_a   7.15886562
_cell_length_b   8.94343986
_cell_length_c   8.97563754
_cell_angle_alpha   108.06130494
_cell_angle_beta   95.19086785
_cell_angle_gamma   107.12278220
_symmetry_Int_Tables_number   1
_chemical_formula_structural   Nd2Y4CoCl10
_chemical_formula_sum   'Nd2 Y4 Co1 Cl10'
_cell_volume   511.57789816
_cell_formula_units_Z   1
loop_
 _symmetry_equiv_pos_site_id
 _symmetry_equiv_pos_as_xyz
  1  'x, y, z'
loop_
 _atom_site_type_symbol
 _atom_site_label
 _atom_site_symmetry_multiplicity
 _atom_site_fract_x
 _atom_site_fract_y
 _atom_site_fract_z
 _atom_site_occupancy
  Nd  Nd0  1  0.864862  0.946427  0.240627  1
  Nd  Nd1  1  0.135138  0.053573  0.759373  1
  Y  Y2  1  0.027143  0.694571  0.901028  1
  Y  Y3  1  0.972857  0.305429  0.098972  1
  Y  Y4  1  0.635737  0.857999  0.816676  1
  Y  Y5  1  0.364263  0.142001  0.183324  1
  Co  Co6  1  0.000000  0.000000  0.000000  1
  Cl  Cl7  1  0.652301  0.549412  0.732364  1
  Cl  Cl8  1  0.347699  0.450588  0.267636  1
  Cl  Cl9  1  0.750848  0.919692  0.556005  1
  Cl  Cl10  1  0.249152  0.080308  0.443995  1
  Cl  Cl11  1  0.917054  0.624114  0.162012  1
  Cl  Cl12  1  0.082946  0.375886  0.837988  1
  Cl  Cl13  1  0.554945  0.171910  0.924570  1
  Cl  Cl14  1  0.445055  0.828090  0.075430  1
  Cl  Cl15  1  0.221581  0.744129  0.663334  1
  Cl  Cl16  1  0.778419  0.255871  0.336666  1
