# generated using pymatgen
data_YTm11Co5Bi
_symmetry_space_group_name_H-M   'P 1'
_cell_length_a   8.19147303
_cell_length_b   8.19147372
_cell_length_c   8.17495376
_cell_angle_alpha   111.01936337
_cell_angle_beta   110.84981354
_cell_angle_gamma   106.66875041
_symmetry_Int_Tables_number   1
_chemical_formula_structural   YTm11Co5Bi
_chemical_formula_sum   'Y1 Tm11 Co5 Bi1'
_cell_volume   421.04056414
_cell_formula_units_Z   1
loop_
 _symmetry_equiv_pos_site_id
 _symmetry_equiv_pos_as_xyz
  1  'x, y, z'
loop_
 _atom_site_type_symbol
 _atom_site_label
 _atom_site_symmetry_multiplicity
 _atom_site_fract_x
 _atom_site_fract_y
 _atom_site_fract_z
 _atom_site_occupancy
  Y  Y0  1  0.286411  0.185014  0.471425  1
  Tm  Tm1  1  0.714162  0.816787  0.530949  1
  Tm  Tm2  1  0.287104  0.815806  0.102909  1
  Tm  Tm3  1  0.713907  0.183046  0.896954  1
  Tm  Tm4  1  0.621284  0.311918  0.308999  1
  Tm  Tm5  1  0.379602  0.689912  0.691438  1
  Tm  Tm6  1  0.001527  0.311836  0.691438  1
  Tm  Tm7  1  0.997081  0.687715  0.308999  1
  Tm  Tm8  1  0.209371  0.405901  0.194850  1
  Tm  Tm9  1  0.791991  0.596883  0.806091  1
  Tm  Tm10  1  0.209209  0.014100  0.806091  1
  Tm  Tm11  1  0.788948  0.985479  0.194850  1
  Co  Co12  1  0.998827  0.374272  0.373100  1
  Co  Co13  1  0.000015  0.625866  0.625881  1
  Co  Co14  1  0.389022  0.885446  0.498926  1
  Co  Co15  1  0.613480  0.109905  0.498926  1
  Co  Co16  1  0.998217  0.000472  0.998690  1
  Bi  Bi17  1  0.499843  0.499640  0.999483  1
