# generated using pymatgen
data_Y2ThCr(Co4P3)2
_symmetry_space_group_name_H-M   'P 1'
_cell_length_a   3.73878200
_cell_length_b   10.59156800
_cell_length_c   12.24820200
_cell_angle_alpha   90.00000000
_cell_angle_beta   90.00000000
_cell_angle_gamma   90.00000000
_symmetry_Int_Tables_number   1
_chemical_formula_structural   Y2ThCr(Co4P3)2
_chemical_formula_sum   'Y4 Th2 Cr2 Co16 P12'
_cell_volume   485.02345641
_cell_formula_units_Z   2
loop_
 _symmetry_equiv_pos_site_id
 _symmetry_equiv_pos_as_xyz
  1  'x, y, z'
loop_
 _atom_site_type_symbol
 _atom_site_label
 _atom_site_symmetry_multiplicity
 _atom_site_fract_x
 _atom_site_fract_y
 _atom_site_fract_z
 _atom_site_occupancy
  Y  Y0  1  0.500000  0.816361  0.203017  1
  Y  Y1  1  0.500000  0.183639  0.203017  1
  Y  Y2  1  0.000000  0.683639  0.796983  1
  Y  Y3  1  0.000000  0.316361  0.796983  1
  Th  Th4  1  0.000000  0.500000  0.525265  1
  Th  Th5  1  0.500000  0.000000  0.474735  1
  Cr  Cr6  1  0.500000  0.500000  0.152398  1
  Cr  Cr7  1  0.000000  0.000000  0.847602  1
  Co  Co8  1  0.500000  0.500000  0.701929  1
  Co  Co9  1  0.000000  0.000000  0.298071  1
  Co  Co10  1  0.000000  0.500000  0.986281  1
  Co  Co11  1  0.500000  0.000000  0.013719  1
  Co  Co12  1  0.500000  0.332917  0.992660  1
  Co  Co13  1  0.500000  0.667083  0.992660  1
  Co  Co14  1  0.000000  0.167083  0.007340  1
  Co  Co15  1  0.000000  0.832917  0.007340  1
  Co  Co16  1  0.500000  0.297895  0.430384  1
  Co  Co17  1  0.500000  0.702105  0.430384  1
  Co  Co18  1  0.000000  0.202105  0.569616  1
  Co  Co19  1  0.000000  0.797895  0.569616  1
  Co  Co20  1  0.500000  0.880913  0.712259  1
  Co  Co21  1  0.500000  0.119087  0.712259  1
  Co  Co22  1  0.000000  0.619087  0.287741  1
  Co  Co23  1  0.000000  0.380913  0.287741  1
  P  P24  1  0.500000  0.500000  0.882117  1
  P  P25  1  0.000000  0.000000  0.117883  1
  P  P26  1  0.500000  0.500000  0.338579  1
  P  P27  1  0.000000  0.000000  0.661421  1
  P  P28  1  0.500000  0.306034  0.618593  1
  P  P29  1  0.500000  0.693966  0.618593  1
  P  P30  1  0.000000  0.193966  0.381407  1
  P  P31  1  0.000000  0.806034  0.381407  1
  P  P32  1  0.500000  0.847500  0.894399  1
  P  P33  1  0.500000  0.152500  0.894399  1
  P  P34  1  0.000000  0.652500  0.105601  1
  P  P35  1  0.000000  0.347500  0.105601  1
