# generated using pymatgen
data_Lu16NiAg4Rh3
_symmetry_space_group_name_H-M   'P 1'
_cell_length_a   9.28070339
_cell_length_b   9.28070397
_cell_length_c   9.28070449
_cell_angle_alpha   60.16005516
_cell_angle_beta   60.16005758
_cell_angle_gamma   60.16005214
_symmetry_Int_Tables_number   1
_chemical_formula_structural   Lu16NiAg4Rh3
_chemical_formula_sum   'Lu16 Ni1 Ag4 Rh3'
_cell_volume   567.28239073
_cell_formula_units_Z   1
loop_
 _symmetry_equiv_pos_site_id
 _symmetry_equiv_pos_as_xyz
  1  'x, y, z'
loop_
 _atom_site_type_symbol
 _atom_site_label
 _atom_site_symmetry_multiplicity
 _atom_site_fract_x
 _atom_site_fract_y
 _atom_site_fract_z
 _atom_site_occupancy
  Lu  Lu0  1  0.607342  0.607342  0.607342  1
  Lu  Lu1  1  0.598246  0.598246  0.194247  1
  Lu  Lu2  1  0.598246  0.194247  0.598246  1
  Lu  Lu3  1  0.194247  0.598246  0.598246  1
  Lu  Lu4  1  0.064140  0.438203  0.438203  1
  Lu  Lu5  1  0.436805  0.062055  0.062055  1
  Lu  Lu6  1  0.438203  0.064140  0.438203  1
  Lu  Lu7  1  0.062055  0.436805  0.062055  1
  Lu  Lu8  1  0.438203  0.438203  0.064140  1
  Lu  Lu9  1  0.062055  0.062055  0.436805  1
  Lu  Lu10  1  0.185074  0.813649  0.813649  1
  Lu  Lu11  1  0.816157  0.183991  0.183991  1
  Lu  Lu12  1  0.813649  0.185074  0.813649  1
  Lu  Lu13  1  0.183991  0.816157  0.183991  1
  Lu  Lu14  1  0.813649  0.813649  0.185074  1
  Lu  Lu15  1  0.183991  0.183991  0.816157  1
  Ni  Ni16  1  0.392496  0.392496  0.392496  1
  Ag  Ag17  1  0.832417  0.832417  0.832417  1
  Ag  Ag18  1  0.834789  0.834789  0.501122  1
  Ag  Ag19  1  0.834789  0.501122  0.834789  1
  Ag  Ag20  1  0.501122  0.834789  0.834789  1
  Rh  Rh21  1  0.396310  0.396310  0.815713  1
  Rh  Rh22  1  0.396310  0.815713  0.396310  1
  Rh  Rh23  1  0.815713  0.396310  0.396310  1
