# generated using pymatgen
data_CaLa4Sn3(BRh6)2
_symmetry_space_group_name_H-M   'P 1'
_cell_length_a   5.90386800
_cell_length_b   5.90386692
_cell_length_c   13.84528200
_cell_angle_alpha   90.00000000
_cell_angle_beta   90.00000000
_cell_angle_gamma   119.99999484
_symmetry_Int_Tables_number   1
_chemical_formula_structural   CaLa4Sn3(BRh6)2
_chemical_formula_sum   'Ca1 La4 Sn3 B2 Rh12'
_cell_volume   417.93203200
_cell_formula_units_Z   1
loop_
 _symmetry_equiv_pos_site_id
 _symmetry_equiv_pos_as_xyz
  1  'x, y, z'
loop_
 _atom_site_type_symbol
 _atom_site_label
 _atom_site_symmetry_multiplicity
 _atom_site_fract_x
 _atom_site_fract_y
 _atom_site_fract_z
 _atom_site_occupancy
  Ca  Ca0  1  0.000000  0.000000  0.750000  1
  La  La1  1  0.333333  0.666667  0.402323  1
  La  La2  1  0.666667  0.333333  0.906585  1
  La  La3  1  0.666667  0.333333  0.593415  1
  La  La4  1  0.333333  0.666667  0.097677  1
  Sn  Sn5  1  0.000000  0.000000  0.250000  1
  Sn  Sn6  1  0.333333  0.666667  0.750000  1
  Sn  Sn7  1  0.666667  0.333333  0.250000  1
  B  B8  1  0.000000  0.000000  0.500031  1
  B  B9  1  0.000000  0.000000  0.999969  1
  Rh  Rh10  1  0.334804  0.167402  0.404654  1
  Rh  Rh11  1  0.832598  0.167402  0.404654  1
  Rh  Rh12  1  0.832598  0.665196  0.404654  1
  Rh  Rh13  1  0.172482  0.344962  0.917165  1
  Rh  Rh14  1  0.655038  0.827518  0.582835  1
  Rh  Rh15  1  0.655038  0.827518  0.917165  1
  Rh  Rh16  1  0.334804  0.167402  0.095346  1
  Rh  Rh17  1  0.172482  0.344962  0.582835  1
  Rh  Rh18  1  0.172482  0.827518  0.582835  1
  Rh  Rh19  1  0.832598  0.167402  0.095346  1
  Rh  Rh20  1  0.832598  0.665196  0.095346  1
  Rh  Rh21  1  0.172482  0.827518  0.917165  1
