# generated using pymatgen
data_Pr8Ho12Si15Ag
_symmetry_space_group_name_H-M   'P 1'
_cell_length_a   7.52702032
_cell_length_b   7.79445568
_cell_length_c   14.87188789
_cell_angle_alpha   89.86755676
_cell_angle_beta   89.45600630
_cell_angle_gamma   90.22605311
_symmetry_Int_Tables_number   1
_chemical_formula_structural   Pr8Ho12Si15Ag
_chemical_formula_sum   'Pr8 Ho12 Si15 Ag1'
_cell_volume   872.47065710
_cell_formula_units_Z   1
loop_
 _symmetry_equiv_pos_site_id
 _symmetry_equiv_pos_as_xyz
  1  'x, y, z'
loop_
 _atom_site_type_symbol
 _atom_site_label
 _atom_site_symmetry_multiplicity
 _atom_site_fract_x
 _atom_site_fract_y
 _atom_site_fract_z
 _atom_site_occupancy
  Pr  Pr0  1  0.012135  0.172709  0.397980  1
  Pr  Pr1  1  0.516909  0.320494  0.398548  1
  Pr  Pr2  1  0.482198  0.678155  0.902356  1
  Pr  Pr3  1  0.490704  0.680876  0.601464  1
  Pr  Pr4  1  0.985622  0.830293  0.598639  1
  Pr  Pr5  1  0.982207  0.823188  0.902519  1
  Pr  Pr6  1  0.516564  0.322193  0.098042  1
  Pr  Pr7  1  0.017577  0.178686  0.099758  1
  Ho  Ho8  1  0.337768  0.173673  0.624942  1
  Ho  Ho9  1  0.666933  0.822749  0.375478  1
  Ho  Ho10  1  0.665153  0.990289  0.751181  1
  Ho  Ho11  1  0.168278  0.675478  0.374253  1
  Ho  Ho12  1  0.826778  0.320730  0.878367  1
  Ho  Ho13  1  0.825077  0.325276  0.622153  1
  Ho  Ho14  1  0.838502  0.491730  0.251660  1
  Ho  Ho15  1  0.338868  0.005782  0.248826  1
  Ho  Ho16  1  0.325736  0.177132  0.877529  1
  Ho  Ho17  1  0.172434  0.677992  0.123127  1
  Ho  Ho18  1  0.673759  0.822921  0.123090  1
  Ho  Ho19  1  0.162940  0.507502  0.751903  1
  Si  Si20  1  0.279811  0.880385  0.750961  1
  Si  Si21  1  0.464696  0.613903  0.248092  1
  Si  Si22  1  0.036575  0.119438  0.750777  1
  Si  Si23  1  0.537280  0.387002  0.752218  1
  Si  Si24  1  0.965016  0.884438  0.249237  1
  Si  Si25  1  0.717733  0.121777  0.248074  1
  Si  Si26  1  0.850346  0.533919  0.038692  1
  Si  Si27  1  0.350416  0.967201  0.039560  1
  Si  Si28  1  0.148115  0.466630  0.962370  1
  Si  Si29  1  0.653905  0.033985  0.537619  1
  Si  Si30  1  0.343763  0.964342  0.461403  1
  Si  Si31  1  0.838742  0.536515  0.458340  1
  Si  Si32  1  0.782194  0.620168  0.752495  1
  Si  Si33  1  0.220621  0.376811  0.248835  1
  Si  Si34  1  0.648539  0.032414  0.961179  1
  Ag  Ag35  1  0.156103  0.463226  0.538335  1
