# generated using pymatgen
data_Tm3Sc3Bi2Rh
_symmetry_space_group_name_H-M   'P 1'
_cell_length_a   8.00616900
_cell_length_b   8.00616861
_cell_length_c   4.09648000
_cell_angle_alpha   90.00000000
_cell_angle_beta   90.00000000
_cell_angle_gamma   120.00000575
_symmetry_Int_Tables_number   1
_chemical_formula_structural   Tm3Sc3Bi2Rh
_chemical_formula_sum   'Tm3 Sc3 Bi2 Rh1'
_cell_volume   227.40024627
_cell_formula_units_Z   1
loop_
 _symmetry_equiv_pos_site_id
 _symmetry_equiv_pos_as_xyz
  1  'x, y, z'
loop_
 _atom_site_type_symbol
 _atom_site_label
 _atom_site_symmetry_multiplicity
 _atom_site_fract_x
 _atom_site_fract_y
 _atom_site_fract_z
 _atom_site_occupancy
  Tm  Tm0  1  0.615330  0.000000  0.000000  1
  Tm  Tm1  1  0.000000  0.615330  0.000000  1
  Tm  Tm2  1  0.384670  0.384670  0.000000  1
  Sc  Sc3  1  0.230409  0.000000  0.500000  1
  Sc  Sc4  1  0.000000  0.230409  0.500000  1
  Sc  Sc5  1  0.769591  0.769591  0.500000  1
  Bi  Bi6  1  0.333333  0.666667  0.500000  1
  Bi  Bi7  1  0.666667  0.333333  0.500000  1
  Rh  Rh8  1  0.000000  0.000000  0.000000  1
