# generated using pymatgen
data_NaTa4Tl3P2O17
_symmetry_space_group_name_H-M   'P 1'
_cell_length_a   11.93337000
_cell_length_b   11.93336973
_cell_length_c   7.47781500
_cell_angle_alpha   90.00000000
_cell_angle_beta   90.00000000
_cell_angle_gamma   130.05342638
_symmetry_Int_Tables_number   1
_chemical_formula_structural   NaTa4Tl3P2O17
_chemical_formula_sum   'Na2 Ta8 Tl6 P4 O34'
_cell_volume   815.10725403
_cell_formula_units_Z   2
loop_
 _symmetry_equiv_pos_site_id
 _symmetry_equiv_pos_as_xyz
  1  'x, y, z'
loop_
 _atom_site_type_symbol
 _atom_site_label
 _atom_site_symmetry_multiplicity
 _atom_site_fract_x
 _atom_site_fract_y
 _atom_site_fract_z
 _atom_site_occupancy
  Na  Na0  1  0.631558  0.631558  0.000000  1
  Na  Na1  1  0.631558  0.631558  0.500000  1
  Ta  Ta2  1  0.038824  0.348032  0.501541  1
  Ta  Ta3  1  0.149282  0.677844  0.750000  1
  Ta  Ta4  1  0.038824  0.348032  0.998459  1
  Ta  Ta5  1  0.002478  0.002478  0.500000  1
  Ta  Ta6  1  0.348032  0.038824  0.001541  1
  Ta  Ta7  1  0.002478  0.002478  0.000000  1
  Ta  Ta8  1  0.348032  0.038824  0.498459  1
  Ta  Ta9  1  0.677844  0.149282  0.250000  1
  Tl  Tl10  1  0.967416  0.689465  0.250000  1
  Tl  Tl11  1  0.316743  0.713596  0.250000  1
  Tl  Tl12  1  0.713596  0.316743  0.750000  1
  Tl  Tl13  1  0.306143  0.363224  0.250000  1
  Tl  Tl14  1  0.363224  0.306143  0.750000  1
  Tl  Tl15  1  0.689465  0.967416  0.750000  1
  P  P16  1  0.579101  0.348258  0.250000  1
  P  P17  1  0.865096  0.690466  0.750000  1
  P  P18  1  0.348258  0.579101  0.750000  1
  P  P19  1  0.690466  0.865096  0.250000  1
  O  O20  1  0.413170  0.111783  0.750000  1
  O  O21  1  0.509347  0.649555  0.750000  1
  O  O22  1  0.780651  0.902273  0.424400  1
  O  O23  1  0.191494  0.059599  0.962138  1
  O  O24  1  0.529000  0.073478  0.062830  1
  O  O25  1  0.191494  0.059599  0.537862  1
  O  O26  1  0.949329  0.002563  0.750000  1
  O  O27  1  0.482035  0.267868  0.079920  1
  O  O28  1  0.529000  0.073478  0.437170  1
  O  O29  1  0.780651  0.902273  0.075600  1
  O  O30  1  0.988001  0.284292  0.750000  1
  O  O31  1  0.111783  0.413170  0.250000  1
  O  O32  1  0.073478  0.529000  0.937170  1
  O  O33  1  0.838783  0.236555  0.068082  1
  O  O34  1  0.002563  0.949329  0.250000  1
  O  O35  1  0.267868  0.482035  0.579920  1
  O  O36  1  0.554113  0.703464  0.250000  1
  O  O37  1  0.059599  0.191494  0.462138  1
  O  O38  1  0.902273  0.780651  0.575600  1
  O  O39  1  0.902273  0.780651  0.924400  1
  O  O40  1  0.643614  0.961208  0.250000  1
  O  O41  1  0.334287  0.702370  0.750000  1
  O  O42  1  0.703464  0.554113  0.750000  1
  O  O43  1  0.284292  0.988001  0.250000  1
  O  O44  1  0.236555  0.838783  0.931918  1
  O  O45  1  0.059599  0.191494  0.037862  1
  O  O46  1  0.649555  0.509347  0.250000  1
  O  O47  1  0.482035  0.267868  0.420080  1
  O  O48  1  0.236555  0.838783  0.568082  1
  O  O49  1  0.838783  0.236555  0.431918  1
  O  O50  1  0.073478  0.529000  0.562830  1
  O  O51  1  0.961208  0.643614  0.750000  1
  O  O52  1  0.267868  0.482035  0.920080  1
  O  O53  1  0.702370  0.334287  0.250000  1
