# generated using pymatgen
data_DyScReB6
_symmetry_space_group_name_H-M   'P 1'
_cell_length_a   3.58738500
_cell_length_b   9.01201700
_cell_length_c   11.39367600
_cell_angle_alpha   90.00000000
_cell_angle_beta   90.00000000
_cell_angle_gamma   90.00000000
_symmetry_Int_Tables_number   1
_chemical_formula_structural   DyScReB6
_chemical_formula_sum   'Dy4 Sc4 Re4 B24'
_cell_volume   368.35269827
_cell_formula_units_Z   4
loop_
 _symmetry_equiv_pos_site_id
 _symmetry_equiv_pos_as_xyz
  1  'x, y, z'
loop_
 _atom_site_type_symbol
 _atom_site_label
 _atom_site_symmetry_multiplicity
 _atom_site_fract_x
 _atom_site_fract_y
 _atom_site_fract_z
 _atom_site_occupancy
  Dy  Dy0  1  0.000000  0.321705  0.413780  1
  Dy  Dy1  1  0.000000  0.678295  0.586220  1
  Dy  Dy2  1  0.000000  0.821705  0.086220  1
  Dy  Dy3  1  0.000000  0.178295  0.913780  1
  Sc  Sc4  1  0.000000  0.944242  0.370280  1
  Sc  Sc5  1  0.000000  0.055758  0.629720  1
  Sc  Sc6  1  0.000000  0.444242  0.129720  1
  Sc  Sc7  1  0.000000  0.555758  0.870280  1
  Re  Re8  1  0.000000  0.640804  0.318492  1
  Re  Re9  1  0.000000  0.359196  0.681508  1
  Re  Re10  1  0.000000  0.140804  0.181508  1
  Re  Re11  1  0.000000  0.859196  0.818492  1
  B  B12  1  0.500000  0.554322  0.432596  1
  B  B13  1  0.500000  0.445678  0.567404  1
  B  B14  1  0.500000  0.054322  0.067404  1
  B  B15  1  0.500000  0.945678  0.932596  1
  B  B16  1  0.500000  0.754800  0.418605  1
  B  B17  1  0.500000  0.245200  0.581395  1
  B  B18  1  0.500000  0.254800  0.081395  1
  B  B19  1  0.500000  0.745200  0.918605  1
  B  B20  1  0.500000  0.795450  0.264955  1
  B  B21  1  0.500000  0.204550  0.735045  1
  B  B22  1  0.500000  0.295450  0.235045  1
  B  B23  1  0.500000  0.704550  0.764955  1
  B  B24  1  0.500000  0.629201  0.183018  1
  B  B25  1  0.500000  0.370799  0.816982  1
  B  B26  1  0.500000  0.129201  0.316982  1
  B  B27  1  0.500000  0.870799  0.683018  1
  B  B28  1  0.500000  0.981382  0.213809  1
  B  B29  1  0.500000  0.018618  0.786191  1
  B  B30  1  0.500000  0.481382  0.286191  1
  B  B31  1  0.500000  0.518618  0.713809  1
  B  B32  1  0.500000  0.595255  0.026084  1
  B  B33  1  0.500000  0.404745  0.973916  1
  B  B34  1  0.500000  0.095255  0.473916  1
  B  B35  1  0.500000  0.904745  0.526084  1
