# generated using pymatgen
data_Y6CuRu3Rh2
_symmetry_space_group_name_H-M   'P 1'
_cell_length_a   4.88646000
_cell_length_b   6.79363800
_cell_length_c   14.59934900
_cell_angle_alpha   90.00003649
_cell_angle_beta   90.00080289
_cell_angle_gamma   90.00023533
_symmetry_Int_Tables_number   1
_chemical_formula_structural   Y6CuRu3Rh2
_chemical_formula_sum   'Y12 Cu2 Ru6 Rh4'
_cell_volume   484.65225782
_cell_formula_units_Z   2
loop_
 _symmetry_equiv_pos_site_id
 _symmetry_equiv_pos_as_xyz
  1  'x, y, z'
loop_
 _atom_site_type_symbol
 _atom_site_label
 _atom_site_symmetry_multiplicity
 _atom_site_fract_x
 _atom_site_fract_y
 _atom_site_fract_z
 _atom_site_occupancy
  Y  Y0  1  0.500007  0.251079  0.999074  1
  Y  Y1  1  0.500004  0.748921  0.999074  1
  Y  Y2  1  0.999900  0.248910  0.167603  1
  Y  Y3  1  0.999900  0.751091  0.167604  1
  Y  Y4  1  0.499901  0.248239  0.334500  1
  Y  Y5  1  0.499897  0.751762  0.334500  1
  Y  Y6  1  0.999998  0.250878  0.500379  1
  Y  Y7  1  0.999998  0.749123  0.500378  1
  Y  Y8  1  0.500087  0.249134  0.666267  1
  Y  Y9  1  0.500087  0.750867  0.666266  1
  Y  Y10  1  0.000103  0.251752  0.832164  1
  Y  Y11  1  0.000106  0.748246  0.832165  1
  Cu  Cu12  1  0.000132  0.000002  0.999516  1
  Cu  Cu13  1  0.499733  0.499995  0.167185  1
  Ru  Ru14  1  0.000019  0.500000  0.001047  1
  Ru  Ru15  1  0.499937  0.999999  0.165739  1
  Ru  Ru16  1  0.999866  0.499999  0.331848  1
  Ru  Ru17  1  0.499995  0.000002  0.499137  1
  Ru  Ru18  1  0.000113  0.500001  0.667497  1
  Ru  Ru19  1  0.500145  0.000001  0.834787  1
  Rh  Rh20  1  0.999891  0.000010  0.333410  1
  Rh  Rh21  1  0.500007  0.500000  0.500188  1
  Rh  Rh22  1  0.000117  0.999997  0.666421  1
  Rh  Rh23  1  0.500055  0.499998  0.833252  1
