# generated using pymatgen
data_Zr2Ta2Pb4O13
_symmetry_space_group_name_H-M   'P 1'
_cell_length_a   7.65553357
_cell_length_b   7.65553333
_cell_length_c   7.65553408
_cell_angle_alpha   120.13811487
_cell_angle_beta   119.94793116
_cell_angle_gamma   89.92557869
_symmetry_Int_Tables_number   1
_chemical_formula_structural   Zr2Ta2Pb4O13
_chemical_formula_sum   'Zr2 Ta2 Pb4 O13'
_cell_volume   317.04944872
_cell_formula_units_Z   1
loop_
 _symmetry_equiv_pos_site_id
 _symmetry_equiv_pos_as_xyz
  1  'x, y, z'
loop_
 _atom_site_type_symbol
 _atom_site_label
 _atom_site_symmetry_multiplicity
 _atom_site_fract_x
 _atom_site_fract_y
 _atom_site_fract_z
 _atom_site_occupancy
  Zr  Zr0  1  0.250171  0.499332  0.750839  1
  Zr  Zr1  1  0.748492  0.499332  0.249161  1
  Ta  Ta2  1  0.749123  0.998629  0.249505  1
  Ta  Ta3  1  0.749123  0.499619  0.750495  1
  Pb  Pb4  1  0.748464  0.998446  0.750018  1
  Pb  Pb5  1  0.248428  0.998446  0.249982  1
  Pb  Pb6  1  0.249305  0.502785  0.253479  1
  Pb  Pb7  1  0.249305  0.995827  0.746521  1
  O  O8  1  0.084577  0.584577  0.500000  1
  O  O9  1  0.690881  0.190881  0.500000  1
  O  O10  1  0.062970  0.167686  0.483478  1
  O  O11  1  0.684208  0.579492  0.516522  1
  O  O12  1  0.684208  0.167686  0.104715  1
  O  O13  1  0.062970  0.579492  0.895285  1
  O  O14  1  0.421098  0.421098  0.000000  1
  O  O15  1  0.807974  0.807974  0.000000  1
  O  O16  1  0.439446  0.828544  0.015919  1
  O  O17  1  0.812625  0.423527  0.984081  1
  O  O18  1  0.812625  0.828544  0.389098  1
  O  O19  1  0.439446  0.423527  0.610902  1
  O  O20  1  0.379557  0.879557  0.500000  1
