# generated using pymatgen
data_La2Th2Al4IrRh3
_symmetry_space_group_name_H-M   'P 1'
_cell_length_a   4.26238600
_cell_length_b   7.21969979
_cell_length_c   16.34042877
_cell_angle_alpha   90.05339718
_cell_angle_beta   90.00000000
_cell_angle_gamma   90.00000000
_symmetry_Int_Tables_number   1
_chemical_formula_structural   La2Th2Al4IrRh3
_chemical_formula_sum   'La4 Th4 Al8 Ir2 Rh6'
_cell_volume   502.84620296
_cell_formula_units_Z   2
loop_
 _symmetry_equiv_pos_site_id
 _symmetry_equiv_pos_as_xyz
  1  'x, y, z'
loop_
 _atom_site_type_symbol
 _atom_site_label
 _atom_site_symmetry_multiplicity
 _atom_site_fract_x
 _atom_site_fract_y
 _atom_site_fract_z
 _atom_site_occupancy
  La  La0  1  0.250000  0.653501  0.559050  1
  La  La1  1  0.750000  0.346499  0.440950  1
  La  La2  1  0.750000  0.846066  0.059004  1
  La  La3  1  0.250000  0.153934  0.940996  1
  Th  Th4  1  0.250000  0.520365  0.779156  1
  Th  Th5  1  0.750000  0.479635  0.220844  1
  Th  Th6  1  0.750000  0.978966  0.279015  1
  Th  Th7  1  0.250000  0.021034  0.720985  1
  Al  Al8  1  0.250000  0.656515  0.350636  1
  Al  Al9  1  0.750000  0.343485  0.649364  1
  Al  Al10  1  0.750000  0.844726  0.850940  1
  Al  Al11  1  0.250000  0.155274  0.149060  1
  Al  Al12  1  0.250000  0.507997  0.061503  1
  Al  Al13  1  0.750000  0.492003  0.938497  1
  Al  Al14  1  0.750000  0.992653  0.561194  1
  Al  Al15  1  0.250000  0.007347  0.438806  1
  Ir  Ir16  1  0.250000  0.761044  0.187141  1
  Ir  Ir17  1  0.750000  0.238956  0.812859  1
  Rh  Rh18  1  0.750000  0.739321  0.686701  1
  Rh  Rh19  1  0.250000  0.260679  0.313299  1
  Rh  Rh20  1  0.250000  0.710232  0.924661  1
  Rh  Rh21  1  0.750000  0.289768  0.075339  1
  Rh  Rh22  1  0.750000  0.789436  0.424740  1
  Rh  Rh23  1  0.250000  0.210564  0.575260  1
