# generated using pymatgen
data_Y6Fe9Co7(MoP6)2
_symmetry_space_group_name_H-M   'P 1'
_cell_length_a   3.74066100
_cell_length_b   10.60160063
_cell_length_c   12.19680000
_cell_angle_alpha   90.05357428
_cell_angle_beta   90.00000000
_cell_angle_gamma   90.00000000
_symmetry_Int_Tables_number   1
_chemical_formula_structural   Y6Fe9Co7(MoP6)2
_chemical_formula_sum   'Y6 Fe9 Co7 Mo2 P12'
_cell_volume   483.68821335
_cell_formula_units_Z   1
loop_
 _symmetry_equiv_pos_site_id
 _symmetry_equiv_pos_as_xyz
  1  'x, y, z'
loop_
 _atom_site_type_symbol
 _atom_site_label
 _atom_site_symmetry_multiplicity
 _atom_site_fract_x
 _atom_site_fract_y
 _atom_site_fract_z
 _atom_site_occupancy
  Y  Y0  1  0.000000  0.499977  0.525471  1
  Y  Y1  1  0.500000  0.998840  0.474356  1
  Y  Y2  1  0.500000  0.821706  0.204930  1
  Y  Y3  1  0.500000  0.178868  0.205432  1
  Y  Y4  1  0.000000  0.678379  0.795187  1
  Y  Y5  1  0.000000  0.320949  0.794680  1
  Fe  Fe6  1  0.000000  0.499296  0.987556  1
  Fe  Fe7  1  0.500000  0.000356  0.012510  1
  Fe  Fe8  1  0.500000  0.329697  0.995354  1
  Fe  Fe9  1  0.500000  0.669350  0.995214  1
  Fe  Fe10  1  0.000000  0.170192  0.004444  1
  Fe  Fe11  1  0.000000  0.830208  0.004497  1
  Fe  Fe12  1  0.500000  0.297872  0.430128  1
  Fe  Fe13  1  0.500000  0.703135  0.430987  1
  Fe  Fe14  1  0.000000  0.202664  0.569885  1
  Co  Co15  1  0.500000  0.499901  0.700336  1
  Co  Co16  1  0.000000  0.000517  0.299901  1
  Co  Co17  1  0.000000  0.797738  0.569994  1
  Co  Co18  1  0.500000  0.878466  0.707137  1
  Co  Co19  1  0.500000  0.119375  0.707309  1
  Co  Co20  1  0.000000  0.621132  0.292680  1
  Co  Co21  1  0.000000  0.380335  0.292664  1
  Mo  Mo22  1  0.500000  0.500046  0.152950  1
  Mo  Mo23  1  0.000000  0.999844  0.846596  1
  P  P24  1  0.500000  0.499777  0.886550  1
  P  P25  1  0.000000  0.000142  0.113659  1
  P  P26  1  0.500000  0.500066  0.349311  1
  P  P27  1  0.000000  0.002580  0.650994  1
  P  P28  1  0.500000  0.305893  0.613691  1
  P  P29  1  0.500000  0.692009  0.614436  1
  P  P30  1  0.000000  0.194350  0.386305  1
  P  P31  1  0.000000  0.806793  0.384928  1
  P  P32  1  0.500000  0.843737  0.894407  1
  P  P33  1  0.500000  0.155546  0.893667  1
  P  P34  1  0.000000  0.655986  0.105563  1
  P  P35  1  0.000000  0.344280  0.106292  1
