# generated using pymatgen
data_HfNp3Tl2O12
_symmetry_space_group_name_H-M   'P 1'
_cell_length_a   7.70223144
_cell_length_b   7.70308954
_cell_length_c   7.49870300
_cell_angle_alpha   90.00000000
_cell_angle_beta   59.10980086
_cell_angle_gamma   120.00367829
_symmetry_Int_Tables_number   1
_chemical_formula_structural   HfNp3Tl2O12
_chemical_formula_sum   'Hf1 Np3 Tl2 O12'
_cell_volume   310.27821633
_cell_formula_units_Z   1
loop_
 _symmetry_equiv_pos_site_id
 _symmetry_equiv_pos_as_xyz
  1  'x, y, z'
loop_
 _atom_site_type_symbol
 _atom_site_label
 _atom_site_symmetry_multiplicity
 _atom_site_fract_x
 _atom_site_fract_y
 _atom_site_fract_z
 _atom_site_occupancy
  Hf  Hf0  1  0.000000  0.503764  0.000000  1
  Np  Np1  1  0.499994  0.003742  0.500013  1
  Np  Np2  1  0.500006  0.503748  0.499987  1
  Np  Np3  1  0.000000  0.503757  0.500000  1
  Tl  Tl4  1  0.252849  0.130404  0.120296  1
  Tl  Tl5  1  0.747151  0.877553  0.879704  1
  O  O6  1  0.648049  0.827774  0.424198  1
  O  O7  1  0.860513  0.434007  0.818188  1
  O  O8  1  0.251322  0.824795  0.818381  1
  O  O9  1  0.251706  0.431358  0.424230  1
  O  O10  1  0.251299  0.434027  0.818349  1
  O  O11  1  0.251709  0.827855  0.424249  1
  O  O12  1  0.351951  0.179725  0.575802  1
  O  O13  1  0.139487  0.573494  0.181812  1
  O  O14  1  0.748701  0.182726  0.181651  1
  O  O15  1  0.748291  0.576146  0.575751  1
  O  O16  1  0.748678  0.573473  0.181619  1
  O  O17  1  0.748294  0.179651  0.575770  1
