# generated using pymatgen
data_CeSm(Zn9Au2)2
_symmetry_space_group_name_H-M   'P 1'
_cell_length_a   8.40570675
_cell_length_b   8.40570737
_cell_length_c   8.40570725
_cell_angle_alpha   99.91025576
_cell_angle_beta   99.91025344
_cell_angle_gamma   130.97952074
_symmetry_Int_Tables_number   1
_chemical_formula_structural   CeSm(Zn9Au2)2
_chemical_formula_sum   'Ce1 Sm1 Zn18 Au4'
_cell_volume   407.96699748
_cell_formula_units_Z   1
loop_
 _symmetry_equiv_pos_site_id
 _symmetry_equiv_pos_as_xyz
  1  'x, y, z'
loop_
 _atom_site_type_symbol
 _atom_site_label
 _atom_site_symmetry_multiplicity
 _atom_site_fract_x
 _atom_site_fract_y
 _atom_site_fract_z
 _atom_site_occupancy
  Ce  Ce0  1  0.250000  0.750000  0.500000  1
  Sm  Sm1  1  0.000000  0.000000  0.000000  1
  Zn  Zn2  1  0.755330  0.168395  0.828111  1
  Zn  Zn3  1  0.072780  0.244670  0.413065  1
  Zn  Zn4  1  0.340285  0.168395  0.413065  1
  Zn  Zn5  1  0.072780  0.659715  0.828111  1
  Zn  Zn6  1  0.910371  0.582171  0.086582  1
  Zn  Zn7  1  0.340285  0.927220  0.171889  1
  Zn  Zn8  1  0.750000  0.250000  0.500000  1
  Zn  Zn9  1  0.910371  0.823789  0.328200  1
  Zn  Zn10  1  0.500000  0.500000  0.000000  1
  Zn  Zn11  1  0.417829  0.089629  0.913418  1
  Zn  Zn12  1  0.495588  0.582171  0.671800  1
  Zn  Zn13  1  0.176211  0.089629  0.671800  1
  Zn  Zn14  1  0.755330  0.927220  0.586935  1
  Zn  Zn15  1  0.831605  0.659715  0.586935  1
  Zn  Zn16  1  0.417829  0.504412  0.328200  1
  Zn  Zn17  1  0.495588  0.823789  0.913418  1
  Zn  Zn18  1  0.176211  0.504412  0.086582  1
  Zn  Zn19  1  0.831605  0.244670  0.171889  1
  Au  Au20  1  0.624031  0.873505  0.249474  1
  Au  Au21  1  0.625443  0.375969  0.249474  1
  Au  Au22  1  0.126495  0.375969  0.750526  1
  Au  Au23  1  0.624031  0.374557  0.750526  1
