# generated using pymatgen
data_Na2Co3P7Ru9
_symmetry_space_group_name_H-M   'P 1'
_cell_length_a   9.33779400
_cell_length_b   9.33779416
_cell_length_c   3.78848400
_cell_angle_alpha   90.00000000
_cell_angle_beta   90.00000000
_cell_angle_gamma   119.99999945
_symmetry_Int_Tables_number   1
_chemical_formula_structural   Na2Co3P7Ru9
_chemical_formula_sum   'Na2 Co3 P7 Ru9'
_cell_volume   286.07814192
_cell_formula_units_Z   1
loop_
 _symmetry_equiv_pos_site_id
 _symmetry_equiv_pos_as_xyz
  1  'x, y, z'
loop_
 _atom_site_type_symbol
 _atom_site_label
 _atom_site_symmetry_multiplicity
 _atom_site_fract_x
 _atom_site_fract_y
 _atom_site_fract_z
 _atom_site_occupancy
  Na  Na0  1  0.666667  0.333333  0.500000  1
  Na  Na1  1  0.333333  0.666667  0.000000  1
  Co  Co2  1  0.733898  0.889662  0.000000  1
  Co  Co3  1  0.110338  0.844234  0.000000  1
  Co  Co4  1  0.155766  0.266102  0.000000  1
  P  P5  1  0.601435  0.714159  0.500000  1
  P  P6  1  0.000000  0.000000  0.000000  1
  P  P7  1  0.285841  0.887275  0.500000  1
  P  P8  1  0.112725  0.398565  0.500000  1
  P  P9  1  0.892846  0.589137  0.000000  1
  P  P10  1  0.410863  0.303709  0.000000  1
  P  P11  1  0.696291  0.107154  0.000000  1
  Ru  Ru12  1  0.563964  0.946378  0.500000  1
  Ru  Ru13  1  0.382415  0.436036  0.500000  1
  Ru  Ru14  1  0.916064  0.116561  0.500000  1
  Ru  Ru15  1  0.200497  0.083936  0.500000  1
  Ru  Ru16  1  0.883439  0.799503  0.500000  1
  Ru  Ru17  1  0.421967  0.060479  0.000000  1
  Ru  Ru18  1  0.939521  0.361489  0.000000  1
  Ru  Ru19  1  0.638511  0.578033  0.000000  1
  Ru  Ru20  1  0.053622  0.617585  0.500000  1
