# generated using pymatgen
data_Ca2Eu2ZrW3O14
_symmetry_space_group_name_H-M   'P 1'
_cell_length_a   7.52515957
_cell_length_b   7.53223211
_cell_length_c   7.52515975
_cell_angle_alpha   59.91849207
_cell_angle_beta   59.96065529
_cell_angle_gamma   59.91848691
_symmetry_Int_Tables_number   1
_chemical_formula_structural   Ca2Eu2ZrW3O14
_chemical_formula_sum   'Ca2 Eu2 Zr1 W3 O14'
_cell_volume   301.14453497
_cell_formula_units_Z   1
loop_
 _symmetry_equiv_pos_site_id
 _symmetry_equiv_pos_as_xyz
  1  'x, y, z'
loop_
 _atom_site_type_symbol
 _atom_site_label
 _atom_site_symmetry_multiplicity
 _atom_site_fract_x
 _atom_site_fract_y
 _atom_site_fract_z
 _atom_site_occupancy
  Ca  Ca0  1  0.625000  0.625000  0.125000  1
  Ca  Ca1  1  0.125000  0.625000  0.625000  1
  Eu  Eu2  1  0.625000  0.125000  0.625000  1
  Eu  Eu3  1  0.625000  0.625000  0.625000  1
  Zr  Zr4  1  0.125000  0.125000  0.125000  1
  W  W5  1  0.625000  0.125000  0.125000  1
  W  W6  1  0.125000  0.125000  0.625000  1
  W  W7  1  0.125000  0.625000  0.125000  1
  O  O8  1  0.203857  0.803677  0.801568  1
  O  O9  1  0.801568  0.803677  0.203857  1
  O  O10  1  0.801787  0.202560  0.801787  1
  O  O11  1  0.197548  0.791527  0.197548  1
  O  O12  1  0.199595  0.200206  0.790247  1
  O  O13  1  0.790247  0.200206  0.199595  1
  O  O14  1  0.459753  0.049794  0.050405  1
  O  O15  1  0.050405  0.049794  0.459753  1
  O  O16  1  0.052452  0.458473  0.052452  1
  O  O17  1  0.448213  0.047440  0.448213  1
  O  O18  1  0.751816  0.749435  0.751816  1
  O  O19  1  0.448432  0.446323  0.046143  1
  O  O20  1  0.046143  0.446323  0.448432  1
  O  O21  1  0.498184  0.500565  0.498184  1
