# generated using pymatgen
data_Er3Ag3C
_symmetry_space_group_name_H-M   'P 1'
_cell_length_a   9.29306801
_cell_length_b   9.29307298
_cell_length_c   9.29286300
_cell_angle_alpha   119.99944051
_cell_angle_beta   90.00131939
_cell_angle_gamma   120.00005870
_symmetry_Int_Tables_number   1
_chemical_formula_structural   Er3Ag3C
_chemical_formula_sum   'Er12 Ag12 C4'
_cell_volume   567.48094915
_cell_formula_units_Z   4
loop_
 _symmetry_equiv_pos_site_id
 _symmetry_equiv_pos_as_xyz
  1  'x, y, z'
loop_
 _atom_site_type_symbol
 _atom_site_label
 _atom_site_symmetry_multiplicity
 _atom_site_fract_x
 _atom_site_fract_y
 _atom_site_fract_z
 _atom_site_occupancy
  Er  Er0  1  0.934314  0.368637  0.184310  1
  Er  Er1  1  0.934350  0.750010  0.184316  1
  Er  Er2  1  0.315675  0.749996  0.184317  1
  Er  Er3  1  0.684298  0.250010  0.434302  1
  Er  Er4  1  0.684294  0.868602  0.434305  1
  Er  Er5  1  0.065713  0.250016  0.434290  1
  Er  Er6  1  0.315694  0.131360  0.565680  1
  Er  Er7  1  0.315666  0.749986  0.565658  1
  Er  Er8  1  0.934289  0.749974  0.565672  1
  Er  Er9  1  0.684302  0.250016  0.815723  1
  Er  Er10  1  0.065717  0.631427  0.815716  1
  Er  Er11  1  0.065701  0.250012  0.815718  1
  Ag  Ag12  1  0.000008  0.999995  0.999987  1
  Ag  Ag13  1  0.499986  0.999989  0.000006  1
  Ag  Ag14  1  0.499989  0.499994  0.999987  1
  Ag  Ag15  1  0.708250  0.916463  0.124713  1
  Ag  Ag16  1  0.291769  0.083497  0.208252  1
  Ag  Ag17  1  0.291741  0.416498  0.208231  1
  Ag  Ag18  1  0.624773  0.416521  0.208271  1
  Ag  Ag19  1  0.500016  0.500005  0.500017  1
  Ag  Ag20  1  0.375221  0.583485  0.791735  1
  Ag  Ag21  1  0.708248  0.583482  0.791753  1
  Ag  Ag22  1  0.708240  0.916514  0.791763  1
  Ag  Ag23  1  0.291732  0.083507  0.875278  1
  C  C24  1  0.000008  0.499998  0.999993  1
  C  C25  1  0.000006  0.000008  0.500000  1
  C  C26  1  0.500016  0.000011  0.500010  1
  C  C27  1  0.999993  0.499998  0.500004  1
