# generated using pymatgen
data_Li2Sm3(CuSn2)2
_symmetry_space_group_name_H-M   'P 1'
_cell_length_a   4.57459519
_cell_length_b   7.12582693
_cell_length_c   8.78631008
_cell_angle_alpha   115.94672033
_cell_angle_beta   105.08936400
_cell_angle_gamma   90.00000549
_symmetry_Int_Tables_number   1
_chemical_formula_structural   Li2Sm3(CuSn2)2
_chemical_formula_sum   'Li2 Sm3 Cu2 Sn4'
_cell_volume   246.51486212
_cell_formula_units_Z   1
loop_
 _symmetry_equiv_pos_site_id
 _symmetry_equiv_pos_as_xyz
  1  'x, y, z'
loop_
 _atom_site_type_symbol
 _atom_site_label
 _atom_site_symmetry_multiplicity
 _atom_site_fract_x
 _atom_site_fract_y
 _atom_site_fract_z
 _atom_site_occupancy
  Li  Li0  1  0.329253  0.646675  0.658506  1
  Li  Li1  1  0.670747  0.353325  0.341494  1
  Sm  Sm2  1  0.869116  0.348836  0.738233  1
  Sm  Sm3  1  0.130884  0.651164  0.261767  1
  Sm  Sm4  1  0.000000  0.000000  0.000000  1
  Cu  Cu5  1  0.330572  0.019584  0.661144  1
  Cu  Cu6  1  0.669428  0.980416  0.338856  1
  Sn  Sn7  1  0.215909  0.200149  0.431818  1
  Sn  Sn8  1  0.784091  0.799851  0.568182  1
  Sn  Sn9  1  0.500608  0.700628  0.001217  1
  Sn  Sn10  1  0.499392  0.299372  0.998783  1
