# generated using pymatgen
data_Tb2LuTl5
_symmetry_space_group_name_H-M   'P 1'
_cell_length_a   6.64183300
_cell_length_b   10.48254000
_cell_length_c   12.42539500
_cell_angle_alpha   90.00000000
_cell_angle_beta   90.00000000
_cell_angle_gamma   90.00000000
_symmetry_Int_Tables_number   1
_chemical_formula_structural   Tb2LuTl5
_chemical_formula_sum   'Tb8 Lu4 Tl20'
_cell_volume   865.09675639
_cell_formula_units_Z   4
loop_
 _symmetry_equiv_pos_site_id
 _symmetry_equiv_pos_as_xyz
  1  'x, y, z'
loop_
 _atom_site_type_symbol
 _atom_site_label
 _atom_site_symmetry_multiplicity
 _atom_site_fract_x
 _atom_site_fract_y
 _atom_site_fract_z
 _atom_site_occupancy
  Tb  Tb0  1  0.883668  0.508745  0.358914  1
  Tb  Tb1  1  0.616332  0.991255  0.858914  1
  Tb  Tb2  1  0.116332  0.008745  0.641086  1
  Tb  Tb3  1  0.383668  0.491255  0.141086  1
  Tb  Tb4  1  0.116332  0.491255  0.641086  1
  Tb  Tb5  1  0.383668  0.008745  0.141086  1
  Tb  Tb6  1  0.883668  0.991255  0.358914  1
  Tb  Tb7  1  0.616332  0.508745  0.858914  1
  Lu  Lu8  1  0.861626  0.750000  0.044670  1
  Lu  Lu9  1  0.638374  0.750000  0.544670  1
  Lu  Lu10  1  0.138374  0.250000  0.955330  1
  Lu  Lu11  1  0.361626  0.250000  0.455330  1
  Tl  Tl12  1  0.867315  0.037312  0.102053  1
  Tl  Tl13  1  0.632685  0.462688  0.602053  1
  Tl  Tl14  1  0.132685  0.537312  0.897947  1
  Tl  Tl15  1  0.367315  0.962688  0.397947  1
  Tl  Tl16  1  0.132685  0.962688  0.897947  1
  Tl  Tl17  1  0.367315  0.537312  0.397947  1
  Tl  Tl18  1  0.867315  0.462688  0.102053  1
  Tl  Tl19  1  0.632685  0.037312  0.602053  1
  Tl  Tl20  1  0.143515  0.750000  0.237643  1
  Tl  Tl21  1  0.356485  0.750000  0.737643  1
  Tl  Tl22  1  0.856485  0.250000  0.762357  1
  Tl  Tl23  1  0.643515  0.250000  0.262357  1
  Tl  Tl24  1  0.405421  0.750000  0.006256  1
  Tl  Tl25  1  0.094579  0.750000  0.506256  1
  Tl  Tl26  1  0.594579  0.250000  0.993744  1
  Tl  Tl27  1  0.905421  0.250000  0.493744  1
  Tl  Tl28  1  0.628127  0.750000  0.273186  1
  Tl  Tl29  1  0.871873  0.750000  0.773186  1
  Tl  Tl30  1  0.371873  0.250000  0.726814  1
  Tl  Tl31  1  0.128127  0.250000  0.226814  1
