# generated using pymatgen
data_Pr3Ho2Tl3Cl
_symmetry_space_group_name_H-M   'P 1'
_cell_length_a   9.46738200
_cell_length_b   9.46738036
_cell_length_c   6.76543200
_cell_angle_alpha   90.00000000
_cell_angle_beta   90.00000000
_cell_angle_gamma   119.99999875
_symmetry_Int_Tables_number   1
_chemical_formula_structural   Pr3Ho2Tl3Cl
_chemical_formula_sum   'Pr6 Ho4 Tl6 Cl2'
_cell_volume   525.15305560
_cell_formula_units_Z   2
loop_
 _symmetry_equiv_pos_site_id
 _symmetry_equiv_pos_as_xyz
  1  'x, y, z'
loop_
 _atom_site_type_symbol
 _atom_site_label
 _atom_site_symmetry_multiplicity
 _atom_site_fract_x
 _atom_site_fract_y
 _atom_site_fract_z
 _atom_site_occupancy
  Pr  Pr0  1  0.261503  0.000000  0.750000  1
  Pr  Pr1  1  0.738497  0.000000  0.250000  1
  Pr  Pr2  1  0.000000  0.261503  0.750000  1
  Pr  Pr3  1  0.000000  0.738497  0.250000  1
  Pr  Pr4  1  0.738497  0.738497  0.750000  1
  Pr  Pr5  1  0.261503  0.261503  0.250000  1
  Ho  Ho6  1  0.333333  0.666667  0.500000  1
  Ho  Ho7  1  0.666667  0.333333  0.500000  1
  Ho  Ho8  1  0.666667  0.333333  0.000000  1
  Ho  Ho9  1  0.333333  0.666667  0.000000  1
  Tl  Tl10  1  0.604530  0.000000  0.750000  1
  Tl  Tl11  1  0.395470  0.000000  0.250000  1
  Tl  Tl12  1  0.000000  0.604530  0.750000  1
  Tl  Tl13  1  0.000000  0.395470  0.250000  1
  Tl  Tl14  1  0.395470  0.395470  0.750000  1
  Tl  Tl15  1  0.604530  0.604530  0.250000  1
  Cl  Cl16  1  0.000000  0.000000  0.500000  1
  Cl  Cl17  1  0.000000  0.000000  0.000000  1
