# generated using pymatgen
data_TbDy5BiSbO14
_symmetry_space_group_name_H-M   'P 1'
_cell_length_a   6.49404801
_cell_length_b   6.51286676
_cell_length_c   7.66021169
_cell_angle_alpha   106.61580296
_cell_angle_beta   89.92033089
_cell_angle_gamma   98.23343542
_symmetry_Int_Tables_number   1
_chemical_formula_structural   TbDy5BiSbO14
_chemical_formula_sum   'Tb1 Dy5 Bi1 Sb1 O14'
_cell_volume   306.99175009
_cell_formula_units_Z   1
loop_
 _symmetry_equiv_pos_site_id
 _symmetry_equiv_pos_as_xyz
  1  'x, y, z'
loop_
 _atom_site_type_symbol
 _atom_site_label
 _atom_site_symmetry_multiplicity
 _atom_site_fract_x
 _atom_site_fract_y
 _atom_site_fract_z
 _atom_site_occupancy
  Tb  Tb0  1  0.266503  0.537742  0.884551  1
  Dy  Dy1  1  0.733300  0.462312  0.115592  1
  Dy  Dy2  1  0.733551  0.472292  0.609356  1
  Dy  Dy3  1  0.540127  0.995569  0.752620  1
  Dy  Dy4  1  0.460101  0.004648  0.247523  1
  Dy  Dy5  1  0.266840  0.527467  0.390081  1
  Bi  Bi6  1  0.999742  0.999571  0.499685  1
  Sb  Sb7  1  0.999545  0.999985  0.000221  1
  O  O8  1  0.698002  0.073503  0.490333  1
  O  O9  1  0.929339  0.686191  0.975927  1
  O  O10  1  0.709289  0.069413  0.050624  1
  O  O11  1  0.929415  0.647527  0.384422  1
  O  O12  1  0.886034  0.908547  0.736269  1
  O  O13  1  0.559394  0.352888  0.834334  1
  O  O14  1  0.545524  0.360977  0.343271  1
  O  O15  1  0.455217  0.638947  0.655761  1
  O  O16  1  0.443090  0.647541  0.166662  1
  O  O17  1  0.114197  0.090897  0.263669  1
  O  O18  1  0.070110  0.351970  0.614279  1
  O  O19  1  0.290057  0.931195  0.949277  1
  O  O20  1  0.068991  0.314274  0.025661  1
  O  O21  1  0.301632  0.926544  0.509881  1
