# generated using pymatgen
data_TbAgPt2O7
_symmetry_space_group_name_H-M   'P 1'
_cell_length_a   7.16786236
_cell_length_b   7.24529828
_cell_length_c   7.24529864
_cell_angle_alpha   61.44961406
_cell_angle_beta   60.35292945
_cell_angle_gamma   60.35292310
_symmetry_Int_Tables_number   1
_chemical_formula_structural   TbAgPt2O7
_chemical_formula_sum   'Tb2 Ag2 Pt4 O14'
_cell_volume   270.31365916
_cell_formula_units_Z   2
loop_
 _symmetry_equiv_pos_site_id
 _symmetry_equiv_pos_as_xyz
  1  'x, y, z'
loop_
 _atom_site_type_symbol
 _atom_site_label
 _atom_site_symmetry_multiplicity
 _atom_site_fract_x
 _atom_site_fract_y
 _atom_site_fract_z
 _atom_site_occupancy
  Tb  Tb0  1  0.625000  0.625000  0.125000  1
  Tb  Tb1  1  0.625000  0.125000  0.625000  1
  Ag  Ag2  1  0.625000  0.625000  0.625000  1
  Ag  Ag3  1  0.125000  0.625000  0.625000  1
  Pt  Pt4  1  0.125000  0.125000  0.125000  1
  Pt  Pt5  1  0.625000  0.125000  0.125000  1
  Pt  Pt6  1  0.125000  0.625000  0.125000  1
  Pt  Pt7  1  0.125000  0.125000  0.625000  1
  O  O8  1  0.046321  0.453679  0.453679  1
  O  O9  1  0.789122  0.794499  0.196185  1
  O  O10  1  0.781323  0.218677  0.218677  1
  O  O11  1  0.460878  0.053815  0.455501  1
  O  O12  1  0.029805  0.455501  0.053815  1
  O  O13  1  0.762821  0.737179  0.737179  1
  O  O14  1  0.029805  0.053815  0.455501  1
  O  O15  1  0.220195  0.794499  0.196185  1
  O  O16  1  0.220195  0.196185  0.794499  1
  O  O17  1  0.487179  0.512821  0.512821  1
  O  O18  1  0.789122  0.196185  0.794499  1
  O  O19  1  0.468677  0.031323  0.031323  1
  O  O20  1  0.460878  0.455501  0.053815  1
  O  O21  1  0.203679  0.796321  0.796321  1
