# generated using pymatgen
data_Zr6Al16Cu3Ir3Rh
_symmetry_space_group_name_H-M   'P 1'
_cell_length_a   8.72693452
_cell_length_b   8.72691971
_cell_length_c   8.67453622
_cell_angle_alpha   59.66979697
_cell_angle_beta   60.19830974
_cell_angle_gamma   59.60320981
_symmetry_Int_Tables_number   1
_chemical_formula_structural   Zr6Al16Cu3Ir3Rh
_chemical_formula_sum   'Zr6 Al16 Cu3 Ir3 Rh1'
_cell_volume   465.24846363
_cell_formula_units_Z   1
loop_
 _symmetry_equiv_pos_site_id
 _symmetry_equiv_pos_as_xyz
  1  'x, y, z'
loop_
 _atom_site_type_symbol
 _atom_site_label
 _atom_site_symmetry_multiplicity
 _atom_site_fract_x
 _atom_site_fract_y
 _atom_site_fract_z
 _atom_site_occupancy
  Zr  Zr0  1  0.694341  0.696468  0.303532  1
  Zr  Zr1  1  0.317762  0.682528  0.317472  1
  Zr  Zr2  1  0.692175  0.307825  0.307825  1
  Zr  Zr3  1  0.305659  0.303532  0.696468  1
  Zr  Zr4  1  0.682238  0.317472  0.682528  1
  Zr  Zr5  1  0.307825  0.692175  0.692175  1
  Al  Al6  1  0.888399  0.875996  0.359254  1
  Al  Al7  1  0.876350  0.359254  0.875996  1
  Al  Al8  1  0.356113  0.874695  0.884748  1
  Al  Al9  1  0.884444  0.884748  0.874695  1
  Al  Al10  1  0.111601  0.124004  0.640746  1
  Al  Al11  1  0.123650  0.640746  0.124004  1
  Al  Al12  1  0.643887  0.125305  0.115252  1
  Al  Al13  1  0.115556  0.115252  0.125305  1
  Al  Al14  1  0.668738  0.666634  0.000629  1
  Al  Al15  1  0.663998  0.000629  0.666634  1
  Al  Al16  1  0.004920  0.662559  0.668474  1
  Al  Al17  1  0.664046  0.668474  0.662559  1
  Al  Al18  1  0.331262  0.333366  0.999371  1
  Al  Al19  1  0.336002  0.999371  0.333366  1
  Al  Al20  1  0.995080  0.337441  0.331526  1
  Al  Al21  1  0.335954  0.331526  0.337441  1
  Cu  Cu22  1  0.500000  0.000000  0.500000  1
  Cu  Cu23  1  0.000000  0.500000  0.000000  1
  Cu  Cu24  1  0.500000  0.000000  0.000000  1
  Ir  Ir25  1  0.000000  0.000000  0.500000  1
  Ir  Ir26  1  0.000000  0.500000  0.500000  1
  Ir  Ir27  1  0.500000  0.500000  0.000000  1
  Rh  Rh28  1  0.000000  0.000000  0.000000  1
