# generated using pymatgen
data_NdTh2(Si3Pd10)2
_symmetry_space_group_name_H-M   'P 1'
_cell_length_a   8.77498345
_cell_length_b   8.77498405
_cell_length_c   8.77498400
_cell_angle_alpha   60.00000774
_cell_angle_beta   60.00000545
_cell_angle_gamma   60.00000374
_symmetry_Int_Tables_number   1
_chemical_formula_structural   NdTh2(Si3Pd10)2
_chemical_formula_sum   'Nd1 Th2 Si6 Pd20'
_cell_volume   477.77567281
_cell_formula_units_Z   1
loop_
 _symmetry_equiv_pos_site_id
 _symmetry_equiv_pos_as_xyz
  1  'x, y, z'
loop_
 _atom_site_type_symbol
 _atom_site_label
 _atom_site_symmetry_multiplicity
 _atom_site_fract_x
 _atom_site_fract_y
 _atom_site_fract_z
 _atom_site_occupancy
  Nd  Nd0  1  0.000000  0.000000  0.000000  1
  Th  Th1  1  0.250000  0.250000  0.250000  1
  Th  Th2  1  0.750000  0.750000  0.750000  1
  Si  Si3  1  0.734011  0.265989  0.265989  1
  Si  Si4  1  0.265989  0.734011  0.734011  1
  Si  Si5  1  0.265989  0.734011  0.265989  1
  Si  Si6  1  0.734011  0.265989  0.734011  1
  Si  Si7  1  0.265989  0.265989  0.734011  1
  Si  Si8  1  0.734011  0.734011  0.265989  1
  Pd  Pd9  1  0.347584  0.000000  0.000000  1
  Pd  Pd10  1  0.652416  0.000000  0.000000  1
  Pd  Pd11  1  0.000000  0.347584  0.652416  1
  Pd  Pd12  1  0.000000  0.652416  0.347584  1
  Pd  Pd13  1  0.000000  0.347584  0.000000  1
  Pd  Pd14  1  0.652416  0.000000  0.347584  1
  Pd  Pd15  1  0.000000  0.652416  0.000000  1
  Pd  Pd16  1  0.347584  0.000000  0.652416  1
  Pd  Pd17  1  0.000000  0.000000  0.347584  1
  Pd  Pd18  1  0.000000  0.000000  0.652416  1
  Pd  Pd19  1  0.652416  0.347584  0.000000  1
  Pd  Pd20  1  0.347584  0.652416  0.000000  1
  Pd  Pd21  1  0.384172  0.384172  0.384172  1
  Pd  Pd22  1  0.615828  0.615828  0.615828  1
  Pd  Pd23  1  0.384172  0.384172  0.847485  1
  Pd  Pd24  1  0.384172  0.847485  0.384172  1
  Pd  Pd25  1  0.615828  0.615828  0.152515  1
  Pd  Pd26  1  0.615828  0.152515  0.615828  1
  Pd  Pd27  1  0.847485  0.384172  0.384172  1
  Pd  Pd28  1  0.152515  0.615828  0.615828  1
