# generated using pymatgen
data_TbY2Er(Ga3Rh)6
_symmetry_space_group_name_H-M   'P 1'
_cell_length_a   7.57126813
_cell_length_b   7.57494571
_cell_length_c   9.52702600
_cell_angle_alpha   90.00000000
_cell_angle_beta   90.00000000
_cell_angle_gamma   119.81943182
_symmetry_Int_Tables_number   1
_chemical_formula_structural   TbY2Er(Ga3Rh)6
_chemical_formula_sum   'Tb1 Y2 Er1 Ga18 Rh6'
_cell_volume   474.04925758
_cell_formula_units_Z   1
loop_
 _symmetry_equiv_pos_site_id
 _symmetry_equiv_pos_as_xyz
  1  'x, y, z'
loop_
 _atom_site_type_symbol
 _atom_site_label
 _atom_site_symmetry_multiplicity
 _atom_site_fract_x
 _atom_site_fract_y
 _atom_site_fract_z
 _atom_site_occupancy
  Tb  Tb0  1  0.003118  0.331944  0.750000  1
  Y  Y1  1  0.996983  0.668049  0.250000  1
  Y  Y2  1  0.667978  0.996943  0.250000  1
  Er  Er3  1  0.332111  0.003121  0.750000  1
  Ga  Ga4  1  0.125227  0.125172  0.250000  1
  Ga  Ga5  1  0.875424  0.875021  0.750000  1
  Ga  Ga6  1  0.000646  0.334444  0.079800  1
  Ga  Ga7  1  0.000066  0.666336  0.919726  1
  Ga  Ga8  1  0.000066  0.666336  0.580274  1
  Ga  Ga9  1  0.334434  0.000531  0.420706  1
  Ga  Ga10  1  0.000646  0.334444  0.420200  1
  Ga  Ga11  1  0.664814  0.999375  0.580309  1
  Ga  Ga12  1  0.664814  0.999375  0.919691  1
  Ga  Ga13  1  0.334434  0.000531  0.079294  1
  Ga  Ga14  1  0.332962  0.332345  0.564285  1
  Ga  Ga15  1  0.667019  0.667016  0.436219  1
  Ga  Ga16  1  0.667019  0.667016  0.063781  1
  Ga  Ga17  1  0.332962  0.332345  0.935715  1
  Ga  Ga18  1  0.338746  0.547571  0.250000  1
  Ga  Ga19  1  0.660739  0.451695  0.750000  1
  Ga  Ga20  1  0.547480  0.338674  0.250000  1
  Ga  Ga21  1  0.452225  0.661640  0.750000  1
  Rh  Rh22  1  0.671398  0.328447  0.999704  1
  Rh  Rh23  1  0.328474  0.671496  0.999712  1
  Rh  Rh24  1  0.328474  0.671496  0.500288  1
  Rh  Rh25  1  0.671398  0.328447  0.500296  1
  Rh  Rh26  1  0.000171  0.000095  0.999707  1
  Rh  Rh27  1  0.000171  0.000095  0.500293  1
