# generated using pymatgen
data_Hf2Sc(SnIr)3
_symmetry_space_group_name_H-M   'P 1'
_cell_length_a   7.50567668
_cell_length_b   7.50567737
_cell_length_c   3.56926000
_cell_angle_alpha   90.00000000
_cell_angle_beta   90.00000000
_cell_angle_gamma   120.62788998
_symmetry_Int_Tables_number   1
_chemical_formula_structural   Hf2Sc(SnIr)3
_chemical_formula_sum   'Hf2 Sc1 Sn3 Ir3'
_cell_volume   173.02380004
_cell_formula_units_Z   1
loop_
 _symmetry_equiv_pos_site_id
 _symmetry_equiv_pos_as_xyz
  1  'x, y, z'
loop_
 _atom_site_type_symbol
 _atom_site_label
 _atom_site_symmetry_multiplicity
 _atom_site_fract_x
 _atom_site_fract_y
 _atom_site_fract_z
 _atom_site_occupancy
  Hf  Hf0  1  0.606662  0.999591  0.500000  1
  Hf  Hf1  1  0.999591  0.606662  0.500000  1
  Sc  Sc2  1  0.392524  0.392524  0.500000  1
  Sn  Sn3  1  0.721488  0.721488  0.000000  1
  Sn  Sn4  1  0.271675  0.006408  0.000000  1
  Sn  Sn5  1  0.006408  0.271675  0.000000  1
  Ir  Ir6  1  0.676240  0.333102  0.000000  1
  Ir  Ir7  1  0.333102  0.676240  0.000000  1
  Ir  Ir8  1  0.992311  0.992311  0.500000  1
