# generated using pymatgen
data_HoEr3B16MoW3
_symmetry_space_group_name_H-M   'P 1'
_cell_length_a   3.61116100
_cell_length_b   6.01991300
_cell_length_c   11.63360907
_cell_angle_alpha   89.99171895
_cell_angle_beta   90.00000000
_cell_angle_gamma   90.00000000
_symmetry_Int_Tables_number   1
_chemical_formula_structural   HoEr3B16MoW3
_chemical_formula_sum   'Ho1 Er3 B16 Mo1 W3'
_cell_volume   252.90157143
_cell_formula_units_Z   1
loop_
 _symmetry_equiv_pos_site_id
 _symmetry_equiv_pos_as_xyz
  1  'x, y, z'
loop_
 _atom_site_type_symbol
 _atom_site_label
 _atom_site_symmetry_multiplicity
 _atom_site_fract_x
 _atom_site_fract_y
 _atom_site_fract_z
 _atom_site_occupancy
  Ho  Ho0  1  0.000000  0.627221  0.350511  1
  Er  Er1  1  0.000000  0.373194  0.649626  1
  Er  Er2  1  0.000000  0.127001  0.149427  1
  Er  Er3  1  0.000000  0.872924  0.850230  1
  B  B4  1  0.500000  0.787457  0.186597  1
  B  B5  1  0.500000  0.212452  0.813140  1
  B  B6  1  0.500000  0.287246  0.313111  1
  B  B7  1  0.500000  0.713143  0.686529  1
  B  B8  1  0.500000  0.867111  0.032018  1
  B  B9  1  0.500000  0.132866  0.967946  1
  B  B10  1  0.500000  0.367323  0.468264  1
  B  B11  1  0.500000  0.633078  0.532345  1
  B  B12  1  0.500000  0.885397  0.452690  1
  B  B13  1  0.500000  0.114344  0.547871  1
  B  B14  1  0.500000  0.385482  0.047530  1
  B  B15  1  0.500000  0.614499  0.952408  1
  B  B16  1  0.500000  0.975815  0.306218  1
  B  B17  1  0.500000  0.023609  0.693708  1
  B  B18  1  0.500000  0.475926  0.193473  1
  B  B19  1  0.500000  0.524215  0.806258  1
  Mo  Mo20  1  0.000000  0.869341  0.584406  1
  W  W21  1  0.000000  0.631106  0.084681  1
  W  W22  1  0.000000  0.368768  0.915262  1
  W  W23  1  0.000000  0.130482  0.415753  1
