# generated using pymatgen
data_Tm12InGa4Hg
_symmetry_space_group_name_H-M   'P 1'
_cell_length_a   8.51502589
_cell_length_b   8.51502649
_cell_length_c   8.51502689
_cell_angle_alpha   112.08535426
_cell_angle_beta   112.34058688
_cell_angle_gamma   104.11689626
_symmetry_Int_Tables_number   1
_chemical_formula_structural   Tm12InGa4Hg
_chemical_formula_sum   'Tm12 In1 Ga4 Hg1'
_cell_volume   472.18893381
_cell_formula_units_Z   1
loop_
 _symmetry_equiv_pos_site_id
 _symmetry_equiv_pos_as_xyz
  1  'x, y, z'
loop_
 _atom_site_type_symbol
 _atom_site_label
 _atom_site_symmetry_multiplicity
 _atom_site_fract_x
 _atom_site_fract_y
 _atom_site_fract_z
 _atom_site_occupancy
  Tm  Tm0  1  0.440077  0.238536  0.201541  1
  Tm  Tm1  1  0.559923  0.761464  0.798459  1
  Tm  Tm2  1  0.036994  0.238536  0.798459  1
  Tm  Tm3  1  0.963006  0.761464  0.201541  1
  Tm  Tm4  1  0.184401  0.277634  0.462034  1
  Tm  Tm5  1  0.815599  0.722366  0.537966  1
  Tm  Tm6  1  0.184401  0.722366  0.906766  1
  Tm  Tm7  1  0.815599  0.277634  0.093234  1
  Tm  Tm8  1  0.320865  0.617704  0.296839  1
  Tm  Tm9  1  0.679135  0.382296  0.703161  1
  Tm  Tm10  1  0.320865  0.024027  0.703161  1
  Tm  Tm11  1  0.679135  0.975973  0.296839  1
  In  In12  1  0.500000  0.500000  0.000000  1
  Ga  Ga13  1  0.354657  0.000000  0.354657  1
  Ga  Ga14  1  0.645343  0.000000  0.645343  1
  Ga  Ga15  1  0.121418  0.621418  0.500000  1
  Ga  Ga16  1  0.878582  0.378582  0.500000  1
  Hg  Hg17  1  0.000000  0.000000  0.000000  1
