# generated using pymatgen
data_Ca12Sn3Ge5Rh8
_symmetry_space_group_name_H-M   'P 1'
_cell_length_a   5.80736900
_cell_length_b   8.04144727
_cell_length_c   13.76636783
_cell_angle_alpha   89.68407281
_cell_angle_beta   90.00000000
_cell_angle_gamma   90.00000000
_symmetry_Int_Tables_number   1
_chemical_formula_structural   Ca12Sn3Ge5Rh8
_chemical_formula_sum   'Ca12 Sn3 Ge5 Rh8'
_cell_volume   642.87480781
_cell_formula_units_Z   1
loop_
 _symmetry_equiv_pos_site_id
 _symmetry_equiv_pos_as_xyz
  1  'x, y, z'
loop_
 _atom_site_type_symbol
 _atom_site_label
 _atom_site_symmetry_multiplicity
 _atom_site_fract_x
 _atom_site_fract_y
 _atom_site_fract_z
 _atom_site_occupancy
  Ca  Ca0  1  0.634014  0.241392  0.251832  1
  Ca  Ca1  1  0.366220  0.758257  0.749332  1
  Ca  Ca2  1  0.366220  0.741743  0.250668  1
  Ca  Ca3  1  0.634014  0.258608  0.748168  1
  Ca  Ca4  1  0.143588  0.395279  0.099837  1
  Ca  Ca5  1  0.856377  0.604869  0.900081  1
  Ca  Ca6  1  0.857005  0.602762  0.598652  1
  Ca  Ca7  1  0.857005  0.897238  0.401348  1
  Ca  Ca8  1  0.142999  0.393542  0.401470  1
  Ca  Ca9  1  0.142999  0.106458  0.598530  1
  Ca  Ca10  1  0.143588  0.104721  0.900163  1
  Ca  Ca11  1  0.856377  0.895131  0.099919  1
  Sn  Sn12  1  0.626761  0.250000  0.000000  1
  Sn  Sn13  1  0.372895  0.750000  0.000000  1
  Sn  Sn14  1  0.378639  0.750000  0.500000  1
  Ge  Ge15  1  0.147497  0.089214  0.251359  1
  Ge  Ge16  1  0.851132  0.911472  0.747432  1
  Ge  Ge17  1  0.851132  0.588528  0.252568  1
  Ge  Ge18  1  0.147497  0.410786  0.748641  1
  Ge  Ge19  1  0.605512  0.250000  0.500000  1
  Rh  Rh20  1  0.354478  0.034691  0.097789  1
  Rh  Rh21  1  0.645894  0.965265  0.902000  1
  Rh  Rh22  1  0.645579  0.980079  0.592271  1
  Rh  Rh23  1  0.645579  0.519921  0.407729  1
  Rh  Rh24  1  0.363313  0.043543  0.405865  1
  Rh  Rh25  1  0.363313  0.456457  0.594135  1
  Rh  Rh26  1  0.354478  0.465309  0.902211  1
  Rh  Rh27  1  0.645894  0.534735  0.098000  1
