# generated using pymatgen
data_Sm4RhPb2Au3
_symmetry_space_group_name_H-M   'P 1'
_cell_length_a   8.23507189
_cell_length_b   8.23507225
_cell_length_c   3.67427000
_cell_angle_alpha   90.00000000
_cell_angle_beta   90.00000000
_cell_angle_gamma   90.04660872
_symmetry_Int_Tables_number   1
_chemical_formula_structural   Sm4RhPb2Au3
_chemical_formula_sum   'Sm4 Rh1 Pb2 Au3'
_cell_volume   249.17572585
_cell_formula_units_Z   1
loop_
 _symmetry_equiv_pos_site_id
 _symmetry_equiv_pos_as_xyz
  1  'x, y, z'
loop_
 _atom_site_type_symbol
 _atom_site_label
 _atom_site_symmetry_multiplicity
 _atom_site_fract_x
 _atom_site_fract_y
 _atom_site_fract_z
 _atom_site_occupancy
  Sm  Sm0  1  0.348911  0.825712  0.500000  1
  Sm  Sm1  1  0.674288  0.151089  0.500000  1
  Sm  Sm2  1  0.816007  0.683993  0.500000  1
  Sm  Sm3  1  0.167745  0.332255  0.500000  1
  Rh  Rh4  1  0.624590  0.875410  0.000000  1
  Pb  Pb5  1  0.995652  0.995970  0.000000  1
  Pb  Pb6  1  0.504030  0.504348  0.000000  1
  Au  Au7  1  0.122221  0.628705  0.000000  1
  Au  Au8  1  0.375260  0.124740  0.000000  1
  Au  Au9  1  0.871295  0.377779  0.000000  1
