# generated using pymatgen
data_Gd6Er3TmSb6
_symmetry_space_group_name_H-M   'P 1'
_cell_length_a   9.00032800
_cell_length_b   9.00032690
_cell_length_c   6.28241900
_cell_angle_alpha   90.00000000
_cell_angle_beta   90.00000000
_cell_angle_gamma   119.99999668
_symmetry_Int_Tables_number   1
_chemical_formula_structural   Gd6Er3TmSb6
_chemical_formula_sum   'Gd6 Er3 Tm1 Sb6'
_cell_volume   440.73157419
_cell_formula_units_Z   1
loop_
 _symmetry_equiv_pos_site_id
 _symmetry_equiv_pos_as_xyz
  1  'x, y, z'
loop_
 _atom_site_type_symbol
 _atom_site_label
 _atom_site_symmetry_multiplicity
 _atom_site_fract_x
 _atom_site_fract_y
 _atom_site_fract_z
 _atom_site_occupancy
  Gd  Gd0  1  0.999917  0.752246  0.750051  1
  Gd  Gd1  1  0.999917  0.247671  0.249949  1
  Gd  Gd2  1  0.752329  0.752246  0.249949  1
  Gd  Gd3  1  0.752329  0.000083  0.750051  1
  Gd  Gd4  1  0.247754  0.247671  0.750051  1
  Gd  Gd5  1  0.247754  0.000083  0.249949  1
  Er  Er6  1  0.666667  0.333333  0.000000  1
  Er  Er7  1  0.666667  0.333333  0.500000  1
  Er  Er8  1  0.333333  0.666667  0.000000  1
  Tm  Tm9  1  0.333333  0.666667  0.500000  1
  Sb  Sb10  1  0.392289  0.999705  0.749712  1
  Sb  Sb11  1  0.392289  0.392584  0.250288  1
  Sb  Sb12  1  0.000295  0.607711  0.250288  1
  Sb  Sb13  1  0.000295  0.392584  0.749712  1
  Sb  Sb14  1  0.607416  0.607711  0.749712  1
  Sb  Sb15  1  0.607416  0.999705  0.250288  1
