# generated using pymatgen
data_Eu8Y11LuPb16
_symmetry_space_group_name_H-M   'P 1'
_cell_length_a   8.25184800
_cell_length_b   8.35353125
_cell_length_c   15.78585100
_cell_angle_alpha   90.00000000
_cell_angle_beta   90.00000000
_cell_angle_gamma   90.07007023
_symmetry_Int_Tables_number   1
_chemical_formula_structural   Eu8Y11LuPb16
_chemical_formula_sum   'Eu8 Y11 Lu1 Pb16'
_cell_volume   1088.15057418
_cell_formula_units_Z   1
loop_
 _symmetry_equiv_pos_site_id
 _symmetry_equiv_pos_as_xyz
  1  'x, y, z'
loop_
 _atom_site_type_symbol
 _atom_site_label
 _atom_site_symmetry_multiplicity
 _atom_site_fract_x
 _atom_site_fract_y
 _atom_site_fract_z
 _atom_site_occupancy
  Eu  Eu0  1  0.491100  0.677309  0.591863  1
  Eu  Eu1  1  0.990945  0.822952  0.908054  1
  Eu  Eu2  1  0.509321  0.322490  0.092571  1
  Eu  Eu3  1  0.009226  0.176672  0.407328  1
  Eu  Eu4  1  0.509321  0.322490  0.407429  1
  Eu  Eu5  1  0.009226  0.176672  0.092672  1
  Eu  Eu6  1  0.491100  0.677309  0.908137  1
  Eu  Eu7  1  0.990945  0.822952  0.591946  1
  Y  Y8  1  0.657537  0.158436  0.623154  1
  Y  Y9  1  0.157857  0.341400  0.876354  1
  Y  Y10  1  0.342702  0.842143  0.124210  1
  Y  Y11  1  0.841344  0.658280  0.375566  1
  Y  Y12  1  0.342702  0.842143  0.375790  1
  Y  Y13  1  0.841344  0.658280  0.124434  1
  Y  Y14  1  0.657537  0.158436  0.876846  1
  Y  Y15  1  0.157857  0.341400  0.623646  1
  Y  Y16  1  0.819170  0.502835  0.750000  1
  Y  Y17  1  0.318711  0.997413  0.750000  1
  Y  Y18  1  0.180247  0.497390  0.250000  1
  Lu  Lu19  1  0.681105  0.001786  0.250000  1
  Pb  Pb20  1  0.682080  0.959249  0.455415  1
  Pb  Pb21  1  0.180766  0.541525  0.043549  1
  Pb  Pb22  1  0.318390  0.041252  0.956788  1
  Pb  Pb23  1  0.819119  0.458984  0.543103  1
  Pb  Pb24  1  0.318390  0.041252  0.543212  1
  Pb  Pb25  1  0.819119  0.458984  0.956897  1
  Pb  Pb26  1  0.682080  0.959249  0.044585  1
  Pb  Pb27  1  0.180766  0.541525  0.456451  1
  Pb  Pb28  1  0.461151  0.375592  0.750000  1
  Pb  Pb29  1  0.960070  0.124273  0.750000  1
  Pb  Pb30  1  0.538932  0.625013  0.250000  1
  Pb  Pb31  1  0.037422  0.877256  0.250000  1
  Pb  Pb32  1  0.683476  0.855191  0.750000  1
  Pb  Pb33  1  0.183665  0.645175  0.750000  1
  Pb  Pb34  1  0.319443  0.145355  0.250000  1
  Pb  Pb35  1  0.815838  0.351342  0.250000  1
