# generated using pymatgen
data_PrYCo9Tc3As7
_symmetry_space_group_name_H-M   'P 1'
_cell_length_a   3.85287400
_cell_length_b   9.40025953
_cell_length_c   9.40026100
_cell_angle_alpha   120.00000070
_cell_angle_beta   90.00000000
_cell_angle_gamma   90.00000000
_symmetry_Int_Tables_number   1
_chemical_formula_structural   PrYCo9Tc3As7
_chemical_formula_sum   'Pr1 Y1 Co9 Tc3 As7'
_cell_volume   294.84596683
_cell_formula_units_Z   1
loop_
 _symmetry_equiv_pos_site_id
 _symmetry_equiv_pos_as_xyz
  1  'x, y, z'
loop_
 _atom_site_type_symbol
 _atom_site_label
 _atom_site_symmetry_multiplicity
 _atom_site_fract_x
 _atom_site_fract_y
 _atom_site_fract_z
 _atom_site_occupancy
  Pr  Pr0  1  0.500000  0.333333  0.666667  1
  Y  Y1  1  0.000000  0.666667  0.333333  1
  Co  Co2  1  0.000000  0.570567  0.943602  1
  Co  Co3  1  0.000000  0.373035  0.429433  1
  Co  Co4  1  0.000000  0.056398  0.626965  1
  Co  Co5  1  0.000000  0.874326  0.154945  1
  Co  Co6  1  0.000000  0.280619  0.125674  1
  Co  Co7  1  0.000000  0.845055  0.719381  1
  Co  Co8  1  0.500000  0.944060  0.377993  1
  Co  Co9  1  0.500000  0.433932  0.055940  1
  Co  Co10  1  0.500000  0.622007  0.566068  1
  Tc  Tc11  1  0.500000  0.784101  0.900587  1
  Tc  Tc12  1  0.500000  0.116486  0.215899  1
  Tc  Tc13  1  0.500000  0.099413  0.883514  1
  As  As14  1  0.000000  0.000000  0.000000  1
  As  As15  1  0.500000  0.705485  0.115437  1
  As  As16  1  0.500000  0.409953  0.294515  1
  As  As17  1  0.500000  0.884563  0.590047  1
  As  As18  1  0.000000  0.592457  0.702259  1
  As  As19  1  0.000000  0.109802  0.407543  1
  As  As20  1  0.000000  0.297741  0.890198  1
