# generated using pymatgen
data_LaPr4(IrO6)2
_symmetry_space_group_name_H-M   'P 1'
_cell_length_a   7.14401745
_cell_length_b   7.14401700
_cell_length_c   7.61300791
_cell_angle_alpha   74.68580027
_cell_angle_beta   74.68580486
_cell_angle_gamma   51.62923027
_symmetry_Int_Tables_number   1
_chemical_formula_structural   LaPr4(IrO6)2
_chemical_formula_sum   'La1 Pr4 Ir2 O12'
_cell_volume   291.21760498
_cell_formula_units_Z   1
loop_
 _symmetry_equiv_pos_site_id
 _symmetry_equiv_pos_as_xyz
  1  'x, y, z'
loop_
 _atom_site_type_symbol
 _atom_site_label
 _atom_site_symmetry_multiplicity
 _atom_site_fract_x
 _atom_site_fract_y
 _atom_site_fract_z
 _atom_site_occupancy
  La  La0  1  0.000000  0.000000  0.500000  1
  Pr  Pr1  1  0.304345  0.304345  0.357684  1
  Pr  Pr2  1  0.695655  0.695655  0.642316  1
  Pr  Pr3  1  0.695416  0.695416  0.163313  1
  Pr  Pr4  1  0.304584  0.304584  0.836687  1
  Ir  Ir5  1  0.753503  0.246497  0.000000  1
  Ir  Ir6  1  0.246497  0.753503  0.000000  1
  O  O7  1  0.094339  0.598834  0.576560  1
  O  O8  1  0.999851  0.999851  0.164271  1
  O  O9  1  0.401166  0.905661  0.423440  1
  O  O10  1  0.500851  0.500851  0.171157  1
  O  O11  1  0.102621  0.573146  0.081017  1
  O  O12  1  0.905661  0.401166  0.423440  1
  O  O13  1  0.000149  0.000149  0.835729  1
  O  O14  1  0.598834  0.094338  0.576560  1
  O  O15  1  0.499149  0.499149  0.828843  1
  O  O16  1  0.573146  0.102621  0.081017  1
  O  O17  1  0.426854  0.897379  0.918983  1
  O  O18  1  0.897379  0.426854  0.918983  1
