# generated using pymatgen
data_CaLaNi2(As2Pd)2
_symmetry_space_group_name_H-M   'P 1'
_cell_length_a   4.31457600
_cell_length_b   4.31457600
_cell_length_c   9.77172900
_cell_angle_alpha   90.00000000
_cell_angle_beta   90.00000000
_cell_angle_gamma   90.00000000
_symmetry_Int_Tables_number   1
_chemical_formula_structural   CaLaNi2(As2Pd)2
_chemical_formula_sum   'Ca1 La1 Ni2 As4 Pd2'
_cell_volume   181.90626672
_cell_formula_units_Z   1
loop_
 _symmetry_equiv_pos_site_id
 _symmetry_equiv_pos_as_xyz
  1  'x, y, z'
loop_
 _atom_site_type_symbol
 _atom_site_label
 _atom_site_symmetry_multiplicity
 _atom_site_fract_x
 _atom_site_fract_y
 _atom_site_fract_z
 _atom_site_occupancy
  Ca  Ca0  1  0.000000  0.500000  0.755291  1
  La  La1  1  0.500000  0.000000  0.240591  1
  Ni  Ni2  1  0.000000  0.500000  0.113052  1
  Ni  Ni3  1  0.500000  0.000000  0.888709  1
  As  As4  1  0.000000  0.500000  0.355303  1
  As  As5  1  0.000000  0.000000  0.996891  1
  As  As6  1  0.500000  0.000000  0.649194  1
  As  As7  1  0.500000  0.500000  0.996891  1
  Pd  Pd8  1  0.000000  0.000000  0.502039  1
  Pd  Pd9  1  0.500000  0.500000  0.502039  1
