# generated using pymatgen
data_Dy3HoAlGa17Ir6
_symmetry_space_group_name_H-M   'P 1'
_cell_length_a   7.59443151
_cell_length_b   7.59470469
_cell_length_c   9.49230231
_cell_angle_alpha   90.01139204
_cell_angle_beta   90.01064396
_cell_angle_gamma   119.84060235
_symmetry_Int_Tables_number   1
_chemical_formula_structural   Dy3HoAlGa17Ir6
_chemical_formula_sum   'Dy3 Ho1 Al1 Ga17 Ir6'
_cell_volume   474.90161473
_cell_formula_units_Z   1
loop_
 _symmetry_equiv_pos_site_id
 _symmetry_equiv_pos_as_xyz
  1  'x, y, z'
loop_
 _atom_site_type_symbol
 _atom_site_label
 _atom_site_symmetry_multiplicity
 _atom_site_fract_x
 _atom_site_fract_y
 _atom_site_fract_z
 _atom_site_occupancy
  Dy  Dy0  1  0.998702  0.669149  0.249671  1
  Dy  Dy1  1  0.001476  0.330109  0.749466  1
  Dy  Dy2  1  0.669151  0.998706  0.249671  1
  Ho  Ho3  1  0.330098  0.001443  0.749466  1
  Al  Al4  1  0.335605  0.335566  0.950041  1
  Ga  Ga5  1  0.126717  0.126718  0.249348  1
  Ga  Ga6  1  0.872730  0.872699  0.749196  1
  Ga  Ga7  1  0.998453  0.334372  0.080126  1
  Ga  Ga8  1  0.000140  0.665017  0.918379  1
  Ga  Ga9  1  0.999733  0.664768  0.581093  1
  Ga  Ga10  1  0.334647  0.999695  0.418146  1
  Ga  Ga11  1  0.999701  0.334650  0.418110  1
  Ga  Ga12  1  0.664641  0.999673  0.581095  1
  Ga  Ga13  1  0.664889  0.000080  0.918378  1
  Ga  Ga14  1  0.334371  0.998443  0.080090  1
  Ga  Ga15  1  0.331685  0.331632  0.564090  1
  Ga  Ga16  1  0.667975  0.667975  0.434823  1
  Ga  Ga17  1  0.671772  0.671774  0.065127  1
  Ga  Ga18  1  0.340713  0.548110  0.249759  1
  Ga  Ga19  1  0.655586  0.450839  0.750240  1
  Ga  Ga20  1  0.548106  0.340709  0.249759  1
  Ga  Ga21  1  0.450883  0.655654  0.750240  1
  Ir  Ir22  1  0.669220  0.328171  0.998973  1
  Ir  Ir23  1  0.328189  0.669262  0.998974  1
  Ir  Ir24  1  0.328303  0.671864  0.499633  1
  Ir  Ir25  1  0.671829  0.328292  0.499629  1
  Ir  Ir26  1  0.004838  0.004807  0.997221  1
  Ir  Ir27  1  0.999845  0.999821  0.499257  1
