# generated using pymatgen
data_HoEr4Tm3Tl3Co
_symmetry_space_group_name_H-M   'P 1'
_cell_length_a   10.19009300
_cell_length_b   10.19009427
_cell_length_c   7.04374400
_cell_angle_alpha   90.00000000
_cell_angle_beta   90.00000000
_cell_angle_gamma   120.00000563
_symmetry_Int_Tables_number   1
_chemical_formula_structural   HoEr4Tm3Tl3Co
_chemical_formula_sum   'Ho2 Er8 Tm6 Tl6 Co2'
_cell_volume   633.41817356
_cell_formula_units_Z   2
loop_
 _symmetry_equiv_pos_site_id
 _symmetry_equiv_pos_as_xyz
  1  'x, y, z'
loop_
 _atom_site_type_symbol
 _atom_site_label
 _atom_site_symmetry_multiplicity
 _atom_site_fract_x
 _atom_site_fract_y
 _atom_site_fract_z
 _atom_site_occupancy
  Ho  Ho0  1  0.000000  0.000000  0.272697  1
  Ho  Ho1  1  0.000000  0.000000  0.772697  1
  Er  Er2  1  0.333333  0.666667  0.679829  1
  Er  Er3  1  0.666667  0.333333  0.179829  1
  Er  Er4  1  0.462821  0.537179  0.289183  1
  Er  Er5  1  0.537179  0.462821  0.789183  1
  Er  Er6  1  0.462821  0.925645  0.289183  1
  Er  Er7  1  0.074355  0.537179  0.289183  1
  Er  Er8  1  0.925645  0.462821  0.789183  1
  Er  Er9  1  0.537179  0.074355  0.789183  1
  Tm  Tm10  1  0.178460  0.821540  0.990762  1
  Tm  Tm11  1  0.821540  0.178460  0.490762  1
  Tm  Tm12  1  0.178460  0.356920  0.990762  1
  Tm  Tm13  1  0.643080  0.821540  0.990762  1
  Tm  Tm14  1  0.356920  0.178460  0.490762  1
  Tm  Tm15  1  0.821540  0.643080  0.490762  1
  Tl  Tl16  1  0.163113  0.836887  0.540248  1
  Tl  Tl17  1  0.836887  0.163113  0.040248  1
  Tl  Tl18  1  0.163113  0.326226  0.540248  1
  Tl  Tl19  1  0.673774  0.836887  0.540248  1
  Tl  Tl20  1  0.326226  0.163113  0.040248  1
  Tl  Tl21  1  0.836887  0.673774  0.040248  1
  Co  Co22  1  0.333333  0.666667  0.059953  1
  Co  Co23  1  0.666667  0.333333  0.559953  1
