# generated using pymatgen
data_Co4Tc3B4Mo
_symmetry_space_group_name_H-M   'P 1'
_cell_length_a   3.22136500
_cell_length_b   5.69782650
_cell_length_c   6.55098487
_cell_angle_alpha   90.35670669
_cell_angle_beta   90.00000000
_cell_angle_gamma   90.00000000
_symmetry_Int_Tables_number   1
_chemical_formula_structural   Co4Tc3B4Mo
_chemical_formula_sum   'Co4 Tc3 B4 Mo1'
_cell_volume   120.23954821
_cell_formula_units_Z   1
loop_
 _symmetry_equiv_pos_site_id
 _symmetry_equiv_pos_as_xyz
  1  'x, y, z'
loop_
 _atom_site_type_symbol
 _atom_site_label
 _atom_site_symmetry_multiplicity
 _atom_site_fract_x
 _atom_site_fract_y
 _atom_site_fract_z
 _atom_site_occupancy
  Co  Co0  1  0.750000  0.853968  0.554562  1
  Co  Co1  1  0.250000  0.145421  0.445806  1
  Co  Co2  1  0.750000  0.353774  0.944792  1
  Co  Co3  1  0.250000  0.648083  0.052937  1
  Tc  Tc4  1  0.250000  0.526698  0.673034  1
  Tc  Tc5  1  0.750000  0.472659  0.326731  1
  Tc  Tc6  1  0.250000  0.028441  0.830240  1
  B  B7  1  0.250000  0.766970  0.379123  1
  B  B8  1  0.750000  0.229380  0.624574  1
  B  B9  1  0.250000  0.276186  0.125608  1
  B  B10  1  0.750000  0.725926  0.870214  1
  Mo  Mo11  1  0.750000  0.972494  0.172379  1
