# generated using pymatgen
data_Ca5Ge3P9Ir10Rh9
_symmetry_space_group_name_H-M   'P 1'
_cell_length_a   12.79893500
_cell_length_b   12.79893438
_cell_length_c   3.94400500
_cell_angle_alpha   90.00000000
_cell_angle_beta   90.00000000
_cell_angle_gamma   119.99999385
_symmetry_Int_Tables_number   1
_chemical_formula_structural   Ca5Ge3P9Ir10Rh9
_chemical_formula_sum   'Ca5 Ge3 P9 Ir10 Rh9'
_cell_volume   559.52018858
_cell_formula_units_Z   1
loop_
 _symmetry_equiv_pos_site_id
 _symmetry_equiv_pos_as_xyz
  1  'x, y, z'
loop_
 _atom_site_type_symbol
 _atom_site_label
 _atom_site_symmetry_multiplicity
 _atom_site_fract_x
 _atom_site_fract_y
 _atom_site_fract_z
 _atom_site_occupancy
  Ca  Ca0  1  0.333333  0.666667  0.500000  1
  Ca  Ca1  1  0.666667  0.333333  0.500000  1
  Ca  Ca2  1  0.179347  0.179347  0.000000  1
  Ca  Ca3  1  0.820653  0.000000  0.000000  1
  Ca  Ca4  1  0.000000  0.820653  0.000000  1
  Ge  Ge5  1  0.361154  0.361154  0.500000  1
  Ge  Ge6  1  0.638846  0.000000  0.500000  1
  Ge  Ge7  1  0.000000  0.638846  0.500000  1
  P  P8  1  0.312657  0.829358  0.000000  1
  P  P9  1  0.170642  0.483297  0.000000  1
  P  P10  1  0.516703  0.687343  0.000000  1
  P  P11  1  0.829358  0.312657  0.000000  1
  P  P12  1  0.483297  0.170642  0.000000  1
  P  P13  1  0.687343  0.516703  0.000000  1
  P  P14  1  0.819119  0.819119  0.500000  1
  P  P15  1  0.180881  0.000000  0.500000  1
  P  P16  1  0.000000  0.180881  0.500000  1
  Ir  Ir17  1  0.132692  0.640428  0.000000  1
  Ir  Ir18  1  0.359572  0.492264  0.000000  1
  Ir  Ir19  1  0.507736  0.867308  0.000000  1
  Ir  Ir20  1  0.640428  0.132692  0.000000  1
  Ir  Ir21  1  0.492264  0.359572  0.000000  1
  Ir  Ir22  1  0.867308  0.507736  0.000000  1
  Ir  Ir23  1  0.715093  0.715093  0.000000  1
  Ir  Ir24  1  0.284907  0.000000  0.000000  1
  Ir  Ir25  1  0.000000  0.284907  0.000000  1
  Ir  Ir26  1  0.000000  0.000000  0.500000  1
  Rh  Rh27  1  0.202677  0.823561  0.500000  1
  Rh  Rh28  1  0.176439  0.379117  0.500000  1
  Rh  Rh29  1  0.620883  0.797323  0.500000  1
  Rh  Rh30  1  0.823561  0.202677  0.500000  1
  Rh  Rh31  1  0.379117  0.176439  0.500000  1
  Rh  Rh32  1  0.797323  0.620883  0.500000  1
  Rh  Rh33  1  0.549689  0.549689  0.500000  1
  Rh  Rh34  1  0.450311  0.000000  0.500000  1
  Rh  Rh35  1  0.000000  0.450311  0.500000  1
