# generated using pymatgen
data_AcEu(Zn9Cu2)2
_symmetry_space_group_name_H-M   'P 1'
_cell_length_a   8.33543913
_cell_length_b   8.33543931
_cell_length_c   8.33543903
_cell_angle_alpha   99.67035099
_cell_angle_beta   99.67035373
_cell_angle_gamma   131.60882613
_symmetry_Int_Tables_number   1
_chemical_formula_structural   AcEu(Zn9Cu2)2
_chemical_formula_sum   'Ac1 Eu1 Zn18 Cu4'
_cell_volume   394.98214610
_cell_formula_units_Z   1
loop_
 _symmetry_equiv_pos_site_id
 _symmetry_equiv_pos_as_xyz
  1  'x, y, z'
loop_
 _atom_site_type_symbol
 _atom_site_label
 _atom_site_symmetry_multiplicity
 _atom_site_fract_x
 _atom_site_fract_y
 _atom_site_fract_z
 _atom_site_occupancy
  Ac  Ac0  1  0.000000  0.000000  0.000000  1
  Eu  Eu1  1  0.250000  0.750000  0.500000  1
  Zn  Zn2  1  0.750000  0.250000  0.500000  1
  Zn  Zn3  1  0.500000  0.500000  0.000000  1
  Zn  Zn4  1  0.189447  0.517142  0.082267  1
  Zn  Zn5  1  0.189447  0.107180  0.672306  1
  Zn  Zn6  1  0.763576  0.938609  0.580871  1
  Zn  Zn7  1  0.763576  0.182705  0.824966  1
  Zn  Zn8  1  0.434875  0.517142  0.327694  1
  Zn  Zn9  1  0.434875  0.107180  0.917733  1
  Zn  Zn10  1  0.357738  0.938609  0.175034  1
  Zn  Zn11  1  0.357738  0.182705  0.419129  1
  Zn  Zn12  1  0.061391  0.236424  0.419129  1
  Zn  Zn13  1  0.061391  0.642262  0.824966  1
  Zn  Zn14  1  0.482858  0.810553  0.917733  1
  Zn  Zn15  1  0.482858  0.565125  0.672306  1
  Zn  Zn16  1  0.817295  0.236424  0.175034  1
  Zn  Zn17  1  0.817295  0.642262  0.580871  1
  Zn  Zn18  1  0.892820  0.810553  0.327694  1
  Zn  Zn19  1  0.892820  0.565125  0.082267  1
  Cu  Cu20  1  0.124297  0.374533  0.749764  1
  Cu  Cu21  1  0.625467  0.875703  0.250236  1
  Cu  Cu22  1  0.625467  0.375231  0.749764  1
  Cu  Cu23  1  0.624769  0.374533  0.250236  1
