# generated using pymatgen
data_Y10Si5As
_symmetry_space_group_name_H-M   'P 1'
_cell_length_a   8.46142500
_cell_length_b   8.46972003
_cell_length_c   6.35976400
_cell_angle_alpha   90.00000000
_cell_angle_beta   90.00000000
_cell_angle_gamma   119.96760393
_symmetry_Int_Tables_number   1
_chemical_formula_structural   Y10Si5As
_chemical_formula_sum   'Y10 Si5 As1'
_cell_volume   394.84430289
_cell_formula_units_Z   1
loop_
 _symmetry_equiv_pos_site_id
 _symmetry_equiv_pos_as_xyz
  1  'x, y, z'
loop_
 _atom_site_type_symbol
 _atom_site_label
 _atom_site_symmetry_multiplicity
 _atom_site_fract_x
 _atom_site_fract_y
 _atom_site_fract_z
 _atom_site_occupancy
  Y  Y0  1  0.996838  0.753295  0.750000  1
  Y  Y1  1  0.000162  0.244355  0.250000  1
  Y  Y2  1  0.755807  0.755645  0.250000  1
  Y  Y3  1  0.757565  0.000000  0.750000  1
  Y  Y4  1  0.243542  0.246705  0.750000  1
  Y  Y5  1  0.243895  0.000000  0.250000  1
  Y  Y6  1  0.333042  0.664148  0.498981  1
  Y  Y7  1  0.668895  0.335852  0.001019  1
  Y  Y8  1  0.668895  0.335852  0.498981  1
  Y  Y9  1  0.333042  0.664148  0.001019  1
  Si  Si10  1  0.393514  0.392345  0.250000  1
  Si  Si11  1  0.001170  0.607655  0.250000  1
  Si  Si12  1  0.999737  0.393489  0.750000  1
  Si  Si13  1  0.606249  0.606511  0.750000  1
  Si  Si14  1  0.607657  0.000000  0.250000  1
  As  As15  1  0.389991  0.000000  0.750000  1
