# generated using pymatgen
data_TbTmZr2(Al8Pt3)3
_symmetry_space_group_name_H-M   'P 1'
_cell_length_a   7.50783554
_cell_length_b   7.51540237
_cell_length_c   13.05328832
_cell_angle_alpha   84.53031010
_cell_angle_beta   78.96920113
_cell_angle_gamma   59.94576990
_symmetry_Int_Tables_number   1
_chemical_formula_structural   TbTmZr2(Al8Pt3)3
_chemical_formula_sum   'Tb1 Tm1 Zr2 Al24 Pt9'
_cell_volume   625.72142098
_cell_formula_units_Z   1
loop_
 _symmetry_equiv_pos_site_id
 _symmetry_equiv_pos_as_xyz
  1  'x, y, z'
loop_
 _atom_site_type_symbol
 _atom_site_label
 _atom_site_symmetry_multiplicity
 _atom_site_fract_x
 _atom_site_fract_y
 _atom_site_fract_z
 _atom_site_occupancy
  Tb  Tb0  1  0.733282  0.498516  0.808470  1
  Tm  Tm1  1  0.266035  0.501238  0.193084  1
  Zr  Zr2  1  0.393810  0.167732  0.809864  1
  Zr  Zr3  1  0.606107  0.832644  0.190117  1
  Al  Al4  1  0.681228  0.836445  0.944272  1
  Al  Al5  1  0.318448  0.164417  0.057151  1
  Al  Al6  1  0.146098  0.832922  0.562646  1
  Al  Al7  1  0.854179  0.166938  0.436799  1
  Al  Al8  1  0.479861  0.166849  0.560745  1
  Al  Al9  1  0.520328  0.833111  0.438642  1
  Al  Al10  1  0.220625  0.163417  0.326849  1
  Al  Al11  1  0.779865  0.836526  0.672004  1
  Al  Al12  1  0.436578  0.504440  0.672010  1
  Al  Al13  1  0.563676  0.495590  0.326792  1
  Al  Al14  1  0.111337  0.160104  0.670685  1
  Al  Al15  1  0.889271  0.839701  0.328100  1
  Al  Al16  1  0.352410  0.497096  0.943323  1
  Al  Al17  1  0.645746  0.503444  0.058618  1
  Al  Al18  1  0.018415  0.167402  0.951952  1
  Al  Al19  1  0.981723  0.831806  0.049688  1
  Al  Al20  1  0.186832  0.499602  0.440239  1
  Al  Al21  1  0.813426  0.500358  0.559298  1
  Al  Al22  1  0.733196  0.159516  0.183695  1
  Al  Al23  1  0.265714  0.841524  0.816242  1
  Al  Al24  1  0.066363  0.626642  0.815107  1
  Al  Al25  1  0.934876  0.373303  0.184847  1
  Al  Al26  1  0.850919  0.040288  0.815692  1
  Al  Al27  1  0.149267  0.958285  0.184219  1
  Pt  Pt28  1  0.120334  0.491078  0.638803  1
  Pt  Pt29  1  0.880597  0.509004  0.360653  1
  Pt  Pt30  1  0.656720  0.172956  0.999845  1
  Pt  Pt31  1  0.342972  0.827218  0.000552  1
  Pt  Pt32  1  0.536834  0.167148  0.361214  1
  Pt  Pt33  1  0.462687  0.833415  0.638118  1
  Pt  Pt34  1  0.778566  0.175646  0.637294  1
  Pt  Pt35  1  0.221838  0.823464  0.362096  1
  Pt  Pt36  1  0.999838  0.500213  0.000274  1
