# generated using pymatgen
data_Ce2TaCo11P7
_symmetry_space_group_name_H-M   'P 1'
_cell_length_a   9.06351450
_cell_length_b   9.12635804
_cell_length_c   3.68434900
_cell_angle_alpha   90.00000000
_cell_angle_beta   90.00000000
_cell_angle_gamma   119.90450576
_symmetry_Int_Tables_number   1
_chemical_formula_structural   Ce2TaCo11P7
_chemical_formula_sum   'Ce2 Ta1 Co11 P7'
_cell_volume   264.18164022
_cell_formula_units_Z   1
loop_
 _symmetry_equiv_pos_site_id
 _symmetry_equiv_pos_as_xyz
  1  'x, y, z'
loop_
 _atom_site_type_symbol
 _atom_site_label
 _atom_site_symmetry_multiplicity
 _atom_site_fract_x
 _atom_site_fract_y
 _atom_site_fract_z
 _atom_site_occupancy
  Ce  Ce0  1  0.333492  0.661536  0.000000  1
  Ce  Ce1  1  0.669698  0.333337  0.500000  1
  Ta  Ta2  1  0.212555  0.100644  0.500000  1
  Co  Co3  1  0.434021  0.063726  0.000000  1
  Co  Co4  1  0.151922  0.275635  0.000000  1
  Co  Co5  1  0.937692  0.371788  0.000000  1
  Co  Co6  1  0.631385  0.567347  0.000000  1
  Co  Co7  1  0.121885  0.841154  0.000000  1
  Co  Co8  1  0.718883  0.876933  0.000000  1
  Co  Co9  1  0.906950  0.127762  0.500000  1
  Co  Co10  1  0.381953  0.440254  0.500000  1
  Co  Co11  1  0.048942  0.614521  0.500000  1
  Co  Co12  1  0.880575  0.779990  0.500000  1
  Co  Co13  1  0.569447  0.952012  0.500000  1
  P  P14  1  0.987164  0.990590  0.000000  1
  P  P15  1  0.704323  0.107470  0.000000  1
  P  P16  1  0.412254  0.307119  0.000000  1
  P  P17  1  0.892963  0.594629  0.000000  1
  P  P18  1  0.104497  0.398886  0.500000  1
  P  P19  1  0.604515  0.712418  0.500000  1
  P  P20  1  0.294899  0.882240  0.500000  1
