# generated using pymatgen
data_Tb3Dy(LuGa2)2
_symmetry_space_group_name_H-M   'P 1'
_cell_length_a   7.58375943
_cell_length_b   7.58375943
_cell_length_c   4.33271000
_cell_angle_alpha   90.00000000
_cell_angle_beta   90.00000000
_cell_angle_gamma   89.92954148
_symmetry_Int_Tables_number   1
_chemical_formula_structural   Tb3Dy(LuGa2)2
_chemical_formula_sum   'Tb3 Dy1 Lu2 Ga4'
_cell_volume   249.18872586
_cell_formula_units_Z   1
loop_
 _symmetry_equiv_pos_site_id
 _symmetry_equiv_pos_as_xyz
  1  'x, y, z'
loop_
 _atom_site_type_symbol
 _atom_site_label
 _atom_site_symmetry_multiplicity
 _atom_site_fract_x
 _atom_site_fract_y
 _atom_site_fract_z
 _atom_site_occupancy
  Tb  Tb0  1  0.825633  0.325552  0.500000  1
  Tb  Tb1  1  0.174447  0.674367  0.500000  1
  Tb  Tb2  1  0.674217  0.825783  0.500000  1
  Dy  Dy3  1  0.325599  0.174400  0.500000  1
  Lu  Lu4  1  0.000108  0.000064  0.000000  1
  Lu  Lu5  1  0.499936  0.499892  0.000000  1
  Ga  Ga6  1  0.620817  0.121022  0.000000  1
  Ga  Ga7  1  0.121196  0.378804  0.000000  1
  Ga  Ga8  1  0.879068  0.620932  0.000000  1
  Ga  Ga9  1  0.378978  0.879183  0.000000  1
