# generated using pymatgen
data_YEr2GaNi8
_symmetry_space_group_name_H-M   'P 1'
_cell_length_a   8.55135643
_cell_length_b   8.55135682
_cell_length_c   8.55135679
_cell_angle_alpha   34.43109606
_cell_angle_beta   34.43109184
_cell_angle_gamma   34.43109846
_symmetry_Int_Tables_number   1
_chemical_formula_structural   YEr2GaNi8
_chemical_formula_sum   'Y1 Er2 Ga1 Ni8'
_cell_volume   178.32559295
_cell_formula_units_Z   1
loop_
 _symmetry_equiv_pos_site_id
 _symmetry_equiv_pos_as_xyz
  1  'x, y, z'
loop_
 _atom_site_type_symbol
 _atom_site_label
 _atom_site_symmetry_multiplicity
 _atom_site_fract_x
 _atom_site_fract_y
 _atom_site_fract_z
 _atom_site_occupancy
  Y  Y0  1  0.999754  0.999754  0.999754  1
  Er  Er1  1  0.860985  0.860985  0.860985  1
  Er  Er2  1  0.140011  0.140011  0.140011  1
  Ga  Ga3  1  0.666329  0.666329  0.666329  1
  Ni  Ni4  1  0.499568  0.499568  0.499568  1
  Ni  Ni5  1  0.333508  0.333508  0.333508  1
  Ni  Ni6  1  0.414956  0.921044  0.414956  1
  Ni  Ni7  1  0.414956  0.414956  0.921044  1
  Ni  Ni8  1  0.921044  0.414956  0.414956  1
  Ni  Ni9  1  0.582482  0.083924  0.582482  1
  Ni  Ni10  1  0.582482  0.582482  0.083924  1
  Ni  Ni11  1  0.083924  0.582482  0.582482  1
