# generated using pymatgen
data_Hf10Ga6B
_symmetry_space_group_name_H-M   'P 1'
_cell_length_a   8.04819700
_cell_length_b   8.04819583
_cell_length_c   5.73771100
_cell_angle_alpha   90.00000000
_cell_angle_beta   90.00000000
_cell_angle_gamma   120.00000068
_symmetry_Int_Tables_number   1
_chemical_formula_structural   Hf10Ga6B
_chemical_formula_sum   'Hf10 Ga6 B1'
_cell_volume   321.85957401
_cell_formula_units_Z   1
loop_
 _symmetry_equiv_pos_site_id
 _symmetry_equiv_pos_as_xyz
  1  'x, y, z'
loop_
 _atom_site_type_symbol
 _atom_site_label
 _atom_site_symmetry_multiplicity
 _atom_site_fract_x
 _atom_site_fract_y
 _atom_site_fract_z
 _atom_site_occupancy
  Hf  Hf0  1  0.666667  0.333333  0.500000  1
  Hf  Hf1  1  0.333333  0.666667  0.500000  1
  Hf  Hf2  1  0.333333  0.666667  0.000000  1
  Hf  Hf3  1  0.666667  0.333333  0.000000  1
  Hf  Hf4  1  0.763073  0.763073  0.256418  1
  Hf  Hf5  1  0.236927  0.000000  0.256418  1
  Hf  Hf6  1  0.000000  0.236927  0.256418  1
  Hf  Hf7  1  0.236927  0.236927  0.743582  1
  Hf  Hf8  1  0.763073  0.000000  0.743582  1
  Hf  Hf9  1  0.000000  0.763073  0.743582  1
  Ga  Ga10  1  0.396292  0.396292  0.247906  1
  Ga  Ga11  1  0.603708  0.000000  0.247906  1
  Ga  Ga12  1  0.000000  0.603708  0.247906  1
  Ga  Ga13  1  0.603708  0.603708  0.752094  1
  Ga  Ga14  1  0.396292  0.000000  0.752094  1
  Ga  Ga15  1  0.000000  0.396292  0.752094  1
  B  B16  1  0.000000  0.000000  0.500000  1
