# generated using pymatgen
data_Sm2Lu6Sc12Si15Au
_symmetry_space_group_name_H-M   'P 1'
_cell_length_a   7.08789466
_cell_length_b   7.32992104
_cell_length_c   14.00640374
_cell_angle_alpha   90.01684370
_cell_angle_beta   89.39868312
_cell_angle_gamma   89.98136752
_symmetry_Int_Tables_number   1
_chemical_formula_structural   Sm2Lu6Sc12Si15Au
_chemical_formula_sum   'Sm2 Lu6 Sc12 Si15 Au1'
_cell_volume   727.64446713
_cell_formula_units_Z   1
loop_
 _symmetry_equiv_pos_site_id
 _symmetry_equiv_pos_as_xyz
  1  'x, y, z'
loop_
 _atom_site_type_symbol
 _atom_site_label
 _atom_site_symmetry_multiplicity
 _atom_site_fract_x
 _atom_site_fract_y
 _atom_site_fract_z
 _atom_site_occupancy
  Sm  Sm0  1  0.508437  0.322405  0.400828  1
  Sm  Sm1  1  0.492895  0.676880  0.599495  1
  Lu  Lu2  1  0.011254  0.175592  0.095523  1
  Lu  Lu3  1  0.989001  0.825092  0.905681  1
  Lu  Lu4  1  0.488063  0.677989  0.903850  1
  Lu  Lu5  1  0.994025  0.829018  0.598100  1
  Lu  Lu6  1  0.511153  0.322237  0.096502  1
  Lu  Lu7  1  0.006002  0.173636  0.398718  1
  Sc  Sc8  1  0.165790  0.500947  0.753408  1
  Sc  Sc9  1  0.834634  0.498894  0.248854  1
  Sc  Sc10  1  0.333997  0.001926  0.247510  1
  Sc  Sc11  1  0.668764  0.994395  0.752164  1
  Sc  Sc12  1  0.343421  0.173454  0.626416  1
  Sc  Sc13  1  0.663759  0.826886  0.373615  1
  Sc  Sc14  1  0.161802  0.675396  0.370867  1
  Sc  Sc15  1  0.668709  0.823939  0.123343  1
  Sc  Sc16  1  0.832348  0.325059  0.627229  1
  Sc  Sc17  1  0.330247  0.176000  0.877918  1
  Sc  Sc18  1  0.833413  0.320639  0.877299  1
  Sc  Sc19  1  0.166323  0.677298  0.123732  1
  Si  Si20  1  0.039401  0.117149  0.752304  1
  Si  Si21  1  0.962514  0.886888  0.246549  1
  Si  Si22  1  0.463516  0.615863  0.246328  1
  Si  Si23  1  0.537846  0.384820  0.754880  1
  Si  Si24  1  0.285720  0.873463  0.754215  1
  Si  Si25  1  0.712773  0.128717  0.245703  1
  Si  Si26  1  0.209789  0.368757  0.244793  1
  Si  Si27  1  0.792121  0.629312  0.756035  1
  Si  Si28  1  0.836112  0.540103  0.459143  1
  Si  Si29  1  0.327654  0.960941  0.460025  1
  Si  Si30  1  0.840306  0.533681  0.038868  1
  Si  Si31  1  0.671193  0.037073  0.538821  1
  Si  Si32  1  0.158382  0.466453  0.961661  1
  Si  Si33  1  0.659933  0.033642  0.960585  1
  Si  Si34  1  0.340229  0.965278  0.039908  1
  Au  Au35  1  0.158468  0.460183  0.539134  1
