# generated using pymatgen
data_YTm3Pd4F28
_symmetry_space_group_name_H-M   'P 1'
_cell_length_a   5.47450302
_cell_length_b   8.77216542
_cell_length_c   11.85158619
_cell_angle_alpha   62.53711767
_cell_angle_beta   90.03174626
_cell_angle_gamma   89.99735212
_symmetry_Int_Tables_number   1
_chemical_formula_structural   YTm3Pd4F28
_chemical_formula_sum   'Y1 Tm3 Pd4 F28'
_cell_volume   505.01370952
_cell_formula_units_Z   1
loop_
 _symmetry_equiv_pos_site_id
 _symmetry_equiv_pos_as_xyz
  1  'x, y, z'
loop_
 _atom_site_type_symbol
 _atom_site_label
 _atom_site_symmetry_multiplicity
 _atom_site_fract_x
 _atom_site_fract_y
 _atom_site_fract_z
 _atom_site_occupancy
  Y  Y0  1  0.238037  0.815150  0.764144  1
  Tm  Tm1  1  0.261848  0.815150  0.264005  1
  Tm  Tm2  1  0.737233  0.187503  0.735895  1
  Tm  Tm3  1  0.762079  0.185045  0.236176  1
  Pd  Pd4  1  0.759106  0.726870  0.044756  1
  Pd  Pd5  1  0.240586  0.270707  0.958147  1
  Pd  Pd6  1  0.259893  0.274001  0.456155  1
  Pd  Pd7  1  0.741563  0.726939  0.541079  1
  F  F8  1  0.936318  0.702595  0.413362  1
  F  F9  1  0.062869  0.297839  0.583592  1
  F  F10  1  0.437745  0.296510  0.084736  1
  F  F11  1  0.565880  0.702045  0.916742  1
  F  F12  1  0.464803  0.726150  0.137042  1
  F  F13  1  0.534308  0.273995  0.864420  1
  F  F14  1  0.966916  0.274533  0.362762  1
  F  F15  1  0.036611  0.724186  0.633000  1
  F  F16  1  0.949418  0.744508  0.177579  1
  F  F17  1  0.048602  0.254250  0.824914  1
  F  F18  1  0.451934  0.256240  0.323615  1
  F  F19  1  0.554866  0.742796  0.675431  1
  F  F20  1  0.772015  0.476969  0.143540  1
  F  F21  1  0.225785  0.519592  0.858567  1
  F  F22  1  0.273721  0.523475  0.357232  1
  F  F23  1  0.727256  0.477440  0.641145  1
  F  F24  1  0.939413  0.278660  0.043670  1
  F  F25  1  0.060475  0.718330  0.960649  1
  F  F26  1  0.438216  0.720613  0.456434  1
  F  F27  1  0.560786  0.280732  0.542472  1
  F  F28  1  0.744084  0.976195  0.449160  1
  F  F29  1  0.257313  0.025152  0.548014  1
  F  F30  1  0.243380  0.021683  0.050871  1
  F  F31  1  0.757577  0.975997  0.950841  1
  F  F32  1  0.583870  0.971004  0.232348  1
  F  F33  1  0.413738  0.035261  0.768530  1
  F  F34  1  0.084166  0.029404  0.267759  1
  F  F35  1  0.907588  0.972483  0.731215  1
