# generated using pymatgen
data_Ca4P2Se
_symmetry_space_group_name_H-M   'P 1'
_cell_length_a   7.63258715
_cell_length_b   7.63262698
_cell_length_c   7.63258668
_cell_angle_alpha   109.34572957
_cell_angle_beta   109.34535028
_cell_angle_gamma   109.72267356
_symmetry_Int_Tables_number   1
_chemical_formula_structural   Ca4P2Se
_chemical_formula_sum   'Ca8 P4 Se2'
_cell_volume   342.28704750
_cell_formula_units_Z   2
loop_
 _symmetry_equiv_pos_site_id
 _symmetry_equiv_pos_as_xyz
  1  'x, y, z'
loop_
 _atom_site_type_symbol
 _atom_site_label
 _atom_site_symmetry_multiplicity
 _atom_site_fract_x
 _atom_site_fract_y
 _atom_site_fract_z
 _atom_site_occupancy
  Ca  Ca0  1  0.635589  0.885134  0.889462  1
  Ca  Ca1  1  0.253873  0.364411  0.249546  1
  Ca  Ca2  1  0.114865  0.004327  0.750454  1
  Ca  Ca3  1  0.496128  0.245673  0.610538  1
  Ca  Ca4  1  0.114412  0.503872  0.749546  1
  Ca  Ca5  1  0.754327  0.364866  0.250454  1
  Ca  Ca6  1  0.995672  0.746128  0.110539  1
  Ca  Ca7  1  0.635135  0.885589  0.389463  1
  P  P8  1  0.375000  0.993615  0.118615  1
  P  P9  1  0.006384  0.125000  0.381384  1
  P  P10  1  0.875000  0.256385  0.881385  1
  P  P11  1  0.743615  0.625000  0.618615  1
  Se  Se12  1  0.500000  0.500000  0.000000  1
  Se  Se13  1  0.250000  0.750000  0.500000  1
