# generated using pymatgen
data_Er4Hf3PtF28
_symmetry_space_group_name_H-M   'P 1'
_cell_length_a   5.61590554
_cell_length_b   8.93670701
_cell_length_c   12.03561998
_cell_angle_alpha   62.39957654
_cell_angle_beta   90.07122586
_cell_angle_gamma   90.04737738
_symmetry_Int_Tables_number   1
_chemical_formula_structural   Er4Hf3PtF28
_chemical_formula_sum   'Er4 Hf3 Pt1 F28'
_cell_volume   535.30000791
_cell_formula_units_Z   1
loop_
 _symmetry_equiv_pos_site_id
 _symmetry_equiv_pos_as_xyz
  1  'x, y, z'
loop_
 _atom_site_type_symbol
 _atom_site_label
 _atom_site_symmetry_multiplicity
 _atom_site_fract_x
 _atom_site_fract_y
 _atom_site_fract_z
 _atom_site_occupancy
  Er  Er0  1  0.257878  0.815738  0.267316  1
  Er  Er1  1  0.743434  0.186019  0.733152  1
  Er  Er2  1  0.757935  0.183738  0.234855  1
  Er  Er3  1  0.240897  0.816410  0.761263  1
  Hf  Hf4  1  0.756197  0.726547  0.043278  1
  Hf  Hf5  1  0.244492  0.275199  0.955001  1
  Hf  Hf6  1  0.256375  0.274858  0.455857  1
  Pt  Pt7  1  0.740069  0.727167  0.544114  1
  F  F8  1  0.936242  0.703383  0.417522  1
  F  F9  1  0.040101  0.289835  0.581710  1
  F  F10  1  0.461281  0.291712  0.080856  1
  F  F11  1  0.536964  0.709794  0.918488  1
  F  F12  1  0.481998  0.732389  0.147736  1
  F  F13  1  0.520874  0.268430  0.852822  1
  F  F14  1  0.979317  0.267921  0.353477  1
  F  F15  1  0.028866  0.726486  0.637152  1
  F  F16  1  0.966882  0.746632  0.172157  1
  F  F17  1  0.037951  0.252948  0.826503  1
  F  F18  1  0.465566  0.255105  0.326809  1
  F  F19  1  0.549271  0.742191  0.676462  1
  F  F20  1  0.775216  0.475036  0.140726  1
  F  F21  1  0.223140  0.526709  0.857080  1
  F  F22  1  0.269789  0.526993  0.359870  1
  F  F23  1  0.728473  0.479645  0.642936  1
  F  F24  1  0.948042  0.277220  0.049211  1
  F  F25  1  0.051535  0.723930  0.948676  1
  F  F26  1  0.443465  0.719408  0.458107  1
  F  F27  1  0.553349  0.280842  0.547785  1
  F  F28  1  0.742541  0.975534  0.450497  1
  F  F29  1  0.261589  0.023266  0.556168  1
  F  F30  1  0.241654  0.023823  0.059000  1
  F  F31  1  0.759410  0.978160  0.941532  1
  F  F32  1  0.578613  0.969827  0.235292  1
  F  F33  1  0.421263  0.028430  0.765587  1
  F  F34  1  0.078874  0.027537  0.270097  1
  F  F35  1  0.920458  0.971133  0.730906  1
