# generated using pymatgen
data_Tb2HoAl3Ga2Pt
_symmetry_space_group_name_H-M   'P 1'
_cell_length_a   6.99186481
_cell_length_b   6.99186207
_cell_length_c   4.28854000
_cell_angle_alpha   90.00000000
_cell_angle_beta   90.00000000
_cell_angle_gamma   119.79193018
_symmetry_Int_Tables_number   1
_chemical_formula_structural   Tb2HoAl3Ga2Pt
_chemical_formula_sum   'Tb2 Ho1 Al3 Ga2 Pt1'
_cell_volume   181.94189846
_cell_formula_units_Z   1
loop_
 _symmetry_equiv_pos_site_id
 _symmetry_equiv_pos_as_xyz
  1  'x, y, z'
loop_
 _atom_site_type_symbol
 _atom_site_label
 _atom_site_symmetry_multiplicity
 _atom_site_fract_x
 _atom_site_fract_y
 _atom_site_fract_z
 _atom_site_occupancy
  Tb  Tb0  1  0.999313  0.582121  0.500000  1
  Tb  Tb1  1  0.582121  0.999313  0.500000  1
  Ho  Ho2  1  0.415688  0.415688  0.500000  1
  Al  Al3  1  0.234623  0.000449  0.000000  1
  Al  Al4  1  0.764983  0.764983  0.000000  1
  Al  Al5  1  0.000449  0.234623  0.000000  1
  Ga  Ga6  1  0.334310  0.665775  0.000000  1
  Ga  Ga7  1  0.665775  0.334310  0.000000  1
  Pt  Pt8  1  0.002740  0.002740  0.500000  1
