# generated using pymatgen
data_SrEr(Si7Ir3)2
_symmetry_space_group_name_H-M   'P 1'
_cell_length_a   8.07161255
_cell_length_b   8.07161296
_cell_length_c   8.07161305
_cell_angle_alpha   56.71105696
_cell_angle_beta   56.71106342
_cell_angle_gamma   56.71105221
_symmetry_Int_Tables_number   1
_chemical_formula_structural   SrEr(Si7Ir3)2
_chemical_formula_sum   'Sr1 Er1 Si14 Ir6'
_cell_volume   343.60931401
_cell_formula_units_Z   1
loop_
 _symmetry_equiv_pos_site_id
 _symmetry_equiv_pos_as_xyz
  1  'x, y, z'
loop_
 _atom_site_type_symbol
 _atom_site_label
 _atom_site_symmetry_multiplicity
 _atom_site_fract_x
 _atom_site_fract_y
 _atom_site_fract_z
 _atom_site_occupancy
  Sr  Sr0  1  0.000000  0.000000  0.000000  1
  Er  Er1  1  0.500000  0.500000  0.500000  1
  Si  Si2  1  0.750165  0.750165  0.750165  1
  Si  Si3  1  0.249835  0.249835  0.249835  1
  Si  Si4  1  0.849945  0.065882  0.672134  1
  Si  Si5  1  0.672134  0.849945  0.065882  1
  Si  Si6  1  0.065882  0.672134  0.849945  1
  Si  Si7  1  0.648849  0.826575  0.436728  1
  Si  Si8  1  0.436728  0.648849  0.826575  1
  Si  Si9  1  0.826575  0.436728  0.648849  1
  Si  Si10  1  0.173425  0.563272  0.351151  1
  Si  Si11  1  0.563272  0.351151  0.173425  1
  Si  Si12  1  0.351151  0.173425  0.563272  1
  Si  Si13  1  0.934118  0.327866  0.150055  1
  Si  Si14  1  0.327866  0.150055  0.934118  1
  Si  Si15  1  0.150055  0.934118  0.327866  1
  Ir  Ir16  1  0.073510  0.433588  0.745832  1
  Ir  Ir17  1  0.254168  0.926490  0.566412  1
  Ir  Ir18  1  0.566412  0.254168  0.926490  1
  Ir  Ir19  1  0.926490  0.566412  0.254168  1
  Ir  Ir20  1  0.433588  0.745832  0.073510  1
  Ir  Ir21  1  0.745832  0.073510  0.433588  1
