# generated using pymatgen
data_Tb6Tm10Cd4RuPt3
_symmetry_space_group_name_H-M   'P 1'
_cell_length_a   9.61034710
_cell_length_b   9.61034673
_cell_length_c   9.61034742
_cell_angle_alpha   59.70927619
_cell_angle_beta   59.70928513
_cell_angle_gamma   59.70927667
_symmetry_Int_Tables_number   1
_chemical_formula_structural   Tb6Tm10Cd4RuPt3
_chemical_formula_sum   'Tb6 Tm10 Cd4 Ru1 Pt3'
_cell_volume   623.48344738
_cell_formula_units_Z   1
loop_
 _symmetry_equiv_pos_site_id
 _symmetry_equiv_pos_as_xyz
  1  'x, y, z'
loop_
 _atom_site_type_symbol
 _atom_site_label
 _atom_site_symmetry_multiplicity
 _atom_site_fract_x
 _atom_site_fract_y
 _atom_site_fract_z
 _atom_site_occupancy
  Tb  Tb0  1  0.936834  0.564189  0.564189  1
  Tb  Tb1  1  0.559055  0.938443  0.938443  1
  Tb  Tb2  1  0.564189  0.936834  0.564189  1
  Tb  Tb3  1  0.938443  0.559055  0.938443  1
  Tb  Tb4  1  0.564189  0.564189  0.936834  1
  Tb  Tb5  1  0.938443  0.938443  0.559055  1
  Tm  Tm6  1  0.351225  0.351225  0.351225  1
  Tm  Tm7  1  0.349881  0.349881  0.949056  1
  Tm  Tm8  1  0.349881  0.949056  0.349881  1
  Tm  Tm9  1  0.949056  0.349881  0.349881  1
  Tm  Tm10  1  0.815788  0.187486  0.187486  1
  Tm  Tm11  1  0.186563  0.811275  0.811275  1
  Tm  Tm12  1  0.187486  0.815788  0.187486  1
  Tm  Tm13  1  0.811275  0.186563  0.811275  1
  Tm  Tm14  1  0.187486  0.187486  0.815788  1
  Tm  Tm15  1  0.811275  0.811275  0.186563  1
  Cd  Cd16  1  0.579574  0.579574  0.579574  1
  Cd  Cd17  1  0.580243  0.580243  0.256272  1
  Cd  Cd18  1  0.580243  0.256272  0.580243  1
  Cd  Cd19  1  0.256272  0.580243  0.580243  1
  Ru  Ru20  1  0.143501  0.143501  0.143501  1
  Pt  Pt21  1  0.143130  0.143130  0.572838  1
  Pt  Pt22  1  0.143130  0.572838  0.143130  1
  Pt  Pt23  1  0.572838  0.143130  0.143130  1
