# generated using pymatgen
data_SrTb5ErFeI12
_symmetry_space_group_name_H-M   'P 1'
_cell_length_a   9.83348428
_cell_length_b   9.87282834
_cell_length_c   9.84743298
_cell_angle_alpha   106.43741886
_cell_angle_beta   106.15900181
_cell_angle_gamma   106.14288474
_symmetry_Int_Tables_number   1
_chemical_formula_structural   SrTb5ErFeI12
_chemical_formula_sum   'Sr1 Tb5 Er1 Fe1 I12'
_cell_volume   811.99777288
_cell_formula_units_Z   1
loop_
 _symmetry_equiv_pos_site_id
 _symmetry_equiv_pos_as_xyz
  1  'x, y, z'
loop_
 _atom_site_type_symbol
 _atom_site_label
 _atom_site_symmetry_multiplicity
 _atom_site_fract_x
 _atom_site_fract_y
 _atom_site_fract_z
 _atom_site_occupancy
  Sr  Sr0  1  0.499761  0.500142  0.499405  1
  Tb  Tb1  1  0.019810  0.090000  0.282182  1
  Tb  Tb2  1  0.281060  0.019173  0.088778  1
  Tb  Tb3  1  0.906339  0.702642  0.980376  1
  Tb  Tb4  1  0.980826  0.911564  0.718361  1
  Tb  Tb5  1  0.719429  0.980859  0.911548  1
  Er  Er6  1  0.092294  0.292281  0.019635  1
  Fe  Fe7  1  0.000114  0.999622  0.000391  1
  I  I8  1  0.442420  0.364921  0.133151  1
  I  I9  1  0.134632  0.445319  0.363581  1
  I  I10  1  0.365346  0.135612  0.444339  1
  I  I11  1  0.554323  0.635032  0.864949  1
  I  I12  1  0.865000  0.555144  0.633087  1
  I  I13  1  0.634834  0.865031  0.555991  1
  I  I14  1  0.779323  0.319384  0.926354  1
  I  I15  1  0.926754  0.779300  0.319730  1
  I  I16  1  0.316069  0.925141  0.776957  1
  I  I17  1  0.223463  0.679726  0.073905  1
  I  I18  1  0.074374  0.223809  0.684375  1
  I  I19  1  0.683828  0.075299  0.222903  1
