# generated using pymatgen
data_TbErGa(PRh2)6
_symmetry_space_group_name_H-M   'P 1'
_cell_length_a   9.66815800
_cell_length_b   9.66815712
_cell_length_c   3.87850400
_cell_angle_alpha   90.00000000
_cell_angle_beta   90.00000000
_cell_angle_gamma   119.99999616
_symmetry_Int_Tables_number   1
_chemical_formula_structural   TbErGa(PRh2)6
_chemical_formula_sum   'Tb1 Er1 Ga1 P6 Rh12'
_cell_volume   313.96579114
_cell_formula_units_Z   1
loop_
 _symmetry_equiv_pos_site_id
 _symmetry_equiv_pos_as_xyz
  1  'x, y, z'
loop_
 _atom_site_type_symbol
 _atom_site_label
 _atom_site_symmetry_multiplicity
 _atom_site_fract_x
 _atom_site_fract_y
 _atom_site_fract_z
 _atom_site_occupancy
  Tb  Tb0  1  0.333333  0.666667  0.750585  1
  Er  Er1  1  0.666667  0.333333  0.249562  1
  Ga  Ga2  1  0.000000  0.000000  0.499863  1
  P  P3  1  0.403298  0.285545  0.749473  1
  P  P4  1  0.714455  0.117753  0.749473  1
  P  P5  1  0.882247  0.596702  0.749473  1
  P  P6  1  0.597223  0.714611  0.250522  1
  P  P7  1  0.285389  0.882613  0.250522  1
  P  P8  1  0.117387  0.402777  0.250522  1
  Rh  Rh9  1  0.452594  0.067520  0.749961  1
  Rh  Rh10  1  0.932480  0.385073  0.749961  1
  Rh  Rh11  1  0.614927  0.547406  0.749961  1
  Rh  Rh12  1  0.548361  0.933727  0.249996  1
  Rh  Rh13  1  0.066273  0.614635  0.249996  1
  Rh  Rh14  1  0.385365  0.451639  0.249996  1
  Rh  Rh15  1  0.157385  0.280006  0.752346  1
  Rh  Rh16  1  0.719994  0.877379  0.752346  1
  Rh  Rh17  1  0.122621  0.842615  0.752346  1
  Rh  Rh18  1  0.842596  0.719771  0.247699  1
  Rh  Rh19  1  0.280229  0.122825  0.247699  1
  Rh  Rh20  1  0.877175  0.157404  0.247699  1
