# generated using pymatgen
data_Cs3Tb(PS4)2
_symmetry_space_group_name_H-M   'P 1'
_cell_length_a   10.08082471
_cell_length_b   6.99811700
_cell_length_c   12.02720652
_cell_angle_alpha   90.00000000
_cell_angle_beta   88.86357429
_cell_angle_gamma   90.00000000
_symmetry_Int_Tables_number   1
_chemical_formula_structural   Cs3Tb(PS4)2
_chemical_formula_sum   'Cs6 Tb2 P4 S16'
_cell_volume   848.31392980
_cell_formula_units_Z   2
loop_
 _symmetry_equiv_pos_site_id
 _symmetry_equiv_pos_as_xyz
  1  'x, y, z'
loop_
 _atom_site_type_symbol
 _atom_site_label
 _atom_site_symmetry_multiplicity
 _atom_site_fract_x
 _atom_site_fract_y
 _atom_site_fract_z
 _atom_site_occupancy
  Cs  Cs0  1  0.363317  0.803222  0.086640  1
  Cs  Cs1  1  0.395542  0.308261  0.344012  1
  Cs  Cs2  1  0.835996  0.307526  0.431603  1
  Cs  Cs3  1  0.164004  0.807526  0.568398  1
  Cs  Cs4  1  0.604458  0.808261  0.655988  1
  Cs  Cs5  1  0.636684  0.303222  0.913360  1
  Tb  Tb6  1  0.890303  0.786520  0.144927  1
  Tb  Tb7  1  0.109697  0.286520  0.855073  1
  P  P8  1  0.081673  0.330269  0.148577  1
  P  P9  1  0.641804  0.808300  0.304955  1
  P  P10  1  0.358196  0.308299  0.695045  1
  P  P11  1  0.918327  0.830269  0.851423  1
  S  S12  1  0.937545  0.399105  0.035833  1
  S  S13  1  0.253804  0.306306  0.055164  1
  S  S14  1  0.669622  0.039261  0.200667  1
  S  S15  1  0.663801  0.566920  0.205877  1
  S  S16  1  0.050969  0.086356  0.240599  1
  S  S17  1  0.086462  0.561697  0.254425  1
  S  S18  1  0.462706  0.812489  0.384282  1
  S  S19  1  0.806786  0.806051  0.402776  1
  S  S20  1  0.193215  0.306050  0.597224  1
  S  S21  1  0.537293  0.312488  0.615718  1
  S  S22  1  0.913538  0.061696  0.745575  1
  S  S23  1  0.949031  0.586356  0.759401  1
  S  S24  1  0.336199  0.066921  0.794123  1
  S  S25  1  0.330378  0.539259  0.799333  1
  S  S26  1  0.746195  0.806307  0.944836  1
  S  S27  1  0.062455  0.899105  0.964166  1
