# generated using pymatgen
data_Zr6Mn6AlCo16
_symmetry_space_group_name_H-M   'P 1'
_cell_length_a   8.18210097
_cell_length_b   8.18210082
_cell_length_c   8.18210100
_cell_angle_alpha   59.99999522
_cell_angle_beta   59.99999584
_cell_angle_gamma   59.99999661
_symmetry_Int_Tables_number   1
_chemical_formula_structural   Zr6Mn6AlCo16
_chemical_formula_sum   'Zr6 Mn6 Al1 Co16'
_cell_volume   387.32850438
_cell_formula_units_Z   1
loop_
 _symmetry_equiv_pos_site_id
 _symmetry_equiv_pos_as_xyz
  1  'x, y, z'
loop_
 _atom_site_type_symbol
 _atom_site_label
 _atom_site_symmetry_multiplicity
 _atom_site_fract_x
 _atom_site_fract_y
 _atom_site_fract_z
 _atom_site_occupancy
  Zr  Zr0  1  0.709367  0.290633  0.290633  1
  Zr  Zr1  1  0.290633  0.290633  0.709367  1
  Zr  Zr2  1  0.290633  0.709367  0.709367  1
  Zr  Zr3  1  0.709367  0.709367  0.290633  1
  Zr  Zr4  1  0.290633  0.709367  0.290633  1
  Zr  Zr5  1  0.709367  0.290633  0.709367  1
  Mn  Mn6  1  0.000000  0.500000  0.000000  1
  Mn  Mn7  1  0.000000  0.000000  0.500000  1
  Mn  Mn8  1  0.500000  0.500000  0.000000  1
  Mn  Mn9  1  0.500000  0.000000  0.500000  1
  Mn  Mn10  1  0.500000  0.000000  0.000000  1
  Mn  Mn11  1  0.000000  0.500000  0.500000  1
  Al  Al12  1  0.000000  0.000000  0.000000  1
  Co  Co13  1  0.122702  0.122702  0.631896  1
  Co  Co14  1  0.674422  0.976735  0.674422  1
  Co  Co15  1  0.368104  0.877298  0.877298  1
  Co  Co16  1  0.023265  0.325578  0.325578  1
  Co  Co17  1  0.976735  0.674422  0.674422  1
  Co  Co18  1  0.325578  0.325578  0.023265  1
  Co  Co19  1  0.674422  0.674422  0.976735  1
  Co  Co20  1  0.631896  0.122702  0.122702  1
  Co  Co21  1  0.674422  0.674422  0.674422  1
  Co  Co22  1  0.877298  0.877298  0.368104  1
  Co  Co23  1  0.122702  0.122702  0.122702  1
  Co  Co24  1  0.877298  0.368104  0.877298  1
  Co  Co25  1  0.877298  0.877298  0.877298  1
  Co  Co26  1  0.325578  0.325578  0.325578  1
  Co  Co27  1  0.122702  0.631896  0.122702  1
  Co  Co28  1  0.325578  0.023265  0.325578  1
