# generated using pymatgen
data_Ho2B4IrOs3
_symmetry_space_group_name_H-M   'P 1'
_cell_length_a   6.68965475
_cell_length_b   5.96025231
_cell_length_c   5.56083131
_cell_angle_alpha   70.89509179
_cell_angle_beta   57.34044542
_cell_angle_gamma   51.96518419
_symmetry_Int_Tables_number   1
_chemical_formula_structural   Ho2B4IrOs3
_chemical_formula_sum   'Ho2 B4 Ir1 Os3'
_cell_volume   147.02016422
_cell_formula_units_Z   1
loop_
 _symmetry_equiv_pos_site_id
 _symmetry_equiv_pos_as_xyz
  1  'x, y, z'
loop_
 _atom_site_type_symbol
 _atom_site_label
 _atom_site_symmetry_multiplicity
 _atom_site_fract_x
 _atom_site_fract_y
 _atom_site_fract_z
 _atom_site_occupancy
  Ho  Ho0  1  0.002698  0.002698  0.997302  1
  Ho  Ho1  1  0.250648  0.250648  0.249352  1
  B  B2  1  0.307699  0.686534  0.307582  1
  B  B3  1  0.686534  0.307699  0.698185  1
  B  B4  1  0.565014  0.936937  0.562520  1
  B  B5  1  0.936937  0.565014  0.935528  1
  Ir  Ir6  1  0.637403  0.637403  0.362597  1
  Os  Os7  1  0.362629  0.362629  0.637371  1
  Os  Os8  1  0.612317  0.612317  0.887683  1
  Os  Os9  1  0.888121  0.888121  0.611879  1
