# generated using pymatgen
data_K2Ga13Sn
_symmetry_space_group_name_H-M   'P 1'
_cell_length_a   10.33208164
_cell_length_b   10.33208181
_cell_length_c   10.33208299
_cell_angle_alpha   39.01479996
_cell_angle_beta   39.01479981
_cell_angle_gamma   39.01480098
_symmetry_Int_Tables_number   1
_chemical_formula_structural   K2Ga13Sn
_chemical_formula_sum   'K2 Ga13 Sn1'
_cell_volume   393.10485916
_cell_formula_units_Z   1
loop_
 _symmetry_equiv_pos_site_id
 _symmetry_equiv_pos_as_xyz
  1  'x, y, z'
loop_
 _atom_site_type_symbol
 _atom_site_label
 _atom_site_symmetry_multiplicity
 _atom_site_fract_x
 _atom_site_fract_y
 _atom_site_fract_z
 _atom_site_occupancy
  K  K0  1  0.197388  0.197388  0.197388  1
  K  K1  1  0.802587  0.802587  0.802587  1
  Ga  Ga2  1  0.552876  0.552876  0.552876  1
  Ga  Ga3  1  0.576888  0.183852  0.183852  1
  Ga  Ga4  1  0.183852  0.183852  0.576888  1
  Ga  Ga5  1  0.183852  0.576888  0.183852  1
  Ga  Ga6  1  0.814517  0.422323  0.814517  1
  Ga  Ga7  1  0.422323  0.814517  0.814517  1
  Ga  Ga8  1  0.814517  0.814517  0.422323  1
  Ga  Ga9  1  0.805589  0.208298  0.208298  1
  Ga  Ga10  1  0.208298  0.208298  0.805589  1
  Ga  Ga11  1  0.208298  0.805589  0.208298  1
  Ga  Ga12  1  0.788570  0.194958  0.788570  1
  Ga  Ga13  1  0.194958  0.788570  0.788570  1
  Ga  Ga14  1  0.788570  0.788570  0.194958  1
  Sn  Sn15  1  0.456916  0.456916  0.456916  1
