# generated using pymatgen
data_Na(Zn2Ag)4
_symmetry_space_group_name_H-M   'P 1'
_cell_length_a   6.98199442
_cell_length_b   6.98199510
_cell_length_c   6.98199382
_cell_angle_alpha   97.99633365
_cell_angle_beta   97.99633870
_cell_angle_gamma   136.20167235
_symmetry_Int_Tables_number   1
_chemical_formula_structural   Na(Zn2Ag)4
_chemical_formula_sum   'Na1 Zn8 Ag4'
_cell_volume   218.57229280
_cell_formula_units_Z   1
loop_
 _symmetry_equiv_pos_site_id
 _symmetry_equiv_pos_as_xyz
  1  'x, y, z'
loop_
 _atom_site_type_symbol
 _atom_site_label
 _atom_site_symmetry_multiplicity
 _atom_site_fract_x
 _atom_site_fract_y
 _atom_site_fract_z
 _atom_site_occupancy
  Na  Na0  1  0.000000  0.000000  0.000000  1
  Zn  Zn1  1  0.000000  0.000000  0.500000  1
  Zn  Zn2  1  0.500000  0.500000  0.500000  1
  Zn  Zn3  1  0.500000  0.000000  0.000000  1
  Zn  Zn4  1  0.000000  0.500000  0.000000  1
  Zn  Zn5  1  0.500000  0.287830  0.787830  1
  Zn  Zn6  1  0.500000  0.712170  0.212170  1
  Zn  Zn7  1  0.712170  0.500000  0.212170  1
  Zn  Zn8  1  0.287830  0.500000  0.787830  1
  Ag  Ag9  1  0.000000  0.343665  0.343665  1
  Ag  Ag10  1  0.000000  0.656335  0.656335  1
  Ag  Ag11  1  0.656335  0.000000  0.656335  1
  Ag  Ag12  1  0.343665  0.000000  0.343665  1
