# generated using pymatgen
data_Ba6ErLuGa4O15
_symmetry_space_group_name_H-M   'P 1'
_cell_length_a   6.00918000
_cell_length_b   8.01795779
_cell_length_c   18.58176427
_cell_angle_alpha   91.33285291
_cell_angle_beta   90.00000000
_cell_angle_gamma   90.00000000
_symmetry_Int_Tables_number   1
_chemical_formula_structural   Ba6ErLuGa4O15
_chemical_formula_sum   'Ba12 Er2 Lu2 Ga8 O30'
_cell_volume   895.05228297
_cell_formula_units_Z   2
loop_
 _symmetry_equiv_pos_site_id
 _symmetry_equiv_pos_as_xyz
  1  'x, y, z'
loop_
 _atom_site_type_symbol
 _atom_site_label
 _atom_site_symmetry_multiplicity
 _atom_site_fract_x
 _atom_site_fract_y
 _atom_site_fract_z
 _atom_site_occupancy
  Ba  Ba0  1  0.748465  0.026544  0.089336  1
  Ba  Ba1  1  0.755006  0.499132  0.421868  1
  Ba  Ba2  1  0.244869  0.501608  0.578486  1
  Ba  Ba3  1  0.251428  0.974208  0.910326  1
  Ba  Ba4  1  0.328827  0.500000  0.250000  1
  Ba  Ba5  1  0.755006  0.500868  0.078132  1
  Ba  Ba6  1  0.723361  0.000000  0.750000  1
  Ba  Ba7  1  0.276669  0.000000  0.250000  1
  Ba  Ba8  1  0.244869  0.498392  0.921514  1
  Ba  Ba9  1  0.671484  0.500000  0.750000  1
  Ba  Ba10  1  0.251428  0.025792  0.589674  1
  Ba  Ba11  1  0.748465  0.973456  0.410664  1
  Er  Er12  1  0.253032  0.752694  0.089592  1
  Er  Er13  1  0.253032  0.247306  0.410408  1
  Lu  Lu14  1  0.746461  0.247567  0.910317  1
  Lu  Lu15  1  0.746461  0.752433  0.589683  1
  Ga  Ga16  1  0.252381  0.754263  0.442593  1
  Ga  Ga17  1  0.773303  0.769530  0.233192  1
  Ga  Ga18  1  0.773303  0.230470  0.266808  1
  Ga  Ga19  1  0.252381  0.245737  0.057407  1
  Ga  Ga20  1  0.747547  0.754035  0.941555  1
  Ga  Ga21  1  0.226793  0.230491  0.767514  1
  Ga  Ga22  1  0.226793  0.769509  0.732486  1
  Ga  Ga23  1  0.747547  0.245965  0.558445  1
  O  O24  1  0.244833  0.531627  0.409499  1
  O  O25  1  0.511382  0.765810  0.500310  1
  O  O26  1  0.956565  0.274910  0.812461  1
  O  O27  1  0.007926  0.234343  0.991618  1
  O  O28  1  0.800687  0.000000  0.250000  1
  O  O29  1  0.329651  0.687511  0.816783  1
  O  O30  1  0.043205  0.275766  0.311147  1
  O  O31  1  0.546224  0.751518  0.163156  1
  O  O32  1  0.546224  0.248482  0.336844  1
  O  O33  1  0.329651  0.312489  0.683217  1
  O  O34  1  0.490098  0.765948  0.999251  1
  O  O35  1  0.236546  0.954080  0.392384  1
  O  O36  1  0.956565  0.725090  0.687539  1
  O  O37  1  0.456331  0.751639  0.662654  1
  O  O38  1  0.669773  0.687581  0.317311  1
  O  O39  1  0.199569  0.000000  0.750000  1
  O  O40  1  0.763131  0.043592  0.607553  1
  O  O41  1  0.754806  0.470747  0.590472  1
  O  O42  1  0.989946  0.765816  0.007304  1
  O  O43  1  0.754806  0.529253  0.909528  1
  O  O44  1  0.236546  0.045920  0.107616  1
  O  O45  1  0.763131  0.956408  0.892447  1
  O  O46  1  0.511382  0.234190  0.999690  1
  O  O47  1  0.456331  0.248361  0.837346  1
  O  O48  1  0.007926  0.765657  0.508382  1
  O  O49  1  0.669773  0.312419  0.182689  1
  O  O50  1  0.043205  0.724234  0.188853  1
  O  O51  1  0.989946  0.234184  0.492696  1
  O  O52  1  0.244833  0.468373  0.090500  1
  O  O53  1  0.490098  0.234052  0.500749  1
