# generated using pymatgen
data_ErSi2IrRu
_symmetry_space_group_name_H-M   'P 1'
_cell_length_a   5.65541569
_cell_length_b   5.65541581
_cell_length_c   5.65541587
_cell_angle_alpha   137.17952571
_cell_angle_beta   137.17953473
_cell_angle_gamma   62.16194612
_symmetry_Int_Tables_number   1
_chemical_formula_structural   ErSi2IrRu
_chemical_formula_sum   'Er1 Si2 Ir1 Ru1'
_cell_volume   82.57300796
_cell_formula_units_Z   1
loop_
 _symmetry_equiv_pos_site_id
 _symmetry_equiv_pos_as_xyz
  1  'x, y, z'
loop_
 _atom_site_type_symbol
 _atom_site_label
 _atom_site_symmetry_multiplicity
 _atom_site_fract_x
 _atom_site_fract_y
 _atom_site_fract_z
 _atom_site_occupancy
  Er  Er0  1  0.000000  0.000000  0.000000  1
  Si  Si1  1  0.625666  0.625666  0.000000  1
  Si  Si2  1  0.374334  0.374334  0.000000  1
  Ir  Ir3  1  0.250000  0.750000  0.500000  1
  Ru  Ru4  1  0.750000  0.250000  0.500000  1
