# generated using pymatgen
data_DyY(Al3Rh)3
_symmetry_space_group_name_H-M   'P 1'
_cell_length_a   7.55598958
_cell_length_b   7.55687810
_cell_length_c   9.50077700
_cell_angle_alpha   90.00000000
_cell_angle_beta   90.00000000
_cell_angle_gamma   119.46107783
_symmetry_Int_Tables_number   1
_chemical_formula_structural   DyY(Al3Rh)3
_chemical_formula_sum   'Dy2 Y2 Al18 Rh6'
_cell_volume   472.34187840
_cell_formula_units_Z   2
loop_
 _symmetry_equiv_pos_site_id
 _symmetry_equiv_pos_as_xyz
  1  'x, y, z'
loop_
 _atom_site_type_symbol
 _atom_site_label
 _atom_site_symmetry_multiplicity
 _atom_site_fract_x
 _atom_site_fract_y
 _atom_site_fract_z
 _atom_site_occupancy
  Dy  Dy0  1  0.670746  0.994412  0.750000  1
  Dy  Dy1  1  0.329254  0.005588  0.250000  1
  Y  Y2  1  0.994458  0.670703  0.750000  1
  Y  Y3  1  0.005542  0.329297  0.250000  1
  Al  Al4  1  0.127821  0.127922  0.750000  1
  Al  Al5  1  0.872179  0.872078  0.250000  1
  Al  Al6  1  0.000832  0.334958  0.573672  1
  Al  Al7  1  0.999168  0.665042  0.426328  1
  Al  Al8  1  0.999168  0.665042  0.073672  1
  Al  Al9  1  0.335099  0.000890  0.926438  1
  Al  Al10  1  0.000832  0.334958  0.926328  1
  Al  Al11  1  0.664901  0.999110  0.073562  1
  Al  Al12  1  0.664901  0.999110  0.426438  1
  Al  Al13  1  0.335099  0.000890  0.573562  1
  Al  Al14  1  0.333332  0.333280  0.050331  1
  Al  Al15  1  0.666668  0.666720  0.949669  1
  Al  Al16  1  0.666668  0.666720  0.550331  1
  Al  Al17  1  0.333332  0.333280  0.449669  1
  Al  Al18  1  0.339163  0.548980  0.750000  1
  Al  Al19  1  0.660837  0.451020  0.250000  1
  Al  Al20  1  0.548792  0.338626  0.750000  1
  Al  Al21  1  0.451208  0.661374  0.250000  1
  Rh  Rh22  1  0.671770  0.328089  0.499996  1
  Rh  Rh23  1  0.328230  0.671911  0.500004  1
  Rh  Rh24  1  0.328230  0.671911  0.999996  1
  Rh  Rh25  1  0.671770  0.328089  0.000004  1
  Rh  Rh26  1  0.000000  0.000000  0.500000  1
  Rh  Rh27  1  0.000000  0.000000  0.000000  1
