# generated using pymatgen
data_Tm8CuTe3
_symmetry_space_group_name_H-M   'P 1'
_cell_length_a   3.97894900
_cell_length_b   11.41831586
_cell_length_c   21.44155861
_cell_angle_alpha   89.54504691
_cell_angle_beta   90.00000000
_cell_angle_gamma   90.00000000
_symmetry_Int_Tables_number   1
_chemical_formula_structural   Tm8CuTe3
_chemical_formula_sum   'Tm24 Cu3 Te9'
_cell_volume   974.12140221
_cell_formula_units_Z   3
loop_
 _symmetry_equiv_pos_site_id
 _symmetry_equiv_pos_as_xyz
  1  'x, y, z'
loop_
 _atom_site_type_symbol
 _atom_site_label
 _atom_site_symmetry_multiplicity
 _atom_site_fract_x
 _atom_site_fract_y
 _atom_site_fract_z
 _atom_site_occupancy
  Tm  Tm0  1  0.500000  0.120048  0.024237  1
  Tm  Tm1  1  0.500000  0.375320  0.522765  1
  Tm  Tm2  1  0.000000  0.880976  0.976673  1
  Tm  Tm3  1  0.000000  0.607395  0.463911  1
  Tm  Tm4  1  0.500000  0.612590  0.992353  1
  Tm  Tm5  1  0.500000  0.886278  0.488315  1
  Tm  Tm6  1  0.000000  0.388883  0.009192  1
  Tm  Tm7  1  0.000000  0.110505  0.510840  1
  Tm  Tm8  1  0.500000  0.037788  0.847515  1
  Tm  Tm9  1  0.500000  0.460611  0.345483  1
  Tm  Tm10  1  0.000000  0.962591  0.152989  1
  Tm  Tm11  1  0.000000  0.531571  0.660321  1
  Tm  Tm12  1  0.500000  0.072575  0.644464  1
  Tm  Tm13  1  0.500000  0.431957  0.143023  1
  Tm  Tm14  1  0.000000  0.932200  0.356992  1
  Tm  Tm15  1  0.000000  0.569324  0.859032  1
  Tm  Tm16  1  0.500000  0.748737  0.734992  1
  Tm  Tm17  1  0.500000  0.753211  0.231764  1
  Tm  Tm18  1  0.000000  0.252868  0.266473  1
  Tm  Tm19  1  0.000000  0.247267  0.767746  1
  Tm  Tm20  1  0.500000  0.316601  0.892497  1
  Tm  Tm21  1  0.500000  0.176804  0.391498  1
  Tm  Tm22  1  0.000000  0.682451  0.109036  1
  Tm  Tm23  1  0.000000  0.838003  0.610453  1
  Cu  Cu24  1  0.500000  0.858052  0.076105  1
  Cu  Cu25  1  0.000000  0.355125  0.423892  1
  Cu  Cu26  1  0.000000  0.140794  0.924426  1
  Te  Te27  1  0.500000  0.036069  0.260371  1
  Te  Te28  1  0.500000  0.462100  0.763231  1
  Te  Te29  1  0.000000  0.965906  0.741139  1
  Te  Te30  1  0.000000  0.536819  0.239139  1
  Te  Te31  1  0.500000  0.775182  0.876003  1
  Te  Te32  1  0.500000  0.726015  0.372494  1
  Te  Te33  1  0.000000  0.226023  0.125301  1
  Te  Te34  1  0.000000  0.279044  0.624801  1
  Te  Te35  1  0.500000  0.642318  0.570531  1
