# generated using pymatgen
data_Li3Lu5(Co4P3)4
_symmetry_space_group_name_H-M   'P 1'
_cell_length_a   11.94673600
_cell_length_b   11.94673698
_cell_length_c   3.67476800
_cell_angle_alpha   90.00000000
_cell_angle_beta   90.00000000
_cell_angle_gamma   119.99999729
_symmetry_Int_Tables_number   1
_chemical_formula_structural   Li3Lu5(Co4P3)4
_chemical_formula_sum   'Li3 Lu5 Co16 P12'
_cell_volume   454.21255921
_cell_formula_units_Z   1
loop_
 _symmetry_equiv_pos_site_id
 _symmetry_equiv_pos_as_xyz
  1  'x, y, z'
loop_
 _atom_site_type_symbol
 _atom_site_label
 _atom_site_symmetry_multiplicity
 _atom_site_fract_x
 _atom_site_fract_y
 _atom_site_fract_z
 _atom_site_occupancy
  Li  Li0  1  0.441380  0.441380  0.000000  1
  Li  Li1  1  0.558620  0.000000  0.000000  1
  Li  Li2  1  0.000000  0.558620  0.000000  1
  Lu  Lu3  1  0.666667  0.333333  0.000000  1
  Lu  Lu4  1  0.333333  0.666667  0.000000  1
  Lu  Lu5  1  0.813152  0.813152  0.500000  1
  Lu  Lu6  1  0.186848  0.000000  0.500000  1
  Lu  Lu7  1  0.000000  0.186848  0.500000  1
  Co  Co8  1  0.198484  0.376792  0.000000  1
  Co  Co9  1  0.178308  0.801516  0.000000  1
  Co  Co10  1  0.821692  0.623208  0.000000  1
  Co  Co11  1  0.801516  0.178308  0.000000  1
  Co  Co12  1  0.376792  0.198484  0.000000  1
  Co  Co13  1  0.126227  0.482498  0.500000  1
  Co  Co14  1  0.356271  0.873773  0.500000  1
  Co  Co15  1  0.517502  0.643729  0.500000  1
  Co  Co16  1  0.643729  0.517502  0.500000  1
  Co  Co17  1  0.873773  0.356271  0.500000  1
  Co  Co18  1  0.482498  0.126227  0.500000  1
  Co  Co19  1  0.000000  0.000000  0.000000  1
  Co  Co20  1  0.717362  0.000000  0.500000  1
  Co  Co21  1  0.000000  0.717362  0.500000  1
  Co  Co22  1  0.623208  0.821692  0.000000  1
  Co  Co23  1  0.282638  0.282638  0.500000  1
  P  P24  1  0.634918  0.634918  0.000000  1
  P  P25  1  0.365082  0.000000  0.000000  1
  P  P26  1  0.000000  0.365082  0.000000  1
  P  P27  1  0.481831  0.311998  0.500000  1
  P  P28  1  0.688002  0.169833  0.500000  1
  P  P29  1  0.830167  0.518169  0.500000  1
  P  P30  1  0.518169  0.830167  0.500000  1
  P  P31  1  0.169833  0.688002  0.500000  1
  P  P32  1  0.818947  0.000000  0.000000  1
  P  P33  1  0.000000  0.818947  0.000000  1
  P  P34  1  0.311998  0.481831  0.500000  1
  P  P35  1  0.181053  0.181053  0.000000  1
