# generated using pymatgen
data_TbPa(AlRu)2
_symmetry_space_group_name_H-M   'P 1'
_cell_length_a   7.04743000
_cell_length_b   4.01074500
_cell_length_c   8.23478300
_cell_angle_alpha   90.00000000
_cell_angle_beta   90.00000000
_cell_angle_gamma   90.00000000
_symmetry_Int_Tables_number   1
_chemical_formula_structural   TbPa(AlRu)2
_chemical_formula_sum   'Tb2 Pa2 Al4 Ru4'
_cell_volume   232.75980297
_cell_formula_units_Z   2
loop_
 _symmetry_equiv_pos_site_id
 _symmetry_equiv_pos_as_xyz
  1  'x, y, z'
loop_
 _atom_site_type_symbol
 _atom_site_label
 _atom_site_symmetry_multiplicity
 _atom_site_fract_x
 _atom_site_fract_y
 _atom_site_fract_z
 _atom_site_occupancy
  Tb  Tb0  1  0.943298  0.250000  0.188345  1
  Tb  Tb1  1  0.443298  0.250000  0.311655  1
  Pa  Pa2  1  0.047800  0.750000  0.832772  1
  Pa  Pa3  1  0.547800  0.750000  0.667228  1
  Al  Al4  1  0.883132  0.250000  0.560804  1
  Al  Al5  1  0.383132  0.250000  0.939196  1
  Al  Al6  1  0.128195  0.750000  0.441766  1
  Al  Al7  1  0.628195  0.750000  0.058234  1
  Ru  Ru8  1  0.754482  0.250000  0.860472  1
  Ru  Ru9  1  0.254482  0.250000  0.639528  1
  Ru  Ru10  1  0.243093  0.750000  0.097364  1
  Ru  Ru11  1  0.743093  0.750000  0.402636  1
