# generated using pymatgen
data_Ti12Nb8Si15Sn
_symmetry_space_group_name_H-M   'P 1'
_cell_length_a   6.75685797
_cell_length_b   6.73342931
_cell_length_c   12.33901538
_cell_angle_alpha   90.01331668
_cell_angle_beta   89.74474471
_cell_angle_gamma   89.87630431
_symmetry_Int_Tables_number   1
_chemical_formula_structural   Ti12Nb8Si15Sn
_chemical_formula_sum   'Ti12 Nb8 Si15 Sn1'
_cell_volume   561.37913404
_cell_formula_units_Z   1
loop_
 _symmetry_equiv_pos_site_id
 _symmetry_equiv_pos_as_xyz
  1  'x, y, z'
loop_
 _atom_site_type_symbol
 _atom_site_label
 _atom_site_symmetry_multiplicity
 _atom_site_fract_x
 _atom_site_fract_y
 _atom_site_fract_z
 _atom_site_occupancy
  Ti  Ti0  1  0.330712  0.330639  0.001586  1
  Ti  Ti1  1  0.170397  0.830185  0.249186  1
  Ti  Ti2  1  0.821764  0.167839  0.752368  1
  Ti  Ti3  1  0.668752  0.669365  0.499619  1
  Ti  Ti4  1  0.152618  0.001578  0.877967  1
  Ti  Ti5  1  0.498338  0.650766  0.122269  1
  Ti  Ti6  1  0.512550  0.357533  0.623176  1
  Ti  Ti7  1  0.653693  0.497900  0.880059  1
  Ti  Ti8  1  0.346029  0.503176  0.377340  1
  Ti  Ti9  1  0.845669  0.998351  0.370837  1
  Ti  Ti10  1  0.003568  0.151934  0.127935  1
  Ti  Ti11  1  0.983089  0.836147  0.624024  1
  Nb  Nb12  1  0.347689  0.990058  0.463736  1
  Nb  Nb13  1  0.512898  0.834410  0.725373  1
  Nb  Nb14  1  0.497149  0.157868  0.221504  1
  Nb  Nb15  1  0.840560  0.503007  0.276616  1
  Nb  Nb16  1  0.158510  0.508692  0.781375  1
  Nb  Nb17  1  0.660808  0.002257  0.974213  1
  Nb  Nb18  1  0.982078  0.351985  0.520709  1
  Nb  Nb19  1  0.004372  0.657508  0.028866  1
  Si  Si20  1  0.365407  0.707747  0.925530  1
  Si  Si21  1  0.633493  0.293145  0.421842  1
  Si  Si22  1  0.708352  0.361508  0.077252  1
  Si  Si23  1  0.291317  0.639586  0.576853  1
  Si  Si24  1  0.793951  0.862210  0.172905  1
  Si  Si25  1  0.136570  0.207224  0.326009  1
  Si  Si26  1  0.864883  0.794057  0.827631  1
  Si  Si27  1  0.300722  0.956020  0.065678  1
  Si  Si28  1  0.546377  0.795008  0.312005  1
  Si  Si29  1  0.462177  0.200598  0.819461  1
  Si  Si30  1  0.801190  0.540756  0.688632  1
  Si  Si31  1  0.201846  0.455934  0.186252  1
  Si  Si32  1  0.697820  0.045903  0.563703  1
  Si  Si33  1  0.957392  0.299218  0.936166  1
  Si  Si34  1  0.044276  0.704141  0.433185  1
  Sn  Sn35  1  0.202986  0.135750  0.668136  1
