# generated using pymatgen
data_Ho4Tm(InSb)2
_symmetry_space_group_name_H-M   'P 1'
_cell_length_a   8.76823301
_cell_length_b   8.76823288
_cell_length_c   8.06657700
_cell_angle_alpha   90.00000000
_cell_angle_beta   90.00000000
_cell_angle_gamma   125.21811985
_symmetry_Int_Tables_number   1
_chemical_formula_structural   Ho4Tm(InSb)2
_chemical_formula_sum   'Ho8 Tm2 In4 Sb4'
_cell_volume   506.65880707
_cell_formula_units_Z   2
loop_
 _symmetry_equiv_pos_site_id
 _symmetry_equiv_pos_as_xyz
  1  'x, y, z'
loop_
 _atom_site_type_symbol
 _atom_site_label
 _atom_site_symmetry_multiplicity
 _atom_site_fract_x
 _atom_site_fract_y
 _atom_site_fract_z
 _atom_site_occupancy
  Ho  Ho0  1  0.531387  0.806736  0.166351  1
  Ho  Ho1  1  0.306736  0.031387  0.333649  1
  Ho  Ho2  1  0.193264  0.468613  0.833649  1
  Ho  Ho3  1  0.968613  0.693264  0.666351  1
  Ho  Ho4  1  0.693264  0.968613  0.666351  1
  Ho  Ho5  1  0.468613  0.193264  0.833649  1
  Ho  Ho6  1  0.806736  0.531387  0.166351  1
  Ho  Ho7  1  0.031387  0.306736  0.333649  1
  Tm  Tm8  1  0.500000  0.500000  0.500000  1
  Tm  Tm9  1  0.000000  0.000000  0.000000  1
  In  In10  1  0.630367  0.630367  0.870303  1
  In  In11  1  0.130367  0.130367  0.629697  1
  In  In12  1  0.869633  0.869633  0.370303  1
  In  In13  1  0.369633  0.369633  0.129697  1
  Sb  Sb14  1  0.297025  0.702975  0.500000  1
  Sb  Sb15  1  0.202975  0.797025  0.000000  1
  Sb  Sb16  1  0.702975  0.297025  0.500000  1
  Sb  Sb17  1  0.797025  0.202975  0.000000  1
