# generated using pymatgen
data_Er4Ga18Co2IrPd3
_symmetry_space_group_name_H-M   'P 1'
_cell_length_a   7.54002244
_cell_length_b   7.54002150
_cell_length_c   9.43810646
_cell_angle_alpha   89.99674277
_cell_angle_beta   89.99675292
_cell_angle_gamma   119.63239694
_symmetry_Int_Tables_number   1
_chemical_formula_structural   Er4Ga18Co2IrPd3
_chemical_formula_sum   'Er4 Ga18 Co2 Ir1 Pd3'
_cell_volume   466.39893829
_cell_formula_units_Z   1
loop_
 _symmetry_equiv_pos_site_id
 _symmetry_equiv_pos_as_xyz
  1  'x, y, z'
loop_
 _atom_site_type_symbol
 _atom_site_label
 _atom_site_symmetry_multiplicity
 _atom_site_fract_x
 _atom_site_fract_y
 _atom_site_fract_z
 _atom_site_occupancy
  Er  Er0  1  0.987122  0.667445  0.750618  1
  Er  Er1  1  0.991950  0.317364  0.249671  1
  Er  Er2  1  0.682636  0.008050  0.750329  1
  Er  Er3  1  0.332555  0.012878  0.249382  1
  Ga  Ga4  1  0.136700  0.134090  0.750302  1
  Ga  Ga5  1  0.865910  0.863300  0.249698  1
  Ga  Ga6  1  0.014645  0.346961  0.578245  1
  Ga  Ga7  1  0.017276  0.664746  0.420090  1
  Ga  Ga8  1  0.014448  0.662739  0.078363  1
  Ga  Ga9  1  0.337261  0.985552  0.921637  1
  Ga  Ga10  1  0.011524  0.347032  0.923214  1
  Ga  Ga11  1  0.652968  0.988476  0.076786  1
  Ga  Ga12  1  0.653039  0.985355  0.421755  1
  Ga  Ga13  1  0.335254  0.982724  0.579910  1
  Ga  Ga14  1  0.335012  0.342790  0.065499  1
  Ga  Ga15  1  0.657210  0.664988  0.934501  1
  Ga  Ga16  1  0.656290  0.665533  0.568948  1
  Ga  Ga17  1  0.334467  0.343710  0.431052  1
  Ga  Ga18  1  0.337144  0.569436  0.750991  1
  Ga  Ga19  1  0.665384  0.462557  0.248264  1
  Ga  Ga20  1  0.537443  0.334616  0.751736  1
  Ga  Ga21  1  0.430564  0.662856  0.249009  1
  Co  Co22  1  0.331932  0.668068  0.500000  1
  Co  Co23  1  0.330648  0.669352  0.000000  1
  Ir  Ir24  1  0.673358  0.326642  0.000000  1
  Pd  Pd25  1  0.673273  0.326727  0.500000  1
  Pd  Pd26  1  0.002466  0.997534  0.500000  1
  Pd  Pd27  1  0.001520  0.998480  0.000000  1
