# generated using pymatgen
data_Ca6Zn2Ag14N
_symmetry_space_group_name_H-M   'P 1'
_cell_length_a   8.59700424
_cell_length_b   8.49114653
_cell_length_c   8.53974300
_cell_angle_alpha   109.32265736
_cell_angle_beta   109.82404753
_cell_angle_gamma   109.28815551
_symmetry_Int_Tables_number   1
_chemical_formula_structural   Ca6Zn2Ag14N
_chemical_formula_sum   'Ca6 Zn2 Ag14 N1'
_cell_volume   479.74866777
_cell_formula_units_Z   1
loop_
 _symmetry_equiv_pos_site_id
 _symmetry_equiv_pos_as_xyz
  1  'x, y, z'
loop_
 _atom_site_type_symbol
 _atom_site_label
 _atom_site_symmetry_multiplicity
 _atom_site_fract_x
 _atom_site_fract_y
 _atom_site_fract_z
 _atom_site_occupancy
  Ca  Ca0  1  0.001905  0.254172  0.254986  1
  Ca  Ca1  1  0.251860  0.998122  0.251754  1
  Ca  Ca2  1  0.746919  0.999186  0.745014  1
  Ca  Ca3  1  0.743571  0.745139  0.000000  1
  Ca  Ca4  1  0.252078  0.256619  0.000000  1
  Ca  Ca5  1  0.000106  0.746368  0.748246  1
  Zn  Zn6  1  0.683761  0.341532  0.341462  1
  Zn  Zn7  1  0.342298  0.000069  0.658538  1
  Ag  Ag8  1  0.500517  0.495358  0.495542  1
  Ag  Ag9  1  0.495672  0.005295  0.000000  1
  Ag  Ag10  1  0.999829  0.499675  0.000000  1
  Ag  Ag11  1  0.004974  0.999816  0.504458  1
  Ag  Ag12  1  0.350590  0.700082  0.349949  1
  Ag  Ag13  1  0.347790  0.342809  0.691741  1
  Ag  Ag14  1  0.346821  0.654085  0.000000  1
  Ag  Ag15  1  0.000640  0.350134  0.650051  1
  Ag  Ag16  1  0.003884  0.652558  0.351973  1
  Ag  Ag17  1  0.656048  0.651067  0.308259  1
  Ag  Ag18  1  0.656564  0.003699  0.345457  1
  Ag  Ag19  1  0.652449  0.345905  0.000000  1
  Ag  Ag20  1  0.651911  0.300586  0.648027  1
  Ag  Ag21  1  0.311107  0.658242  0.654543  1
  N  N22  1  0.998707  0.999481  0.000000  1
