# generated using pymatgen
data_Yb7NpPPd24
_symmetry_space_group_name_H-M   'P 1'
_cell_length_a   8.32918479
_cell_length_b   8.32918414
_cell_length_c   8.32918400
_cell_angle_alpha   89.53374175
_cell_angle_beta   89.53374179
_cell_angle_gamma   89.53373939
_symmetry_Int_Tables_number   1
_chemical_formula_structural   Yb7NpPPd24
_chemical_formula_sum   'Yb7 Np1 P1 Pd24'
_cell_volume   577.78266436
_cell_formula_units_Z   1
loop_
 _symmetry_equiv_pos_site_id
 _symmetry_equiv_pos_as_xyz
  1  'x, y, z'
loop_
 _atom_site_type_symbol
 _atom_site_label
 _atom_site_symmetry_multiplicity
 _atom_site_fract_x
 _atom_site_fract_y
 _atom_site_fract_z
 _atom_site_occupancy
  Yb  Yb0  1  0.745224  0.745224  0.745224  1
  Yb  Yb1  1  0.747499  0.747499  0.252202  1
  Yb  Yb2  1  0.747499  0.252202  0.747499  1
  Yb  Yb3  1  0.253988  0.253988  0.751032  1
  Yb  Yb4  1  0.253988  0.751032  0.253988  1
  Yb  Yb5  1  0.252202  0.747499  0.747499  1
  Yb  Yb6  1  0.751032  0.253988  0.253988  1
  Np  Np7  1  0.260131  0.260131  0.260131  1
  P  P8  1  0.991945  0.991945  0.991945  1
  Pd  Pd9  1  0.255589  0.494859  0.010205  1
  Pd  Pd10  1  0.744165  0.497240  0.999825  1
  Pd  Pd11  1  0.010205  0.255589  0.494859  1
  Pd  Pd12  1  0.494859  0.255589  0.010205  1
  Pd  Pd13  1  0.999825  0.744165  0.497240  1
  Pd  Pd14  1  0.497240  0.744165  0.999825  1
  Pd  Pd15  1  0.494859  0.010205  0.255589  1
  Pd  Pd16  1  0.255589  0.010205  0.494859  1
  Pd  Pd17  1  0.497240  0.999825  0.744165  1
  Pd  Pd18  1  0.744165  0.999825  0.497240  1
  Pd  Pd19  1  0.010205  0.494859  0.255589  1
  Pd  Pd20  1  0.999825  0.497240  0.744165  1
  Pd  Pd21  1  0.253441  0.497179  0.497179  1
  Pd  Pd22  1  0.749361  0.498914  0.498914  1
  Pd  Pd23  1  0.497179  0.253441  0.497179  1
  Pd  Pd24  1  0.498914  0.749361  0.498914  1
  Pd  Pd25  1  0.497179  0.497179  0.253441  1
  Pd  Pd26  1  0.498914  0.498914  0.749361  1
  Pd  Pd27  1  0.269455  0.005622  0.005622  1
  Pd  Pd28  1  0.719038  0.999000  0.999000  1
  Pd  Pd29  1  0.005622  0.269455  0.005622  1
  Pd  Pd30  1  0.999000  0.719038  0.999000  1
  Pd  Pd31  1  0.005622  0.005622  0.269455  1
  Pd  Pd32  1  0.999000  0.999000  0.719038  1
