# generated using pymatgen
data_Tb2NdCd3Pb2Au
_symmetry_space_group_name_H-M   'P 1'
_cell_length_a   7.62592270
_cell_length_b   7.62592152
_cell_length_c   4.64165600
_cell_angle_alpha   90.00000000
_cell_angle_beta   90.00000000
_cell_angle_gamma   120.48286768
_symmetry_Int_Tables_number   1
_chemical_formula_structural   Tb2NdCd3Pb2Au
_chemical_formula_sum   'Tb2 Nd1 Cd3 Pb2 Au1'
_cell_volume   232.62401006
_cell_formula_units_Z   1
loop_
 _symmetry_equiv_pos_site_id
 _symmetry_equiv_pos_as_xyz
  1  'x, y, z'
loop_
 _atom_site_type_symbol
 _atom_site_label
 _atom_site_symmetry_multiplicity
 _atom_site_fract_x
 _atom_site_fract_y
 _atom_site_fract_z
 _atom_site_occupancy
  Tb  Tb0  1  0.600014  0.000877  0.000000  1
  Tb  Tb1  1  0.000877  0.600014  0.000000  1
  Nd  Nd2  1  0.405305  0.405305  0.000000  1
  Cd  Cd3  1  0.233401  0.000314  0.500000  1
  Cd  Cd4  1  0.000314  0.233401  0.500000  1
  Cd  Cd5  1  0.764184  0.764184  0.500000  1
  Pb  Pb6  1  0.331467  0.670628  0.500000  1
  Pb  Pb7  1  0.670628  0.331467  0.500000  1
  Au  Au8  1  0.993810  0.993810  0.000000  1
