# generated using pymatgen
data_Y12TlCo4Cu
_symmetry_space_group_name_H-M   'P 1'
_cell_length_a   8.31584806
_cell_length_b   8.31584765
_cell_length_c   8.31584800
_cell_angle_alpha   111.19801332
_cell_angle_beta   110.69665544
_cell_angle_gamma   106.55809786
_symmetry_Int_Tables_number   1
_chemical_formula_structural   Y12TlCo4Cu
_chemical_formula_sum   'Y12 Tl1 Co4 Cu1'
_cell_volume   441.82631311
_cell_formula_units_Z   1
loop_
 _symmetry_equiv_pos_site_id
 _symmetry_equiv_pos_as_xyz
  1  'x, y, z'
loop_
 _atom_site_type_symbol
 _atom_site_label
 _atom_site_symmetry_multiplicity
 _atom_site_fract_x
 _atom_site_fract_y
 _atom_site_fract_z
 _atom_site_occupancy
  Y  Y0  1  0.415738  0.216135  0.199603  1
  Y  Y1  1  0.584262  0.783865  0.800397  1
  Y  Y2  1  0.016531  0.216135  0.800397  1
  Y  Y3  1  0.983469  0.783865  0.199603  1
  Y  Y4  1  0.186437  0.291085  0.477523  1
  Y  Y5  1  0.813563  0.708915  0.522477  1
  Y  Y6  1  0.186437  0.708915  0.895353  1
  Y  Y7  1  0.813563  0.291085  0.104647  1
  Y  Y8  1  0.314621  0.618445  0.303826  1
  Y  Y9  1  0.685379  0.381555  0.696174  1
  Y  Y10  1  0.314621  0.010796  0.696174  1
  Y  Y11  1  0.685379  0.989204  0.303826  1
  Tl  Tl12  1  0.500000  0.500000  0.000000  1
  Co  Co13  1  0.378990  0.000000  0.378990  1
  Co  Co14  1  0.621010  0.000000  0.621010  1
  Co  Co15  1  0.111504  0.611504  0.500000  1
  Co  Co16  1  0.888496  0.388496  0.500000  1
  Cu  Cu17  1  0.000000  0.000000  0.000000  1
