# generated using pymatgen
data_Nd6RuPtCl6
_symmetry_space_group_name_H-M   'P 1'
_cell_length_a   10.21475438
_cell_length_b   10.21474560
_cell_length_c   10.30357008
_cell_angle_alpha   109.44800552
_cell_angle_beta   109.44815441
_cell_angle_gamma   109.15562906
_symmetry_Int_Tables_number   1
_chemical_formula_structural   Nd6RuPtCl6
_chemical_formula_sum   'Nd12 Ru2 Pt2 Cl12'
_cell_volume   831.27170463
_cell_formula_units_Z   2
loop_
 _symmetry_equiv_pos_site_id
 _symmetry_equiv_pos_as_xyz
  1  'x, y, z'
loop_
 _atom_site_type_symbol
 _atom_site_label
 _atom_site_symmetry_multiplicity
 _atom_site_fract_x
 _atom_site_fract_y
 _atom_site_fract_z
 _atom_site_occupancy
  Nd  Nd0  1  0.477319  0.483641  0.242732  1
  Nd  Nd1  1  0.740928  0.234613  0.257258  1
  Nd  Nd2  1  0.741345  0.005598  0.482978  1
  Nd  Nd3  1  0.241623  0.477357  0.482954  1
  Nd  Nd4  1  0.265388  0.759072  0.242743  1
  Nd  Nd5  1  0.022643  0.258376  0.017046  1
  Nd  Nd6  1  0.016359  0.022681  0.257268  1
  Nd  Nd7  1  0.494401  0.758654  0.017022  1
  Nd  Nd8  1  0.488906  0.238912  0.477835  1
  Nd  Nd9  1  0.010417  0.489584  0.750001  1
  Nd  Nd10  1  0.261088  0.011095  0.022166  1
  Nd  Nd11  1  0.239583  0.260415  0.749999  1
  Ru  Ru12  1  0.250483  0.249517  0.250000  1
  Ru  Ru13  1  0.499523  0.000478  0.250000  1
  Pt  Pt14  1  0.999531  0.249532  0.499063  1
  Pt  Pt15  1  0.250468  0.500469  0.000938  1
  Cl  Cl16  1  0.250052  0.748668  0.750988  1
  Cl  Cl17  1  0.497678  0.499060  0.749006  1
  Cl  Cl18  1  0.997186  0.747719  0.997511  1
  Cl  Cl19  1  0.751331  0.249949  0.749011  1
  Cl  Cl20  1  0.000940  0.002320  0.750993  1
  Cl  Cl21  1  0.250204  0.999667  0.502501  1
  Cl  Cl22  1  0.752281  0.502814  0.502489  1
  Cl  Cl23  1  0.500333  0.249796  0.997499  1
  Cl  Cl24  1  0.749888  0.750111  0.250000  1
  Cl  Cl25  1  0.748605  0.998607  0.997198  1
  Cl  Cl26  1  0.000103  0.499898  0.250000  1
  Cl  Cl27  1  0.501393  0.751395  0.502802  1
