# generated using pymatgen
data_Ba8Nb6VO24
_symmetry_space_group_name_H-M   'P 1'
_cell_length_a   5.88038200
_cell_length_b   5.88038183
_cell_length_c   19.20717500
_cell_angle_alpha   90.00000000
_cell_angle_beta   90.00000000
_cell_angle_gamma   120.00000095
_symmetry_Int_Tables_number   1
_chemical_formula_structural   Ba8Nb6VO24
_chemical_formula_sum   'Ba8 Nb6 V1 O24'
_cell_volume   575.18186860
_cell_formula_units_Z   1
loop_
 _symmetry_equiv_pos_site_id
 _symmetry_equiv_pos_as_xyz
  1  'x, y, z'
loop_
 _atom_site_type_symbol
 _atom_site_label
 _atom_site_symmetry_multiplicity
 _atom_site_fract_x
 _atom_site_fract_y
 _atom_site_fract_z
 _atom_site_occupancy
  Ba  Ba0  1  0.666667  0.333333  0.317386  1
  Ba  Ba1  1  0.666667  0.333333  0.937876  1
  Ba  Ba2  1  0.333333  0.666667  0.062124  1
  Ba  Ba3  1  0.333333  0.666667  0.682614  1
  Ba  Ba4  1  0.333333  0.666667  0.455787  1
  Ba  Ba5  1  0.666667  0.333333  0.544213  1
  Ba  Ba6  1  0.000000  0.000000  0.813648  1
  Ba  Ba7  1  0.000000  0.000000  0.186352  1
  Nb  Nb8  1  0.000000  0.000000  0.385071  1
  Nb  Nb9  1  0.666667  0.333333  0.747018  1
  Nb  Nb10  1  0.000000  0.000000  0.614929  1
  Nb  Nb11  1  0.333333  0.666667  0.878701  1
  Nb  Nb12  1  0.333333  0.666667  0.252982  1
  Nb  Nb13  1  0.666667  0.333333  0.121299  1
  V  V14  1  0.000000  0.000000  0.000000  1
  O  O15  1  0.168975  0.831025  0.307023  1
  O  O16  1  0.337949  0.168975  0.692977  1
  O  O17  1  0.163836  0.836164  0.570632  1
  O  O18  1  0.836164  0.163836  0.429368  1
  O  O19  1  0.498708  0.501292  0.186731  1
  O  O20  1  0.501292  0.498708  0.813269  1
  O  O21  1  0.501292  0.002585  0.813269  1
  O  O22  1  0.997415  0.498708  0.813269  1
  O  O23  1  0.002585  0.501292  0.186731  1
  O  O24  1  0.498708  0.997415  0.186731  1
  O  O25  1  0.171902  0.828098  0.934847  1
  O  O26  1  0.327673  0.163836  0.429368  1
  O  O27  1  0.672327  0.836164  0.570632  1
  O  O28  1  0.168975  0.337949  0.307023  1
  O  O29  1  0.836164  0.672327  0.429368  1
  O  O30  1  0.828098  0.656196  0.065153  1
  O  O31  1  0.831025  0.662051  0.692977  1
  O  O32  1  0.662051  0.831025  0.307023  1
  O  O33  1  0.343804  0.171902  0.065153  1
  O  O34  1  0.828098  0.171902  0.065153  1
  O  O35  1  0.163836  0.327673  0.570632  1
  O  O36  1  0.171902  0.343804  0.934847  1
  O  O37  1  0.656196  0.828098  0.934847  1
  O  O38  1  0.831025  0.168975  0.692977  1
