# generated using pymatgen
data_Ba2AgClO2
_symmetry_space_group_name_H-M   'P 1'
_cell_length_a   4.30658300
_cell_length_b   4.30658337
_cell_length_c   30.49733700
_cell_angle_alpha   90.00000000
_cell_angle_beta   90.00000000
_cell_angle_gamma   119.99998946
_symmetry_Int_Tables_number   1
_chemical_formula_structural   Ba2AgClO2
_chemical_formula_sum   'Ba6 Ag3 Cl3 O6'
_cell_volume   489.84454676
_cell_formula_units_Z   3
loop_
 _symmetry_equiv_pos_site_id
 _symmetry_equiv_pos_as_xyz
  1  'x, y, z'
loop_
 _atom_site_type_symbol
 _atom_site_label
 _atom_site_symmetry_multiplicity
 _atom_site_fract_x
 _atom_site_fract_y
 _atom_site_fract_z
 _atom_site_occupancy
  Ba  Ba0  1  0.326798  0.987226  0.575351  1
  Ba  Ba1  1  0.660428  0.673202  0.242018  1
  Ba  Ba2  1  0.339572  0.012774  0.091315  1
  Ba  Ba3  1  0.673202  0.660428  0.757982  1
  Ba  Ba4  1  0.987226  0.326798  0.424649  1
  Ba  Ba5  1  0.012774  0.339572  0.908685  1
  Ag  Ag6  1  0.000000  0.323748  0.666667  1
  Ag  Ag7  1  0.676252  0.676252  0.000000  1
  Ag  Ag8  1  0.323748  0.000000  0.333333  1
  Cl  Cl9  1  0.000000  0.346436  0.166667  1
  Cl  Cl10  1  0.653564  0.653564  0.500000  1
  Cl  Cl11  1  0.346436  0.000000  0.833333  1
  O  O12  1  0.993291  0.320451  0.599321  1
  O  O13  1  0.679549  0.672841  0.932654  1
  O  O14  1  0.320451  0.993291  0.400679  1
  O  O15  1  0.006709  0.327159  0.734012  1
  O  O16  1  0.672841  0.679549  0.067346  1
  O  O17  1  0.327159  0.006709  0.265988  1
