# generated using pymatgen
data_La10Tc3Rh
_symmetry_space_group_name_H-M   'P 1'
_cell_length_a   9.09389042
_cell_length_b   9.04161015
_cell_length_c   7.43918126
_cell_angle_alpha   84.96510773
_cell_angle_beta   84.83436559
_cell_angle_gamma   43.58516246
_symmetry_Int_Tables_number   1
_chemical_formula_structural   La10Tc3Rh
_chemical_formula_sum   'La10 Tc3 Rh1'
_cell_volume   419.76902022
_cell_formula_units_Z   1
loop_
 _symmetry_equiv_pos_site_id
 _symmetry_equiv_pos_as_xyz
  1  'x, y, z'
loop_
 _atom_site_type_symbol
 _atom_site_label
 _atom_site_symmetry_multiplicity
 _atom_site_fract_x
 _atom_site_fract_y
 _atom_site_fract_z
 _atom_site_occupancy
  La  La0  1  0.023244  0.793024  0.903994  1
  La  La1  1  0.207479  0.979139  0.595349  1
  La  La2  1  0.982753  0.207043  0.097108  1
  La  La3  1  0.801557  0.014631  0.411847  1
  La  La4  1  0.358005  0.209935  0.814114  1
  La  La5  1  0.788856  0.641103  0.682596  1
  La  La6  1  0.639422  0.786082  0.181168  1
  La  La7  1  0.204897  0.364885  0.318998  1
  La  La8  1  0.579868  0.423025  0.747189  1
  La  La9  1  0.420838  0.578463  0.250067  1
  Tc  Tc10  1  0.174663  0.605443  0.579499  1
  Tc  Tc11  1  0.392265  0.829899  0.923488  1
  Tc  Tc12  1  0.828146  0.391220  0.416974  1
  Rh  Rh13  1  0.598007  0.176108  0.077607  1
