# generated using pymatgen
data_Mg8SnPd3O16
_symmetry_space_group_name_H-M   'P 1'
_cell_length_a   6.10133800
_cell_length_b   6.12392049
_cell_length_c   8.60839432
_cell_angle_alpha   89.87614322
_cell_angle_beta   90.00000000
_cell_angle_gamma   90.00000000
_symmetry_Int_Tables_number   1
_chemical_formula_structural   Mg8SnPd3O16
_chemical_formula_sum   'Mg8 Sn1 Pd3 O16'
_cell_volume   321.64423035
_cell_formula_units_Z   1
loop_
 _symmetry_equiv_pos_site_id
 _symmetry_equiv_pos_as_xyz
  1  'x, y, z'
loop_
 _atom_site_type_symbol
 _atom_site_label
 _atom_site_symmetry_multiplicity
 _atom_site_fract_x
 _atom_site_fract_y
 _atom_site_fract_z
 _atom_site_occupancy
  Mg  Mg0  1  0.000715  0.239556  0.996755  1
  Mg  Mg1  1  0.000715  0.760444  0.503245  1
  Mg  Mg2  1  0.244017  0.000000  0.750000  1
  Mg  Mg3  1  0.253707  0.244268  0.374897  1
  Mg  Mg4  1  0.253707  0.755732  0.125103  1
  Mg  Mg5  1  0.748408  0.251036  0.627526  1
  Mg  Mg6  1  0.748408  0.748964  0.872474  1
  Mg  Mg7  1  0.756126  0.000000  0.250000  1
  Sn  Sn8  1  0.763151  0.500000  0.250000  1
  Pd  Pd9  1  0.245538  0.500000  0.750000  1
  Pd  Pd10  1  0.498017  0.246416  0.998214  1
  Pd  Pd11  1  0.498017  0.753584  0.501786  1
  O  O12  1  0.020125  0.256223  0.754896  1
  O  O13  1  0.020125  0.743777  0.745104  1
  O  O14  1  0.251972  0.479932  0.987380  1
  O  O15  1  0.251972  0.520068  0.512620  1
  O  O16  1  0.257630  0.019234  0.991047  1
  O  O17  1  0.257630  0.980766  0.508953  1
  O  O18  1  0.477267  0.253331  0.762429  1
  O  O19  1  0.477267  0.746669  0.737571  1
  O  O20  1  0.518537  0.252568  0.235673  1
  O  O21  1  0.518537  0.747432  0.264327  1
  O  O22  1  0.740715  0.980997  0.495401  1
  O  O23  1  0.740715  0.019003  0.004599  1
  O  O24  1  0.742833  0.480469  0.007628  1
  O  O25  1  0.742833  0.519531  0.492372  1
  O  O26  1  0.985657  0.250709  0.245445  1
  O  O27  1  0.985657  0.749291  0.254555  1
