# generated using pymatgen
data_ZnIr2(RhO4)3
_symmetry_space_group_name_H-M   'P 1'
_cell_length_a   4.56840067
_cell_length_b   4.56840067
_cell_length_c   9.45512000
_cell_angle_alpha   90.00000000
_cell_angle_beta   90.00000000
_cell_angle_gamma   89.69046902
_symmetry_Int_Tables_number   1
_chemical_formula_structural   ZnIr2(RhO4)3
_chemical_formula_sum   'Zn1 Ir2 Rh3 O12'
_cell_volume   197.32816620
_cell_formula_units_Z   1
loop_
 _symmetry_equiv_pos_site_id
 _symmetry_equiv_pos_as_xyz
  1  'x, y, z'
loop_
 _atom_site_type_symbol
 _atom_site_label
 _atom_site_symmetry_multiplicity
 _atom_site_fract_x
 _atom_site_fract_y
 _atom_site_fract_z
 _atom_site_occupancy
  Zn  Zn0  1  0.000000  0.000000  0.333689  1
  Ir  Ir1  1  0.000000  0.000000  0.000875  1
  Ir  Ir2  1  0.500000  0.500000  0.500054  1
  Rh  Rh3  1  0.000000  0.000000  0.665944  1
  Rh  Rh4  1  0.500000  0.500000  0.833363  1
  Rh  Rh5  1  0.500000  0.500000  0.166077  1
  O  O6  1  0.301955  0.301955  0.998862  1
  O  O7  1  0.698045  0.698045  0.998862  1
  O  O8  1  0.201508  0.798492  0.503661  1
  O  O9  1  0.798492  0.201508  0.503661  1
  O  O10  1  0.315046  0.315046  0.335217  1
  O  O11  1  0.690954  0.690954  0.666116  1
  O  O12  1  0.684954  0.684954  0.335217  1
  O  O13  1  0.191358  0.808642  0.834820  1
  O  O14  1  0.193443  0.806557  0.161322  1
  O  O15  1  0.309046  0.309046  0.666116  1
  O  O16  1  0.806557  0.193443  0.161322  1
  O  O17  1  0.808642  0.191358  0.834820  1
