# generated using pymatgen
data_Tb3DyVOs7
_symmetry_space_group_name_H-M   'P 1'
_cell_length_a   5.24828900
_cell_length_b   5.24828652
_cell_length_c   8.89652300
_cell_angle_alpha   89.99840259
_cell_angle_beta   90.00157173
_cell_angle_gamma   117.23098058
_symmetry_Int_Tables_number   1
_chemical_formula_structural   Tb3DyVOs7
_chemical_formula_sum   'Tb3 Dy1 V1 Os7'
_cell_volume   217.89132401
_cell_formula_units_Z   1
loop_
 _symmetry_equiv_pos_site_id
 _symmetry_equiv_pos_as_xyz
  1  'x, y, z'
loop_
 _atom_site_type_symbol
 _atom_site_label
 _atom_site_symmetry_multiplicity
 _atom_site_fract_x
 _atom_site_fract_y
 _atom_site_fract_z
 _atom_site_occupancy
  Tb  Tb0  1  0.330579  0.669421  0.436922  1
  Tb  Tb1  1  0.668606  0.331394  0.565973  1
  Tb  Tb2  1  0.668609  0.331392  0.934062  1
  Dy  Dy3  1  0.330515  0.669486  0.063052  1
  V  V4  1  0.835260  0.164735  0.249861  1
  Os  Os5  1  0.996094  0.003906  0.498704  1
  Os  Os6  1  0.996135  0.003866  0.001360  1
  Os  Os7  1  0.824128  0.651170  0.249745  1
  Os  Os8  1  0.348831  0.175873  0.249745  1
  Os  Os9  1  0.170604  0.829397  0.750239  1
  Os  Os10  1  0.174636  0.343996  0.750168  1
  Os  Os11  1  0.656004  0.825363  0.750169  1
