# generated using pymatgen
data_Nb12Ga7RhN4
_symmetry_space_group_name_H-M   'P 1'
_cell_length_a   7.05561728
_cell_length_b   7.05561704
_cell_length_c   7.05561686
_cell_angle_alpha   89.81204133
_cell_angle_beta   90.18795836
_cell_angle_gamma   90.18796426
_symmetry_Int_Tables_number   1
_chemical_formula_structural   Nb12Ga7RhN4
_chemical_formula_sum   'Nb12 Ga7 Rh1 N4'
_cell_volume   351.23518048
_cell_formula_units_Z   1
loop_
 _symmetry_equiv_pos_site_id
 _symmetry_equiv_pos_as_xyz
  1  'x, y, z'
loop_
 _atom_site_type_symbol
 _atom_site_label
 _atom_site_symmetry_multiplicity
 _atom_site_fract_x
 _atom_site_fract_y
 _atom_site_fract_z
 _atom_site_occupancy
  Nb  Nb0  1  0.792862  0.956908  0.373832  1
  Nb  Nb1  1  0.707571  0.043750  0.876568  1
  Nb  Nb2  1  0.206973  0.455567  0.122063  1
  Nb  Nb3  1  0.294139  0.545060  0.628510  1
  Nb  Nb4  1  0.956250  0.376568  0.792429  1
  Nb  Nb5  1  0.043092  0.873832  0.707138  1
  Nb  Nb6  1  0.454940  0.128510  0.205861  1
  Nb  Nb7  1  0.544433  0.622063  0.293027  1
  Nb  Nb8  1  0.377937  0.793027  0.955567  1
  Nb  Nb9  1  0.871490  0.705861  0.045060  1
  Nb  Nb10  1  0.126168  0.207138  0.456908  1
  Nb  Nb11  1  0.623432  0.292429  0.543750  1
  Ga  Ga12  1  0.319908  0.175640  0.819818  1
  Ga  Ga13  1  0.824360  0.319818  0.180092  1
  Ga  Ga14  1  0.680182  0.680092  0.675640  1
  Ga  Ga15  1  0.569431  0.430569  0.930569  1
  Ga  Ga16  1  0.422473  0.927236  0.561044  1
  Ga  Ga17  1  0.938956  0.577527  0.427236  1
  Ga  Ga18  1  0.072764  0.061044  0.077527  1
  Rh  Rh19  1  0.181334  0.818666  0.318666  1
  N  N20  1  0.875558  0.124442  0.624442  1
  N  N21  1  0.621867  0.876953  0.129169  1
  N  N22  1  0.123047  0.629169  0.878133  1
  N  N23  1  0.370831  0.378133  0.376953  1
