# generated using pymatgen
data_TbTh2Co9(CuB2)2
_symmetry_space_group_name_H-M   'P 1'
_cell_length_a   5.08438600
_cell_length_b   5.08507376
_cell_length_c   9.89694300
_cell_angle_alpha   89.99943457
_cell_angle_beta   90.00115355
_cell_angle_gamma   119.99553906
_symmetry_Int_Tables_number   1
_chemical_formula_structural   TbTh2Co9(CuB2)2
_chemical_formula_sum   'Tb1 Th2 Co9 Cu2 B4'
_cell_volume   221.60879491
_cell_formula_units_Z   1
loop_
 _symmetry_equiv_pos_site_id
 _symmetry_equiv_pos_as_xyz
  1  'x, y, z'
loop_
 _atom_site_type_symbol
 _atom_site_label
 _atom_site_symmetry_multiplicity
 _atom_site_fract_x
 _atom_site_fract_y
 _atom_site_fract_z
 _atom_site_occupancy
  Tb  Tb0  1  0.000208  0.000000  0.656119  1
  Th  Th1  1  0.999315  0.000000  0.993097  1
  Th  Th2  1  0.000229  0.000000  0.339780  1
  Co  Co3  1  0.500213  0.000000  0.501923  1
  Co  Co4  1  0.500202  0.500009  0.501914  1
  Co  Co5  1  0.000193  0.499991  0.501914  1
  Co  Co6  1  0.500129  0.000000  0.208343  1
  Co  Co7  1  0.500092  0.500037  0.208492  1
  Co  Co8  1  0.000054  0.499963  0.208492  1
  Co  Co9  1  0.500098  0.000000  0.791564  1
  Co  Co10  1  0.500070  0.500028  0.791445  1
  Co  Co11  1  0.000042  0.499972  0.791445  1
  Cu  Cu12  1  0.332145  0.665830  0.000141  1
  Cu  Cu13  1  0.666314  0.334170  0.000141  1
  B  B14  1  0.333525  0.666728  0.351361  1
  B  B15  1  0.666797  0.333272  0.351361  1
  B  B16  1  0.666753  0.333232  0.651236  1
  B  B17  1  0.333520  0.666768  0.651236  1
