# generated using pymatgen
data_Ho8Ti9Nb2Si16W
_symmetry_space_group_name_H-M   'P 1'
_cell_length_a   7.02523013
_cell_length_b   7.02393003
_cell_length_c   12.92774783
_cell_angle_alpha   90.11698227
_cell_angle_beta   89.95949718
_cell_angle_gamma   90.05974090
_symmetry_Int_Tables_number   1
_chemical_formula_structural   Ho8Ti9Nb2Si16W
_chemical_formula_sum   'Ho8 Ti9 Nb2 Si16 W1'
_cell_volume   637.91432554
_cell_formula_units_Z   1
loop_
 _symmetry_equiv_pos_site_id
 _symmetry_equiv_pos_as_xyz
  1  'x, y, z'
loop_
 _atom_site_type_symbol
 _atom_site_label
 _atom_site_symmetry_multiplicity
 _atom_site_fract_x
 _atom_site_fract_y
 _atom_site_fract_z
 _atom_site_occupancy
  Ho  Ho0  1  0.341298  0.002472  0.467270  1
  Ho  Ho1  1  0.497771  0.840344  0.717197  1
  Ho  Ho2  1  0.500761  0.159624  0.215666  1
  Ho  Ho3  1  0.840734  0.498227  0.282591  1
  Ho  Ho4  1  0.159826  0.501274  0.784436  1
  Ho  Ho5  1  0.658865  0.998398  0.967571  1
  Ho  Ho6  1  0.002515  0.340718  0.532722  1
  Ho  Ho7  1  0.998518  0.658567  0.032499  1
  Ti  Ti8  1  0.826743  0.173925  0.750676  1
  Ti  Ti9  1  0.154301  0.009215  0.876797  1
  Ti  Ti10  1  0.490871  0.652883  0.124398  1
  Ti  Ti11  1  0.507554  0.348728  0.625458  1
  Ti  Ti12  1  0.651917  0.491589  0.875983  1
  Ti  Ti13  1  0.347838  0.508455  0.374229  1
  Ti  Ti14  1  0.847975  0.991238  0.375403  1
  Ti  Ti15  1  0.009021  0.153009  0.123630  1
  Ti  Ti16  1  0.991326  0.846933  0.624147  1
  Nb  Nb17  1  0.173808  0.826733  0.249310  1
  Nb  Nb18  1  0.673454  0.673377  0.500076  1
  Si  Si19  1  0.202205  0.130560  0.684459  1
  Si  Si20  1  0.369722  0.700848  0.934217  1
  Si  Si21  1  0.630592  0.295994  0.434217  1
  Si  Si22  1  0.700820  0.369747  0.065388  1
  Si  Si23  1  0.296073  0.630398  0.566150  1
  Si  Si24  1  0.796278  0.869770  0.183426  1
  Si  Si25  1  0.130595  0.203961  0.315916  1
  Si  Si26  1  0.869588  0.797828  0.816297  1
  Si  Si27  1  0.292152  0.954743  0.063103  1
  Si  Si28  1  0.547089  0.792582  0.313279  1
  Si  Si29  1  0.452634  0.208207  0.816043  1
  Si  Si30  1  0.792845  0.545913  0.686694  1
  Si  Si31  1  0.208324  0.451506  0.184068  1
  Si  Si32  1  0.708390  0.048387  0.565274  1
  Si  Si33  1  0.953980  0.290913  0.935447  1
  Si  Si34  1  0.047692  0.707185  0.436043  1
  W  W35  1  0.325927  0.325753  0.999924  1
