# generated using pymatgen
data_Ba3Sr5(In4Au3)4
_symmetry_space_group_name_H-M   'P 1'
_cell_length_a   15.26413700
_cell_length_b   15.26413826
_cell_length_c   4.76943800
_cell_angle_alpha   90.00000000
_cell_angle_beta   90.00000000
_cell_angle_gamma   120.00000377
_symmetry_Int_Tables_number   1
_chemical_formula_structural   Ba3Sr5(In4Au3)4
_chemical_formula_sum   'Ba3 Sr5 In16 Au12'
_cell_volume   962.37064932
_cell_formula_units_Z   1
loop_
 _symmetry_equiv_pos_site_id
 _symmetry_equiv_pos_as_xyz
  1  'x, y, z'
loop_
 _atom_site_type_symbol
 _atom_site_label
 _atom_site_symmetry_multiplicity
 _atom_site_fract_x
 _atom_site_fract_y
 _atom_site_fract_z
 _atom_site_occupancy
  Ba  Ba0  1  0.818227  0.000000  0.500000  1
  Ba  Ba1  1  0.000000  0.818227  0.500000  1
  Ba  Ba2  1  0.181773  0.181773  0.500000  1
  Sr  Sr3  1  0.451135  0.000000  0.000000  1
  Sr  Sr4  1  0.000000  0.451135  0.000000  1
  Sr  Sr5  1  0.548865  0.548865  0.000000  1
  Sr  Sr6  1  0.333333  0.666667  0.000000  1
  Sr  Sr7  1  0.666667  0.333333  0.000000  1
  In  In8  1  0.184485  0.383847  0.000000  1
  In  In9  1  0.616153  0.800639  0.000000  1
  In  In10  1  0.383847  0.184485  0.000000  1
  In  In11  1  0.199361  0.815515  0.000000  1
  In  In12  1  0.800639  0.616153  0.000000  1
  In  In13  1  0.815515  0.199361  0.000000  1
  In  In14  1  0.280870  0.000000  0.500000  1
  In  In15  1  0.000000  0.280870  0.500000  1
  In  In16  1  0.719130  0.719130  0.500000  1
  In  In17  1  0.350379  0.474154  0.500000  1
  In  In18  1  0.525846  0.876226  0.500000  1
  In  In19  1  0.474154  0.350379  0.500000  1
  In  In20  1  0.123774  0.649621  0.500000  1
  In  In21  1  0.876226  0.525846  0.500000  1
  In  In22  1  0.649621  0.123774  0.500000  1
  In  In23  1  0.000000  0.000000  0.000000  1
  Au  Au24  1  0.172710  0.490525  0.500000  1
  Au  Au25  1  0.509475  0.682185  0.500000  1
  Au  Au26  1  0.490525  0.172710  0.500000  1
  Au  Au27  1  0.317815  0.827290  0.500000  1
  Au  Au28  1  0.682185  0.509475  0.500000  1
  Au  Au29  1  0.827290  0.317815  0.500000  1
  Au  Au30  1  0.182854  0.000000  0.000000  1
  Au  Au31  1  0.000000  0.182854  0.000000  1
  Au  Au32  1  0.817146  0.817146  0.000000  1
  Au  Au33  1  0.654127  0.000000  0.000000  1
  Au  Au34  1  0.000000  0.654127  0.000000  1
  Au  Au35  1  0.345873  0.345873  0.000000  1
