# generated using pymatgen
data_DyY3(Ti3Si4)2
_symmetry_space_group_name_H-M   'P 1'
_cell_length_a   7.06194900
_cell_length_b   7.06194500
_cell_length_c   12.98171800
_cell_angle_alpha   90.00304799
_cell_angle_beta   90.00032558
_cell_angle_gamma   89.99902640
_symmetry_Int_Tables_number   1
_chemical_formula_structural   DyY3(Ti3Si4)2
_chemical_formula_sum   'Dy2 Y6 Ti12 Si16'
_cell_volume   647.41249672
_cell_formula_units_Z   2
loop_
 _symmetry_equiv_pos_site_id
 _symmetry_equiv_pos_as_xyz
  1  'x, y, z'
loop_
 _atom_site_type_symbol
 _atom_site_label
 _atom_site_symmetry_multiplicity
 _atom_site_fract_x
 _atom_site_fract_y
 _atom_site_fract_z
 _atom_site_occupancy
  Dy  Dy0  1  0.497469  0.840307  0.716562  1
  Dy  Dy1  1  0.340280  0.002525  0.466575  1
  Y  Y2  1  0.997430  0.659731  0.033403  1
  Y  Y3  1  0.002622  0.340223  0.533388  1
  Y  Y4  1  0.659731  0.997409  0.966580  1
  Y  Y5  1  0.159765  0.502607  0.783396  1
  Y  Y6  1  0.840267  0.497433  0.283399  1
  Y  Y7  1  0.502571  0.159735  0.216618  1
  Ti  Ti8  1  0.347776  0.508504  0.373419  1
  Ti  Ti9  1  0.847800  0.991500  0.376543  1
  Ti  Ti10  1  0.008485  0.152207  0.123436  1
  Ti  Ti11  1  0.991548  0.847821  0.623417  1
  Ti  Ti12  1  0.508505  0.347707  0.626549  1
  Ti  Ti13  1  0.152242  0.008519  0.876540  1
  Ti  Ti14  1  0.672827  0.672995  0.500017  1
  Ti  Ti15  1  0.827056  0.172884  0.750000  1
  Ti  Ti16  1  0.172966  0.827064  0.250047  1
  Ti  Ti17  1  0.327069  0.327092  0.000003  1
  Ti  Ti18  1  0.491490  0.652211  0.126561  1
  Ti  Ti19  1  0.652227  0.491542  0.873414  1
  Si  Si20  1  0.047054  0.709289  0.435074  1
  Si  Si21  1  0.953031  0.290762  0.935060  1
  Si  Si22  1  0.709087  0.046897  0.564975  1
  Si  Si23  1  0.209252  0.453064  0.185089  1
  Si  Si24  1  0.790706  0.547014  0.685093  1
  Si  Si25  1  0.453045  0.209157  0.814912  1
  Si  Si26  1  0.546865  0.790810  0.314979  1
  Si  Si27  1  0.290770  0.953004  0.064925  1
  Si  Si28  1  0.797546  0.869881  0.184804  1
  Si  Si29  1  0.297616  0.630254  0.565204  1
  Si  Si30  1  0.702438  0.369918  0.065199  1
  Si  Si31  1  0.630005  0.297500  0.434799  1
  Si  Si32  1  0.369937  0.702465  0.934785  1
  Si  Si33  1  0.130187  0.202406  0.315251  1
  Si  Si34  1  0.202513  0.129989  0.684798  1
  Si  Si35  1  0.869822  0.797578  0.815184  1
