# generated using pymatgen
data_Cs3Zr6BBr15
_symmetry_space_group_name_H-M   'P 1'
_cell_length_a   13.29143044
_cell_length_b   13.29143016
_cell_length_c   14.42466600
_cell_angle_alpha   117.43349641
_cell_angle_beta   117.43350065
_cell_angle_gamma   59.99999977
_symmetry_Int_Tables_number   1
_chemical_formula_structural   Cs3Zr6BBr15
_chemical_formula_sum   'Cs6 Zr12 B2 Br30'
_cell_volume   1868.67876382
_cell_formula_units_Z   2
loop_
 _symmetry_equiv_pos_site_id
 _symmetry_equiv_pos_as_xyz
  1  'x, y, z'
loop_
 _atom_site_type_symbol
 _atom_site_label
 _atom_site_symmetry_multiplicity
 _atom_site_fract_x
 _atom_site_fract_y
 _atom_site_fract_z
 _atom_site_occupancy
  Cs  Cs0  1  0.500000  0.000000  0.000000  1
  Cs  Cs1  1  0.000000  0.500000  0.000000  1
  Cs  Cs2  1  0.500000  0.500000  0.000000  1
  Cs  Cs3  1  0.000000  0.000000  0.500000  1
  Cs  Cs4  1  0.500000  0.000000  0.500000  1
  Cs  Cs5  1  0.000000  0.500000  0.500000  1
  Zr  Zr6  1  0.175854  0.044593  0.110627  1
  Zr  Zr7  1  0.890180  0.175855  0.110627  1
  Zr  Zr8  1  0.044592  0.890181  0.110627  1
  Zr  Zr9  1  0.455407  0.324145  0.389373  1
  Zr  Zr10  1  0.609819  0.455408  0.389373  1
  Zr  Zr11  1  0.324145  0.609819  0.389373  1
  Zr  Zr12  1  0.675856  0.390181  0.610627  1
  Zr  Zr13  1  0.390182  0.544592  0.610627  1
  Zr  Zr14  1  0.544592  0.675855  0.610627  1
  Zr  Zr15  1  0.955409  0.109819  0.889373  1
  Zr  Zr16  1  0.109819  0.824146  0.889373  1
  Zr  Zr17  1  0.824145  0.955407  0.889373  1
  B  B18  1  0.000000  0.000000  0.000000  1
  B  B19  1  0.500000  0.500000  0.500000  1
  Br  Br20  1  0.825619  0.335317  0.003903  1
  Br  Br21  1  0.842967  0.825619  0.003903  1
  Br  Br22  1  0.335316  0.842968  0.003903  1
  Br  Br23  1  0.576302  0.244980  0.245339  1
  Br  Br24  1  0.244981  0.424056  0.245339  1
  Br  Br25  1  0.424057  0.576301  0.245339  1
  Br  Br26  1  0.405358  0.094642  0.250000  1
  Br  Br27  1  0.750000  0.405357  0.250000  1
  Br  Br28  1  0.094642  0.750001  0.250000  1
  Br  Br29  1  0.923698  0.075945  0.254662  1
  Br  Br30  1  0.075944  0.255020  0.254662  1
  Br  Br31  1  0.255020  0.923698  0.254662  1
  Br  Br32  1  0.657032  0.164684  0.496097  1
  Br  Br33  1  0.674380  0.657033  0.496097  1
  Br  Br34  1  0.164683  0.674380  0.496097  1
  Br  Br35  1  0.835317  0.325620  0.503903  1
  Br  Br36  1  0.325620  0.342967  0.503903  1
  Br  Br37  1  0.342967  0.835317  0.503903  1
  Br  Br38  1  0.744981  0.076301  0.745338  1
  Br  Br39  1  0.924055  0.744981  0.745338  1
  Br  Br40  1  0.076301  0.924056  0.745338  1
  Br  Br41  1  0.905357  0.250000  0.749999  1
  Br  Br42  1  0.249999  0.594643  0.749999  1
  Br  Br43  1  0.594643  0.905357  0.749999  1
  Br  Br44  1  0.575944  0.423698  0.754661  1
  Br  Br45  1  0.755019  0.575943  0.754661  1
  Br  Br46  1  0.423698  0.755019  0.754661  1
  Br  Br47  1  0.664684  0.157033  0.996096  1
  Br  Br48  1  0.157033  0.174381  0.996096  1
  Br  Br49  1  0.174381  0.664683  0.996096  1
