# generated using pymatgen
data_GaNi4Mo7C2
_symmetry_space_group_name_H-M   'P 1'
_cell_length_a   7.98194158
_cell_length_b   7.92109065
_cell_length_c   7.98190847
_cell_angle_alpha   60.25125486
_cell_angle_beta   60.63498406
_cell_angle_gamma   60.25126496
_symmetry_Int_Tables_number   1
_chemical_formula_structural   GaNi4Mo7C2
_chemical_formula_sum   'Ga2 Ni8 Mo14 C4'
_cell_volume   359.89928555
_cell_formula_units_Z   2
loop_
 _symmetry_equiv_pos_site_id
 _symmetry_equiv_pos_as_xyz
  1  'x, y, z'
loop_
 _atom_site_type_symbol
 _atom_site_label
 _atom_site_symmetry_multiplicity
 _atom_site_fract_x
 _atom_site_fract_y
 _atom_site_fract_z
 _atom_site_occupancy
  Ga  Ga0  1  0.125000  0.125000  0.125000  1
  Ga  Ga1  1  0.125000  0.625000  0.125000  1
  Ni  Ni2  1  0.921027  0.913126  0.252731  1
  Ni  Ni3  1  0.328774  0.337284  0.328762  1
  Ni  Ni4  1  0.252723  0.913138  0.921009  1
  Ni  Ni5  1  0.328767  0.005163  0.328755  1
  Ni  Ni6  1  0.997277  0.336862  0.328991  1
  Ni  Ni7  1  0.328973  0.336874  0.997269  1
  Ni  Ni8  1  0.921226  0.912716  0.921238  1
  Ni  Ni9  1  0.921233  0.244837  0.921245  1
  Mo  Mo10  1  0.682177  0.311533  0.314862  1
  Mo  Mo11  1  0.935140  0.938461  0.567818  1
  Mo  Mo12  1  0.682173  0.691428  0.314864  1
  Mo  Mo13  1  0.694211  0.305768  0.694252  1
  Mo  Mo14  1  0.318626  0.681368  0.318633  1
  Mo  Mo15  1  0.555789  0.944232  0.555748  1
  Mo  Mo16  1  0.567823  0.938467  0.935138  1
  Mo  Mo17  1  0.935138  0.558580  0.567822  1
  Mo  Mo18  1  0.931374  0.568632  0.931367  1
  Mo  Mo19  1  0.314860  0.311539  0.682182  1
  Mo  Mo20  1  0.567827  0.558572  0.935136  1
  Mo  Mo21  1  0.625000  0.125000  0.125000  1
  Mo  Mo22  1  0.125000  0.125000  0.625000  1
  Mo  Mo23  1  0.314862  0.691420  0.682178  1
  C  C24  1  0.625000  0.625000  0.625000  1
  C  C25  1  0.625000  0.625000  0.125000  1
  C  C26  1  0.125000  0.625000  0.625000  1
  C  C27  1  0.625000  0.125000  0.625000  1
