# generated using pymatgen
data_YbCeDy2(B4Ru)4
_symmetry_space_group_name_H-M   'P 1'
_cell_length_a   3.56864800
_cell_length_b   5.96116046
_cell_length_c   11.54671642
_cell_angle_alpha   90.07519864
_cell_angle_beta   90.00000000
_cell_angle_gamma   90.00000000
_symmetry_Int_Tables_number   1
_chemical_formula_structural   YbCeDy2(B4Ru)4
_chemical_formula_sum   'Yb1 Ce1 Dy2 B16 Ru4'
_cell_volume   245.63635880
_cell_formula_units_Z   1
loop_
 _symmetry_equiv_pos_site_id
 _symmetry_equiv_pos_as_xyz
  1  'x, y, z'
loop_
 _atom_site_type_symbol
 _atom_site_label
 _atom_site_symmetry_multiplicity
 _atom_site_fract_x
 _atom_site_fract_y
 _atom_site_fract_z
 _atom_site_occupancy
  Yb  Yb0  1  0.500000  0.870894  0.649654  1
  Ce  Ce1  1  0.500000  0.628448  0.150324  1
  Dy  Dy2  1  0.500000  0.370702  0.847597  1
  Dy  Dy3  1  0.500000  0.127407  0.352547  1
  B  B4  1  0.000000  0.976342  0.191425  1
  B  B5  1  0.000000  0.024711  0.807451  1
  B  B6  1  0.000000  0.475532  0.309956  1
  B  B7  1  0.000000  0.524256  0.691151  1
  B  B8  1  0.000000  0.788076  0.315840  1
  B  B9  1  0.000000  0.211670  0.684833  1
  B  B10  1  0.000000  0.287065  0.185567  1
  B  B11  1  0.000000  0.714226  0.813134  1
  B  B12  1  0.000000  0.863158  0.470360  1
  B  B13  1  0.000000  0.136043  0.530721  1
  B  B14  1  0.000000  0.363535  0.030056  1
  B  B15  1  0.000000  0.636809  0.968568  1
  B  B16  1  0.000000  0.889598  0.045670  1
  B  B17  1  0.000000  0.111727  0.951789  1
  B  B18  1  0.000000  0.387653  0.454911  1
  B  B19  1  0.000000  0.613339  0.547364  1
  Ru  Ru20  1  0.500000  0.638976  0.407821  1
  Ru  Ru21  1  0.500000  0.360969  0.591493  1
  Ru  Ru22  1  0.500000  0.139570  0.093212  1
  Ru  Ru23  1  0.500000  0.859291  0.908555  1
