# generated using pymatgen
data_HfZr2Nb3(B2Ru5)2
_symmetry_space_group_name_H-M   'P 1'
_cell_length_a   9.49188610
_cell_length_b   9.48979290
_cell_length_c   3.09428300
_cell_angle_alpha   90.00000000
_cell_angle_beta   90.00000000
_cell_angle_gamma   89.98350335
_symmetry_Int_Tables_number   1
_chemical_formula_structural   HfZr2Nb3(B2Ru5)2
_chemical_formula_sum   'Hf1 Zr2 Nb3 B4 Ru10'
_cell_volume   278.72072722
_cell_formula_units_Z   1
loop_
 _symmetry_equiv_pos_site_id
 _symmetry_equiv_pos_as_xyz
  1  'x, y, z'
loop_
 _atom_site_type_symbol
 _atom_site_label
 _atom_site_symmetry_multiplicity
 _atom_site_fract_x
 _atom_site_fract_y
 _atom_site_fract_z
 _atom_site_occupancy
  Hf  Hf0  1  0.176838  0.324022  0.000000  1
  Zr  Zr1  1  0.824326  0.676351  0.000000  1
  Zr  Zr2  1  0.323809  0.823962  0.000000  1
  Nb  Nb3  1  0.677044  0.177202  0.000000  1
  Nb  Nb4  1  0.499504  0.499752  0.000000  1
  Nb  Nb5  1  0.000082  0.000468  0.000000  1
  B  B6  1  0.621109  0.878771  0.000000  1
  B  B7  1  0.378456  0.121458  0.000000  1
  B  B8  1  0.120870  0.620655  0.000000  1
  B  B9  1  0.878272  0.378071  0.000000  1
  Ru  Ru10  1  0.570808  0.718993  0.500000  1
  Ru  Ru11  1  0.432184  0.280870  0.500000  1
  Ru  Ru12  1  0.069933  0.781127  0.500000  1
  Ru  Ru13  1  0.926126  0.217081  0.500000  1
  Ru  Ru14  1  0.281109  0.568670  0.500000  1
  Ru  Ru15  1  0.717052  0.424964  0.500000  1
  Ru  Ru16  1  0.218548  0.072196  0.500000  1
  Ru  Ru17  1  0.780387  0.933522  0.500000  1
  Ru  Ru18  1  0.503437  0.004081  0.500000  1
  Ru  Ru19  1  0.000103  0.497785  0.500000  1
