# generated using pymatgen
data_Th2Co9P7W3
_symmetry_space_group_name_H-M   'P 1'
_cell_length_a   9.18507718
_cell_length_b   9.18517565
_cell_length_c   3.80163800
_cell_angle_alpha   90.00000000
_cell_angle_beta   90.00000000
_cell_angle_gamma   120.03073327
_symmetry_Int_Tables_number   1
_chemical_formula_structural   Th2Co9P7W3
_chemical_formula_sum   'Th2 Co9 P7 W3'
_cell_volume   277.67519646
_cell_formula_units_Z   1
loop_
 _symmetry_equiv_pos_site_id
 _symmetry_equiv_pos_as_xyz
  1  'x, y, z'
loop_
 _atom_site_type_symbol
 _atom_site_label
 _atom_site_symmetry_multiplicity
 _atom_site_fract_x
 _atom_site_fract_y
 _atom_site_fract_z
 _atom_site_occupancy
  Th  Th0  1  0.333381  0.666826  0.000000  1
  Th  Th1  1  0.000007  0.999966  0.500000  1
  Co  Co2  1  0.032257  0.267751  0.000000  1
  Co  Co3  1  0.732271  0.764528  0.000000  1
  Co  Co4  1  0.235401  0.967793  0.000000  1
  Co  Co5  1  0.542245  0.057051  0.000000  1
  Co  Co6  1  0.942708  0.485090  0.000000  1
  Co  Co7  1  0.514985  0.457599  0.000000  1
  Co  Co8  1  0.611313  0.897936  0.500000  1
  Co  Co9  1  0.102143  0.713415  0.500000  1
  Co  Co10  1  0.286651  0.388815  0.500000  1
  P  P11  1  0.767702  0.028323  0.000000  1
  P  P12  1  0.971702  0.739455  0.000000  1
  P  P13  1  0.260500  0.232222  0.000000  1
  P  P14  1  0.371638  0.929752  0.500000  1
  P  P15  1  0.070217  0.442086  0.500000  1
  P  P16  1  0.558098  0.628254  0.500000  1
  P  P17  1  0.666668  0.333162  0.000000  1
  W  W18  1  0.783559  0.231569  0.500000  1
  W  W19  1  0.768613  0.552051  0.500000  1
  W  W20  1  0.447939  0.216357  0.500000  1
