# generated using pymatgen
data_Er7Tm3Ru3Rh
_symmetry_space_group_name_H-M   'P 1'
_cell_length_a   6.26967671
_cell_length_b   7.27314930
_cell_length_c   8.37654301
_cell_angle_alpha   96.83948552
_cell_angle_beta   111.89421110
_cell_angle_gamma   90.06838388
_symmetry_Int_Tables_number   1
_chemical_formula_structural   Er7Tm3Ru3Rh
_chemical_formula_sum   'Er7 Tm3 Ru3 Rh1'
_cell_volume   351.46909911
_cell_formula_units_Z   1
loop_
 _symmetry_equiv_pos_site_id
 _symmetry_equiv_pos_as_xyz
  1  'x, y, z'
loop_
 _atom_site_type_symbol
 _atom_site_label
 _atom_site_symmetry_multiplicity
 _atom_site_fract_x
 _atom_site_fract_y
 _atom_site_fract_z
 _atom_site_occupancy
  Er  Er0  1  0.792394  0.081923  0.814504  1
  Er  Er1  1  0.979019  0.415367  0.188303  1
  Er  Er2  1  0.208795  0.915757  0.186050  1
  Er  Er3  1  0.024540  0.585655  0.814356  1
  Er  Er4  1  0.203393  0.183114  0.563779  1
  Er  Er5  1  0.642085  0.315146  0.432919  1
  Er  Er6  1  0.793789  0.815419  0.434943  1
  Tm  Tm7  1  0.357409  0.686101  0.563901  1
  Tm  Tm8  1  0.418529  0.249139  0.001048  1
  Tm  Tm9  1  0.580862  0.751922  0.000947  1
  Ru  Ru10  1  0.822984  0.077028  0.219435  1
  Ru  Ru11  1  0.396494  0.575765  0.220368  1
  Ru  Ru12  1  0.177906  0.923865  0.779874  1
  Rh  Rh13  1  0.601800  0.423800  0.779574  1
