# generated using pymatgen
data_ErTm19(Ir3Pt)3
_symmetry_space_group_name_H-M   'P 1'
_cell_length_a   10.83098403
_cell_length_b   10.83008578
_cell_length_c   6.28952507
_cell_angle_alpha   89.99054210
_cell_angle_beta   89.99956541
_cell_angle_gamma   90.28244776
_symmetry_Int_Tables_number   1
_chemical_formula_structural   ErTm19(Ir3Pt)3
_chemical_formula_sum   'Er1 Tm19 Ir9 Pt3'
_cell_volume   737.75537302
_cell_formula_units_Z   1
loop_
 _symmetry_equiv_pos_site_id
 _symmetry_equiv_pos_as_xyz
  1  'x, y, z'
loop_
 _atom_site_type_symbol
 _atom_site_label
 _atom_site_symmetry_multiplicity
 _atom_site_fract_x
 _atom_site_fract_y
 _atom_site_fract_z
 _atom_site_occupancy
  Er  Er0  1  0.293557  0.085835  0.370689  1
  Tm  Tm1  1  0.293309  0.908993  0.876280  1
  Tm  Tm2  1  0.705038  0.089243  0.873494  1
  Tm  Tm3  1  0.703779  0.910430  0.372714  1
  Tm  Tm4  1  0.584201  0.790853  0.877117  1
  Tm  Tm5  1  0.584782  0.208885  0.376943  1
  Tm  Tm6  1  0.411470  0.791131  0.377128  1
  Tm  Tm7  1  0.414991  0.208911  0.876520  1
  Tm  Tm8  1  0.209064  0.415845  0.622867  1
  Tm  Tm9  1  0.208721  0.588610  0.122863  1
  Tm  Tm10  1  0.791157  0.415476  0.123098  1
  Tm  Tm11  1  0.791154  0.585154  0.623395  1
  Tm  Tm12  1  0.914201  0.706134  0.128986  1
  Tm  Tm13  1  0.910778  0.294996  0.626451  1
  Tm  Tm14  1  0.090848  0.706718  0.623741  1
  Tm  Tm15  1  0.089354  0.296405  0.127195  1
  Tm  Tm16  1  0.000864  0.997897  0.499553  1
  Tm  Tm17  1  0.001961  0.998864  0.000607  1
  Tm  Tm18  1  0.499809  0.499794  0.000504  1
  Tm  Tm19  1  0.500289  0.500255  0.499591  1
  Ir  Ir20  1  0.152257  0.847278  0.249846  1
  Ir  Ir21  1  0.654376  0.345665  0.750022  1
  Ir  Ir22  1  0.655005  0.654362  0.249556  1
  Ir  Ir23  1  0.345712  0.345373  0.250222  1
  Ir  Ir24  1  0.346661  0.653338  0.749986  1
  Ir  Ir25  1  0.500540  0.999882  0.121950  1
  Ir  Ir26  1  0.500405  0.999969  0.624018  1
  Ir  Ir27  1  0.999903  0.499850  0.876181  1
  Ir  Ir28  1  0.999999  0.499773  0.377823  1
  Pt  Pt29  1  0.847036  0.152985  0.250004  1
  Pt  Pt30  1  0.845202  0.846131  0.750092  1
  Pt  Pt31  1  0.153582  0.154959  0.750563  1
