# generated using pymatgen
data_Er4InPd11
_symmetry_space_group_name_H-M   'P 1'
_cell_length_a   4.19535000
_cell_length_b   5.80540532
_cell_length_c   11.62305631
_cell_angle_alpha   86.79185899
_cell_angle_beta   90.00000000
_cell_angle_gamma   90.00000000
_symmetry_Int_Tables_number   1
_chemical_formula_structural   Er4InPd11
_chemical_formula_sum   'Er4 In1 Pd11'
_cell_volume   282.64410770
_cell_formula_units_Z   1
loop_
 _symmetry_equiv_pos_site_id
 _symmetry_equiv_pos_as_xyz
  1  'x, y, z'
loop_
 _atom_site_type_symbol
 _atom_site_label
 _atom_site_symmetry_multiplicity
 _atom_site_fract_x
 _atom_site_fract_y
 _atom_site_fract_z
 _atom_site_occupancy
  Er  Er0  1  0.500000  0.754016  0.377096  1
  Er  Er1  1  0.500000  0.716739  0.859193  1
  Er  Er2  1  0.500000  0.283261  0.140807  1
  Er  Er3  1  0.500000  0.245984  0.622904  1
  In  In4  1  0.000000  0.000000  0.000000  1
  Pd  Pd5  1  0.000000  0.011513  0.249294  1
  Pd  Pd6  1  0.000000  0.988487  0.750706  1
  Pd  Pd7  1  0.000000  0.500000  0.000000  1
  Pd  Pd8  1  0.000000  0.500000  0.500000  1
  Pd  Pd9  1  0.000000  0.515222  0.250580  1
  Pd  Pd10  1  0.000000  0.484778  0.749420  1
  Pd  Pd11  1  0.500000  0.252404  0.377592  1
  Pd  Pd12  1  0.500000  0.228846  0.881529  1
  Pd  Pd13  1  0.500000  0.771154  0.118471  1
  Pd  Pd14  1  0.500000  0.747596  0.622408  1
  Pd  Pd15  1  0.000000  0.000000  0.500000  1
