# generated using pymatgen
data_Eu8PaPt6
_symmetry_space_group_name_H-M   'P 1'
_cell_length_a   7.85979677
_cell_length_b   7.85979593
_cell_length_c   7.85979700
_cell_angle_alpha   69.82357546
_cell_angle_beta   69.82358550
_cell_angle_gamma   69.82358404
_symmetry_Int_Tables_number   1
_chemical_formula_structural   Eu8PaPt6
_chemical_formula_sum   'Eu8 Pa1 Pt6'
_cell_volume   413.47983581
_cell_formula_units_Z   1
loop_
 _symmetry_equiv_pos_site_id
 _symmetry_equiv_pos_as_xyz
  1  'x, y, z'
loop_
 _atom_site_type_symbol
 _atom_site_label
 _atom_site_symmetry_multiplicity
 _atom_site_fract_x
 _atom_site_fract_y
 _atom_site_fract_z
 _atom_site_occupancy
  Eu  Eu0  1  0.005385  0.005385  0.005385  1
  Eu  Eu1  1  0.199014  0.199014  0.199014  1
  Eu  Eu2  1  0.335878  0.602140  0.844785  1
  Eu  Eu3  1  0.844785  0.335878  0.602140  1
  Eu  Eu4  1  0.602140  0.844785  0.335878  1
  Eu  Eu5  1  0.665463  0.395879  0.153396  1
  Eu  Eu6  1  0.153396  0.665463  0.395879  1
  Eu  Eu7  1  0.395879  0.153396  0.665463  1
  Pa  Pa8  1  0.810399  0.810399  0.810399  1
  Pt  Pt9  1  0.141761  0.947492  0.605074  1
  Pt  Pt10  1  0.605074  0.141761  0.947492  1
  Pt  Pt11  1  0.947492  0.605074  0.141761  1
  Pt  Pt12  1  0.823212  0.029385  0.440735  1
  Pt  Pt13  1  0.440735  0.823212  0.029385  1
  Pt  Pt14  1  0.029385  0.440735  0.823212  1
