# generated using pymatgen
data_Tm4AlGa5Ru2
_symmetry_space_group_name_H-M   'P 1'
_cell_length_a   5.43220400
_cell_length_b   5.40647138
_cell_length_c   8.70270800
_cell_angle_alpha   90.00000000
_cell_angle_beta   90.00000000
_cell_angle_gamma   120.15758374
_symmetry_Int_Tables_number   1
_chemical_formula_structural   Tm4AlGa5Ru2
_chemical_formula_sum   'Tm4 Al1 Ga5 Ru2'
_cell_volume   220.99538586
_cell_formula_units_Z   1
loop_
 _symmetry_equiv_pos_site_id
 _symmetry_equiv_pos_as_xyz
  1  'x, y, z'
loop_
 _atom_site_type_symbol
 _atom_site_label
 _atom_site_symmetry_multiplicity
 _atom_site_fract_x
 _atom_site_fract_y
 _atom_site_fract_z
 _atom_site_occupancy
  Tm  Tm0  1  0.667414  0.334830  0.052422  1
  Tm  Tm1  1  0.667414  0.334830  0.447578  1
  Tm  Tm2  1  0.333661  0.667323  0.553844  1
  Tm  Tm3  1  0.333661  0.667323  0.946155  1
  Al  Al4  1  0.160738  0.321474  0.250000  1
  Ga  Ga5  1  0.163774  0.829686  0.250000  1
  Ga  Ga6  1  0.665912  0.829686  0.250000  1
  Ga  Ga7  1  0.331228  0.165270  0.750000  1
  Ga  Ga8  1  0.834040  0.165270  0.750000  1
  Ga  Ga9  1  0.834536  0.669073  0.750000  1
  Ru  Ru10  1  0.003809  0.007619  0.000427  1
  Ru  Ru11  1  0.003809  0.007619  0.499572  1
