# generated using pymatgen
data_Ca2Tb3Si12Ir19
_symmetry_space_group_name_H-M   'P 1'
_cell_length_a   12.81453100
_cell_length_b   12.81453259
_cell_length_c   4.00232900
_cell_angle_alpha   90.00000000
_cell_angle_beta   90.00000000
_cell_angle_gamma   119.98571391
_symmetry_Int_Tables_number   1
_chemical_formula_structural   Ca2Tb3Si12Ir19
_chemical_formula_sum   'Ca2 Tb3 Si12 Ir19'
_cell_volume   569.26096510
_cell_formula_units_Z   1
loop_
 _symmetry_equiv_pos_site_id
 _symmetry_equiv_pos_as_xyz
  1  'x, y, z'
loop_
 _atom_site_type_symbol
 _atom_site_label
 _atom_site_symmetry_multiplicity
 _atom_site_fract_x
 _atom_site_fract_y
 _atom_site_fract_z
 _atom_site_occupancy
  Ca  Ca0  1  0.815669  0.999636  0.500000  1
  Ca  Ca1  1  0.999636  0.815669  0.500000  1
  Tb  Tb2  1  0.333391  0.666399  0.000000  1
  Tb  Tb3  1  0.666399  0.333391  0.000000  1
  Tb  Tb4  1  0.182548  0.182548  0.500000  1
  Si  Si5  1  0.817698  0.817698  0.000000  1
  Si  Si6  1  0.181980  0.999225  0.000000  1
  Si  Si7  1  0.999225  0.181980  0.000000  1
  Si  Si8  1  0.310966  0.831382  0.500000  1
  Si  Si9  1  0.168155  0.480147  0.500000  1
  Si  Si10  1  0.520591  0.688868  0.500000  1
  Si  Si11  1  0.831382  0.310966  0.500000  1
  Si  Si12  1  0.480147  0.168155  0.500000  1
  Si  Si13  1  0.688868  0.520591  0.500000  1
  Si  Si14  1  0.367643  0.367643  0.000000  1
  Si  Si15  1  0.632464  0.000117  0.000000  1
  Si  Si16  1  0.000117  0.632464  0.000000  1
  Ir  Ir17  1  0.195413  0.816851  0.000000  1
  Ir  Ir18  1  0.182915  0.376526  0.000000  1
  Ir  Ir19  1  0.621199  0.805075  0.000000  1
  Ir  Ir20  1  0.816851  0.195413  0.000000  1
  Ir  Ir21  1  0.376526  0.182915  0.000000  1
  Ir  Ir22  1  0.805075  0.621199  0.000000  1
  Ir  Ir23  1  0.716997  0.716997  0.500000  1
  Ir  Ir24  1  0.283613  0.000805  0.500000  1
  Ir  Ir25  1  0.000805  0.283613  0.500000  1
  Ir  Ir26  1  0.126377  0.638265  0.500000  1
  Ir  Ir27  1  0.361570  0.488503  0.500000  1
  Ir  Ir28  1  0.511080  0.873650  0.500000  1
  Ir  Ir29  1  0.638265  0.126377  0.500000  1
  Ir  Ir30  1  0.488503  0.361570  0.500000  1
  Ir  Ir31  1  0.873650  0.511080  0.500000  1
  Ir  Ir32  1  0.551719  0.551719  0.000000  1
  Ir  Ir33  1  0.448763  0.002092  0.000000  1
  Ir  Ir34  1  0.002092  0.448763  0.000000  1
  Ir  Ir35  1  0.001704  0.001704  0.000000  1
