# generated using pymatgen
data_Nd10Al(ZnRu2)3
_symmetry_space_group_name_H-M   'P 1'
_cell_length_a   8.50469626
_cell_length_b   8.56155172
_cell_length_c   8.50469587
_cell_angle_alpha   109.60670289
_cell_angle_beta   109.33540799
_cell_angle_gamma   109.60670487
_symmetry_Int_Tables_number   1
_chemical_formula_structural   Nd10Al(ZnRu2)3
_chemical_formula_sum   'Nd10 Al1 Zn3 Ru6'
_cell_volume   475.90387756
_cell_formula_units_Z   1
loop_
 _symmetry_equiv_pos_site_id
 _symmetry_equiv_pos_as_xyz
  1  'x, y, z'
loop_
 _atom_site_type_symbol
 _atom_site_label
 _atom_site_symmetry_multiplicity
 _atom_site_fract_x
 _atom_site_fract_y
 _atom_site_fract_z
 _atom_site_occupancy
  Nd  Nd0  1  0.250656  0.684503  0.437021  1
  Nd  Nd1  1  0.749144  0.815394  0.062930  1
  Nd  Nd2  1  0.437071  0.252463  0.686214  1
  Nd  Nd3  1  0.686364  0.433848  0.249344  1
  Nd  Nd4  1  0.062980  0.747483  0.813636  1
  Nd  Nd5  1  0.813786  0.066250  0.750856  1
  Nd  Nd6  1  0.220252  0.220849  0.220453  1
  Nd  Nd7  1  0.500202  0.000597  0.279748  1
  Nd  Nd8  1  0.279547  0.500397  0.999799  1
  Nd  Nd9  1  0.000000  0.279699  0.500001  1
  Al  Al10  1  0.000000  0.908301  0.500001  1
  Zn  Zn11  1  0.498132  0.999454  0.910469  1
  Zn  Zn12  1  0.589531  0.588985  0.587661  1
  Zn  Zn13  1  0.912339  0.501324  0.001869  1
  Ru  Ru14  1  0.241571  0.121099  0.867008  1
  Ru  Ru15  1  0.749095  0.372005  0.621187  1
  Ru  Ru16  1  0.878812  0.250820  0.127908  1
  Ru  Ru17  1  0.125438  0.879529  0.258431  1
  Ru  Ru18  1  0.632991  0.754091  0.374561  1
  Ru  Ru19  1  0.372091  0.622910  0.750905  1
