# generated using pymatgen
data_Th5SnGePb2
_symmetry_space_group_name_H-M   'P 1'
_cell_length_a   9.65660500
_cell_length_b   9.66201770
_cell_length_c   6.62434200
_cell_angle_alpha   90.00000000
_cell_angle_beta   90.00000000
_cell_angle_gamma   119.98146690
_symmetry_Int_Tables_number   1
_chemical_formula_structural   Th5SnGePb2
_chemical_formula_sum   'Th10 Sn2 Ge2 Pb4'
_cell_volume   535.36102238
_cell_formula_units_Z   2
loop_
 _symmetry_equiv_pos_site_id
 _symmetry_equiv_pos_as_xyz
  1  'x, y, z'
loop_
 _atom_site_type_symbol
 _atom_site_label
 _atom_site_symmetry_multiplicity
 _atom_site_fract_x
 _atom_site_fract_y
 _atom_site_fract_z
 _atom_site_occupancy
  Th  Th0  1  0.000021  0.740032  0.750000  1
  Th  Th1  1  0.259989  0.259968  0.750000  1
  Th  Th2  1  0.331364  0.664033  0.497741  1
  Th  Th3  1  0.667332  0.335967  0.497741  1
  Th  Th4  1  0.740932  0.737878  0.250000  1
  Th  Th5  1  0.741235  0.000000  0.750000  1
  Th  Th6  1  0.003054  0.262122  0.250000  1
  Th  Th7  1  0.257637  0.000000  0.250000  1
  Th  Th8  1  0.331364  0.664033  0.002259  1
  Th  Th9  1  0.667332  0.335967  0.002259  1
  Sn  Sn10  1  0.388420  0.388221  0.250000  1
  Sn  Sn11  1  0.000199  0.611779  0.250000  1
  Ge  Ge12  1  0.999485  0.000000  0.999853  1
  Ge  Ge13  1  0.999485  0.000000  0.500147  1
  Pb  Pb14  1  0.611786  0.612442  0.750000  1
  Pb  Pb15  1  0.999344  0.387558  0.750000  1
  Pb  Pb16  1  0.388490  0.000000  0.750000  1
  Pb  Pb17  1  0.612531  0.000000  0.250000  1
