# generated using pymatgen
data_Tb4Si4TcOs
_symmetry_space_group_name_H-M   'P 1'
_cell_length_a   5.80339210
_cell_length_b   5.80339217
_cell_length_c   10.10918148
_cell_angle_alpha   116.82569045
_cell_angle_beta   116.82569282
_cell_angle_gamma   42.75849516
_symmetry_Int_Tables_number   1
_chemical_formula_structural   Tb4Si4TcOs
_chemical_formula_sum   'Tb4 Si4 Tc1 Os1'
_cell_volume   202.19090285
_cell_formula_units_Z   1
loop_
 _symmetry_equiv_pos_site_id
 _symmetry_equiv_pos_as_xyz
  1  'x, y, z'
loop_
 _atom_site_type_symbol
 _atom_site_label
 _atom_site_symmetry_multiplicity
 _atom_site_fract_x
 _atom_site_fract_y
 _atom_site_fract_z
 _atom_site_occupancy
  Tb  Tb0  1  0.005640  0.005640  0.178496  1
  Tb  Tb1  1  0.815049  0.815049  0.391011  1
  Tb  Tb2  1  0.186821  0.186821  0.611776  1
  Tb  Tb3  1  0.991266  0.991266  0.820464  1
  Si  Si4  1  0.644596  0.644596  0.058493  1
  Si  Si5  1  0.501387  0.501387  0.377854  1
  Si  Si6  1  0.500821  0.500821  0.625702  1
  Si  Si7  1  0.353260  0.353260  0.937233  1
  Tc  Tc8  1  0.272354  0.272354  0.126985  1
  Os  Os9  1  0.728807  0.728807  0.871987  1
