# generated using pymatgen
data_Ba6TbDy(NiO6)2
_symmetry_space_group_name_H-M   'P 1'
_cell_length_a   7.15681836
_cell_length_b   7.15682013
_cell_length_c   7.15681931
_cell_angle_alpha   93.53142880
_cell_angle_beta   93.53143876
_cell_angle_gamma   93.53142775
_symmetry_Int_Tables_number   1
_chemical_formula_structural   Ba6TbDy(NiO6)2
_chemical_formula_sum   'Ba6 Tb1 Dy1 Ni2 O12'
_cell_volume   364.39437718
_cell_formula_units_Z   1
loop_
 _symmetry_equiv_pos_site_id
 _symmetry_equiv_pos_as_xyz
  1  'x, y, z'
loop_
 _atom_site_type_symbol
 _atom_site_label
 _atom_site_symmetry_multiplicity
 _atom_site_fract_x
 _atom_site_fract_y
 _atom_site_fract_z
 _atom_site_occupancy
  Ba  Ba0  1  0.380599  0.119400  0.750000  1
  Ba  Ba1  1  0.750000  0.380600  0.119401  1
  Ba  Ba2  1  0.249999  0.619555  0.880446  1
  Ba  Ba3  1  0.619554  0.880445  0.250001  1
  Ba  Ba4  1  0.119401  0.750000  0.380600  1
  Ba  Ba5  1  0.880445  0.250000  0.619555  1
  Tb  Tb6  1  0.250001  0.250000  0.250000  1
  Dy  Dy7  1  0.750000  0.750001  0.750000  1
  Ni  Ni8  1  0.500202  0.500202  0.500202  1
  Ni  Ni9  1  0.999798  0.999798  0.999798  1
  O  O10  1  0.782419  0.593255  0.465817  1
  O  O11  1  0.593256  0.465816  0.782419  1
  O  O12  1  0.465816  0.782419  0.593256  1
  O  O13  1  0.034183  0.906745  0.717582  1
  O  O14  1  0.906744  0.717581  0.034183  1
  O  O15  1  0.717582  0.034183  0.906744  1
  O  O16  1  0.217811  0.407573  0.535381  1
  O  O17  1  0.407573  0.535380  0.217811  1
  O  O18  1  0.535380  0.217811  0.407572  1
  O  O19  1  0.964620  0.092427  0.282190  1
  O  O20  1  0.282190  0.964619  0.092426  1
  O  O21  1  0.092426  0.282189  0.964619  1
