# generated using pymatgen
data_Sr2LiInSb4
_symmetry_space_group_name_H-M   'P 1'
_cell_length_a   4.51135000
_cell_length_b   4.51135000
_cell_length_c   11.73661100
_cell_angle_alpha   90.00000000
_cell_angle_beta   90.00000000
_cell_angle_gamma   90.00000000
_symmetry_Int_Tables_number   1
_chemical_formula_structural   Sr2LiInSb4
_chemical_formula_sum   'Sr2 Li1 In1 Sb4'
_cell_volume   238.86677950
_cell_formula_units_Z   1
loop_
 _symmetry_equiv_pos_site_id
 _symmetry_equiv_pos_as_xyz
  1  'x, y, z'
loop_
 _atom_site_type_symbol
 _atom_site_label
 _atom_site_symmetry_multiplicity
 _atom_site_fract_x
 _atom_site_fract_y
 _atom_site_fract_z
 _atom_site_occupancy
  Sr  Sr0  1  0.000000  0.500000  0.275669  1
  Sr  Sr1  1  0.500000  0.000000  0.724331  1
  Li  Li2  1  0.000000  0.000000  0.000000  1
  In  In3  1  0.500000  0.500000  0.000000  1
  Sb  Sb4  1  0.000000  0.500000  0.840835  1
  Sb  Sb5  1  0.500000  0.000000  0.159165  1
  Sb  Sb6  1  0.000000  0.000000  0.500000  1
  Sb  Sb7  1  0.500000  0.500000  0.500000  1
