# generated using pymatgen
data_LaAl2CuSi
_symmetry_space_group_name_H-M   'P 1'
_cell_length_a   6.05012363
_cell_length_b   6.05012431
_cell_length_c   6.05012357
_cell_angle_alpha   139.15663678
_cell_angle_beta   139.15664131
_cell_angle_gamma   59.13608609
_symmetry_Int_Tables_number   1
_chemical_formula_structural   LaAl2CuSi
_chemical_formula_sum   'La1 Al2 Cu1 Si1'
_cell_volume   93.80494300
_cell_formula_units_Z   1
loop_
 _symmetry_equiv_pos_site_id
 _symmetry_equiv_pos_as_xyz
  1  'x, y, z'
loop_
 _atom_site_type_symbol
 _atom_site_label
 _atom_site_symmetry_multiplicity
 _atom_site_fract_x
 _atom_site_fract_y
 _atom_site_fract_z
 _atom_site_occupancy
  La  La0  1  0.994695  0.994695  0.000000  1
  Al  Al1  1  0.249786  0.749786  0.500000  1
  Al  Al2  1  0.749786  0.249786  0.500000  1
  Cu  Cu3  1  0.627283  0.627283  0.000000  1
  Si  Si4  1  0.402449  0.402449  0.000000  1
