# generated using pymatgen
data_Tb5Pr3(SBr6)2
_symmetry_space_group_name_H-M   'P 1'
_cell_length_a   4.05295200
_cell_length_b   13.28316447
_cell_length_c   13.98667921
_cell_angle_alpha   89.75429883
_cell_angle_beta   90.00000000
_cell_angle_gamma   90.00000000
_symmetry_Int_Tables_number   1
_chemical_formula_structural   Tb5Pr3(SBr6)2
_chemical_formula_sum   'Tb5 Pr3 S2 Br12'
_cell_volume   752.98033058
_cell_formula_units_Z   1
loop_
 _symmetry_equiv_pos_site_id
 _symmetry_equiv_pos_as_xyz
  1  'x, y, z'
loop_
 _atom_site_type_symbol
 _atom_site_label
 _atom_site_symmetry_multiplicity
 _atom_site_fract_x
 _atom_site_fract_y
 _atom_site_fract_z
 _atom_site_occupancy
  Tb  Tb0  1  0.500000  0.116198  0.344925  1
  Tb  Tb1  1  0.500000  0.884071  0.655157  1
  Tb  Tb2  1  0.500000  0.615396  0.153643  1
  Tb  Tb3  1  0.500000  0.385199  0.845849  1
  Tb  Tb4  1  0.000000  0.385274  0.076799  1
  Pr  Pr5  1  0.000000  0.117091  0.578285  1
  Pr  Pr6  1  0.000000  0.883201  0.421011  1
  Pr  Pr7  1  0.000000  0.613885  0.923464  1
  S  S8  1  0.500000  0.000038  0.499754  1
  S  S9  1  0.500000  0.493734  0.004150  1
  Br  Br10  1  0.500000  0.248083  0.162154  1
  Br  Br11  1  0.500000  0.760077  0.834140  1
  Br  Br12  1  0.500000  0.736767  0.332847  1
  Br  Br13  1  0.500000  0.261713  0.668056  1
  Br  Br14  1  0.000000  0.257329  0.406495  1
  Br  Br15  1  0.000000  0.743100  0.592752  1
  Br  Br16  1  0.000000  0.757074  0.092267  1
  Br  Br17  1  0.000000  0.246152  0.914924  1
  Br  Br18  1  0.000000  0.008209  0.238413  1
  Br  Br19  1  0.000000  0.993658  0.760797  1
  Br  Br20  1  0.000000  0.499777  0.254650  1
  Br  Br21  1  0.000000  0.493972  0.739467  1
