# generated using pymatgen
data_HoErTm3CoSb2
_symmetry_space_group_name_H-M   'P 1'
_cell_length_a   7.78446700
_cell_length_b   8.73597900
_cell_length_c   12.07010900
_cell_angle_alpha   90.00000000
_cell_angle_beta   90.00000000
_cell_angle_gamma   90.00000000
_symmetry_Int_Tables_number   1
_chemical_formula_structural   HoErTm3CoSb2
_chemical_formula_sum   'Ho4 Er4 Tm12 Co4 Sb8'
_cell_volume   820.82704121
_cell_formula_units_Z   4
loop_
 _symmetry_equiv_pos_site_id
 _symmetry_equiv_pos_as_xyz
  1  'x, y, z'
loop_
 _atom_site_type_symbol
 _atom_site_label
 _atom_site_symmetry_multiplicity
 _atom_site_fract_x
 _atom_site_fract_y
 _atom_site_fract_z
 _atom_site_occupancy
  Ho  Ho0  1  0.622913  0.750000  0.307695  1
  Ho  Ho1  1  0.122913  0.250000  0.192305  1
  Ho  Ho2  1  0.377087  0.250000  0.692305  1
  Ho  Ho3  1  0.877087  0.750000  0.807695  1
  Er  Er4  1  0.156772  0.750000  0.204033  1
  Er  Er5  1  0.656772  0.250000  0.295967  1
  Er  Er6  1  0.843228  0.250000  0.795967  1
  Er  Er7  1  0.343228  0.750000  0.704033  1
  Tm  Tm8  1  0.450502  0.750000  0.997835  1
  Tm  Tm9  1  0.950502  0.250000  0.502165  1
  Tm  Tm10  1  0.549498  0.250000  0.002165  1
  Tm  Tm11  1  0.049498  0.750000  0.497835  1
  Tm  Tm12  1  0.823278  0.963227  0.065527  1
  Tm  Tm13  1  0.323278  0.036773  0.434473  1
  Tm  Tm14  1  0.176722  0.463227  0.934473  1
  Tm  Tm15  1  0.676722  0.536773  0.565527  1
  Tm  Tm16  1  0.176722  0.036773  0.934473  1
  Tm  Tm17  1  0.676722  0.963227  0.565527  1
  Tm  Tm18  1  0.823278  0.536773  0.065527  1
  Tm  Tm19  1  0.323278  0.463227  0.434473  1
  Co  Co20  1  0.432087  0.750000  0.490915  1
  Co  Co21  1  0.932087  0.250000  0.009085  1
  Co  Co22  1  0.567913  0.250000  0.509085  1
  Co  Co23  1  0.067913  0.750000  0.990915  1
  Sb  Sb24  1  0.931056  0.991563  0.327963  1
  Sb  Sb25  1  0.431056  0.008437  0.172037  1
  Sb  Sb26  1  0.068944  0.491563  0.672037  1
  Sb  Sb27  1  0.568944  0.508437  0.827963  1
  Sb  Sb28  1  0.068944  0.008437  0.672037  1
  Sb  Sb29  1  0.568944  0.991563  0.827963  1
  Sb  Sb30  1  0.931056  0.508437  0.327963  1
  Sb  Sb31  1  0.431056  0.491563  0.172037  1
