# generated using pymatgen
data_Ac3Ga4S
_symmetry_space_group_name_H-M   'P 1'
_cell_length_a   8.44538548
_cell_length_b   8.44538449
_cell_length_c   8.44538539
_cell_angle_alpha   119.86443040
_cell_angle_beta   119.86443770
_cell_angle_gamma   90.23496522
_symmetry_Int_Tables_number   1
_chemical_formula_structural   Ac3Ga4S
_chemical_formula_sum   'Ac6 Ga8 S2'
_cell_volume   426.80394628
_cell_formula_units_Z   2
loop_
 _symmetry_equiv_pos_site_id
 _symmetry_equiv_pos_as_xyz
  1  'x, y, z'
loop_
 _atom_site_type_symbol
 _atom_site_label
 _atom_site_symmetry_multiplicity
 _atom_site_fract_x
 _atom_site_fract_y
 _atom_site_fract_z
 _atom_site_occupancy
  Ac  Ac0  1  0.666597  0.166597  0.833194  1
  Ac  Ac1  1  0.166597  0.333403  0.500000  1
  Ac  Ac2  1  0.833403  0.666597  0.500000  1
  Ac  Ac3  1  0.750000  0.750000  0.000000  1
  Ac  Ac4  1  0.333403  0.833403  0.166806  1
  Ac  Ac5  1  0.250000  0.250000  0.000000  1
  Ga  Ga6  1  0.937342  0.437342  0.778674  1
  Ga  Ga7  1  0.841332  0.062658  0.500000  1
  Ga  Ga8  1  0.341332  0.841332  0.778674  1
  Ga  Ga9  1  0.437342  0.658668  0.500000  1
  Ga  Ga10  1  0.562658  0.341332  0.500000  1
  Ga  Ga11  1  0.062658  0.562658  0.221326  1
  Ga  Ga12  1  0.158668  0.937342  0.500000  1
  Ga  Ga13  1  0.658668  0.158668  0.221326  1
  S  S14  1  0.500000  0.500000  0.000000  1
  S  S15  1  0.000000  0.000000  0.000000  1
