# generated using pymatgen
data_LuZn3Ga5Cu4
_symmetry_space_group_name_H-M   'P 1'
_cell_length_a   6.67608291
_cell_length_b   6.67605193
_cell_length_c   6.67608167
_cell_angle_alpha   98.52739855
_cell_angle_beta   98.75781281
_cell_angle_gamma   134.38399141
_symmetry_Int_Tables_number   1
_chemical_formula_structural   LuZn3Ga5Cu4
_chemical_formula_sum   'Lu1 Zn3 Ga5 Cu4'
_cell_volume   196.02261579
_cell_formula_units_Z   1
loop_
 _symmetry_equiv_pos_site_id
 _symmetry_equiv_pos_as_xyz
  1  'x, y, z'
loop_
 _atom_site_type_symbol
 _atom_site_label
 _atom_site_symmetry_multiplicity
 _atom_site_fract_x
 _atom_site_fract_y
 _atom_site_fract_z
 _atom_site_occupancy
  Lu  Lu0  1  0.999993  0.999736  0.999743  1
  Zn  Zn1  1  0.500001  0.713868  0.213867  1
  Zn  Zn2  1  0.716622  0.502381  0.219002  1
  Zn  Zn3  1  0.283379  0.502381  0.785759  1
  Ga  Ga4  1  0.000001  0.346536  0.346535  1
  Ga  Ga5  1  0.000005  0.652071  0.652066  1
  Ga  Ga6  1  0.654589  0.997858  0.652442  1
  Ga  Ga7  1  0.345416  0.997858  0.343268  1
  Ga  Ga8  1  0.499997  0.286743  0.786747  1
  Cu  Cu9  1  0.000541  0.000426  0.500398  1
  Cu  Cu10  1  0.499970  0.499857  0.500399  1
  Cu  Cu11  1  0.500029  0.000426  0.999886  1
  Cu  Cu12  1  0.999458  0.499857  0.999887  1
