# generated using pymatgen
data_NaPr2(PRu)6
_symmetry_space_group_name_H-M   'P 1'
_cell_length_a   8.31197048
_cell_length_b   8.31197140
_cell_length_c   5.97302082
_cell_angle_alpha   76.86143651
_cell_angle_beta   76.86143452
_cell_angle_gamma   40.34508467
_symmetry_Int_Tables_number   1
_chemical_formula_structural   NaPr2(PRu)6
_chemical_formula_sum   'Na1 Pr2 P6 Ru6'
_cell_volume   259.20610520
_cell_formula_units_Z   1
loop_
 _symmetry_equiv_pos_site_id
 _symmetry_equiv_pos_as_xyz
  1  'x, y, z'
loop_
 _atom_site_type_symbol
 _atom_site_label
 _atom_site_symmetry_multiplicity
 _atom_site_fract_x
 _atom_site_fract_y
 _atom_site_fract_z
 _atom_site_occupancy
  Na  Na0  1  0.000000  0.000000  0.000000  1
  Pr  Pr1  1  0.664200  0.664200  0.671390  1
  Pr  Pr2  1  0.335800  0.335800  0.328610  1
  P  P3  1  0.879668  0.879668  0.517328  1
  P  P4  1  0.213812  0.213812  0.851248  1
  P  P5  1  0.547069  0.547069  0.188784  1
  P  P6  1  0.452931  0.452931  0.811216  1
  P  P7  1  0.786188  0.786188  0.148752  1
  P  P8  1  0.120332  0.120332  0.482672  1
  Ru  Ru9  1  0.082207  0.583513  0.832062  1
  Ru  Ru10  1  0.416487  0.917793  0.167938  1
  Ru  Ru11  1  0.752153  0.247847  0.500000  1
  Ru  Ru12  1  0.247847  0.752153  0.500000  1
  Ru  Ru13  1  0.583513  0.082207  0.832062  1
  Ru  Ru14  1  0.917793  0.416487  0.167938  1
