# generated using pymatgen
data_Tb3Y5(TmSi3)2
_symmetry_space_group_name_H-M   'P 1'
_cell_length_a   8.44056723
_cell_length_b   8.44056656
_cell_length_c   6.34782000
_cell_angle_alpha   89.99885223
_cell_angle_beta   89.99884557
_cell_angle_gamma   120.02672986
_symmetry_Int_Tables_number   1
_chemical_formula_structural   Tb3Y5(TmSi3)2
_chemical_formula_sum   'Tb3 Y5 Tm2 Si6'
_cell_volume   391.54477050
_cell_formula_units_Z   1
loop_
 _symmetry_equiv_pos_site_id
 _symmetry_equiv_pos_as_xyz
  1  'x, y, z'
loop_
 _atom_site_type_symbol
 _atom_site_label
 _atom_site_symmetry_multiplicity
 _atom_site_fract_x
 _atom_site_fract_y
 _atom_site_fract_z
 _atom_site_occupancy
  Tb  Tb0  1  0.666672  0.333286  0.500007  1
  Tb  Tb1  1  0.333286  0.666672  0.500007  1
  Tb  Tb2  1  0.755966  0.755966  0.248163  1
  Y  Y3  1  0.244080  0.999995  0.248099  1
  Y  Y4  1  0.999995  0.244080  0.248099  1
  Y  Y5  1  0.244039  0.244039  0.751903  1
  Y  Y6  1  0.755857  0.000017  0.751902  1
  Y  Y7  1  0.000017  0.755857  0.751902  1
  Tm  Tm8  1  0.333298  0.666660  0.999976  1
  Tm  Tm9  1  0.666660  0.333298  0.999976  1
  Si  Si10  1  0.394518  0.394518  0.244565  1
  Si  Si11  1  0.605257  0.000176  0.244543  1
  Si  Si12  1  0.000176  0.605257  0.244543  1
  Si  Si13  1  0.605418  0.605418  0.755424  1
  Si  Si14  1  0.394691  0.000069  0.755444  1
  Si  Si15  1  0.000069  0.394691  0.755444  1
