# generated using pymatgen
data_Tm4Al4Ir3Pd
_symmetry_space_group_name_H-M   'P 1'
_cell_length_a   4.23931600
_cell_length_b   6.80515600
_cell_length_c   7.90101901
_cell_angle_alpha   89.99625755
_cell_angle_beta   90.00000000
_cell_angle_gamma   90.00000000
_symmetry_Int_Tables_number   1
_chemical_formula_structural   Tm4Al4Ir3Pd
_chemical_formula_sum   'Tm4 Al4 Ir3 Pd1'
_cell_volume   227.93813014
_cell_formula_units_Z   1
loop_
 _symmetry_equiv_pos_site_id
 _symmetry_equiv_pos_as_xyz
  1  'x, y, z'
loop_
 _atom_site_type_symbol
 _atom_site_label
 _atom_site_symmetry_multiplicity
 _atom_site_fract_x
 _atom_site_fract_y
 _atom_site_fract_z
 _atom_site_occupancy
  Tm  Tm0  1  0.250000  0.028400  0.325337  1
  Tm  Tm1  1  0.250000  0.540196  0.180317  1
  Tm  Tm2  1  0.750000  0.968209  0.677800  1
  Tm  Tm3  1  0.750000  0.470733  0.817527  1
  Al  Al4  1  0.250000  0.136577  0.936819  1
  Al  Al5  1  0.250000  0.638288  0.560676  1
  Al  Al6  1  0.750000  0.857450  0.060049  1
  Al  Al7  1  0.750000  0.363516  0.443359  1
  Ir  Ir8  1  0.250000  0.264595  0.622527  1
  Ir  Ir9  1  0.250000  0.763934  0.877947  1
  Ir  Ir10  1  0.750000  0.734898  0.375247  1
  Pd  Pd11  1  0.750000  0.233203  0.122395  1
