# generated using pymatgen
data_Tb4ErTm7(GaCo2)2
_symmetry_space_group_name_H-M   'P 1'
_cell_length_a   8.21541714
_cell_length_b   8.22101523
_cell_length_c   8.22101554
_cell_angle_alpha   106.86701257
_cell_angle_beta   109.22382539
_cell_angle_gamma   112.40017513
_symmetry_Int_Tables_number   1
_chemical_formula_structural   Tb4ErTm7(GaCo2)2
_chemical_formula_sum   'Tb4 Er1 Tm7 Ga2 Co4'
_cell_volume   426.26073016
_cell_formula_units_Z   1
loop_
 _symmetry_equiv_pos_site_id
 _symmetry_equiv_pos_as_xyz
  1  'x, y, z'
loop_
 _atom_site_type_symbol
 _atom_site_label
 _atom_site_symmetry_multiplicity
 _atom_site_fract_x
 _atom_site_fract_y
 _atom_site_fract_z
 _atom_site_occupancy
  Tb  Tb0  1  0.698778  0.260979  0.959465  1
  Tb  Tb1  1  0.301309  0.738737  0.040350  1
  Tb  Tb2  1  0.698778  0.739313  0.437800  1
  Tb  Tb3  1  0.301309  0.260959  0.562571  1
  Er  Er4  1  0.398000  0.218903  0.179097  1
  Tm  Tm5  1  0.811853  0.139257  0.327804  1
  Tm  Tm6  1  0.811853  0.484049  0.672595  1
  Tm  Tm7  1  0.188342  0.860579  0.672168  1
  Tm  Tm8  1  0.188342  0.516175  0.327764  1
  Tm  Tm9  1  0.601933  0.780991  0.820943  1
  Tm  Tm10  1  0.960076  0.781054  0.179023  1
  Tm  Tm11  1  0.039643  0.218909  0.820734  1
  Ga  Ga12  1  0.500159  0.500264  0.999896  1
  Ga  Ga13  1  0.500004  0.000026  0.499977  1
  Co  Co14  1  0.839426  0.500159  0.339266  1
  Co  Co15  1  0.160883  0.500069  0.660814  1
  Co  Co16  1  0.999655  0.115330  0.115408  1
  Co  Co17  1  0.999655  0.884247  0.884326  1
