# generated using pymatgen
data_ErTh2ZnIn3Rh2
_symmetry_space_group_name_H-M   'P 1'
_cell_length_a   7.69163000
_cell_length_b   7.80104140
_cell_length_c   3.93319700
_cell_angle_alpha   90.00000000
_cell_angle_beta   90.00000000
_cell_angle_gamma   119.53711511
_symmetry_Int_Tables_number   1
_chemical_formula_structural   ErTh2ZnIn3Rh2
_chemical_formula_sum   'Er1 Th2 Zn1 In3 Rh2'
_cell_volume   205.33082630
_cell_formula_units_Z   1
loop_
 _symmetry_equiv_pos_site_id
 _symmetry_equiv_pos_as_xyz
  1  'x, y, z'
loop_
 _atom_site_type_symbol
 _atom_site_label
 _atom_site_symmetry_multiplicity
 _atom_site_fract_x
 _atom_site_fract_y
 _atom_site_fract_z
 _atom_site_occupancy
  Er  Er0  1  0.591786  0.000000  0.500000  1
  Th  Th1  1  0.998377  0.583463  0.500000  1
  Th  Th2  1  0.414914  0.416537  0.500000  1
  Zn  Zn3  1  0.007982  0.000000  0.500000  1
  In  In4  1  0.269544  0.000000  0.000000  1
  In  In5  1  0.743399  0.756610  0.000000  1
  In  In6  1  0.986789  0.243390  0.000000  1
  Rh  Rh7  1  0.668993  0.350777  0.000000  1
  Rh  Rh8  1  0.318214  0.649223  0.000000  1
