# generated using pymatgen
data_Yb6CeHg7
_symmetry_space_group_name_H-M   'P 1'
_cell_length_a   6.43761802
_cell_length_b   8.33970352
_cell_length_c   8.33970200
_cell_angle_alpha   113.62124730
_cell_angle_beta   104.91038246
_cell_angle_gamma   104.91038120
_symmetry_Int_Tables_number   1
_chemical_formula_structural   Yb6CeHg7
_chemical_formula_sum   'Yb6 Ce1 Hg7'
_cell_volume   362.08244994
_cell_formula_units_Z   1
loop_
 _symmetry_equiv_pos_site_id
 _symmetry_equiv_pos_as_xyz
  1  'x, y, z'
loop_
 _atom_site_type_symbol
 _atom_site_label
 _atom_site_symmetry_multiplicity
 _atom_site_fract_x
 _atom_site_fract_y
 _atom_site_fract_z
 _atom_site_occupancy
  Yb  Yb0  1  0.355189  0.430208  0.141900  1
  Yb  Yb1  1  0.213289  0.858100  0.288309  1
  Yb  Yb2  1  0.075019  0.288308  0.430208  1
  Yb  Yb3  1  0.924981  0.711692  0.569792  1
  Yb  Yb4  1  0.786711  0.141900  0.711692  1
  Yb  Yb5  1  0.644811  0.569792  0.858100  1
  Ce  Ce6  1  0.500000  0.000000  0.000000  1
  Hg  Hg7  1  0.000000  0.000000  0.000000  1
  Hg  Hg8  1  0.857261  0.429999  0.143648  1
  Hg  Hg9  1  0.713612  0.856352  0.286351  1
  Hg  Hg10  1  0.572738  0.286351  0.429999  1
  Hg  Hg11  1  0.427264  0.713649  0.570002  1
  Hg  Hg12  1  0.286388  0.143648  0.713650  1
  Hg  Hg13  1  0.142739  0.570001  0.856352  1
