# generated using pymatgen
data_Dy2Er3Sn3Bi
_symmetry_space_group_name_H-M   'P 1'
_cell_length_a   8.12878600
_cell_length_b   8.15686500
_cell_length_c   15.37929800
_cell_angle_alpha   90.00000000
_cell_angle_beta   90.00000000
_cell_angle_gamma   90.00000000
_symmetry_Int_Tables_number   1
_chemical_formula_structural   Dy2Er3Sn3Bi
_chemical_formula_sum   'Dy8 Er12 Sn12 Bi4'
_cell_volume   1019.73065965
_cell_formula_units_Z   4
loop_
 _symmetry_equiv_pos_site_id
 _symmetry_equiv_pos_as_xyz
  1  'x, y, z'
loop_
 _atom_site_type_symbol
 _atom_site_label
 _atom_site_symmetry_multiplicity
 _atom_site_fract_x
 _atom_site_fract_y
 _atom_site_fract_z
 _atom_site_occupancy
  Dy  Dy0  1  0.540323  0.325074  0.896741  1
  Dy  Dy1  1  0.040323  0.174926  0.603259  1
  Dy  Dy2  1  0.459677  0.674926  0.396741  1
  Dy  Dy3  1  0.959677  0.825074  0.103259  1
  Dy  Dy4  1  0.477614  0.674590  0.101597  1
  Dy  Dy5  1  0.977614  0.825410  0.398403  1
  Dy  Dy6  1  0.522386  0.325410  0.601597  1
  Dy  Dy7  1  0.022386  0.174590  0.898403  1
  Er  Er8  1  0.375059  0.839815  0.874678  1
  Er  Er9  1  0.875059  0.660185  0.625322  1
  Er  Er10  1  0.624941  0.160185  0.374678  1
  Er  Er11  1  0.124941  0.339815  0.125322  1
  Er  Er12  1  0.634184  0.162868  0.123559  1
  Er  Er13  1  0.134184  0.337132  0.376441  1
  Er  Er14  1  0.365816  0.837132  0.623559  1
  Er  Er15  1  0.865816  0.662868  0.876441  1
  Er  Er16  1  0.199751  0.501155  0.747063  1
  Er  Er17  1  0.699751  0.998845  0.752937  1
  Er  Er18  1  0.800249  0.498845  0.247063  1
  Er  Er19  1  0.300249  0.001155  0.252937  1
  Sn  Sn20  1  0.711813  0.965574  0.957872  1
  Sn  Sn21  1  0.211813  0.534426  0.542128  1
  Sn  Sn22  1  0.288187  0.034426  0.457872  1
  Sn  Sn23  1  0.788187  0.465574  0.042128  1
  Sn  Sn24  1  0.565680  0.622384  0.748473  1
  Sn  Sn25  1  0.065680  0.877616  0.751527  1
  Sn  Sn26  1  0.434320  0.377616  0.248473  1
  Sn  Sn27  1  0.934320  0.122384  0.251527  1
  Sn  Sn28  1  0.337855  0.148649  0.751176  1
  Sn  Sn29  1  0.837855  0.351351  0.748824  1
  Sn  Sn30  1  0.662145  0.851351  0.251176  1
  Sn  Sn31  1  0.162145  0.648649  0.248824  1
  Bi  Bi32  1  0.284759  0.032718  0.042597  1
  Bi  Bi33  1  0.784759  0.467282  0.457403  1
  Bi  Bi34  1  0.715241  0.967282  0.542597  1
  Bi  Bi35  1  0.215241  0.532718  0.957403  1
