# generated using pymatgen
data_Ag4AsPt3F28
_symmetry_space_group_name_H-M   'P 1'
_cell_length_a   7.30927600
_cell_length_b   7.83937942
_cell_length_c   10.28093025
_cell_angle_alpha   90.20068399
_cell_angle_beta   90.00000000
_cell_angle_gamma   90.00000000
_symmetry_Int_Tables_number   1
_chemical_formula_structural   Ag4AsPt3F28
_chemical_formula_sum   'Ag4 As1 Pt3 F28'
_cell_volume   589.09562114
_cell_formula_units_Z   1
loop_
 _symmetry_equiv_pos_site_id
 _symmetry_equiv_pos_as_xyz
  1  'x, y, z'
loop_
 _atom_site_type_symbol
 _atom_site_label
 _atom_site_symmetry_multiplicity
 _atom_site_fract_x
 _atom_site_fract_y
 _atom_site_fract_z
 _atom_site_occupancy
  Ag  Ag0  1  0.250000  0.633213  0.740905  1
  Ag  Ag1  1  0.750000  0.361539  0.260321  1
  Ag  Ag2  1  0.250000  0.133798  0.757033  1
  Ag  Ag3  1  0.750000  0.859789  0.245212  1
  As  As4  1  0.750000  0.699295  0.557285  1
  Pt  Pt5  1  0.250000  0.803807  0.055462  1
  Pt  Pt6  1  0.750000  0.193939  0.944671  1
  Pt  Pt7  1  0.250000  0.306812  0.444646  1
  F  F8  1  0.932681  0.115811  0.821380  1
  F  F9  1  0.432704  0.882133  0.178829  1
  F  F10  1  0.577636  0.626046  0.664916  1
  F  F11  1  0.067000  0.385864  0.321967  1
  F  F12  1  0.067296  0.882133  0.178829  1
  F  F13  1  0.567319  0.115811  0.821380  1
  F  F14  1  0.433000  0.385864  0.321967  1
  F  F15  1  0.922364  0.626046  0.664916  1
  F  F16  1  0.750000  0.605937  0.193417  1
  F  F17  1  0.250000  0.387251  0.808628  1
  F  F18  1  0.750000  0.109617  0.307631  1
  F  F19  1  0.250000  0.887264  0.690751  1
  F  F20  1  0.750000  0.492043  0.481717  1
  F  F21  1  0.250000  0.532858  0.524946  1
  F  F22  1  0.750000  0.968261  0.022943  1
  F  F23  1  0.250000  0.030092  0.978106  1
  F  F24  1  0.750000  0.900322  0.629327  1
  F  F25  1  0.250000  0.088566  0.363901  1
  F  F26  1  0.750000  0.413352  0.865914  1
  F  F27  1  0.250000  0.583824  0.131923  1
  F  F28  1  0.919923  0.765677  0.441857  1
  F  F29  1  0.429218  0.229668  0.569856  1
  F  F30  1  0.569992  0.270321  0.070389  1
  F  F31  1  0.071283  0.728691  0.928437  1
  F  F32  1  0.070782  0.229668  0.569856  1
  F  F33  1  0.580077  0.765677  0.441857  1
  F  F34  1  0.428717  0.728691  0.928437  1
  F  F35  1  0.930008  0.270321  0.070389  1
