# generated using pymatgen
data_Nd5Lu(In4Te)2
_symmetry_space_group_name_H-M   'P 1'
_cell_length_a   8.55099087
_cell_length_b   8.55099033
_cell_length_c   8.55099119
_cell_angle_alpha   119.18755061
_cell_angle_beta   119.18754987
_cell_angle_gamma   91.41306641
_symmetry_Int_Tables_number   1
_chemical_formula_structural   Nd5Lu(In4Te)2
_chemical_formula_sum   'Nd5 Lu1 In8 Te2'
_cell_volume   447.39601179
_cell_formula_units_Z   1
loop_
 _symmetry_equiv_pos_site_id
 _symmetry_equiv_pos_as_xyz
  1  'x, y, z'
loop_
 _atom_site_type_symbol
 _atom_site_label
 _atom_site_symmetry_multiplicity
 _atom_site_fract_x
 _atom_site_fract_y
 _atom_site_fract_z
 _atom_site_occupancy
  Nd  Nd0  1  0.250000  0.250000  0.000000  1
  Nd  Nd1  1  0.659290  0.159290  0.818581  1
  Nd  Nd2  1  0.340710  0.840710  0.181419  1
  Nd  Nd3  1  0.159290  0.340710  0.500000  1
  Nd  Nd4  1  0.840710  0.659290  0.500000  1
  Lu  Lu5  1  0.750000  0.750000  0.000000  1
  In  In6  1  0.334015  0.831851  0.792427  1
  In  In7  1  0.668149  0.165985  0.207573  1
  In  In8  1  0.039423  0.541587  0.207573  1
  In  In9  1  0.831851  0.039423  0.497836  1
  In  In10  1  0.460577  0.668149  0.502164  1
  In  In11  1  0.958413  0.460577  0.792427  1
  In  In12  1  0.165985  0.958413  0.497836  1
  In  In13  1  0.541587  0.334015  0.502164  1
  Te  Te14  1  0.505885  0.505885  0.000000  1
  Te  Te15  1  0.994115  0.994115  0.000000  1
