# generated using pymatgen
data_Hf2Fe3P7Ru9
_symmetry_space_group_name_H-M   'P 1'
_cell_length_a   9.23351200
_cell_length_b   9.23351104
_cell_length_c   3.80172700
_cell_angle_alpha   90.00000000
_cell_angle_beta   90.00000000
_cell_angle_gamma   119.99998912
_symmetry_Int_Tables_number   1
_chemical_formula_structural   Hf2Fe3P7Ru9
_chemical_formula_sum   'Hf2 Fe3 P7 Ru9'
_cell_volume   280.70192894
_cell_formula_units_Z   1
loop_
 _symmetry_equiv_pos_site_id
 _symmetry_equiv_pos_as_xyz
  1  'x, y, z'
loop_
 _atom_site_type_symbol
 _atom_site_label
 _atom_site_symmetry_multiplicity
 _atom_site_fract_x
 _atom_site_fract_y
 _atom_site_fract_z
 _atom_site_occupancy
  Hf  Hf0  1  0.000000  0.000000  0.000000  1
  Hf  Hf1  1  0.333333  0.666667  0.500000  1
  Fe  Fe2  1  0.825534  0.605137  0.000000  1
  Fe  Fe3  1  0.779602  0.174466  0.000000  1
  Fe  Fe4  1  0.394863  0.220398  0.000000  1
  P  P5  1  0.080874  0.636642  0.000000  1
  P  P6  1  0.555768  0.919126  0.000000  1
  P  P7  1  0.363358  0.444232  0.000000  1
  P  P8  1  0.786186  0.733987  0.500000  1
  P  P9  1  0.947802  0.213814  0.500000  1
  P  P10  1  0.266013  0.052198  0.500000  1
  P  P11  1  0.666667  0.333333  0.000000  1
  Ru  Ru12  1  0.095325  0.400728  0.000000  1
  Ru  Ru13  1  0.305403  0.904675  0.000000  1
  Ru  Ru14  1  0.599272  0.694597  0.000000  1
  Ru  Ru15  1  0.052804  0.777089  0.500000  1
  Ru  Ru16  1  0.724286  0.947196  0.500000  1
  Ru  Ru17  1  0.222911  0.275714  0.500000  1
  Ru  Ru18  1  0.875398  0.422644  0.500000  1
  Ru  Ru19  1  0.547246  0.124602  0.500000  1
  Ru  Ru20  1  0.577356  0.452754  0.500000  1
