# generated using pymatgen
data_LaTbEr2(NiAs)4
_symmetry_space_group_name_H-M   'P 1'
_cell_length_a   4.07444900
_cell_length_b   4.07444809
_cell_length_c   15.80340200
_cell_angle_alpha   90.00000000
_cell_angle_beta   90.00000000
_cell_angle_gamma   120.00001551
_symmetry_Int_Tables_number   1
_chemical_formula_structural   LaTbEr2(NiAs)4
_chemical_formula_sum   'La1 Tb1 Er2 Ni4 As4'
_cell_volume   227.20549286
_cell_formula_units_Z   1
loop_
 _symmetry_equiv_pos_site_id
 _symmetry_equiv_pos_as_xyz
  1  'x, y, z'
loop_
 _atom_site_type_symbol
 _atom_site_label
 _atom_site_symmetry_multiplicity
 _atom_site_fract_x
 _atom_site_fract_y
 _atom_site_fract_z
 _atom_site_occupancy
  La  La0  1  0.000000  0.000000  0.500000  1
  Tb  Tb1  1  0.000000  0.000000  0.000000  1
  Er  Er2  1  0.000000  0.000000  0.243925  1
  Er  Er3  1  0.000000  0.000000  0.756075  1
  Ni  Ni4  1  0.333333  0.666667  0.134714  1
  Ni  Ni5  1  0.666667  0.333333  0.865286  1
  Ni  Ni6  1  0.666667  0.333333  0.646072  1
  Ni  Ni7  1  0.333333  0.666667  0.353928  1
  As  As8  1  0.333333  0.666667  0.630962  1
  As  As9  1  0.666667  0.333333  0.369038  1
  As  As10  1  0.666667  0.333333  0.118610  1
  As  As11  1  0.333333  0.666667  0.881390  1
