# generated using pymatgen
data_Dy2HoEr(NiAs)4
_symmetry_space_group_name_H-M   'P 1'
_cell_length_a   4.04165000
_cell_length_b   4.04164914
_cell_length_c   15.48115400
_cell_angle_alpha   90.00000000
_cell_angle_beta   90.00000000
_cell_angle_gamma   120.00002343
_symmetry_Int_Tables_number   1
_chemical_formula_structural   Dy2HoEr(NiAs)4
_chemical_formula_sum   'Dy2 Ho1 Er1 Ni4 As4'
_cell_volume   219.00355802
_cell_formula_units_Z   1
loop_
 _symmetry_equiv_pos_site_id
 _symmetry_equiv_pos_as_xyz
  1  'x, y, z'
loop_
 _atom_site_type_symbol
 _atom_site_label
 _atom_site_symmetry_multiplicity
 _atom_site_fract_x
 _atom_site_fract_y
 _atom_site_fract_z
 _atom_site_occupancy
  Dy  Dy0  1  0.000000  0.000000  0.999687  1
  Dy  Dy1  1  0.000000  0.000000  0.500313  1
  Ho  Ho2  1  0.000000  0.000000  0.250000  1
  Er  Er3  1  0.000000  0.000000  0.750000  1
  Ni  Ni4  1  0.333333  0.666667  0.133449  1
  Ni  Ni5  1  0.666667  0.333333  0.864805  1
  Ni  Ni6  1  0.666667  0.333333  0.635195  1
  Ni  Ni7  1  0.333333  0.666667  0.366551  1
  As  As8  1  0.333333  0.666667  0.621235  1
  As  As9  1  0.666667  0.333333  0.379020  1
  As  As10  1  0.666667  0.333333  0.120980  1
  As  As11  1  0.333333  0.666667  0.878765  1
