# generated using pymatgen
data_Li2Sn8IrRu
_symmetry_space_group_name_H-M   'P 1'
_cell_length_a   7.39537196
_cell_length_b   7.39537150
_cell_length_c   7.39537246
_cell_angle_alpha   126.12643796
_cell_angle_beta   126.12643107
_cell_angle_gamma   79.68043316
_symmetry_Int_Tables_number   1
_chemical_formula_structural   Li2Sn8IrRu
_chemical_formula_sum   'Li2 Sn8 Ir1 Ru1'
_cell_volume   254.92797608
_cell_formula_units_Z   1
loop_
 _symmetry_equiv_pos_site_id
 _symmetry_equiv_pos_as_xyz
  1  'x, y, z'
loop_
 _atom_site_type_symbol
 _atom_site_label
 _atom_site_symmetry_multiplicity
 _atom_site_fract_x
 _atom_site_fract_y
 _atom_site_fract_z
 _atom_site_occupancy
  Li  Li0  1  0.498712  0.498712  0.000000  1
  Li  Li1  1  0.001288  0.001288  0.000000  1
  Sn  Sn2  1  0.707106  0.524058  0.504210  1
  Sn  Sn3  1  0.524058  0.019848  0.816951  1
  Sn  Sn4  1  0.202895  0.707106  0.183049  1
  Sn  Sn5  1  0.792894  0.297105  0.816951  1
  Sn  Sn6  1  0.480152  0.975942  0.183049  1
  Sn  Sn7  1  0.297105  0.480152  0.504210  1
  Sn  Sn8  1  0.975942  0.792894  0.495790  1
  Sn  Sn9  1  0.019848  0.202895  0.495790  1
  Ir  Ir10  1  0.250000  0.250000  0.000000  1
  Ru  Ru11  1  0.750000  0.750000  0.000000  1
