# generated using pymatgen
data_Rb4ScCuTe4
_symmetry_space_group_name_H-M   'P 1'
_cell_length_a   9.09598314
_cell_length_b   9.09598237
_cell_length_c   9.09598250
_cell_angle_alpha   134.98256544
_cell_angle_beta   129.09385794
_cell_angle_gamma   70.27632366
_symmetry_Int_Tables_number   1
_chemical_formula_structural   Rb4ScCuTe4
_chemical_formula_sum   'Rb4 Sc1 Cu1 Te4'
_cell_volume   405.01876651
_cell_formula_units_Z   1
loop_
 _symmetry_equiv_pos_site_id
 _symmetry_equiv_pos_as_xyz
  1  'x, y, z'
loop_
 _atom_site_type_symbol
 _atom_site_label
 _atom_site_symmetry_multiplicity
 _atom_site_fract_x
 _atom_site_fract_y
 _atom_site_fract_z
 _atom_site_occupancy
  Rb  Rb0  1  0.469265  0.139669  0.320721  1
  Rb  Rb1  1  0.818948  0.648543  0.179279  1
  Rb  Rb2  1  0.530735  0.851457  0.670404  1
  Rb  Rb3  1  0.181052  0.360331  0.829596  1
  Sc  Sc4  1  0.000000  0.250000  0.250000  1
  Cu  Cu5  1  0.000000  0.750000  0.750000  1
  Te  Te6  1  0.085971  0.890091  0.183821  1
  Te  Te7  1  0.914029  0.097849  0.804118  1
  Te  Te8  1  0.293731  0.609909  0.695882  1
  Te  Te9  1  0.706269  0.402151  0.316179  1
