# generated using pymatgen
data_LaPr9(InSi2)2
_symmetry_space_group_name_H-M   'P 1'
_cell_length_a   7.99981085
_cell_length_b   7.99981029
_cell_length_c   9.30366568
_cell_angle_alpha   115.46299147
_cell_angle_beta   115.46299464
_cell_angle_gamma   89.99999645
_symmetry_Int_Tables_number   1
_chemical_formula_structural   LaPr9(InSi2)2
_chemical_formula_sum   'La1 Pr9 In2 Si4'
_cell_volume   472.71061395
_cell_formula_units_Z   1
loop_
 _symmetry_equiv_pos_site_id
 _symmetry_equiv_pos_as_xyz
  1  'x, y, z'
loop_
 _atom_site_type_symbol
 _atom_site_label
 _atom_site_symmetry_multiplicity
 _atom_site_fract_x
 _atom_site_fract_y
 _atom_site_fract_z
 _atom_site_occupancy
  La  La0  1  0.000000  0.000000  0.000000  1
  Pr  Pr1  1  0.500000  0.500000  0.000000  1
  Pr  Pr2  1  0.960676  0.814920  0.275918  1
  Pr  Pr3  1  0.315242  0.460998  0.275918  1
  Pr  Pr4  1  0.814920  0.315242  0.275918  1
  Pr  Pr5  1  0.460998  0.960676  0.275918  1
  Pr  Pr6  1  0.039324  0.185080  0.724082  1
  Pr  Pr7  1  0.684758  0.539002  0.724082  1
  Pr  Pr8  1  0.185080  0.684758  0.724082  1
  Pr  Pr9  1  0.539002  0.039324  0.724082  1
  In  In10  1  0.749388  0.749388  0.498775  1
  In  In11  1  0.250612  0.250612  0.501225  1
  Si  Si12  1  0.614161  0.885187  0.000000  1
  Si  Si13  1  0.385839  0.114813  0.000000  1
  Si  Si14  1  0.885187  0.385839  0.000000  1
  Si  Si15  1  0.114813  0.614161  0.000000  1
