# generated using pymatgen
data_Eu2BeCu17Si8
_symmetry_space_group_name_H-M   'P 1'
_cell_length_a   8.13066802
_cell_length_b   8.13066789
_cell_length_c   8.07847817
_cell_angle_alpha   120.48717609
_cell_angle_beta   120.48717106
_cell_angle_gamma   89.53144383
_symmetry_Int_Tables_number   1
_chemical_formula_structural   Eu2BeCu17Si8
_chemical_formula_sum   'Eu2 Be1 Cu17 Si8'
_cell_volume   373.58482157
_cell_formula_units_Z   1
loop_
 _symmetry_equiv_pos_site_id
 _symmetry_equiv_pos_as_xyz
  1  'x, y, z'
loop_
 _atom_site_type_symbol
 _atom_site_label
 _atom_site_symmetry_multiplicity
 _atom_site_fract_x
 _atom_site_fract_y
 _atom_site_fract_z
 _atom_site_occupancy
  Eu  Eu0  1  0.750000  0.750000  0.000000  1
  Eu  Eu1  1  0.250000  0.250000  0.000000  1
  Be  Be2  1  0.500000  0.000000  0.500000  1
  Cu  Cu3  1  0.060647  0.198969  0.259615  1
  Cu  Cu4  1  0.939353  0.801031  0.740385  1
  Cu  Cu5  1  0.561616  0.287292  0.848906  1
  Cu  Cu6  1  0.438384  0.712708  0.151094  1
  Cu  Cu7  1  0.787292  0.061616  0.848906  1
  Cu  Cu8  1  0.212708  0.938384  0.151094  1
  Cu  Cu9  1  0.698969  0.560647  0.259615  1
  Cu  Cu10  1  0.301031  0.439353  0.740385  1
  Cu  Cu11  1  0.439762  0.939762  0.738323  1
  Cu  Cu12  1  0.201440  0.701440  0.261677  1
  Cu  Cu13  1  0.944154  0.191355  0.500000  1
  Cu  Cu14  1  0.691355  0.444154  0.500000  1
  Cu  Cu15  1  0.560238  0.060238  0.261677  1
  Cu  Cu16  1  0.798560  0.298560  0.738323  1
  Cu  Cu17  1  0.055846  0.808645  0.500000  1
  Cu  Cu18  1  0.308645  0.555846  0.500000  1
  Cu  Cu19  1  0.000000  0.500000  0.500000  1
  Si  Si20  1  0.056831  0.556831  0.852755  1
  Si  Si21  1  0.704077  0.204077  0.147245  1
  Si  Si22  1  0.558911  0.708857  0.500000  1
  Si  Si23  1  0.208857  0.058911  0.500000  1
  Si  Si24  1  0.943169  0.443169  0.147245  1
  Si  Si25  1  0.295923  0.795923  0.852755  1
  Si  Si26  1  0.441089  0.291143  0.500000  1
  Si  Si27  1  0.791143  0.941089  0.500000  1
