# generated using pymatgen
data_TbEr7TcOsBr8
_symmetry_space_group_name_H-M   'P 1'
_cell_length_a   8.97809496
_cell_length_b   8.94098456
_cell_length_c   6.52219457
_cell_angle_alpha   89.53777034
_cell_angle_beta   89.32610764
_cell_angle_gamma   89.19549832
_symmetry_Int_Tables_number   1
_chemical_formula_structural   TbEr7TcOsBr8
_chemical_formula_sum   'Tb1 Er7 Tc1 Os1 Br8'
_cell_volume   523.45201009
_cell_formula_units_Z   1
loop_
 _symmetry_equiv_pos_site_id
 _symmetry_equiv_pos_as_xyz
  1  'x, y, z'
loop_
 _atom_site_type_symbol
 _atom_site_label
 _atom_site_symmetry_multiplicity
 _atom_site_fract_x
 _atom_site_fract_y
 _atom_site_fract_z
 _atom_site_occupancy
  Tb  Tb0  1  0.250817  0.899894  0.008630  1
  Er  Er1  1  0.752827  0.098945  0.990092  1
  Er  Er2  1  0.097930  0.753565  0.487995  1
  Er  Er3  1  0.900497  0.247512  0.509727  1
  Er  Er4  1  0.754576  0.904282  0.507483  1
  Er  Er5  1  0.244560  0.097208  0.489920  1
  Er  Er6  1  0.094935  0.246059  0.991280  1
  Er  Er7  1  0.904201  0.754485  0.008109  1
  Tc  Tc8  1  0.994661  0.005663  0.249193  1
  Os  Os9  1  0.004440  0.995345  0.748788  1
  Br  Br10  1  0.417891  0.816280  0.419365  1
  Br  Br11  1  0.581133  0.182133  0.588948  1
  Br  Br12  1  0.181763  0.579615  0.086852  1
  Br  Br13  1  0.816860  0.419056  0.911078  1
  Br  Br14  1  0.413201  0.189716  0.089436  1
  Br  Br15  1  0.589991  0.809743  0.912575  1
  Br  Br16  1  0.812374  0.586722  0.410200  1
  Br  Br17  1  0.187344  0.413774  0.590328  1
