# generated using pymatgen
data_CuB4Ir3Pd3Rh
_symmetry_space_group_name_H-M   'P 1'
_cell_length_a   6.68963014
_cell_length_b   6.11658959
_cell_length_c   5.52688745
_cell_angle_alpha   70.78655849
_cell_angle_beta   58.19607688
_cell_angle_gamma   50.66329316
_symmetry_Int_Tables_number   1
_chemical_formula_structural   CuB4Ir3Pd3Rh
_chemical_formula_sum   'Cu1 B4 Ir3 Pd3 Rh1'
_cell_volume   148.64445235
_cell_formula_units_Z   1
loop_
 _symmetry_equiv_pos_site_id
 _symmetry_equiv_pos_as_xyz
  1  'x, y, z'
loop_
 _atom_site_type_symbol
 _atom_site_label
 _atom_site_symmetry_multiplicity
 _atom_site_fract_x
 _atom_site_fract_y
 _atom_site_fract_z
 _atom_site_occupancy
  Cu  Cu0  1  0.884156  0.383328  0.793076  1
  B  B1  1  0.052902  0.977798  0.557464  1
  B  B2  1  0.679848  0.858893  0.201473  1
  B  B3  1  0.405816  0.567157  0.973956  1
  B  B4  1  0.272125  0.194263  0.850379  1
  Ir  Ir5  1  0.391289  0.846590  0.144906  1
  Ir  Ir6  1  0.616310  0.156021  0.851462  1
  Ir  Ir7  1  0.384690  0.876249  0.639044  1
  Pd  Pd8  1  0.939134  0.779237  0.395271  1
  Pd  Pd9  1  0.461337  0.306502  0.368884  1
  Pd  Pd10  1  0.866358  0.369365  0.306151  1
  Rh  Rh11  1  0.096437  0.634198  0.867532  1
