# generated using pymatgen
data_Nb6Al3CuN2
_symmetry_space_group_name_H-M   'P 1'
_cell_length_a   7.05812218
_cell_length_b   7.05211022
_cell_length_c   7.06162900
_cell_angle_alpha   90.00000000
_cell_angle_beta   90.00000000
_cell_angle_gamma   90.16368230
_symmetry_Int_Tables_number   1
_chemical_formula_structural   Nb6Al3CuN2
_chemical_formula_sum   'Nb12 Al6 Cu2 N4'
_cell_volume   351.48871660
_cell_formula_units_Z   2
loop_
 _symmetry_equiv_pos_site_id
 _symmetry_equiv_pos_as_xyz
  1  'x, y, z'
loop_
 _atom_site_type_symbol
 _atom_site_label
 _atom_site_symmetry_multiplicity
 _atom_site_fract_x
 _atom_site_fract_y
 _atom_site_fract_z
 _atom_site_occupancy
  Nb  Nb0  1  0.791657  0.956250  0.375398  1
  Nb  Nb1  1  0.708343  0.043750  0.875398  1
  Nb  Nb2  1  0.203643  0.455439  0.126997  1
  Nb  Nb3  1  0.296357  0.544561  0.626997  1
  Nb  Nb4  1  0.955848  0.377337  0.792759  1
  Nb  Nb5  1  0.043088  0.870904  0.706555  1
  Nb  Nb6  1  0.456912  0.129096  0.206555  1
  Nb  Nb7  1  0.544152  0.622663  0.292759  1
  Nb  Nb8  1  0.376506  0.792944  0.955681  1
  Nb  Nb9  1  0.872954  0.706727  0.043641  1
  Nb  Nb10  1  0.123494  0.207056  0.455681  1
  Nb  Nb11  1  0.627046  0.293273  0.543641  1
  Al  Al12  1  0.823004  0.320992  0.176681  1
  Al  Al13  1  0.676996  0.679008  0.676681  1
  Al  Al14  1  0.561344  0.419126  0.924951  1
  Al  Al15  1  0.416062  0.933902  0.571378  1
  Al  Al16  1  0.938656  0.580874  0.424951  1
  Al  Al17  1  0.083938  0.066098  0.071378  1
  Cu  Cu18  1  0.180652  0.822201  0.319756  1
  Cu  Cu19  1  0.319348  0.177799  0.819756  1
  N  N20  1  0.878295  0.123363  0.627190  1
  N  N21  1  0.621705  0.876637  0.127190  1
  N  N22  1  0.126363  0.624117  0.879014  1
  N  N23  1  0.373637  0.375883  0.379014  1
