# generated using pymatgen
data_Nd4Er3Tm(B6Ru)4
_symmetry_space_group_name_H-M   'P 1'
_cell_length_a   3.70299400
_cell_length_b   9.19792001
_cell_length_c   11.62402801
_cell_angle_alpha   90.00403919
_cell_angle_beta   90.00000000
_cell_angle_gamma   90.00000000
_symmetry_Int_Tables_number   1
_chemical_formula_structural   Nd4Er3Tm(B6Ru)4
_chemical_formula_sum   'Nd4 Er3 Tm1 B24 Ru4'
_cell_volume   395.91256325
_cell_formula_units_Z   1
loop_
 _symmetry_equiv_pos_site_id
 _symmetry_equiv_pos_as_xyz
  1  'x, y, z'
loop_
 _atom_site_type_symbol
 _atom_site_label
 _atom_site_symmetry_multiplicity
 _atom_site_fract_x
 _atom_site_fract_y
 _atom_site_fract_z
 _atom_site_occupancy
  Nd  Nd0  1  0.000000  0.322643  0.414490  1
  Nd  Nd1  1  0.000000  0.677347  0.585563  1
  Nd  Nd2  1  0.000000  0.822590  0.085482  1
  Nd  Nd3  1  0.000000  0.177417  0.914468  1
  Er  Er4  1  0.000000  0.944221  0.371907  1
  Er  Er5  1  0.000000  0.055766  0.628112  1
  Er  Er6  1  0.000000  0.444305  0.127989  1
  Tm  Tm7  1  0.000000  0.555750  0.871912  1
  B  B8  1  0.500000  0.556506  0.430187  1
  B  B9  1  0.500000  0.443496  0.569824  1
  B  B10  1  0.500000  0.056506  0.069809  1
  B  B11  1  0.500000  0.943468  0.930185  1
  B  B12  1  0.500000  0.750397  0.417197  1
  B  B13  1  0.500000  0.249609  0.582803  1
  B  B14  1  0.500000  0.250401  0.082804  1
  B  B15  1  0.500000  0.749402  0.917194  1
  B  B16  1  0.500000  0.790846  0.266504  1
  B  B17  1  0.500000  0.209178  0.733507  1
  B  B18  1  0.500000  0.290849  0.233494  1
  B  B19  1  0.500000  0.708959  0.766557  1
  B  B20  1  0.500000  0.630525  0.184748  1
  B  B21  1  0.500000  0.369640  0.815341  1
  B  B22  1  0.500000  0.130530  0.315251  1
  B  B23  1  0.500000  0.869457  0.684757  1
  B  B24  1  0.500000  0.985724  0.214141  1
  B  B25  1  0.500000  0.014268  0.785858  1
  B  B26  1  0.500000  0.485720  0.285859  1
  B  B27  1  0.500000  0.514389  0.714280  1
  B  B28  1  0.500000  0.602042  0.027548  1
  B  B29  1  0.500000  0.398112  0.972107  1
  B  B30  1  0.500000  0.102084  0.472247  1
  B  B31  1  0.500000  0.897909  0.527754  1
  Ru  Ru32  1  0.000000  0.639856  0.319037  1
  Ru  Ru33  1  0.000000  0.360287  0.681069  1
  Ru  Ru34  1  0.000000  0.139864  0.180939  1
  Ru  Ru35  1  0.000000  0.859935  0.819075  1
