# generated using pymatgen
data_TbNd(Sc4Bi3)2
_symmetry_space_group_name_H-M   'P 1'
_cell_length_a   7.94532900
_cell_length_b   9.08948500
_cell_length_c   11.64296900
_cell_angle_alpha   90.00000000
_cell_angle_beta   90.00000000
_cell_angle_gamma   90.00000000
_symmetry_Int_Tables_number   1
_chemical_formula_structural   TbNd(Sc4Bi3)2
_chemical_formula_sum   'Tb2 Nd2 Sc16 Bi12'
_cell_volume   840.84298169
_cell_formula_units_Z   2
loop_
 _symmetry_equiv_pos_site_id
 _symmetry_equiv_pos_as_xyz
  1  'x, y, z'
loop_
 _atom_site_type_symbol
 _atom_site_label
 _atom_site_symmetry_multiplicity
 _atom_site_fract_x
 _atom_site_fract_y
 _atom_site_fract_z
 _atom_site_occupancy
  Tb  Tb0  1  0.683671  0.750000  0.781295  1
  Tb  Tb1  1  0.183671  0.750000  0.718705  1
  Nd  Nd2  1  0.317451  0.250000  0.219680  1
  Nd  Nd3  1  0.817451  0.250000  0.280320  1
  Sc  Sc4  1  0.347710  0.750000  0.220691  1
  Sc  Sc5  1  0.847710  0.750000  0.279309  1
  Sc  Sc6  1  0.651904  0.250000  0.778097  1
  Sc  Sc7  1  0.151904  0.250000  0.721903  1
  Sc  Sc8  1  0.692135  0.567411  0.062700  1
  Sc  Sc9  1  0.192135  0.932589  0.437300  1
  Sc  Sc10  1  0.307424  0.067156  0.936483  1
  Sc  Sc11  1  0.807424  0.432844  0.563517  1
  Sc  Sc12  1  0.307424  0.432844  0.936483  1
  Sc  Sc13  1  0.807424  0.067156  0.563517  1
  Sc  Sc14  1  0.692135  0.932589  0.062700  1
  Sc  Sc15  1  0.192135  0.567411  0.437300  1
  Sc  Sc16  1  0.482207  0.250000  0.489576  1
  Sc  Sc17  1  0.982207  0.250000  0.010424  1
  Sc  Sc18  1  0.517698  0.750000  0.511963  1
  Sc  Sc19  1  0.017698  0.750000  0.988037  1
  Bi  Bi20  1  0.402161  0.750000  0.967564  1
  Bi  Bi21  1  0.902161  0.750000  0.532436  1
  Bi  Bi22  1  0.599241  0.250000  0.028778  1
  Bi  Bi23  1  0.099241  0.250000  0.471222  1
  Bi  Bi24  1  0.563156  0.985545  0.330387  1
  Bi  Bi25  1  0.063156  0.514455  0.169613  1
  Bi  Bi26  1  0.436263  0.489655  0.671205  1
  Bi  Bi27  1  0.936263  0.010345  0.828795  1
  Bi  Bi28  1  0.436263  0.010345  0.671205  1
  Bi  Bi29  1  0.936263  0.489655  0.828795  1
  Bi  Bi30  1  0.563156  0.514455  0.330387  1
  Bi  Bi31  1  0.063156  0.985545  0.169613  1
