# generated using pymatgen
data_Er19Sc(Cd3Co)2
_symmetry_space_group_name_H-M   'P 1'
_cell_length_a   9.45370600
_cell_length_b   9.45370638
_cell_length_c   9.62601700
_cell_angle_alpha   90.00000000
_cell_angle_beta   90.00000000
_cell_angle_gamma   119.99999865
_symmetry_Int_Tables_number   1
_chemical_formula_structural   Er19Sc(Cd3Co)2
_chemical_formula_sum   'Er19 Sc1 Cd6 Co2'
_cell_volume   745.04321457
_cell_formula_units_Z   1
loop_
 _symmetry_equiv_pos_site_id
 _symmetry_equiv_pos_as_xyz
  1  'x, y, z'
loop_
 _atom_site_type_symbol
 _atom_site_label
 _atom_site_symmetry_multiplicity
 _atom_site_fract_x
 _atom_site_fract_y
 _atom_site_fract_z
 _atom_site_occupancy
  Er  Er0  1  0.000000  0.000000  0.000000  1
  Er  Er1  1  0.542333  0.457667  0.250356  1
  Er  Er2  1  0.542333  0.084666  0.250356  1
  Er  Er3  1  0.915334  0.457667  0.250356  1
  Er  Er4  1  0.457667  0.542333  0.749644  1
  Er  Er5  1  0.457667  0.915334  0.749644  1
  Er  Er6  1  0.084666  0.542333  0.749644  1
  Er  Er7  1  0.210703  0.789297  0.436373  1
  Er  Er8  1  0.210703  0.421408  0.436373  1
  Er  Er9  1  0.578592  0.789297  0.436373  1
  Er  Er10  1  0.789297  0.210703  0.563627  1
  Er  Er11  1  0.789297  0.578592  0.563627  1
  Er  Er12  1  0.421408  0.210703  0.563627  1
  Er  Er13  1  0.788077  0.211923  0.937928  1
  Er  Er14  1  0.788077  0.576152  0.937928  1
  Er  Er15  1  0.423848  0.211923  0.937928  1
  Er  Er16  1  0.211923  0.788077  0.062072  1
  Er  Er17  1  0.211923  0.423848  0.062072  1
  Er  Er18  1  0.576152  0.788077  0.062072  1
  Sc  Sc19  1  0.000000  0.000000  0.500000  1
  Cd  Cd20  1  0.887107  0.112893  0.255118  1
  Cd  Cd21  1  0.887107  0.774214  0.255118  1
  Cd  Cd22  1  0.225786  0.112893  0.255118  1
  Cd  Cd23  1  0.112893  0.887107  0.744882  1
  Cd  Cd24  1  0.112893  0.225786  0.744882  1
  Cd  Cd25  1  0.774214  0.887107  0.744882  1
  Co  Co26  1  0.333333  0.666667  0.249612  1
  Co  Co27  1  0.666667  0.333333  0.750388  1
