# generated using pymatgen
data_Tb3Dy2Mg2P12Ir17
_symmetry_space_group_name_H-M   'P 1'
_cell_length_a   12.67211400
_cell_length_b   12.83050023
_cell_length_c   3.98260800
_cell_angle_alpha   90.00000000
_cell_angle_beta   90.00000000
_cell_angle_gamma   119.59248534
_symmetry_Int_Tables_number   1
_chemical_formula_structural   Tb3Dy2Mg2P12Ir17
_chemical_formula_sum   'Tb3 Dy2 Mg2 P12 Ir17'
_cell_volume   563.06642099
_cell_formula_units_Z   1
loop_
 _symmetry_equiv_pos_site_id
 _symmetry_equiv_pos_as_xyz
  1  'x, y, z'
loop_
 _atom_site_type_symbol
 _atom_site_label
 _atom_site_symmetry_multiplicity
 _atom_site_fract_x
 _atom_site_fract_y
 _atom_site_fract_z
 _atom_site_occupancy
  Tb  Tb0  1  0.002287  0.813184  0.000000  1
  Tb  Tb1  1  0.189103  0.186816  0.000000  1
  Tb  Tb2  1  0.810131  0.000000  0.000000  1
  Dy  Dy3  1  0.332942  0.664200  0.500000  1
  Dy  Dy4  1  0.668741  0.335800  0.500000  1
  Mg  Mg5  1  0.997653  0.444055  0.500000  1
  Mg  Mg6  1  0.553598  0.555945  0.500000  1
  P  P7  1  0.003107  0.643203  0.500000  1
  P  P8  1  0.359903  0.356797  0.500000  1
  P  P9  1  0.642355  0.000000  0.500000  1
  P  P10  1  0.513981  0.685993  0.000000  1
  P  P11  1  0.308217  0.824178  0.000000  1
  P  P12  1  0.168775  0.481408  0.000000  1
  P  P13  1  0.484039  0.175822  0.000000  1
  P  P14  1  0.687368  0.518592  0.000000  1
  P  P15  1  0.827987  0.314007  0.000000  1
  P  P16  1  0.998728  0.176002  0.500000  1
  P  P17  1  0.822726  0.823998  0.500000  1
  P  P18  1  0.179148  0.000000  0.500000  1
  Ir  Ir19  1  0.504912  0.866083  0.000000  1
  Ir  Ir20  1  0.128296  0.639793  0.000000  1
  Ir  Ir21  1  0.357669  0.492603  0.000000  1
  Ir  Ir22  1  0.488504  0.360207  0.000000  1
  Ir  Ir23  1  0.865068  0.507397  0.000000  1
  Ir  Ir24  1  0.638831  0.133917  0.000000  1
  Ir  Ir25  1  0.462002  0.000000  0.500000  1
  Ir  Ir26  1  0.996452  0.279521  0.000000  1
  Ir  Ir27  1  0.716931  0.720479  0.000000  1
  Ir  Ir28  1  0.287615  0.000000  0.000000  1
  Ir  Ir29  1  0.622593  0.806910  0.500000  1
  Ir  Ir30  1  0.201489  0.824824  0.500000  1
  Ir  Ir31  1  0.176922  0.367845  0.500000  1
  Ir  Ir32  1  0.376665  0.175176  0.500000  1
  Ir  Ir33  1  0.809077  0.632155  0.500000  1
  Ir  Ir34  1  0.815683  0.193090  0.500000  1
  Ir  Ir35  1  0.000502  0.000000  0.500000  1
