# generated using pymatgen
data_Ho4Si10Os5Ru
_symmetry_space_group_name_H-M   'P 1'
_cell_length_a   8.24983317
_cell_length_b   8.24983286
_cell_length_c   8.24983236
_cell_angle_alpha   140.07788511
_cell_angle_beta   108.44047956
_cell_angle_gamma   85.22534677
_symmetry_Int_Tables_number   1
_chemical_formula_structural   Ho4Si10Os5Ru
_chemical_formula_sum   'Ho4 Si10 Os5 Ru1'
_cell_volume   329.90861251
_cell_formula_units_Z   1
loop_
 _symmetry_equiv_pos_site_id
 _symmetry_equiv_pos_as_xyz
  1  'x, y, z'
loop_
 _atom_site_type_symbol
 _atom_site_label
 _atom_site_symmetry_multiplicity
 _atom_site_fract_x
 _atom_site_fract_y
 _atom_site_fract_z
 _atom_site_occupancy
  Ho  Ho0  1  0.904767  0.137466  0.768805  1
  Ho  Ho1  1  0.095233  0.864039  0.232699  1
  Ho  Ho2  1  0.631338  0.362534  0.267301  1
  Ho  Ho3  1  0.368662  0.635961  0.731195  1
  Si  Si4  1  0.000000  0.750000  0.750000  1
  Si  Si5  1  0.000000  0.250000  0.250000  1
  Si  Si6  1  0.707613  0.457613  0.750000  1
  Si  Si7  1  0.292387  0.042387  0.750000  1
  Si  Si8  1  0.292863  0.542863  0.250000  1
  Si  Si9  1  0.707137  0.957137  0.250000  1
  Si  Si10  1  0.236614  0.405830  0.832637  1
  Si  Si11  1  0.573192  0.903977  0.667363  1
  Si  Si12  1  0.426808  0.094170  0.330784  1
  Si  Si13  1  0.763386  0.596023  0.169216  1
  Os  Os14  1  0.757065  0.852976  0.904260  1
  Os  Os15  1  0.500000  0.250000  0.750000  1
  Os  Os16  1  0.948716  0.352806  0.595740  1
  Os  Os17  1  0.051284  0.647024  0.404089  1
  Os  Os18  1  0.242935  0.147194  0.095911  1
  Ru  Ru19  1  0.500000  0.750000  0.250000  1
