# generated using pymatgen
data_Dy3TmMg2Ir3
_symmetry_space_group_name_H-M   'P 1'
_cell_length_a   7.39248600
_cell_length_b   7.40139131
_cell_length_c   4.12131900
_cell_angle_alpha   90.00000000
_cell_angle_beta   90.00000000
_cell_angle_gamma   119.96021558
_symmetry_Int_Tables_number   1
_chemical_formula_structural   Dy3TmMg2Ir3
_chemical_formula_sum   'Dy3 Tm1 Mg2 Ir3'
_cell_volume   195.36407529
_cell_formula_units_Z   1
loop_
 _symmetry_equiv_pos_site_id
 _symmetry_equiv_pos_as_xyz
  1  'x, y, z'
loop_
 _atom_site_type_symbol
 _atom_site_label
 _atom_site_symmetry_multiplicity
 _atom_site_fract_x
 _atom_site_fract_y
 _atom_site_fract_z
 _atom_site_occupancy
  Dy  Dy0  1  0.392356  0.000000  0.500001  1
  Dy  Dy1  1  0.013025  0.426732  0.500001  1
  Dy  Dy2  1  0.586293  0.573268  0.500001  1
  Tm  Tm3  1  0.751299  0.000000  0.000000  1
  Mg  Mg4  1  0.248423  0.248692  0.000000  1
  Mg  Mg5  1  0.999732  0.751308  0.000000  1
  Ir  Ir6  1  0.670387  0.332104  0.000000  1
  Ir  Ir7  1  0.338283  0.667896  0.000000  1
  Ir  Ir8  1  0.000203  0.000000  0.500001  1
