# generated using pymatgen
data_Li2Co(BRu)2
_symmetry_space_group_name_H-M   'P 1'
_cell_length_a   2.84753300
_cell_length_b   5.75853800
_cell_length_c   8.80614500
_cell_angle_alpha   90.00000000
_cell_angle_beta   90.00000000
_cell_angle_gamma   90.00000000
_symmetry_Int_Tables_number   1
_chemical_formula_structural   Li2Co(BRu)2
_chemical_formula_sum   'Li4 Co2 B4 Ru4'
_cell_volume   144.39988090
_cell_formula_units_Z   2
loop_
 _symmetry_equiv_pos_site_id
 _symmetry_equiv_pos_as_xyz
  1  'x, y, z'
loop_
 _atom_site_type_symbol
 _atom_site_label
 _atom_site_symmetry_multiplicity
 _atom_site_fract_x
 _atom_site_fract_y
 _atom_site_fract_z
 _atom_site_occupancy
  Li  Li0  1  0.500000  0.326210  0.064307  1
  Li  Li1  1  0.500000  0.673790  0.935693  1
  Li  Li2  1  0.500000  0.173790  0.564307  1
  Li  Li3  1  0.500000  0.826210  0.435693  1
  Co  Co4  1  0.000000  0.500000  0.500000  1
  Co  Co5  1  0.000000  0.000000  0.000000  1
  B  B6  1  0.500000  0.065701  0.833299  1
  B  B7  1  0.500000  0.565701  0.666701  1
  B  B8  1  0.500000  0.434299  0.333299  1
  B  B9  1  0.500000  0.934299  0.166701  1
  Ru  Ru10  1  0.000000  0.339867  0.785711  1
  Ru  Ru11  1  0.000000  0.160133  0.285711  1
  Ru  Ru12  1  0.000000  0.660133  0.214289  1
  Ru  Ru13  1  0.000000  0.839867  0.714289  1
