# generated using pymatgen
data_Y3Sc7(GaSb)4
_symmetry_space_group_name_H-M   'P 1'
_cell_length_a   7.97992478
_cell_length_b   8.53116662
_cell_length_c   7.60133239
_cell_angle_alpha   90.03168631
_cell_angle_beta   89.68767230
_cell_angle_gamma   125.37726279
_symmetry_Int_Tables_number   1
_chemical_formula_structural   Y3Sc7(GaSb)4
_chemical_formula_sum   'Y3 Sc7 Ga4 Sb4'
_cell_volume   421.92611842
_cell_formula_units_Z   1
loop_
 _symmetry_equiv_pos_site_id
 _symmetry_equiv_pos_as_xyz
  1  'x, y, z'
loop_
 _atom_site_type_symbol
 _atom_site_label
 _atom_site_symmetry_multiplicity
 _atom_site_fract_x
 _atom_site_fract_y
 _atom_site_fract_z
 _atom_site_occupancy
  Y  Y0  1  0.158249  0.441517  0.820512  1
  Y  Y1  1  0.664227  0.946608  0.682773  1
  Y  Y2  1  0.343061  0.056008  0.317908  1
  Sc  Sc3  1  0.031148  0.273170  0.337889  1
  Sc  Sc4  1  0.975021  0.730253  0.659596  1
  Sc  Sc5  1  0.471787  0.227305  0.837176  1
  Sc  Sc6  1  0.823469  0.555151  0.175292  1
  Sc  Sc7  1  0.528600  0.771499  0.160906  1
  Sc  Sc8  1  0.998447  0.997947  0.002374  1
  Sc  Sc9  1  0.503353  0.501567  0.499032  1
  Ga  Ga10  1  0.376304  0.373222  0.127191  1
  Ga  Ga11  1  0.628162  0.626995  0.873116  1
  Ga  Ga12  1  0.127105  0.126675  0.625989  1
  Ga  Ga13  1  0.876212  0.868952  0.367898  1
  Sb  Sb14  1  0.760135  0.184437  0.043415  1
  Sb  Sb15  1  0.223623  0.811468  0.970280  1
  Sb  Sb16  1  0.740811  0.325941  0.532154  1
  Sb  Sb17  1  0.270286  0.681286  0.466500  1
