# generated using pymatgen
data_Sr2Hf6BBr17
_symmetry_space_group_name_H-M   'P 1'
_cell_length_a   10.20157247
_cell_length_b   10.20162403
_cell_length_c   10.20170166
_cell_angle_alpha   104.54687114
_cell_angle_beta   104.54385921
_cell_angle_gamma   119.84715976
_symmetry_Int_Tables_number   1
_chemical_formula_structural   Sr2Hf6BBr17
_chemical_formula_sum   'Sr2 Hf6 B1 Br17'
_cell_volume   796.90707800
_cell_formula_units_Z   1
loop_
 _symmetry_equiv_pos_site_id
 _symmetry_equiv_pos_as_xyz
  1  'x, y, z'
loop_
 _atom_site_type_symbol
 _atom_site_label
 _atom_site_symmetry_multiplicity
 _atom_site_fract_x
 _atom_site_fract_y
 _atom_site_fract_z
 _atom_site_occupancy
  Sr  Sr0  1  0.249996  0.749992  0.499990  1
  Sr  Sr1  1  0.750004  0.250008  0.500010  1
  Hf  Hf2  1  0.225566  0.225566  0.000002  1
  Hf  Hf3  1  0.774434  0.774434  0.999998  1
  Hf  Hf4  1  0.177167  0.048674  0.225846  1
  Hf  Hf5  1  0.951321  0.177175  0.128502  1
  Hf  Hf6  1  0.822833  0.951326  0.774154  1
  Hf  Hf7  1  0.048679  0.822825  0.871498  1
  B  B8  1  0.000000  0.000000  0.000000  1
  Br  Br9  1  0.851500  0.738049  0.589541  1
  Br  Br10  1  0.261942  0.851486  0.113431  1
  Br  Br11  1  0.111122  0.597248  0.708357  1
  Br  Br12  1  0.534736  0.684188  0.735713  1
  Br  Br13  1  0.888878  0.402752  0.291643  1
  Br  Br14  1  0.465264  0.315812  0.264287  1
  Br  Br15  1  0.799015  0.534725  0.850537  1
  Br  Br16  1  0.402749  0.111108  0.513858  1
  Br  Br17  1  0.597251  0.888892  0.486142  1
  Br  Br18  1  0.148500  0.261951  0.410459  1
  Br  Br19  1  0.315825  0.051539  0.850554  1
  Br  Br20  1  0.948462  0.799013  0.264278  1
  Br  Br21  1  0.738058  0.148514  0.886569  1
  Br  Br22  1  0.500000  0.500000  0.000000  1
  Br  Br23  1  0.200985  0.465275  0.149463  1
  Br  Br24  1  0.051538  0.200987  0.735722  1
  Br  Br25  1  0.684175  0.948461  0.149446  1
