# generated using pymatgen
data_Zr2U(GaRu)3
_symmetry_space_group_name_H-M   'P 1'
_cell_length_a   7.08949041
_cell_length_b   7.09043943
_cell_length_c   3.55767500
_cell_angle_alpha   90.00000000
_cell_angle_beta   90.00000000
_cell_angle_gamma   117.58669809
_symmetry_Int_Tables_number   1
_chemical_formula_structural   Zr2U(GaRu)3
_chemical_formula_sum   'Zr2 U1 Ga3 Ru3'
_cell_volume   158.50415051
_cell_formula_units_Z   1
loop_
 _symmetry_equiv_pos_site_id
 _symmetry_equiv_pos_as_xyz
  1  'x, y, z'
loop_
 _atom_site_type_symbol
 _atom_site_label
 _atom_site_symmetry_multiplicity
 _atom_site_fract_x
 _atom_site_fract_y
 _atom_site_fract_z
 _atom_site_occupancy
  Zr  Zr0  1  0.398296  0.999289  0.500000  1
  Zr  Zr1  1  0.999221  0.398261  0.500000  1
  U  U2  1  0.587217  0.587211  0.500000  1
  Ga  Ga3  1  0.736456  0.018632  0.000000  1
  Ga  Ga4  1  0.018604  0.736458  0.000000  1
  Ga  Ga5  1  0.242764  0.242776  0.000000  1
  Ru  Ru6  1  0.363365  0.665970  0.000000  1
  Ru  Ru7  1  0.666038  0.363374  0.000000  1
  Ru  Ru8  1  0.988040  0.988029  0.500000  1
