# generated using pymatgen
data_HfZr7Co4(Si7Rh2)2
_symmetry_space_group_name_H-M   'P 1'
_cell_length_a   9.59435734
_cell_length_b   9.59487326
_cell_length_c   9.59505801
_cell_angle_alpha   94.29307947
_cell_angle_beta   94.28931160
_cell_angle_gamma   148.24873748
_symmetry_Int_Tables_number   1
_chemical_formula_structural   HfZr7Co4(Si7Rh2)2
_chemical_formula_sum   'Hf1 Zr7 Co4 Si14 Rh4'
_cell_volume   447.08834592
_cell_formula_units_Z   1
loop_
 _symmetry_equiv_pos_site_id
 _symmetry_equiv_pos_as_xyz
  1  'x, y, z'
loop_
 _atom_site_type_symbol
 _atom_site_label
 _atom_site_symmetry_multiplicity
 _atom_site_fract_x
 _atom_site_fract_y
 _atom_site_fract_z
 _atom_site_occupancy
  Hf  Hf0  1  0.137155  0.137157  0.274305  1
  Zr  Zr1  1  0.863115  0.863112  0.726238  1
  Zr  Zr2  1  0.863335  0.136946  0.000211  1
  Zr  Zr3  1  0.136874  0.863258  0.000206  1
  Zr  Zr4  1  0.498703  0.305128  0.806408  1
  Zr  Zr5  1  0.498877  0.692010  0.193662  1
  Zr  Zr6  1  0.694764  0.501637  0.193671  1
  Zr  Zr7  1  0.307728  0.501302  0.806425  1
  Co  Co8  1  0.598060  0.401166  0.499565  1
  Co  Co9  1  0.901492  0.098415  0.499563  1
  Co  Co10  1  0.901410  0.401396  0.802787  1
  Co  Co11  1  0.598649  0.098630  0.197290  1
  Si  Si12  1  0.542143  0.132920  0.590742  1
  Si  Si13  1  0.542260  0.951514  0.409241  1
  Si  Si14  1  0.866998  0.457744  0.409246  1
  Si  Si15  1  0.048573  0.457795  0.590749  1
  Si  Si16  1  0.749818  0.749807  0.000421  1
  Si  Si17  1  0.250599  0.250606  0.000424  1
  Si  Si18  1  0.291210  0.291222  0.582519  1
  Si  Si19  1  0.708566  0.708578  0.417047  1
  Si  Si20  1  0.708660  0.291249  0.000017  1
  Si  Si21  1  0.291358  0.708767  0.000018  1
  Si  Si22  1  0.979127  0.274784  0.296098  1
  Si  Si23  1  0.978860  0.682601  0.703802  1
  Si  Si24  1  0.724976  0.021225  0.703804  1
  Si  Si25  1  0.316963  0.021305  0.296087  1
  Rh  Rh26  1  0.392540  0.892531  0.785056  1
  Rh  Rh27  1  0.107485  0.607491  0.214986  1
  Rh  Rh28  1  0.107261  0.892577  0.499700  1
  Rh  Rh29  1  0.392442  0.607131  0.499712  1
