# generated using pymatgen
data_TbScSi(PRu2)6
_symmetry_space_group_name_H-M   'P 1'
_cell_length_a   9.40309900
_cell_length_b   9.40309736
_cell_length_c   3.93921200
_cell_angle_alpha   90.00000000
_cell_angle_beta   90.00000000
_cell_angle_gamma   120.00000226
_symmetry_Int_Tables_number   1
_chemical_formula_structural   TbScSi(PRu2)6
_chemical_formula_sum   'Tb1 Sc1 Si1 P6 Ru12'
_cell_volume   301.63512790
_cell_formula_units_Z   1
loop_
 _symmetry_equiv_pos_site_id
 _symmetry_equiv_pos_as_xyz
  1  'x, y, z'
loop_
 _atom_site_type_symbol
 _atom_site_label
 _atom_site_symmetry_multiplicity
 _atom_site_fract_x
 _atom_site_fract_y
 _atom_site_fract_z
 _atom_site_occupancy
  Tb  Tb0  1  0.333333  0.666667  0.000000  1
  Sc  Sc1  1  0.666667  0.333333  0.500000  1
  Si  Si2  1  0.000000  0.000000  0.000000  1
  P  P3  1  0.602936  0.720323  0.500000  1
  P  P4  1  0.279677  0.882614  0.500000  1
  P  P5  1  0.117386  0.397064  0.500000  1
  P  P6  1  0.884868  0.571881  0.000000  1
  P  P7  1  0.428119  0.312987  0.000000  1
  P  P8  1  0.687013  0.115132  0.000000  1
  Ru  Ru9  1  0.556282  0.954080  0.500000  1
  Ru  Ru10  1  0.397798  0.443718  0.500000  1
  Ru  Ru11  1  0.912652  0.119852  0.500000  1
  Ru  Ru12  1  0.207200  0.087348  0.500000  1
  Ru  Ru13  1  0.880148  0.792800  0.500000  1
  Ru  Ru14  1  0.720160  0.887400  0.000000  1
  Ru  Ru15  1  0.112600  0.832759  0.000000  1
  Ru  Ru16  1  0.167241  0.279840  0.000000  1
  Ru  Ru17  1  0.425763  0.071553  0.000000  1
  Ru  Ru18  1  0.928447  0.354212  0.000000  1
  Ru  Ru19  1  0.645788  0.574237  0.000000  1
  Ru  Ru20  1  0.045920  0.602202  0.500000  1
