# generated using pymatgen
data_Mn4AlV7Os4
_symmetry_space_group_name_H-M   'P 1'
_cell_length_a   5.92514500
_cell_length_b   4.18129100
_cell_length_c   8.36456700
_cell_angle_alpha   90.00000000
_cell_angle_beta   89.99919939
_cell_angle_gamma   90.00000000
_symmetry_Int_Tables_number   1
_chemical_formula_structural   Mn4AlV7Os4
_chemical_formula_sum   'Mn4 Al1 V7 Os4'
_cell_volume   207.23010196
_cell_formula_units_Z   1
loop_
 _symmetry_equiv_pos_site_id
 _symmetry_equiv_pos_as_xyz
  1  'x, y, z'
loop_
 _atom_site_type_symbol
 _atom_site_label
 _atom_site_symmetry_multiplicity
 _atom_site_fract_x
 _atom_site_fract_y
 _atom_site_fract_z
 _atom_site_occupancy
  Mn  Mn0  1  0.254652  0.250001  0.124951  1
  Mn  Mn1  1  0.747764  0.750000  0.378791  1
  Mn  Mn2  1  0.250302  0.250001  0.625085  1
  Mn  Mn3  1  0.747736  0.750000  0.871192  1
  Al  Al4  1  0.000192  0.750000  0.124992  1
  V  V5  1  0.499124  0.750000  0.124978  1
  V  V6  1  0.000241  0.250001  0.370761  1
  V  V7  1  0.500019  0.250001  0.375763  1
  V  V8  1  0.500622  0.750000  0.625008  1
  V  V9  1  0.998602  0.750000  0.625006  1
  V  V10  1  0.499997  0.250001  0.874221  1
  V  V11  1  0.000269  0.250001  0.879235  1
  Os  Os12  1  0.747951  0.250001  0.124970  1
  Os  Os13  1  0.251004  0.750000  0.377165  1
  Os  Os14  1  0.750528  0.250001  0.625022  1
  Os  Os15  1  0.250996  0.750000  0.872858  1
