# generated using pymatgen
data_DyLuB6Os
_symmetry_space_group_name_H-M   'P 1'
_cell_length_a   3.62070000
_cell_length_b   9.07544600
_cell_length_c   11.46726400
_cell_angle_alpha   90.00000000
_cell_angle_beta   90.00000000
_cell_angle_gamma   90.00000000
_symmetry_Int_Tables_number   1
_chemical_formula_structural   DyLuB6Os
_chemical_formula_sum   'Dy4 Lu4 B24 Os4'
_cell_volume   376.80818680
_cell_formula_units_Z   4
loop_
 _symmetry_equiv_pos_site_id
 _symmetry_equiv_pos_as_xyz
  1  'x, y, z'
loop_
 _atom_site_type_symbol
 _atom_site_label
 _atom_site_symmetry_multiplicity
 _atom_site_fract_x
 _atom_site_fract_y
 _atom_site_fract_z
 _atom_site_occupancy
  Dy  Dy0  1  0.000000  0.321688  0.413963  1
  Dy  Dy1  1  0.000000  0.678312  0.586037  1
  Dy  Dy2  1  0.000000  0.821688  0.086037  1
  Dy  Dy3  1  0.000000  0.178312  0.913963  1
  Lu  Lu4  1  0.000000  0.944479  0.373202  1
  Lu  Lu5  1  0.000000  0.055521  0.626798  1
  Lu  Lu6  1  0.000000  0.444479  0.126798  1
  Lu  Lu7  1  0.000000  0.555521  0.873202  1
  B  B8  1  0.500000  0.554475  0.432806  1
  B  B9  1  0.500000  0.445525  0.567194  1
  B  B10  1  0.500000  0.054475  0.067194  1
  B  B11  1  0.500000  0.945525  0.932806  1
  B  B12  1  0.500000  0.749977  0.419598  1
  B  B13  1  0.500000  0.250023  0.580402  1
  B  B14  1  0.500000  0.249977  0.080402  1
  B  B15  1  0.500000  0.750023  0.919598  1
  B  B16  1  0.500000  0.792249  0.266253  1
  B  B17  1  0.500000  0.207751  0.733746  1
  B  B18  1  0.500000  0.292249  0.233747  1
  B  B19  1  0.500000  0.707751  0.766254  1
  B  B20  1  0.500000  0.631048  0.184451  1
  B  B21  1  0.500000  0.368952  0.815549  1
  B  B22  1  0.500000  0.131048  0.315549  1
  B  B23  1  0.500000  0.868952  0.684451  1
  B  B24  1  0.500000  0.982915  0.213807  1
  B  B25  1  0.500000  0.017085  0.786193  1
  B  B26  1  0.500000  0.482915  0.286193  1
  B  B27  1  0.500000  0.517085  0.713807  1
  B  B28  1  0.500000  0.603881  0.028618  1
  B  B29  1  0.500000  0.396119  0.971382  1
  B  B30  1  0.500000  0.103881  0.471382  1
  B  B31  1  0.500000  0.896119  0.528618  1
  Os  Os32  1  0.000000  0.638532  0.320415  1
  Os  Os33  1  0.000000  0.361468  0.679585  1
  Os  Os34  1  0.000000  0.138532  0.179585  1
  Os  Os35  1  0.000000  0.861468  0.820415  1
