# generated using pymatgen
data_Tm3Th(Ga3Ir)6
_symmetry_space_group_name_H-M   'P 1'
_cell_length_a   7.61061904
_cell_length_b   7.61123270
_cell_length_c   9.46596400
_cell_angle_alpha   90.00000000
_cell_angle_beta   90.00000000
_cell_angle_gamma   119.84299178
_symmetry_Int_Tables_number   1
_chemical_formula_structural   Tm3Th(Ga3Ir)6
_chemical_formula_sum   'Tm3 Th1 Ga18 Ir6'
_cell_volume   475.61484014
_cell_formula_units_Z   1
loop_
 _symmetry_equiv_pos_site_id
 _symmetry_equiv_pos_as_xyz
  1  'x, y, z'
loop_
 _atom_site_type_symbol
 _atom_site_label
 _atom_site_symmetry_multiplicity
 _atom_site_fract_x
 _atom_site_fract_y
 _atom_site_fract_z
 _atom_site_occupancy
  Tm  Tm0  1  0.002735  0.331913  0.250000  1
  Tm  Tm1  1  0.668848  0.997144  0.750000  1
  Tm  Tm2  1  0.331564  0.002507  0.250000  1
  Th  Th3  1  0.996620  0.668455  0.750000  1
  Ga  Ga4  1  0.128188  0.130808  0.750000  1
  Ga  Ga5  1  0.874594  0.875193  0.250000  1
  Ga  Ga6  1  0.998019  0.328419  0.578624  1
  Ga  Ga7  1  0.001846  0.665841  0.414239  1
  Ga  Ga8  1  0.001846  0.665841  0.085761  1
  Ga  Ga9  1  0.339855  0.003707  0.921371  1
  Ga  Ga10  1  0.998019  0.328419  0.921376  1
  Ga  Ga11  1  0.666021  0.001918  0.081847  1
  Ga  Ga12  1  0.666021  0.001918  0.418153  1
  Ga  Ga13  1  0.339855  0.003707  0.578629  1
  Ga  Ga14  1  0.331270  0.331172  0.067147  1
  Ga  Ga15  1  0.663502  0.668888  0.936420  1
  Ga  Ga16  1  0.663502  0.668888  0.563580  1
  Ga  Ga17  1  0.331270  0.331172  0.432853  1
  Ga  Ga18  1  0.341828  0.546088  0.750000  1
  Ga  Ga19  1  0.660402  0.451874  0.250000  1
  Ga  Ga20  1  0.541908  0.335910  0.750000  1
  Ga  Ga21  1  0.452406  0.661064  0.250000  1
  Ir  Ir22  1  0.672597  0.329790  0.500654  1
  Ir  Ir23  1  0.326873  0.670934  0.500877  1
  Ir  Ir24  1  0.326873  0.670934  0.999123  1
  Ir  Ir25  1  0.672597  0.329790  0.999346  1
  Ir  Ir26  1  0.000472  0.998854  0.500723  1
  Ir  Ir27  1  0.000472  0.998854  0.999277  1
