# generated using pymatgen
data_Y8TaSi16Tc11
_symmetry_space_group_name_H-M   'P 1'
_cell_length_a   6.86573246
_cell_length_b   6.79780317
_cell_length_c   12.71718300
_cell_angle_alpha   90.00000000
_cell_angle_beta   90.00000000
_cell_angle_gamma   89.88977075
_symmetry_Int_Tables_number   1
_chemical_formula_structural   Y8TaSi16Tc11
_chemical_formula_sum   'Y8 Ta1 Si16 Tc11'
_cell_volume   593.53396760
_cell_formula_units_Z   1
loop_
 _symmetry_equiv_pos_site_id
 _symmetry_equiv_pos_as_xyz
  1  'x, y, z'
loop_
 _atom_site_type_symbol
 _atom_site_label
 _atom_site_symmetry_multiplicity
 _atom_site_fract_x
 _atom_site_fract_y
 _atom_site_fract_z
 _atom_site_occupancy
  Y  Y0  1  0.487965  0.661608  0.595059  1
  Y  Y1  1  0.002642  0.834089  0.902990  1
  Y  Y2  1  0.501598  0.334066  0.094671  1
  Y  Y3  1  0.005103  0.163024  0.404519  1
  Y  Y4  1  0.501598  0.334066  0.405329  1
  Y  Y5  1  0.005103  0.163024  0.095481  1
  Y  Y6  1  0.487965  0.661608  0.904941  1
  Y  Y7  1  0.002642  0.834089  0.597010  1
  Ta  Ta8  1  0.674369  0.998127  0.250000  1
  Si  Si9  1  0.664910  0.957768  0.458288  1
  Si  Si10  1  0.148122  0.559375  0.056080  1
  Si  Si11  1  0.351241  0.056280  0.947997  1
  Si  Si12  1  0.833306  0.456495  0.546591  1
  Si  Si13  1  0.351241  0.056280  0.552003  1
  Si  Si14  1  0.833306  0.456495  0.953409  1
  Si  Si15  1  0.664910  0.957768  0.041712  1
  Si  Si16  1  0.148122  0.559375  0.443920  1
  Si  Si17  1  0.461602  0.341338  0.750000  1
  Si  Si18  1  0.983471  0.157139  0.750000  1
  Si  Si19  1  0.525103  0.630718  0.250000  1
  Si  Si20  1  0.046149  0.848109  0.250000  1
  Si  Si21  1  0.693307  0.864929  0.750000  1
  Si  Si22  1  0.189003  0.594275  0.750000  1
  Si  Si23  1  0.300949  0.127854  0.250000  1
  Si  Si24  1  0.803983  0.373458  0.250000  1
  Tc  Tc25  1  0.692441  0.152834  0.629051  1
  Tc  Tc26  1  0.150507  0.343587  0.894312  1
  Tc  Tc27  1  0.352253  0.849321  0.124717  1
  Tc  Tc28  1  0.810708  0.660597  0.375525  1
  Tc  Tc29  1  0.352253  0.849321  0.375283  1
  Tc  Tc30  1  0.810708  0.660597  0.124475  1
  Tc  Tc31  1  0.692441  0.152834  0.870949  1
  Tc  Tc32  1  0.150507  0.343587  0.605688  1
  Tc  Tc33  1  0.823565  0.507245  0.750000  1
  Tc  Tc34  1  0.332297  0.998919  0.750000  1
  Tc  Tc35  1  0.164603  0.499801  0.250000  1
