# generated using pymatgen
data_Mg4As6Ir3Ru3Rh
_symmetry_space_group_name_H-M   'P 1'
_cell_length_a   7.05646847
_cell_length_b   7.06208186
_cell_length_c   7.06208267
_cell_angle_alpha   109.32873490
_cell_angle_beta   109.55356647
_cell_angle_gamma   109.55355460
_symmetry_Int_Tables_number   1
_chemical_formula_structural   Mg4As6Ir3Ru3Rh
_chemical_formula_sum   'Mg4 As6 Ir3 Ru3 Rh1'
_cell_volume   270.83848532
_cell_formula_units_Z   1
loop_
 _symmetry_equiv_pos_site_id
 _symmetry_equiv_pos_as_xyz
  1  'x, y, z'
loop_
 _atom_site_type_symbol
 _atom_site_label
 _atom_site_symmetry_multiplicity
 _atom_site_fract_x
 _atom_site_fract_y
 _atom_site_fract_z
 _atom_site_occupancy
  Mg  Mg0  1  0.000007  0.998557  0.499317  1
  Mg  Mg1  1  0.500000  0.000457  0.999543  1
  Mg  Mg2  1  0.999993  0.500683  0.001443  1
  Mg  Mg3  1  0.500000  0.500466  0.499534  1
  As  As4  1  0.685414  0.688307  0.995435  1
  As  As5  1  0.307134  0.309981  0.995780  1
  As  As6  1  0.000071  0.684863  0.691881  1
  As  As7  1  0.999929  0.308119  0.315137  1
  As  As8  1  0.692866  0.004220  0.690019  1
  As  As9  1  0.314586  0.004565  0.311693  1
  Ir  Ir10  1  0.500000  0.750045  0.249955  1
  Ir  Ir11  1  0.749707  0.501074  0.249914  1
  Ir  Ir12  1  0.250293  0.750086  0.498926  1
  Ru  Ru13  1  0.000000  0.999713  0.000287  1
  Ru  Ru14  1  0.251155  0.501569  0.752320  1
  Ru  Ru15  1  0.748845  0.247680  0.498431  1
  Rh  Rh16  1  0.500000  0.249615  0.750385  1
