# generated using pymatgen
data_CaSmNp2F12
_symmetry_space_group_name_H-M   'P 1'
_cell_length_a   4.51792364
_cell_length_b   6.67978242
_cell_length_c   7.10843000
_cell_angle_alpha   90.00000000
_cell_angle_beta   90.00000000
_cell_angle_gamma   90.25435918
_symmetry_Int_Tables_number   1
_chemical_formula_structural   CaSmNp2F12
_chemical_formula_sum   'Ca1 Sm1 Np2 F12'
_cell_volume   214.52139591
_cell_formula_units_Z   1
loop_
 _symmetry_equiv_pos_site_id
 _symmetry_equiv_pos_as_xyz
  1  'x, y, z'
loop_
 _atom_site_type_symbol
 _atom_site_label
 _atom_site_symmetry_multiplicity
 _atom_site_fract_x
 _atom_site_fract_y
 _atom_site_fract_z
 _atom_site_occupancy
  Ca  Ca0  1  0.949675  0.632751  0.750000  1
  Sm  Sm1  1  0.058151  0.371001  0.250000  1
  Np  Np2  1  0.446802  0.861878  0.250000  1
  Np  Np3  1  0.560457  0.138537  0.750000  1
  F  F4  1  0.087691  0.990339  0.750000  1
  F  F5  1  0.574696  0.516518  0.250000  1
  F  F6  1  0.414275  0.463607  0.750000  1
  F  F7  1  0.918495  0.021429  0.250000  1
  F  F8  1  0.384880  0.163907  0.068631  1
  F  F9  1  0.883154  0.330264  0.941151  1
  F  F10  1  0.112427  0.666446  0.430202  1
  F  F11  1  0.614417  0.841353  0.563434  1
  F  F12  1  0.614417  0.841353  0.936566  1
  F  F13  1  0.112427  0.666446  0.069798  1
  F  F14  1  0.883154  0.330264  0.558849  1
  F  F15  1  0.384880  0.163907  0.431369  1
