# generated using pymatgen
data_HoTm2(FeCo2)3
_symmetry_space_group_name_H-M   'P 1'
_cell_length_a   5.08096283
_cell_length_b   5.08096263
_cell_length_c   8.37201583
_cell_angle_alpha   72.33513101
_cell_angle_beta   72.33511778
_cell_angle_gamma   60.00000950
_symmetry_Int_Tables_number   1
_chemical_formula_structural   HoTm2(FeCo2)3
_chemical_formula_sum   'Ho1 Tm2 Fe3 Co6'
_cell_volume   175.31061651
_cell_formula_units_Z   1
loop_
 _symmetry_equiv_pos_site_id
 _symmetry_equiv_pos_as_xyz
  1  'x, y, z'
loop_
 _atom_site_type_symbol
 _atom_site_label
 _atom_site_symmetry_multiplicity
 _atom_site_fract_x
 _atom_site_fract_y
 _atom_site_fract_z
 _atom_site_occupancy
  Ho  Ho0  1  0.000000  0.000000  0.000000  1
  Tm  Tm1  1  0.141018  0.141018  0.576945  1
  Tm  Tm2  1  0.858982  0.858982  0.423055  1
  Fe  Fe3  1  0.333641  0.333641  0.999077  1
  Fe  Fe4  1  0.666359  0.666359  0.000923  1
  Fe  Fe5  1  0.500000  0.500000  0.500000  1
  Co  Co6  1  0.080206  0.583521  0.752750  1
  Co  Co7  1  0.583521  0.583521  0.752750  1
  Co  Co8  1  0.583521  0.080206  0.752750  1
  Co  Co9  1  0.919794  0.416479  0.247250  1
  Co  Co10  1  0.416479  0.416479  0.247250  1
  Co  Co11  1  0.416479  0.919794  0.247250  1
