# generated using pymatgen
data_Tb7ErGa12CoNi3
_symmetry_space_group_name_H-M   'P 1'
_cell_length_a   7.08099117
_cell_length_b   8.77779018
_cell_length_c   8.76893202
_cell_angle_alpha   120.04285332
_cell_angle_beta   90.01462474
_cell_angle_gamma   90.01022611
_symmetry_Int_Tables_number   1
_chemical_formula_structural   Tb7ErGa12CoNi3
_chemical_formula_sum   'Tb7 Er1 Ga12 Co1 Ni3'
_cell_volume   471.81184891
_cell_formula_units_Z   1
loop_
 _symmetry_equiv_pos_site_id
 _symmetry_equiv_pos_as_xyz
  1  'x, y, z'
loop_
 _atom_site_type_symbol
 _atom_site_label
 _atom_site_symmetry_multiplicity
 _atom_site_fract_x
 _atom_site_fract_y
 _atom_site_fract_z
 _atom_site_occupancy
  Tb  Tb0  1  0.748237  0.000036  0.000111  1
  Tb  Tb1  1  0.249769  0.999899  0.999808  1
  Tb  Tb2  1  0.750389  0.479308  0.520500  1
  Tb  Tb3  1  0.252732  0.523726  0.475883  1
  Tb  Tb4  1  0.750408  0.041201  0.520528  1
  Tb  Tb5  1  0.252726  0.952128  0.475884  1
  Tb  Tb6  1  0.750297  0.479930  0.959912  1
  Er  Er7  1  0.253062  0.523981  0.048024  1
  Ga  Ga8  1  0.956760  0.828540  0.170858  1
  Ga  Ga9  1  0.047358  0.172974  0.828483  1
  Ga  Ga10  1  0.956789  0.342393  0.170907  1
  Ga  Ga11  1  0.454367  0.172519  0.828720  1
  Ga  Ga12  1  0.047373  0.655467  0.828502  1
  Ga  Ga13  1  0.543296  0.826857  0.172454  1
  Ga  Ga14  1  0.955689  0.828663  0.657340  1
  Ga  Ga15  1  0.454368  0.656271  0.828790  1
  Ga  Ga16  1  0.046470  0.172059  0.344190  1
  Ga  Ga17  1  0.543272  0.345527  0.172429  1
  Ga  Ga18  1  0.455135  0.171853  0.343770  1
  Ga  Ga19  1  0.544741  0.826928  0.653874  1
  Co  Co20  1  0.513992  0.666077  0.332184  1
  Ni  Ni21  1  0.972465  0.666246  0.332215  1
  Ni  Ni22  1  0.028027  0.333548  0.667115  1
  Ni  Ni23  1  0.472275  0.333872  0.667516  1
