# generated using pymatgen
data_YEr9(AlBi2)2
_symmetry_space_group_name_H-M   'P 1'
_cell_length_a   8.94899079
_cell_length_b   8.93830757
_cell_length_c   6.42570700
_cell_angle_alpha   89.99958873
_cell_angle_beta   89.99987947
_cell_angle_gamma   119.76960950
_symmetry_Int_Tables_number   1
_chemical_formula_structural   YEr9(AlBi2)2
_chemical_formula_sum   'Y1 Er9 Al2 Bi4'
_cell_volume   446.15367650
_cell_formula_units_Z   1
loop_
 _symmetry_equiv_pos_site_id
 _symmetry_equiv_pos_as_xyz
  1  'x, y, z'
loop_
 _atom_site_type_symbol
 _atom_site_label
 _atom_site_symmetry_multiplicity
 _atom_site_fract_x
 _atom_site_fract_y
 _atom_site_fract_z
 _atom_site_occupancy
  Y  Y0  1  0.998914  0.236943  0.249990  1
  Er  Er1  1  0.669084  0.325891  0.507442  1
  Er  Er2  1  0.325743  0.669125  0.507426  1
  Er  Er3  1  0.325752  0.669122  0.992573  1
  Er  Er4  1  0.669081  0.325882  0.992553  1
  Er  Er5  1  0.761822  0.761712  0.250000  1
  Er  Er6  1  0.237181  0.998659  0.249997  1
  Er  Er7  1  0.232849  0.232520  0.750012  1
  Er  Er8  1  0.765193  0.013543  0.750002  1
  Er  Er9  1  0.013754  0.765749  0.750002  1
  Al  Al10  1  0.397099  0.001403  0.750000  1
  Al  Al11  1  0.001391  0.397093  0.750001  1
  Bi  Bi12  1  0.395980  0.395346  0.250006  1
  Bi  Bi13  1  0.600106  0.995046  0.249996  1
  Bi  Bi14  1  0.995510  0.601404  0.249996  1
  Bi  Bi15  1  0.610538  0.610560  0.750004  1
