# generated using pymatgen
data_Ti4CN
_symmetry_space_group_name_H-M   'P 1'
_cell_length_a   3.09002517
_cell_length_b   4.99526454
_cell_length_c   5.87177564
_cell_angle_alpha   90.03159496
_cell_angle_beta   121.74825187
_cell_angle_gamma   90.00781732
_symmetry_Int_Tables_number   1
_chemical_formula_structural   Ti4CN
_chemical_formula_sum   'Ti4 C1 N1'
_cell_volume   77.07204704
_cell_formula_units_Z   1
loop_
 _symmetry_equiv_pos_site_id
 _symmetry_equiv_pos_as_xyz
  1  'x, y, z'
loop_
 _atom_site_type_symbol
 _atom_site_label
 _atom_site_symmetry_multiplicity
 _atom_site_fract_x
 _atom_site_fract_y
 _atom_site_fract_z
 _atom_site_occupancy
  Ti  Ti0  1  0.703247  0.035851  0.922071  1
  Ti  Ti1  1  0.700605  0.938825  0.419236  1
  Ti  Ti2  1  0.298336  0.537752  0.017096  1
  Ti  Ti3  1  0.295881  0.440858  0.514439  1
  C  C4  1  0.999476  0.238260  0.718148  1
  N  N5  1  0.999491  0.738276  0.218196  1
