# generated using pymatgen
data_Nd8Al4Br7
_symmetry_space_group_name_H-M   'P 1'
_cell_length_a   17.17475694
_cell_length_b   17.17475741
_cell_length_c   26.53408700
_cell_angle_alpha   63.15881409
_cell_angle_beta   63.15881330
_cell_angle_gamma   13.78400166
_symmetry_Int_Tables_number   1
_chemical_formula_structural   Nd8Al4Br7
_chemical_formula_sum   'Nd24 Al12 Br21'
_cell_volume   1660.80590562
_cell_formula_units_Z   3
loop_
 _symmetry_equiv_pos_site_id
 _symmetry_equiv_pos_as_xyz
  1  'x, y, z'
loop_
 _atom_site_type_symbol
 _atom_site_label
 _atom_site_symmetry_multiplicity
 _atom_site_fract_x
 _atom_site_fract_y
 _atom_site_fract_z
 _atom_site_occupancy
  Nd  Nd0  1  0.609849  0.609849  0.526807  1
  Nd  Nd1  1  0.390151  0.390151  0.473193  1
  Nd  Nd2  1  0.997234  0.997234  0.579361  1
  Nd  Nd3  1  0.002766  0.002766  0.420639  1
  Nd  Nd4  1  0.023762  0.023762  0.078171  1
  Nd  Nd5  1  0.976238  0.976238  0.921829  1
  Nd  Nd6  1  0.616433  0.616433  0.355770  1
  Nd  Nd7  1  0.383567  0.383567  0.644230  1
  Nd  Nd8  1  0.194920  0.194920  0.396161  1
  Nd  Nd9  1  0.805080  0.805080  0.603839  1
  Nd  Nd10  1  0.825719  0.825719  0.248397  1
  Nd  Nd11  1  0.174281  0.174281  0.751603  1
  Nd  Nd12  1  0.211381  0.211381  0.065890  1
  Nd  Nd13  1  0.788619  0.788619  0.934110  1
  Nd  Nd14  1  0.415072  0.415072  0.120561  1
  Nd  Nd15  1  0.584928  0.584928  0.879439  1
  Nd  Nd16  1  0.400285  0.400285  0.301194  1
  Nd  Nd17  1  0.599715  0.599715  0.698806  1
  Nd  Nd18  1  0.988266  0.988266  0.760240  1
  Nd  Nd19  1  0.011734  0.011734  0.239760  1
  Nd  Nd20  1  0.626672  0.626672  0.189153  1
  Nd  Nd21  1  0.373328  0.373328  0.810847  1
  Nd  Nd22  1  0.642694  0.642694  0.016759  1
  Nd  Nd23  1  0.357306  0.357306  0.983241  1
  Al  Al24  1  0.092538  0.092538  0.452212  1
  Al  Al25  1  0.907462  0.907462  0.547788  1
  Al  Al26  1  0.926835  0.926835  0.201588  1
  Al  Al27  1  0.073165  0.073165  0.798412  1
  Al  Al28  1  0.541347  0.541347  0.476192  1
  Al  Al29  1  0.458653  0.458653  0.523808  1
  Al  Al30  1  0.107868  0.107868  0.115960  1
  Al  Al31  1  0.892132  0.892132  0.884040  1
  Al  Al32  1  0.559430  0.559430  0.138254  1
  Al  Al33  1  0.440570  0.440570  0.861746  1
  Al  Al34  1  0.476862  0.476862  0.178041  1
  Al  Al35  1  0.523138  0.523138  0.821959  1
  Br  Br36  1  0.302056  0.302056  0.339792  1
  Br  Br37  1  0.697944  0.697944  0.660208  1
  Br  Br38  1  0.316735  0.316735  0.174200  1
  Br  Br39  1  0.683265  0.683265  0.825800  1
  Br  Br40  1  0.716045  0.716045  0.303633  1
  Br  Br41  1  0.283955  0.283955  0.696367  1
  Br  Br42  1  0.133860  0.133860  0.598630  1
  Br  Br43  1  0.866140  0.866140  0.401370  1
  Br  Br44  1  0.528179  0.528179  0.651802  1
  Br  Br45  1  0.471821  0.471821  0.348198  1
  Br  Br46  1  0.920843  0.920843  0.706623  1
  Br  Br47  1  0.079157  0.079157  0.293377  1
  Br  Br48  1  0.194615  0.194615  0.186957  1
  Br  Br49  1  0.805385  0.805385  0.813043  1
  Br  Br50  1  0.784178  0.784178  0.054081  1
  Br  Br51  1  0.215822  0.215822  0.945919  1
  Br  Br52  1  0.104355  0.104355  0.960567  1
  Br  Br53  1  0.895645  0.895645  0.039433  1
  Br  Br54  1  0.500000  0.500000  0.000000  1
  Br  Br55  1  0.708037  0.708037  0.467077  1
  Br  Br56  1  0.291963  0.291963  0.532923  1
