# generated using pymatgen
data_Ca11Yb9(GeBi2)4
_symmetry_space_group_name_H-M   'P 1'
_cell_length_a   8.10583469
_cell_length_b   9.57751200
_cell_length_c   12.91983917
_cell_angle_alpha   90.00000000
_cell_angle_beta   89.90728921
_cell_angle_gamma   90.00000000
_symmetry_Int_Tables_number   1
_chemical_formula_structural   Ca11Yb9(GeBi2)4
_chemical_formula_sum   'Ca11 Yb9 Ge4 Bi8'
_cell_volume   1003.01397991
_cell_formula_units_Z   1
loop_
 _symmetry_equiv_pos_site_id
 _symmetry_equiv_pos_as_xyz
  1  'x, y, z'
loop_
 _atom_site_type_symbol
 _atom_site_label
 _atom_site_symmetry_multiplicity
 _atom_site_fract_x
 _atom_site_fract_y
 _atom_site_fract_z
 _atom_site_occupancy
  Ca  Ca0  1  0.829806  0.250000  0.783641  1
  Ca  Ca1  1  0.055029  0.750000  0.500628  1
  Ca  Ca2  1  0.355932  0.250000  0.696347  1
  Ca  Ca3  1  0.554466  0.250000  0.999343  1
  Ca  Ca4  1  0.856063  0.750000  0.803824  1
  Ca  Ca5  1  0.329491  0.750000  0.716301  1
  Ca  Ca6  1  0.670889  0.250000  0.283332  1
  Ca  Ca7  1  0.445360  0.750000  0.000861  1
  Ca  Ca8  1  0.945537  0.250000  0.498701  1
  Ca  Ca9  1  0.144148  0.250000  0.196123  1
  Ca  Ca10  1  0.170106  0.750000  0.216404  1
  Yb  Yb11  1  0.829174  0.527898  0.075509  1
  Yb  Yb12  1  0.170622  0.027409  0.925661  1
  Yb  Yb13  1  0.329637  0.472429  0.425260  1
  Yb  Yb14  1  0.670886  0.527207  0.574160  1
  Yb  Yb15  1  0.170622  0.472591  0.925661  1
  Yb  Yb16  1  0.829174  0.972102  0.075509  1
  Yb  Yb17  1  0.670886  0.972793  0.574160  1
  Yb  Yb18  1  0.329637  0.027571  0.425260  1
  Yb  Yb19  1  0.642740  0.750000  0.304219  1
  Ge  Ge20  1  0.442508  0.750000  0.490499  1
  Ge  Ge21  1  0.558993  0.250000  0.508222  1
  Ge  Ge22  1  0.059313  0.750000  0.991500  1
  Ge  Ge23  1  0.940043  0.250000  0.008773  1
  Bi  Bi24  1  0.058013  0.007724  0.668374  1
  Bi  Bi25  1  0.941356  0.991494  0.331660  1
  Bi  Bi26  1  0.058013  0.492276  0.668374  1
  Bi  Bi27  1  0.557595  0.992049  0.831024  1
  Bi  Bi28  1  0.442504  0.007479  0.168995  1
  Bi  Bi29  1  0.442504  0.492521  0.168995  1
  Bi  Bi30  1  0.557595  0.507951  0.831024  1
  Bi  Bi31  1  0.941356  0.508506  0.331660  1
