# generated using pymatgen
data_DySc3Al8
_symmetry_space_group_name_H-M   'P 1'
_cell_length_a   9.38712499
_cell_length_b   9.38712493
_cell_length_c   9.38712406
_cell_angle_alpha   33.54559074
_cell_angle_beta   33.54558921
_cell_angle_gamma   33.54559752
_symmetry_Int_Tables_number   1
_chemical_formula_structural   DySc3Al8
_chemical_formula_sum   'Dy1 Sc3 Al8'
_cell_volume   224.98556579
_cell_formula_units_Z   1
loop_
 _symmetry_equiv_pos_site_id
 _symmetry_equiv_pos_as_xyz
  1  'x, y, z'
loop_
 _atom_site_type_symbol
 _atom_site_label
 _atom_site_symmetry_multiplicity
 _atom_site_fract_x
 _atom_site_fract_y
 _atom_site_fract_z
 _atom_site_occupancy
  Dy  Dy0  1  0.687449  0.687449  0.687449  1
  Sc  Sc1  1  0.187394  0.187394  0.187394  1
  Sc  Sc2  1  0.813647  0.813647  0.813647  1
  Sc  Sc3  1  0.311386  0.311386  0.311386  1
  Al  Al4  1  0.999536  0.999536  0.999536  1
  Al  Al5  1  0.500308  0.500308  0.500308  1
  Al  Al6  1  0.751707  0.251167  0.251167  1
  Al  Al7  1  0.247565  0.749336  0.749336  1
  Al  Al8  1  0.251167  0.751707  0.251167  1
  Al  Al9  1  0.749336  0.247565  0.749336  1
  Al  Al10  1  0.251167  0.251167  0.751707  1
  Al  Al11  1  0.749336  0.749336  0.247565  1
