# generated using pymatgen
data_LuGePRu2
_symmetry_space_group_name_H-M   'P 1'
_cell_length_a   5.63501958
_cell_length_b   5.63501967
_cell_length_c   5.63501869
_cell_angle_alpha   136.83753525
_cell_angle_beta   136.83752401
_cell_angle_gamma   62.68812630
_symmetry_Int_Tables_number   1
_chemical_formula_structural   LuGePRu2
_chemical_formula_sum   'Lu1 Ge1 P1 Ru2'
_cell_volume   82.69987450
_cell_formula_units_Z   1
loop_
 _symmetry_equiv_pos_site_id
 _symmetry_equiv_pos_as_xyz
  1  'x, y, z'
loop_
 _atom_site_type_symbol
 _atom_site_label
 _atom_site_symmetry_multiplicity
 _atom_site_fract_x
 _atom_site_fract_y
 _atom_site_fract_z
 _atom_site_occupancy
  Lu  Lu0  1  0.998038  0.998038  0.000000  1
  Ge  Ge1  1  0.619980  0.619980  0.000000  1
  P  P2  1  0.366401  0.366401  0.000000  1
  Ru  Ru3  1  0.257790  0.757790  0.500000  1
  Ru  Ru4  1  0.757790  0.257790  0.500000  1
