# generated using pymatgen
data_Tm4ZrNi25
_symmetry_space_group_name_H-M   'P 1'
_cell_length_a   3.93433800
_cell_length_b   4.93733248
_cell_length_c   20.81256472
_cell_angle_alpha   83.18786176
_cell_angle_beta   90.00000000
_cell_angle_gamma   90.00000000
_symmetry_Int_Tables_number   1
_chemical_formula_structural   Tm4ZrNi25
_chemical_formula_sum   'Tm4 Zr1 Ni25'
_cell_volume   401.43277210
_cell_formula_units_Z   1
loop_
 _symmetry_equiv_pos_site_id
 _symmetry_equiv_pos_as_xyz
  1  'x, y, z'
loop_
 _atom_site_type_symbol
 _atom_site_label
 _atom_site_symmetry_multiplicity
 _atom_site_fract_x
 _atom_site_fract_y
 _atom_site_fract_z
 _atom_site_occupancy
  Tm  Tm0  1  0.000000  0.399717  0.200205  1
  Tm  Tm1  1  0.000000  0.799756  0.400649  1
  Tm  Tm2  1  0.000000  0.200404  0.599351  1
  Tm  Tm3  1  0.000000  0.599923  0.799795  1
  Zr  Zr4  1  0.000000  0.000122  0.000000  1
  Ni  Ni5  1  0.000000  0.935186  0.129908  1
  Ni  Ni6  1  0.000000  0.333451  0.332992  1
  Ni  Ni7  1  0.000000  0.733233  0.533490  1
  Ni  Ni8  1  0.000000  0.132799  0.734456  1
  Ni  Ni9  1  0.000000  0.531720  0.936186  1
  Ni  Ni10  1  0.000000  0.467906  0.063814  1
  Ni  Ni11  1  0.000000  0.867255  0.265544  1
  Ni  Ni12  1  0.000000  0.266722  0.466510  1
  Ni  Ni13  1  0.000000  0.666444  0.667008  1
  Ni  Ni14  1  0.000000  0.065094  0.870092  1
  Ni  Ni15  1  0.500000  0.499875  0.000000  1
  Ni  Ni16  1  0.500000  0.900359  0.199430  1
  Ni  Ni17  1  0.500000  0.300137  0.399664  1
  Ni  Ni18  1  0.500000  0.699801  0.600336  1
  Ni  Ni19  1  0.500000  0.099789  0.800570  1
  Ni  Ni20  1  0.500000  0.189745  0.098605  1
  Ni  Ni21  1  0.500000  0.599118  0.299320  1
  Ni  Ni22  1  0.500000  0.999974  0.500008  1
  Ni  Ni23  1  0.500000  0.400849  0.700683  1
  Ni  Ni24  1  0.500000  0.810213  0.901392  1
  Ni  Ni25  1  0.500000  0.711605  0.098608  1
  Ni  Ni26  1  0.500000  0.101533  0.299317  1
  Ni  Ni27  1  0.500000  0.499982  0.499992  1
  Ni  Ni28  1  0.500000  0.898436  0.700680  1
  Ni  Ni29  1  0.500000  0.288350  0.901395  1
