# generated using pymatgen
data_Sr3Yb2(SiN3)2
_symmetry_space_group_name_H-M   'P 1'
_cell_length_a   5.88720623
_cell_length_b   5.98268320
_cell_length_c   13.07377460
_cell_angle_alpha   80.32055274
_cell_angle_beta   81.08453160
_cell_angle_gamma   64.74408287
_symmetry_Int_Tables_number   1
_chemical_formula_structural   Sr3Yb2(SiN3)2
_chemical_formula_sum   'Sr6 Yb4 Si4 N12'
_cell_volume   408.73681699
_cell_formula_units_Z   2
loop_
 _symmetry_equiv_pos_site_id
 _symmetry_equiv_pos_as_xyz
  1  'x, y, z'
loop_
 _atom_site_type_symbol
 _atom_site_label
 _atom_site_symmetry_multiplicity
 _atom_site_fract_x
 _atom_site_fract_y
 _atom_site_fract_z
 _atom_site_occupancy
  Sr  Sr0  1  0.317709  0.777493  0.007440  1
  Sr  Sr1  1  0.615279  0.386428  0.248057  1
  Sr  Sr2  1  0.073655  0.240430  0.786782  1
  Sr  Sr3  1  0.386390  0.605681  0.753909  1
  Sr  Sr4  1  0.203821  0.673222  0.495016  1
  Sr  Sr5  1  0.811688  0.317283  0.500427  1
  Yb  Yb6  1  0.236762  0.068618  0.282777  1
  Yb  Yb7  1  0.671796  0.184079  0.000208  1
  Yb  Yb8  1  0.923795  0.767699  0.214304  1
  Yb  Yb9  1  0.771518  0.925464  0.714037  1
  Si  Si10  1  0.082025  0.360826  0.077437  1
  Si  Si11  1  0.370933  0.076803  0.575350  1
  Si  Si12  1  0.647472  0.910774  0.419681  1
  Si  Si13  1  0.896753  0.659249  0.927609  1
  N  N14  1  0.599243  0.718700  0.346102  1
  N  N15  1  0.118394  0.002264  0.629052  1
  N  N16  1  0.663211  0.796317  0.557728  1
  N  N17  1  0.002997  0.110271  0.122409  1
  N  N18  1  0.424198  0.273983  0.645682  1
  N  N19  1  0.355321  0.190344  0.437799  1
  N  N20  1  0.949102  0.919867  0.875984  1
  N  N21  1  0.700235  0.611508  0.854854  1
  N  N22  1  0.201939  0.387618  0.942537  1
  N  N23  1  0.900096  0.982198  0.365301  1
  N  N24  1  0.795737  0.657301  0.064920  1
  N  N25  1  0.279931  0.395582  0.154598  1
