# generated using pymatgen
data_Sr3PrScMnO8
_symmetry_space_group_name_H-M   'P 1'
_cell_length_a   5.55058700
_cell_length_b   12.62942100
_cell_length_c   5.59257200
_cell_angle_alpha   89.99987940
_cell_angle_beta   90.00018635
_cell_angle_gamma   90.00001130
_symmetry_Int_Tables_number   1
_chemical_formula_structural   Sr3PrScMnO8
_chemical_formula_sum   'Sr6 Pr2 Sc2 Mn2 O16'
_cell_volume   392.04321214
_cell_formula_units_Z   2
loop_
 _symmetry_equiv_pos_site_id
 _symmetry_equiv_pos_as_xyz
  1  'x, y, z'
loop_
 _atom_site_type_symbol
 _atom_site_label
 _atom_site_symmetry_multiplicity
 _atom_site_fract_x
 _atom_site_fract_y
 _atom_site_fract_z
 _atom_site_occupancy
  Sr  Sr0  1  0.499999  0.145049  0.000005  1
  Sr  Sr1  1  0.500000  0.645048  0.499997  1
  Sr  Sr2  1  0.000004  0.144780  0.499998  1
  Sr  Sr3  1  0.000005  0.644780  0.999997  1
  Sr  Sr4  1  0.000008  0.353400  0.000000  1
  Sr  Sr5  1  0.999996  0.853398  0.500001  1
  Pr  Pr6  1  0.499996  0.361462  0.500006  1
  Pr  Pr7  1  0.500043  0.861466  0.000005  1
  Sc  Sc8  1  0.499996  0.002131  0.499993  1
  Sc  Sc9  1  0.500002  0.502128  0.000003  1
  Mn  Mn10  1  0.000023  0.500620  0.499994  1
  Mn  Mn11  1  0.999997  0.000630  0.000015  1
  O  O12  1  0.000000  0.339910  0.500001  1
  O  O13  1  0.999903  0.839912  0.000001  1
  O  O14  1  0.500005  0.334679  0.999988  1
  O  O15  1  0.500007  0.834681  0.500002  1
  O  O16  1  0.499996  0.176281  0.500001  1
  O  O17  1  0.499991  0.676281  0.000001  1
  O  O18  1  0.000014  0.155615  0.999998  1
  O  O19  1  0.000007  0.655611  0.499999  1
  O  O20  1  0.244408  0.496516  0.737019  1
  O  O21  1  0.244399  0.996511  0.237020  1
  O  O22  1  0.755599  0.496516  0.262976  1
  O  O23  1  0.755596  0.996529  0.762969  1
  O  O24  1  0.755604  0.496518  0.737030  1
  O  O25  1  0.755600  0.996529  0.237028  1
  O  O26  1  0.244401  0.496515  0.262975  1
  O  O27  1  0.244405  0.996511  0.762979  1
