# generated using pymatgen
data_La3NdAs7Ir8
_symmetry_space_group_name_H-M   'P 1'
_cell_length_a   4.16113400
_cell_length_b   13.26625304
_cell_length_c   13.70958514
_cell_angle_alpha   81.98073984
_cell_angle_beta   90.00000000
_cell_angle_gamma   90.00000000
_symmetry_Int_Tables_number   1
_chemical_formula_structural   La3NdAs7Ir8
_chemical_formula_sum   'La6 Nd2 As14 Ir16'
_cell_volume   749.40489233
_cell_formula_units_Z   2
loop_
 _symmetry_equiv_pos_site_id
 _symmetry_equiv_pos_as_xyz
  1  'x, y, z'
loop_
 _atom_site_type_symbol
 _atom_site_label
 _atom_site_symmetry_multiplicity
 _atom_site_fract_x
 _atom_site_fract_y
 _atom_site_fract_z
 _atom_site_occupancy
  La  La0  1  0.250000  0.099961  0.794040  1
  La  La1  1  0.750000  0.900039  0.205960  1
  La  La2  1  0.250000  0.287263  0.103717  1
  La  La3  1  0.750000  0.712737  0.896283  1
  La  La4  1  0.250000  0.517802  0.292639  1
  La  La5  1  0.750000  0.482198  0.707361  1
  Nd  Nd6  1  0.250000  0.207649  0.438922  1
  Nd  Nd7  1  0.750000  0.792351  0.561078  1
  As  As8  1  0.250000  0.058106  0.099661  1
  As  As9  1  0.750000  0.941894  0.900339  1
  As  As10  1  0.250000  0.311171  0.686839  1
  As  As11  1  0.750000  0.688829  0.313161  1
  As  As12  1  0.250000  0.607855  0.565627  1
  As  As13  1  0.750000  0.392145  0.434373  1
  As  As14  1  0.250000  0.847980  0.719175  1
  As  As15  1  0.750000  0.152020  0.280825  1
  As  As16  1  0.750000  0.255395  0.917691  1
  As  As17  1  0.250000  0.744605  0.082309  1
  As  As18  1  0.750000  0.095331  0.586675  1
  As  As19  1  0.250000  0.904669  0.413325  1
  As  As20  1  0.750000  0.472457  0.127478  1
  As  As21  1  0.250000  0.527543  0.872522  1
  Ir  Ir22  1  0.250000  0.988657  0.573686  1
  Ir  Ir23  1  0.750000  0.011343  0.426314  1
  Ir  Ir24  1  0.250000  0.664905  0.733276  1
  Ir  Ir25  1  0.750000  0.335095  0.266724  1
  Ir  Ir26  1  0.250000  0.555497  0.046229  1
  Ir  Ir27  1  0.750000  0.444503  0.953771  1
  Ir  Ir28  1  0.250000  0.053974  0.279262  1
  Ir  Ir29  1  0.750000  0.946026  0.720738  1
  Ir  Ir30  1  0.250000  0.425116  0.526194  1
  Ir  Ir31  1  0.750000  0.574884  0.473806  1
  Ir  Ir32  1  0.250000  0.920277  0.996850  1
  Ir  Ir33  1  0.750000  0.079723  0.003150  1
  Ir  Ir34  1  0.250000  0.722162  0.402311  1
  Ir  Ir35  1  0.750000  0.277838  0.597689  1
  Ir  Ir36  1  0.250000  0.342389  0.860848  1
  Ir  Ir37  1  0.750000  0.657611  0.139152  1
