# generated using pymatgen
data_LiLu3In3NiAg
_symmetry_space_group_name_H-M   'P 1'
_cell_length_a   7.82124400
_cell_length_b   7.82124401
_cell_length_c   3.57996100
_cell_angle_alpha   90.00000000
_cell_angle_beta   90.00000000
_cell_angle_gamma   119.99999265
_symmetry_Int_Tables_number   1
_chemical_formula_structural   LiLu3In3NiAg
_chemical_formula_sum   'Li1 Lu3 In3 Ni1 Ag1'
_cell_volume   189.65339843
_cell_formula_units_Z   1
loop_
 _symmetry_equiv_pos_site_id
 _symmetry_equiv_pos_as_xyz
  1  'x, y, z'
loop_
 _atom_site_type_symbol
 _atom_site_label
 _atom_site_symmetry_multiplicity
 _atom_site_fract_x
 _atom_site_fract_y
 _atom_site_fract_z
 _atom_site_occupancy
  Li  Li0  1  0.000000  0.000000  0.000000  1
  Lu  Lu1  1  0.607159  0.032634  0.000000  1
  Lu  Lu2  1  0.967366  0.574524  0.000000  1
  Lu  Lu3  1  0.425476  0.392841  0.000000  1
  In  In4  1  0.259655  0.995145  0.500000  1
  In  In5  1  0.004855  0.264511  0.500000  1
  In  In6  1  0.735489  0.740345  0.500000  1
  Ni  Ni7  1  0.666667  0.333333  0.500000  1
  Ag  Ag8  1  0.333333  0.666667  0.500000  1
