# generated using pymatgen
data_Er2CoH6
_symmetry_space_group_name_H-M   'P 1'
_cell_length_a   6.79057622
_cell_length_b   6.79057720
_cell_length_c   4.93033200
_cell_angle_alpha   90.00000000
_cell_angle_beta   90.00000000
_cell_angle_gamma   137.48106849
_symmetry_Int_Tables_number   1
_chemical_formula_structural   Er2CoH6
_chemical_formula_sum   'Er4 Co2 H12'
_cell_volume   153.64887305
_cell_formula_units_Z   2
loop_
 _symmetry_equiv_pos_site_id
 _symmetry_equiv_pos_as_xyz
  1  'x, y, z'
loop_
 _atom_site_type_symbol
 _atom_site_label
 _atom_site_symmetry_multiplicity
 _atom_site_fract_x
 _atom_site_fract_y
 _atom_site_fract_z
 _atom_site_occupancy
  Er  Er0  1  0.139473  0.860527  0.500000  1
  Er  Er1  1  0.639473  0.360527  0.000000  1
  Er  Er2  1  0.860527  0.139473  0.500000  1
  Er  Er3  1  0.360527  0.639473  0.000000  1
  Co  Co4  1  0.500000  0.500000  0.500000  1
  Co  Co5  1  0.000000  0.000000  0.000000  1
  H  H6  1  0.999990  0.499990  0.750000  1
  H  H7  1  0.500010  0.000010  0.250000  1
  H  H8  1  0.000010  0.500010  0.250000  1
  H  H9  1  0.499990  0.999990  0.750000  1
  H  H10  1  0.373280  0.626720  0.500000  1
  H  H11  1  0.873280  0.126720  0.000000  1
  H  H12  1  0.626720  0.373280  0.500000  1
  H  H13  1  0.126720  0.873280  0.000000  1
  H  H14  1  0.250086  0.250086  0.750069  1
  H  H15  1  0.749914  0.749914  0.249931  1
  H  H16  1  0.249914  0.249914  0.250069  1
  H  H17  1  0.750086  0.750086  0.749931  1
