# generated using pymatgen
data_Ba14Sr(SnP6)2
_symmetry_space_group_name_H-M   'P 1'
_cell_length_a   9.86940097
_cell_length_b   9.86940056
_cell_length_c   9.86940191
_cell_angle_alpha   88.07767951
_cell_angle_beta   88.07768397
_cell_angle_gamma   88.07768060
_symmetry_Int_Tables_number   1
_chemical_formula_structural   Ba14Sr(SnP6)2
_chemical_formula_sum   'Ba14 Sr1 Sn2 P12'
_cell_volume   959.74219313
_cell_formula_units_Z   1
loop_
 _symmetry_equiv_pos_site_id
 _symmetry_equiv_pos_as_xyz
  1  'x, y, z'
loop_
 _atom_site_type_symbol
 _atom_site_label
 _atom_site_symmetry_multiplicity
 _atom_site_fract_x
 _atom_site_fract_y
 _atom_site_fract_z
 _atom_site_occupancy
  Ba  Ba0  1  0.407164  0.285408  0.778121  1
  Ba  Ba1  1  0.778121  0.407164  0.285408  1
  Ba  Ba2  1  0.285408  0.778121  0.407164  1
  Ba  Ba3  1  0.026776  0.526946  0.659079  1
  Ba  Ba4  1  0.659079  0.026776  0.526946  1
  Ba  Ba5  1  0.526946  0.659079  0.026776  1
  Ba  Ba6  1  0.162135  0.538571  0.031611  1
  Ba  Ba7  1  0.031611  0.162135  0.538571  1
  Ba  Ba8  1  0.538571  0.031611  0.162135  1
  Ba  Ba9  1  0.776849  0.297112  0.916230  1
  Ba  Ba10  1  0.916230  0.776849  0.297112  1
  Ba  Ba11  1  0.297112  0.916230  0.776849  1
  Ba  Ba12  1  0.163686  0.163686  0.163686  1
  Ba  Ba13  1  0.393067  0.393067  0.393067  1
  Sr  Sr14  1  0.950657  0.950657  0.950657  1
  Sn  Sn15  1  0.764578  0.764578  0.764578  1
  Sn  Sn16  1  0.599222  0.599222  0.599222  1
  P  P17  1  0.703638  0.354614  0.598937  1
  P  P18  1  0.598937  0.703638  0.354614  1
  P  P19  1  0.354614  0.598937  0.703638  1
  P  P20  1  0.626450  0.972139  0.853189  1
  P  P21  1  0.853189  0.626450  0.972139  1
  P  P22  1  0.972139  0.853189  0.626450  1
  P  P23  1  0.472092  0.344029  0.085262  1
  P  P24  1  0.085262  0.472092  0.344029  1
  P  P25  1  0.344029  0.085262  0.472092  1
  P  P26  1  0.091598  0.228250  0.847322  1
  P  P27  1  0.847322  0.091598  0.228250  1
  P  P28  1  0.228250  0.847322  0.091598  1
