# generated using pymatgen
data_NdTlBi2(Rh2O7)2
_symmetry_space_group_name_H-M   'P 1'
_cell_length_a   7.30487248
_cell_length_b   7.24788902
_cell_length_c   7.30487353
_cell_angle_alpha   60.74855411
_cell_angle_beta   60.87579394
_cell_angle_gamma   60.74854889
_symmetry_Int_Tables_number   1
_chemical_formula_structural   NdTlBi2(Rh2O7)2
_chemical_formula_sum   'Nd1 Tl1 Bi2 Rh4 O14'
_cell_volume   278.35601522
_cell_formula_units_Z   1
loop_
 _symmetry_equiv_pos_site_id
 _symmetry_equiv_pos_as_xyz
  1  'x, y, z'
loop_
 _atom_site_type_symbol
 _atom_site_label
 _atom_site_symmetry_multiplicity
 _atom_site_fract_x
 _atom_site_fract_y
 _atom_site_fract_z
 _atom_site_occupancy
  Nd  Nd0  1  0.125000  0.625000  0.125000  1
  Tl  Tl1  1  0.125000  0.125000  0.125000  1
  Bi  Bi2  1  0.625000  0.125000  0.125000  1
  Bi  Bi3  1  0.125000  0.125000  0.625000  1
  Rh  Rh4  1  0.625000  0.625000  0.625000  1
  Rh  Rh5  1  0.625000  0.625000  0.125000  1
  Rh  Rh6  1  0.125000  0.625000  0.625000  1
  Rh  Rh7  1  0.625000  0.125000  0.625000  1
  O  O8  1  0.254417  0.241662  0.254417  1
  O  O9  1  0.294826  0.707404  0.294826  1
  O  O10  1  0.955562  0.957319  0.543825  1
  O  O11  1  0.543578  0.955629  0.543578  1
  O  O12  1  0.709471  0.709957  0.291760  1
  O  O13  1  0.958240  0.540043  0.540529  1
  O  O14  1  0.706422  0.294371  0.706422  1
  O  O15  1  0.294438  0.292681  0.706175  1
  O  O16  1  0.706175  0.292681  0.294438  1
  O  O17  1  0.291760  0.709957  0.709471  1
  O  O18  1  0.955174  0.542596  0.955174  1
  O  O19  1  0.540529  0.540043  0.958240  1
  O  O20  1  0.995583  0.008338  0.995583  1
  O  O21  1  0.543825  0.957319  0.955562  1
