# generated using pymatgen
data_Hf6Al16CoCuNi5
_symmetry_space_group_name_H-M   'P 1'
_cell_length_a   8.52724579
_cell_length_b   8.51663282
_cell_length_c   8.51663373
_cell_angle_alpha   59.88931093
_cell_angle_beta   59.95877710
_cell_angle_gamma   59.95877073
_symmetry_Int_Tables_number   1
_chemical_formula_structural   Hf6Al16CoCuNi5
_chemical_formula_sum   'Hf6 Al16 Co1 Cu1 Ni5'
_cell_volume   436.71147885
_cell_formula_units_Z   1
loop_
 _symmetry_equiv_pos_site_id
 _symmetry_equiv_pos_as_xyz
  1  'x, y, z'
loop_
 _atom_site_type_symbol
 _atom_site_label
 _atom_site_symmetry_multiplicity
 _atom_site_fract_x
 _atom_site_fract_y
 _atom_site_fract_z
 _atom_site_occupancy
  Hf  Hf0  1  0.688170  0.688091  0.311909  1
  Hf  Hf1  1  0.311830  0.688091  0.311909  1
  Hf  Hf2  1  0.687299  0.312701  0.312701  1
  Hf  Hf3  1  0.311830  0.311909  0.688091  1
  Hf  Hf4  1  0.688170  0.311909  0.688091  1
  Hf  Hf5  1  0.312701  0.687299  0.687299  1
  Al  Al6  1  0.882849  0.880810  0.353490  1
  Al  Al7  1  0.882849  0.353490  0.880810  1
  Al  Al8  1  0.352443  0.879693  0.879693  1
  Al  Al9  1  0.888171  0.879693  0.879693  1
  Al  Al10  1  0.117151  0.119190  0.646510  1
  Al  Al11  1  0.117151  0.646510  0.119190  1
  Al  Al12  1  0.647557  0.120307  0.120307  1
  Al  Al13  1  0.111829  0.120307  0.120307  1
  Al  Al14  1  0.668679  0.662863  0.999779  1
  Al  Al15  1  0.668679  0.999779  0.662863  1
  Al  Al16  1  0.001002  0.666125  0.666125  1
  Al  Al17  1  0.666748  0.666125  0.666125  1
  Al  Al18  1  0.331321  0.337137  0.000221  1
  Al  Al19  1  0.331321  0.000221  0.337137  1
  Al  Al20  1  0.998998  0.333875  0.333875  1
  Al  Al21  1  0.333252  0.333875  0.333875  1
  Co  Co22  1  0.000000  0.000000  0.000000  1
  Cu  Cu23  1  0.500000  0.000000  0.000000  1
  Ni  Ni24  1  0.000000  0.000000  0.500000  1
  Ni  Ni25  1  0.500000  0.000000  0.500000  1
  Ni  Ni26  1  0.000000  0.500000  0.500000  1
  Ni  Ni27  1  0.500000  0.500000  0.000000  1
  Ni  Ni28  1  0.000000  0.500000  0.000000  1
