# generated using pymatgen
data_Np4Re5(Ge3Ru)2
_symmetry_space_group_name_H-M   'P 1'
_cell_length_a   7.24326775
_cell_length_b   7.24484804
_cell_length_c   7.23558778
_cell_angle_alpha   109.32950792
_cell_angle_beta   109.69097389
_cell_angle_gamma   109.38406074
_symmetry_Int_Tables_number   1
_chemical_formula_structural   Np4Re5(Ge3Ru)2
_chemical_formula_sum   'Np4 Re5 Ge6 Ru2'
_cell_volume   292.32155679
_cell_formula_units_Z   1
loop_
 _symmetry_equiv_pos_site_id
 _symmetry_equiv_pos_as_xyz
  1  'x, y, z'
loop_
 _atom_site_type_symbol
 _atom_site_label
 _atom_site_symmetry_multiplicity
 _atom_site_fract_x
 _atom_site_fract_y
 _atom_site_fract_z
 _atom_site_occupancy
  Np  Np0  1  0.501821  0.003658  0.001832  1
  Np  Np1  1  0.998164  0.500004  0.001864  1
  Np  Np2  1  0.998188  0.996383  0.498189  1
  Np  Np3  1  0.501798  0.499990  0.498156  1
  Re  Re4  1  0.750290  0.500276  0.250032  1
  Re  Re5  1  0.500299  0.750096  0.249950  1
  Re  Re6  1  0.750226  0.249907  0.499836  1
  Re  Re7  1  0.249497  0.750050  0.499875  1
  Re  Re8  1  0.499947  0.249932  0.750360  1
  Ge  Ge9  1  0.303043  0.305020  0.997820  1
  Ge  Ge10  1  0.692922  0.694908  0.998131  1
  Ge  Ge11  1  0.304310  0.999874  0.304556  1
  Ge  Ge12  1  0.001905  0.305003  0.307106  1
  Ge  Ge13  1  0.695672  0.000103  0.695449  1
  Ge  Ge14  1  0.002039  0.694893  0.696822  1
  Ru  Ru15  1  0.999992  0.999953  0.999975  1
  Ru  Ru16  1  0.249883  0.499949  0.750045  1
