# generated using pymatgen
data_HfNb3Si3PIr4
_symmetry_space_group_name_H-M   'P 1'
_cell_length_a   3.83066000
_cell_length_b   6.47265021
_cell_length_c   7.34696711
_cell_angle_alpha   90.29359448
_cell_angle_beta   90.00000000
_cell_angle_gamma   90.00000000
_symmetry_Int_Tables_number   1
_chemical_formula_structural   HfNb3Si3PIr4
_chemical_formula_sum   'Hf1 Nb3 Si3 P1 Ir4'
_cell_volume   182.16214797
_cell_formula_units_Z   1
loop_
 _symmetry_equiv_pos_site_id
 _symmetry_equiv_pos_as_xyz
  1  'x, y, z'
loop_
 _atom_site_type_symbol
 _atom_site_label
 _atom_site_symmetry_multiplicity
 _atom_site_fract_x
 _atom_site_fract_y
 _atom_site_fract_z
 _atom_site_occupancy
  Hf  Hf0  1  0.750000  0.522102  0.825618  1
  Nb  Nb1  1  0.250000  0.976476  0.326616  1
  Nb  Nb2  1  0.750000  0.024258  0.670872  1
  Nb  Nb3  1  0.250000  0.473938  0.173444  1
  Si  Si4  1  0.250000  0.735240  0.620200  1
  Si  Si5  1  0.750000  0.769174  0.127988  1
  Si  Si6  1  0.750000  0.269431  0.375106  1
  P  P7  1  0.250000  0.230831  0.878315  1
  Ir  Ir8  1  0.250000  0.855300  0.935663  1
  Ir  Ir9  1  0.250000  0.353798  0.567736  1
  Ir  Ir10  1  0.750000  0.644074  0.437583  1
  Ir  Ir11  1  0.750000  0.145378  0.060858  1
