# generated using pymatgen
data_DyTm11(Si3Rh)4
_symmetry_space_group_name_H-M   'P 1'
_cell_length_a   4.18725900
_cell_length_b   10.58289998
_cell_length_c   12.20350855
_cell_angle_alpha   90.06213901
_cell_angle_beta   90.00000000
_cell_angle_gamma   90.00000000
_symmetry_Int_Tables_number   1
_chemical_formula_structural   DyTm11(Si3Rh)4
_chemical_formula_sum   'Dy1 Tm11 Si12 Rh4'
_cell_volume   540.77794439
_cell_formula_units_Z   1
loop_
 _symmetry_equiv_pos_site_id
 _symmetry_equiv_pos_as_xyz
  1  'x, y, z'
loop_
 _atom_site_type_symbol
 _atom_site_label
 _atom_site_symmetry_multiplicity
 _atom_site_fract_x
 _atom_site_fract_y
 _atom_site_fract_z
 _atom_site_occupancy
  Dy  Dy0  1  0.750000  0.159302  0.698999  1
  Tm  Tm1  1  0.250000  0.878992  0.020355  1
  Tm  Tm2  1  0.250000  0.620918  0.520120  1
  Tm  Tm3  1  0.750000  0.120894  0.980011  1
  Tm  Tm4  1  0.750000  0.379399  0.479694  1
  Tm  Tm5  1  0.250000  0.920106  0.603181  1
  Tm  Tm6  1  0.250000  0.579318  0.103503  1
  Tm  Tm7  1  0.750000  0.079256  0.396634  1
  Tm  Tm8  1  0.750000  0.421106  0.896671  1
  Tm  Tm9  1  0.250000  0.660791  0.800384  1
  Tm  Tm10  1  0.250000  0.839649  0.300469  1
  Tm  Tm11  1  0.750000  0.338706  0.199674  1
  Si  Si12  1  0.250000  0.013943  0.823135  1
  Si  Si13  1  0.250000  0.485056  0.322405  1
  Si  Si14  1  0.750000  0.985575  0.177446  1
  Si  Si15  1  0.750000  0.514999  0.677598  1
  Si  Si16  1  0.250000  0.248644  0.842280  1
  Si  Si17  1  0.250000  0.252062  0.341971  1
  Si  Si18  1  0.750000  0.752297  0.158230  1
  Si  Si19  1  0.750000  0.747950  0.657999  1
  Si  Si20  1  0.250000  0.198640  0.541173  1
  Si  Si21  1  0.250000  0.302211  0.042198  1
  Si  Si22  1  0.750000  0.801905  0.457648  1
  Si  Si23  1  0.750000  0.698030  0.957832  1
  Rh  Rh24  1  0.250000  0.392129  0.681450  1
  Rh  Rh25  1  0.250000  0.109329  0.181510  1
  Rh  Rh26  1  0.750000  0.608881  0.318343  1
  Rh  Rh27  1  0.750000  0.889914  0.819088  1
