# generated using pymatgen
data_Cs4Tl2SbPPt2
_symmetry_space_group_name_H-M   'P 1'
_cell_length_a   8.83438972
_cell_length_b   9.90459197
_cell_length_c   5.70129200
_cell_angle_alpha   90.00000000
_cell_angle_beta   90.00000000
_cell_angle_gamma   123.71082601
_symmetry_Int_Tables_number   1
_chemical_formula_structural   Cs4Tl2SbPPt2
_chemical_formula_sum   'Cs4 Tl2 Sb1 P1 Pt2'
_cell_volume   414.98372712
_cell_formula_units_Z   1
loop_
 _symmetry_equiv_pos_site_id
 _symmetry_equiv_pos_as_xyz
  1  'x, y, z'
loop_
 _atom_site_type_symbol
 _atom_site_label
 _atom_site_symmetry_multiplicity
 _atom_site_fract_x
 _atom_site_fract_y
 _atom_site_fract_z
 _atom_site_occupancy
  Cs  Cs0  1  0.638632  0.451149  0.750000  1
  Cs  Cs1  1  0.408852  0.621992  0.250000  1
  Cs  Cs2  1  0.297209  0.904337  0.750000  1
  Cs  Cs3  1  0.799580  0.197907  0.250000  1
  Tl  Tl4  1  0.953811  0.719343  0.250000  1
  Tl  Tl5  1  0.129769  0.249163  0.750000  1
  Sb  Sb6  1  0.253726  0.141303  0.250000  1
  P  P7  1  0.681210  0.834277  0.750000  1
  Pt  Pt8  1  0.918604  0.940264  0.003174  1
  Pt  Pt9  1  0.918604  0.940264  0.496826  1
