# generated using pymatgen
data_Th8Ti12Si15Ge
_symmetry_space_group_name_H-M   'P 1'
_cell_length_a   7.04816234
_cell_length_b   7.23048290
_cell_length_c   13.58037180
_cell_angle_alpha   90.01775605
_cell_angle_beta   89.93239904
_cell_angle_gamma   90.02637361
_symmetry_Int_Tables_number   1
_chemical_formula_structural   Th8Ti12Si15Ge
_chemical_formula_sum   'Th8 Ti12 Si15 Ge1'
_cell_volume   692.07712182
_cell_formula_units_Z   1
loop_
 _symmetry_equiv_pos_site_id
 _symmetry_equiv_pos_as_xyz
  1  'x, y, z'
loop_
 _atom_site_type_symbol
 _atom_site_label
 _atom_site_symmetry_multiplicity
 _atom_site_fract_x
 _atom_site_fract_y
 _atom_site_fract_z
 _atom_site_occupancy
  Th  Th0  1  0.997348  0.167880  0.404007  1
  Th  Th1  1  0.498460  0.332556  0.096803  1
  Th  Th2  1  0.502963  0.667610  0.595579  1
  Th  Th3  1  0.999205  0.829793  0.903184  1
  Th  Th4  1  0.002589  0.832054  0.595673  1
  Th  Th5  1  0.502583  0.667104  0.903785  1
  Th  Th6  1  0.497220  0.331908  0.404246  1
  Th  Th7  1  0.996667  0.169154  0.097071  1
  Ti  Ti8  1  0.337524  0.824271  0.127724  1
  Ti  Ti9  1  0.836683  0.674206  0.373947  1
  Ti  Ti10  1  0.663585  0.173995  0.626225  1
  Ti  Ti11  1  0.160591  0.329995  0.872281  1
  Ti  Ti12  1  0.164290  0.325544  0.626282  1
  Ti  Ti13  1  0.666504  0.174731  0.873176  1
  Ti  Ti14  1  0.334685  0.005779  0.747512  1
  Ti  Ti15  1  0.836873  0.673475  0.126976  1
  Ti  Ti16  1  0.664783  0.993998  0.250339  1
  Ti  Ti17  1  0.165291  0.506096  0.250247  1
  Ti  Ti18  1  0.835131  0.494016  0.749816  1
  Ti  Ti19  1  0.336302  0.825763  0.373722  1
  Si  Si20  1  0.342442  0.043707  0.545319  1
  Si  Si21  1  0.841248  0.455379  0.954831  1
  Si  Si22  1  0.661520  0.954302  0.047056  1
  Si  Si23  1  0.157840  0.543856  0.454304  1
  Si  Si24  1  0.158631  0.544657  0.045507  1
  Si  Si25  1  0.657740  0.955960  0.454303  1
  Si  Si26  1  0.842561  0.455661  0.545820  1
  Si  Si27  1  0.802376  0.388968  0.250710  1
  Si  Si28  1  0.302615  0.111038  0.250184  1
  Si  Si29  1  0.696526  0.888735  0.749643  1
  Si  Si30  1  0.197989  0.612494  0.749217  1
  Si  Si31  1  0.043299  0.860764  0.250368  1
  Si  Si32  1  0.543621  0.638868  0.250748  1
  Si  Si33  1  0.457394  0.360791  0.749992  1
  Si  Si34  1  0.957197  0.138915  0.749552  1
  Ge  Ge35  1  0.337725  0.045975  0.953846  1
