# generated using pymatgen
data_Sm2B8OsRu6
_symmetry_space_group_name_H-M   'P 1'
_cell_length_a   6.46097600
_cell_length_b   6.46097600
_cell_length_c   10.09330800
_cell_angle_alpha   90.00000000
_cell_angle_beta   90.00000000
_cell_angle_gamma   90.00000000
_symmetry_Int_Tables_number   1
_chemical_formula_structural   Sm2B8OsRu6
_chemical_formula_sum   'Sm4 B16 Os2 Ru12'
_cell_volume   421.33717755
_cell_formula_units_Z   2
loop_
 _symmetry_equiv_pos_site_id
 _symmetry_equiv_pos_as_xyz
  1  'x, y, z'
loop_
 _atom_site_type_symbol
 _atom_site_label
 _atom_site_symmetry_multiplicity
 _atom_site_fract_x
 _atom_site_fract_y
 _atom_site_fract_z
 _atom_site_occupancy
  Sm  Sm0  1  0.734454  0.875528  0.000000  1
  Sm  Sm1  1  0.124472  0.734454  0.500000  1
  Sm  Sm2  1  0.875528  0.265546  0.500000  1
  Sm  Sm3  1  0.265546  0.124472  0.000000  1
  B  B4  1  0.500000  0.000000  0.588835  1
  B  B5  1  0.500000  0.000000  0.411165  1
  B  B6  1  0.897731  0.272187  0.166137  1
  B  B7  1  0.102269  0.727813  0.833863  1
  B  B8  1  0.500000  0.500000  0.340700  1
  B  B9  1  0.500000  0.500000  0.840700  1
  B  B10  1  0.272187  0.102269  0.666137  1
  B  B11  1  0.102269  0.727813  0.166137  1
  B  B12  1  0.272187  0.102269  0.333863  1
  B  B13  1  0.897731  0.272187  0.833863  1
  B  B14  1  0.500000  0.500000  0.659300  1
  B  B15  1  0.500000  0.500000  0.159300  1
  B  B16  1  0.000000  0.500000  0.911165  1
  B  B17  1  0.727813  0.897731  0.666137  1
  B  B18  1  0.727813  0.897731  0.333863  1
  B  B19  1  0.000000  0.500000  0.088835  1
  Os  Os20  1  0.000000  0.000000  0.250000  1
  Os  Os21  1  0.000000  0.000000  0.750000  1
  Ru  Ru22  1  0.203903  0.399051  0.752203  1
  Ru  Ru23  1  0.400408  0.288362  0.500000  1
  Ru  Ru24  1  0.399051  0.796097  0.252203  1
  Ru  Ru25  1  0.203903  0.399051  0.247797  1
  Ru  Ru26  1  0.599592  0.711638  0.500000  1
  Ru  Ru27  1  0.600949  0.203903  0.747797  1
  Ru  Ru28  1  0.288362  0.599592  0.000000  1
  Ru  Ru29  1  0.711638  0.400408  0.000000  1
  Ru  Ru30  1  0.796097  0.600949  0.247797  1
  Ru  Ru31  1  0.796097  0.600949  0.752203  1
  Ru  Ru32  1  0.399051  0.796097  0.747797  1
  Ru  Ru33  1  0.600949  0.203903  0.252203  1
