# generated using pymatgen
data_Sr2Cu18Si7Sn
_symmetry_space_group_name_H-M   'P 1'
_cell_length_a   8.25276348
_cell_length_b   8.25284635
_cell_length_c   8.26678163
_cell_angle_alpha   120.51858107
_cell_angle_beta   120.51718331
_cell_angle_gamma   88.99447651
_symmetry_Int_Tables_number   1
_chemical_formula_structural   Sr2Cu18Si7Sn
_chemical_formula_sum   'Sr2 Cu18 Si7 Sn1'
_cell_volume   395.33548996
_cell_formula_units_Z   1
loop_
 _symmetry_equiv_pos_site_id
 _symmetry_equiv_pos_as_xyz
  1  'x, y, z'
loop_
 _atom_site_type_symbol
 _atom_site_label
 _atom_site_symmetry_multiplicity
 _atom_site_fract_x
 _atom_site_fract_y
 _atom_site_fract_z
 _atom_site_occupancy
  Sr  Sr0  1  0.254050  0.249742  0.000800  1
  Sr  Sr1  1  0.749741  0.754047  0.000796  1
  Cu  Cu2  1  0.934448  0.195655  0.143450  1
  Cu  Cu3  1  0.204119  0.063499  0.268361  1
  Cu  Cu4  1  0.793436  0.926720  0.728211  1
  Cu  Cu5  1  0.426748  0.293425  0.728222  1
  Cu  Cu6  1  0.068499  0.799593  0.864028  1
  Cu  Cu7  1  0.805307  0.049044  0.486201  1
  Cu  Cu8  1  0.549049  0.305309  0.486207  1
  Cu  Cu9  1  0.191528  0.945753  0.503545  1
  Cu  Cu10  1  0.445740  0.691540  0.503540  1
  Cu  Cu11  1  0.943374  0.443374  0.727646  1
  Cu  Cu12  1  0.692956  0.192965  0.252045  1
  Cu  Cu13  1  0.076379  0.576372  0.285550  1
  Cu  Cu14  1  0.695645  0.434441  0.143446  1
  Cu  Cu15  1  0.563518  0.704139  0.268394  1
  Cu  Cu16  1  0.491911  0.991912  0.492621  1
  Cu  Cu17  1  0.001112  0.501112  0.497955  1
  Cu  Cu18  1  0.306807  0.806818  0.748907  1
  Cu  Cu19  1  0.299584  0.568477  0.864009  1
  Si  Si20  1  0.554682  0.054685  0.849397  1
  Si  Si21  1  0.058437  0.208101  0.497398  1
  Si  Si22  1  0.292830  0.440932  0.502964  1
  Si  Si23  1  0.940928  0.792823  0.502959  1
  Si  Si24  1  0.442102  0.942100  0.150293  1
  Si  Si25  1  0.202570  0.702571  0.145044  1
  Si  Si26  1  0.708094  0.558437  0.497398  1
  Sn  Sn27  1  0.806406  0.306416  0.860611  1
