# generated using pymatgen
data_U4Pa4Re(B8W)3
_symmetry_space_group_name_H-M   'P 1'
_cell_length_a   3.71993600
_cell_length_b   9.32138000
_cell_length_c   11.42095900
_cell_angle_alpha   89.99955021
_cell_angle_beta   90.00000000
_cell_angle_gamma   90.00000000
_symmetry_Int_Tables_number   1
_chemical_formula_structural   U4Pa4Re(B8W)3
_chemical_formula_sum   'U4 Pa4 Re1 B24 W3'
_cell_volume   396.02103416
_cell_formula_units_Z   1
loop_
 _symmetry_equiv_pos_site_id
 _symmetry_equiv_pos_as_xyz
  1  'x, y, z'
loop_
 _atom_site_type_symbol
 _atom_site_label
 _atom_site_symmetry_multiplicity
 _atom_site_fract_x
 _atom_site_fract_y
 _atom_site_fract_z
 _atom_site_occupancy
  U  U0  1  0.000000  0.956184  0.395620  1
  U  U1  1  0.000000  0.044492  0.604332  1
  U  U2  1  0.000000  0.456567  0.104698  1
  U  U3  1  0.000000  0.543015  0.895212  1
  Pa  Pa4  1  0.000000  0.334194  0.407557  1
  Pa  Pa5  1  0.000000  0.665166  0.591418  1
  Pa  Pa6  1  0.000000  0.834257  0.092944  1
  Pa  Pa7  1  0.000000  0.166160  0.908178  1
  Re  Re8  1  0.000000  0.854098  0.819409  1
  B  B9  1  0.500000  0.551092  0.432200  1
  B  B10  1  0.500000  0.449099  0.567922  1
  B  B11  1  0.500000  0.050501  0.067450  1
  B  B12  1  0.500000  0.948481  0.931396  1
  B  B13  1  0.500000  0.744494  0.423622  1
  B  B14  1  0.500000  0.255337  0.576753  1
  B  B15  1  0.500000  0.244467  0.076460  1
  B  B16  1  0.500000  0.755971  0.922564  1
  B  B17  1  0.500000  0.803576  0.273818  1
  B  B18  1  0.500000  0.195992  0.726566  1
  B  B19  1  0.500000  0.303426  0.226089  1
  B  B20  1  0.500000  0.697223  0.773895  1
  B  B21  1  0.500000  0.644231  0.187532  1
  B  B22  1  0.500000  0.355969  0.812530  1
  B  B23  1  0.500000  0.143924  0.312121  1
  B  B24  1  0.500000  0.856196  0.688539  1
  B  B25  1  0.500000  0.986991  0.219249  1
  B  B26  1  0.500000  0.011923  0.781180  1
  B  B27  1  0.500000  0.487314  0.280429  1
  B  B28  1  0.500000  0.513397  0.719427  1
  B  B29  1  0.500000  0.640415  0.038132  1
  B  B30  1  0.500000  0.360383  0.961418  1
  B  B31  1  0.500000  0.139550  0.461362  1
  B  B32  1  0.500000  0.860247  0.539408  1
  W  W33  1  0.000000  0.645986  0.319304  1
  W  W34  1  0.000000  0.354068  0.681067  1
  W  W35  1  0.000000  0.145617  0.180198  1
