# generated using pymatgen
data_HoLu5FeBi2
_symmetry_space_group_name_H-M   'P 1'
_cell_length_a   8.19137300
_cell_length_b   8.17182004
_cell_length_c   4.12933200
_cell_angle_alpha   90.00000000
_cell_angle_beta   90.00000000
_cell_angle_gamma   120.07918653
_symmetry_Int_Tables_number   1
_chemical_formula_structural   HoLu5FeBi2
_chemical_formula_sum   'Ho1 Lu5 Fe1 Bi2'
_cell_volume   239.18769709
_cell_formula_units_Z   1
loop_
 _symmetry_equiv_pos_site_id
 _symmetry_equiv_pos_as_xyz
  1  'x, y, z'
loop_
 _atom_site_type_symbol
 _atom_site_label
 _atom_site_symmetry_multiplicity
 _atom_site_fract_x
 _atom_site_fract_y
 _atom_site_fract_z
 _atom_site_occupancy
  Ho  Ho0  1  0.612200  0.000000  0.500000  1
  Lu  Lu1  1  0.229421  0.000000  0.000000  1
  Lu  Lu2  1  0.999758  0.613758  0.500000  1
  Lu  Lu3  1  0.386001  0.386242  0.500000  1
  Lu  Lu4  1  0.771148  0.770199  0.000000  1
  Lu  Lu5  1  0.000949  0.229801  0.000000  1
  Fe  Fe6  1  0.001790  0.000000  0.500000  1
  Bi  Bi7  1  0.332111  0.665491  0.000000  1
  Bi  Bi8  1  0.666620  0.334509  0.000000  1
