# generated using pymatgen
data_Tm8Sc2In8PtRh3
_symmetry_space_group_name_H-M   'P 1'
_cell_length_a   3.56340000
_cell_length_b   7.94569012
_cell_length_c   17.97689921
_cell_angle_alpha   89.88798957
_cell_angle_beta   90.00000000
_cell_angle_gamma   90.00000000
_symmetry_Int_Tables_number   1
_chemical_formula_structural   Tm8Sc2In8PtRh3
_chemical_formula_sum   'Tm8 Sc2 In8 Pt1 Rh3'
_cell_volume   508.99105840
_cell_formula_units_Z   1
loop_
 _symmetry_equiv_pos_site_id
 _symmetry_equiv_pos_as_xyz
  1  'x, y, z'
loop_
 _atom_site_type_symbol
 _atom_site_label
 _atom_site_symmetry_multiplicity
 _atom_site_fract_x
 _atom_site_fract_y
 _atom_site_fract_z
 _atom_site_occupancy
  Tm  Tm0  1  0.000000  0.381710  0.911116  1
  Tm  Tm1  1  0.000000  0.619067  0.086616  1
  Tm  Tm2  1  0.000000  0.242241  0.223552  1
  Tm  Tm3  1  0.000000  0.754814  0.776732  1
  Tm  Tm4  1  0.000000  0.256663  0.716335  1
  Tm  Tm5  1  0.000000  0.748234  0.284119  1
  Tm  Tm6  1  0.000000  0.999708  0.999624  1
  Tm  Tm7  1  0.000000  0.500356  0.500689  1
  Sc  Sc8  1  0.000000  0.115049  0.412495  1
  Sc  Sc9  1  0.000000  0.883297  0.588621  1
  In  In10  1  0.500000  0.414756  0.355446  1
  In  In11  1  0.500000  0.581751  0.647039  1
  In  In12  1  0.500000  0.072543  0.847303  1
  In  In13  1  0.500000  0.930543  0.151546  1
  In  In14  1  0.500000  0.291941  0.066155  1
  In  In15  1  0.500000  0.706677  0.931663  1
  In  In16  1  0.500000  0.192867  0.560216  1
  In  In17  1  0.500000  0.805507  0.439571  1
  Pt  Pt18  1  0.500000  0.527331  0.198719  1
  Rh  Rh19  1  0.500000  0.028560  0.309625  1
  Rh  Rh20  1  0.500000  0.973032  0.690820  1
  Rh  Rh21  1  0.500000  0.473352  0.802002  1
