# generated using pymatgen
data_Y3Rh2Pb3Au
_symmetry_space_group_name_H-M   'P 1'
_cell_length_a   7.84482500
_cell_length_b   7.84482548
_cell_length_c   3.88269900
_cell_angle_alpha   90.00000000
_cell_angle_beta   90.00000000
_cell_angle_gamma   120.00000221
_symmetry_Int_Tables_number   1
_chemical_formula_structural   Y3Rh2Pb3Au
_chemical_formula_sum   'Y3 Rh2 Pb3 Au1'
_cell_volume   206.93354232
_cell_formula_units_Z   1
loop_
 _symmetry_equiv_pos_site_id
 _symmetry_equiv_pos_as_xyz
  1  'x, y, z'
loop_
 _atom_site_type_symbol
 _atom_site_label
 _atom_site_symmetry_multiplicity
 _atom_site_fract_x
 _atom_site_fract_y
 _atom_site_fract_z
 _atom_site_occupancy
  Y  Y0  1  0.392337  0.982954  0.000000  1
  Y  Y1  1  0.017046  0.409382  0.000000  1
  Y  Y2  1  0.590618  0.607662  0.000000  1
  Rh  Rh3  1  0.000000  0.000000  0.000000  1
  Rh  Rh4  1  0.333334  0.666667  0.500001  1
  Pb  Pb5  1  0.736954  0.996708  0.500001  1
  Pb  Pb6  1  0.259755  0.263047  0.500001  1
  Pb  Pb7  1  0.003292  0.740246  0.500001  1
  Au  Au8  1  0.666667  0.333334  0.500001  1
