# generated using pymatgen
data_BeNb2BRu2
_symmetry_space_group_name_H-M   'P 1'
_cell_length_a   3.18633600
_cell_length_b   6.48333645
_cell_length_c   11.11051677
_cell_angle_alpha   90.04264839
_cell_angle_beta   90.00000000
_cell_angle_gamma   90.00000000
_symmetry_Int_Tables_number   1
_chemical_formula_structural   BeNb2BRu2
_chemical_formula_sum   'Be3 Nb6 B3 Ru6'
_cell_volume   229.52197320
_cell_formula_units_Z   3
loop_
 _symmetry_equiv_pos_site_id
 _symmetry_equiv_pos_as_xyz
  1  'x, y, z'
loop_
 _atom_site_type_symbol
 _atom_site_label
 _atom_site_symmetry_multiplicity
 _atom_site_fract_x
 _atom_site_fract_y
 _atom_site_fract_z
 _atom_site_occupancy
  Be  Be0  1  0.000000  0.950566  0.250362  1
  Be  Be1  1  0.000000  0.048294  0.748347  1
  Be  Be2  1  0.500000  0.448766  0.088982  1
  Nb  Nb3  1  0.000000  0.272155  0.953009  1
  Nb  Nb4  1  0.000000  0.731550  0.041536  1
  Nb  Nb5  1  0.000000  0.276919  0.543677  1
  Nb  Nb6  1  0.000000  0.724090  0.456818  1
  Nb  Nb7  1  0.000000  0.354151  0.255826  1
  Nb  Nb8  1  0.000000  0.642819  0.748808  1
  B  B9  1  0.500000  0.551603  0.910665  1
  B  B10  1  0.500000  0.452419  0.417535  1
  B  B11  1  0.500000  0.548812  0.583885  1
  Ru  Ru12  1  0.500000  0.077236  0.120942  1
  Ru  Ru13  1  0.500000  0.920839  0.877231  1
  Ru  Ru14  1  0.500000  0.080778  0.380902  1
  Ru  Ru15  1  0.500000  0.918887  0.620203  1
  Ru  Ru16  1  0.500000  0.696067  0.253179  1
  Ru  Ru17  1  0.500000  0.304048  0.748092  1
