# generated using pymatgen
data_Mg4Zn(GeIr)6
_symmetry_space_group_name_H-M   'P 1'
_cell_length_a   7.08012897
_cell_length_b   7.08012846
_cell_length_c   7.08012918
_cell_angle_alpha   109.61997837
_cell_angle_beta   109.61996957
_cell_angle_gamma   109.17411976
_symmetry_Int_Tables_number   1
_chemical_formula_structural   Mg4Zn(GeIr)6
_chemical_formula_sum   'Mg4 Zn1 Ge6 Ir6'
_cell_volume   273.20765012
_cell_formula_units_Z   1
loop_
 _symmetry_equiv_pos_site_id
 _symmetry_equiv_pos_as_xyz
  1  'x, y, z'
loop_
 _atom_site_type_symbol
 _atom_site_label
 _atom_site_symmetry_multiplicity
 _atom_site_fract_x
 _atom_site_fract_y
 _atom_site_fract_z
 _atom_site_occupancy
  Mg  Mg0  1  0.003153  0.996847  0.500000  1
  Mg  Mg1  1  0.003153  0.503153  0.006306  1
  Mg  Mg2  1  0.496847  0.996847  0.993694  1
  Mg  Mg3  1  0.496847  0.503153  0.500000  1
  Zn  Zn4  1  0.750000  0.250000  0.500000  1
  Ge  Ge5  1  0.686987  0.686987  0.000000  1
  Ge  Ge6  1  0.296998  0.989965  0.307034  1
  Ge  Ge7  1  0.010035  0.317070  0.307034  1
  Ge  Ge8  1  0.313013  0.313013  0.000000  1
  Ge  Ge9  1  0.682930  0.989965  0.692966  1
  Ge  Ge10  1  0.010035  0.703002  0.692966  1
  Ir  Ir11  1  0.743921  0.488032  0.255889  1
  Ir  Ir12  1  0.511968  0.256079  0.744111  1
  Ir  Ir13  1  0.232144  0.488032  0.744111  1
  Ir  Ir14  1  0.250000  0.750000  0.500000  1
  Ir  Ir15  1  0.511968  0.767856  0.255889  1
  Ir  Ir16  1  0.000000  0.000000  0.000000  1
