# generated using pymatgen
data_AsRh3Se7
_symmetry_space_group_name_H-M   'P 1'
_cell_length_a   6.03975806
_cell_length_b   6.03975915
_cell_length_c   6.03975811
_cell_angle_alpha   90.35186852
_cell_angle_beta   90.35188854
_cell_angle_gamma   90.35188790
_symmetry_Int_Tables_number   1
_chemical_formula_structural   AsRh3Se7
_chemical_formula_sum   'As1 Rh3 Se7'
_cell_volume   220.30991092
_cell_formula_units_Z   1
loop_
 _symmetry_equiv_pos_site_id
 _symmetry_equiv_pos_as_xyz
  1  'x, y, z'
loop_
 _atom_site_type_symbol
 _atom_site_label
 _atom_site_symmetry_multiplicity
 _atom_site_fract_x
 _atom_site_fract_y
 _atom_site_fract_z
 _atom_site_occupancy
  As  As0  1  0.619856  0.619856  0.619856  1
  Rh  Rh1  1  0.994654  0.501041  0.500851  1
  Rh  Rh2  1  0.500851  0.994654  0.501041  1
  Rh  Rh3  1  0.501041  0.500851  0.994654  1
  Se  Se4  1  0.387019  0.881531  0.114547  1
  Se  Se5  1  0.114547  0.387019  0.881531  1
  Se  Se6  1  0.881531  0.114547  0.387019  1
  Se  Se7  1  0.616958  0.117689  0.883207  1
  Se  Se8  1  0.883207  0.616958  0.117689  1
  Se  Se9  1  0.117689  0.883207  0.616958  1
  Se  Se10  1  0.382649  0.382649  0.382649  1
