# generated using pymatgen
data_Nd2Al20Re3Ir
_symmetry_space_group_name_H-M   'P 1'
_cell_length_a   6.92204583
_cell_length_b   6.95051469
_cell_length_c   9.25093529
_cell_angle_alpha   90.17722824
_cell_angle_beta   90.37528787
_cell_angle_gamma   96.81387836
_symmetry_Int_Tables_number   1
_chemical_formula_structural   Nd2Al20Re3Ir
_chemical_formula_sum   'Nd2 Al20 Re3 Ir1'
_cell_volume   441.92245575
_cell_formula_units_Z   1
loop_
 _symmetry_equiv_pos_site_id
 _symmetry_equiv_pos_as_xyz
  1  'x, y, z'
loop_
 _atom_site_type_symbol
 _atom_site_label
 _atom_site_symmetry_multiplicity
 _atom_site_fract_x
 _atom_site_fract_y
 _atom_site_fract_z
 _atom_site_occupancy
  Nd  Nd0  1  0.875402  0.131699  0.749120  1
  Nd  Nd1  1  0.124598  0.868301  0.250880  1
  Al  Al2  1  0.593301  0.859812  0.250503  1
  Al  Al3  1  0.780838  0.520809  0.249060  1
  Al  Al4  1  0.153407  0.844532  0.899678  1
  Al  Al5  1  0.406699  0.140188  0.749497  1
  Al  Al6  1  0.623795  0.378607  0.960120  1
  Al  Al7  1  0.843114  0.155165  0.400484  1
  Al  Al8  1  0.774561  0.773623  0.000874  1
  Al  Al9  1  0.859214  0.593016  0.749924  1
  Al  Al10  1  0.846593  0.155468  0.100322  1
  Al  Al11  1  0.219162  0.479191  0.750940  1
  Al  Al12  1  0.156886  0.844835  0.599516  1
  Al  Al13  1  0.773563  0.773696  0.499878  1
  Al  Al14  1  0.477901  0.216755  0.253137  1
  Al  Al15  1  0.623559  0.376665  0.539281  1
  Al  Al16  1  0.226437  0.226304  0.500122  1
  Al  Al17  1  0.376441  0.623335  0.460719  1
  Al  Al18  1  0.140786  0.406984  0.250076  1
  Al  Al19  1  0.522099  0.783245  0.746863  1
  Al  Al20  1  0.376205  0.621393  0.039880  1
  Al  Al21  1  0.225439  0.226377  0.999126  1
  Re  Re22  1  0.500000  0.000000  0.500000  1
  Re  Re23  1  0.000000  0.500000  0.000000  1
  Re  Re24  1  0.000000  0.500000  0.500000  1
  Ir  Ir25  1  0.500000  0.000000  0.000000  1
