# generated using pymatgen
data_Sr4BeSi6Ni
_symmetry_space_group_name_H-M   'P 1'
_cell_length_a   8.44683477
_cell_length_b   8.12006563
_cell_length_c   6.20502892
_cell_angle_alpha   70.83083924
_cell_angle_beta   65.23216756
_cell_angle_gamma   43.93700652
_symmetry_Int_Tables_number   1
_chemical_formula_structural   Sr4BeSi6Ni
_chemical_formula_sum   'Sr4 Be1 Si6 Ni1'
_cell_volume   267.90200899
_cell_formula_units_Z   1
loop_
 _symmetry_equiv_pos_site_id
 _symmetry_equiv_pos_as_xyz
  1  'x, y, z'
loop_
 _atom_site_type_symbol
 _atom_site_label
 _atom_site_symmetry_multiplicity
 _atom_site_fract_x
 _atom_site_fract_y
 _atom_site_fract_z
 _atom_site_occupancy
  Sr  Sr0  1  0.244673  0.752834  0.247167  1
  Sr  Sr1  1  0.251090  0.251091  0.248910  1
  Sr  Sr2  1  0.751089  0.751091  0.748910  1
  Sr  Sr3  1  0.752833  0.244675  0.755326  1
  Be  Be4  1  0.666740  0.666742  0.333259  1
  Si  Si5  1  0.831995  0.831996  0.168005  1
  Si  Si6  1  0.830883  0.337395  0.169117  1
  Si  Si7  1  0.652143  0.173856  0.347856  1
  Si  Si8  1  0.337394  0.830884  0.662606  1
  Si  Si9  1  0.173855  0.652144  0.826144  1
  Si  Si10  1  0.173433  0.173434  0.826566  1
  Ni  Ni11  1  0.333863  0.333865  0.666136  1
