# generated using pymatgen
data_DyTm19(Cd3Ni)2
_symmetry_space_group_name_H-M   'P 1'
_cell_length_a   9.47869581
_cell_length_b   9.47869666
_cell_length_c   9.62821200
_cell_angle_alpha   90.00000000
_cell_angle_beta   90.00000000
_cell_angle_gamma   119.95269912
_symmetry_Int_Tables_number   1
_chemical_formula_structural   DyTm19(Cd3Ni)2
_chemical_formula_sum   'Dy1 Tm19 Cd6 Ni2'
_cell_volume   749.51493260
_cell_formula_units_Z   1
loop_
 _symmetry_equiv_pos_site_id
 _symmetry_equiv_pos_as_xyz
  1  'x, y, z'
loop_
 _atom_site_type_symbol
 _atom_site_label
 _atom_site_symmetry_multiplicity
 _atom_site_fract_x
 _atom_site_fract_y
 _atom_site_fract_z
 _atom_site_occupancy
  Dy  Dy0  1  0.543266  0.456734  0.250000  1
  Tm  Tm1  1  0.000079  0.999921  0.499851  1
  Tm  Tm2  1  0.000079  0.999921  0.000149  1
  Tm  Tm3  1  0.543267  0.085611  0.250000  1
  Tm  Tm4  1  0.914389  0.456733  0.250000  1
  Tm  Tm5  1  0.456967  0.543033  0.750000  1
  Tm  Tm6  1  0.456786  0.913679  0.750000  1
  Tm  Tm7  1  0.086321  0.543214  0.750000  1
  Tm  Tm8  1  0.211081  0.788919  0.438692  1
  Tm  Tm9  1  0.210313  0.422163  0.438971  1
  Tm  Tm10  1  0.577837  0.789687  0.438971  1
  Tm  Tm11  1  0.789046  0.210954  0.561404  1
  Tm  Tm12  1  0.789312  0.578028  0.561882  1
  Tm  Tm13  1  0.421972  0.210688  0.561882  1
  Tm  Tm14  1  0.789046  0.210954  0.938596  1
  Tm  Tm15  1  0.789312  0.578028  0.938118  1
  Tm  Tm16  1  0.421972  0.210688  0.938118  1
  Tm  Tm17  1  0.211081  0.788919  0.061308  1
  Tm  Tm18  1  0.210313  0.422163  0.061029  1
  Tm  Tm19  1  0.577837  0.789687  0.061029  1
  Cd  Cd20  1  0.885265  0.114735  0.250000  1
  Cd  Cd21  1  0.886167  0.771364  0.250000  1
  Cd  Cd22  1  0.228636  0.113833  0.250000  1
  Cd  Cd23  1  0.114952  0.885048  0.750000  1
  Cd  Cd24  1  0.114627  0.229484  0.750000  1
  Cd  Cd25  1  0.770516  0.885373  0.750000  1
  Ni  Ni26  1  0.333081  0.666919  0.250000  1
  Ni  Ni27  1  0.666478  0.333522  0.750000  1
