# generated using pymatgen
data_SrLaCu17Si8Pt
_symmetry_space_group_name_H-M   'P 1'
_cell_length_a   8.22044366
_cell_length_b   8.22358740
_cell_length_c   8.21147038
_cell_angle_alpha   120.12437715
_cell_angle_beta   120.27605845
_cell_angle_gamma   89.77469098
_symmetry_Int_Tables_number   1
_chemical_formula_structural   SrLaCu17Si8Pt
_chemical_formula_sum   'Sr1 La1 Cu17 Si8 Pt1'
_cell_volume   390.91118275
_cell_formula_units_Z   1
loop_
 _symmetry_equiv_pos_site_id
 _symmetry_equiv_pos_as_xyz
  1  'x, y, z'
loop_
 _atom_site_type_symbol
 _atom_site_label
 _atom_site_symmetry_multiplicity
 _atom_site_fract_x
 _atom_site_fract_y
 _atom_site_fract_z
 _atom_site_occupancy
  Sr  Sr0  1  0.246552  0.249399  0.998778  1
  La  La1  1  0.748796  0.751634  0.997511  1
  Cu  Cu2  1  0.213089  0.055803  0.269406  1
  Cu  Cu3  1  0.792973  0.921468  0.714560  1
  Cu  Cu4  1  0.436206  0.296455  0.731946  1
  Cu  Cu5  1  0.065832  0.796142  0.862721  1
  Cu  Cu6  1  0.806546  0.059324  0.498016  1
  Cu  Cu7  1  0.559753  0.309345  0.504654  1
  Cu  Cu8  1  0.195509  0.943876  0.503398  1
  Cu  Cu9  1  0.438976  0.692621  0.499396  1
  Cu  Cu10  1  0.941452  0.441045  0.749898  1
  Cu  Cu11  1  0.684851  0.197421  0.253910  1
  Cu  Cu12  1  0.056953  0.568060  0.253727  1
  Cu  Cu13  1  0.701616  0.440891  0.140702  1
  Cu  Cu14  1  0.562454  0.703556  0.265631  1
  Cu  Cu15  1  0.503724  0.000922  0.504419  1
  Cu  Cu16  1  0.998699  0.507486  0.505955  1
  Cu  Cu17  1  0.309208  0.808914  0.751206  1
  Cu  Cu18  1  0.296901  0.562271  0.858808  1
  Si  Si19  1  0.791777  0.293625  0.852562  1
  Si  Si20  1  0.561621  0.057376  0.851573  1
  Si  Si21  1  0.057827  0.205776  0.496706  1
  Si  Si22  1  0.292278  0.441317  0.501024  1
  Si  Si23  1  0.940234  0.792486  0.495317  1
  Si  Si24  1  0.444150  0.937511  0.149318  1
  Si  Si25  1  0.208068  0.707778  0.148865  1
  Si  Si26  1  0.706283  0.558682  0.502181  1
  Pt  Pt27  1  0.937675  0.198817  0.137810  1
