# generated using pymatgen
data_Dy4Y3TmC10
_symmetry_space_group_name_H-M   'P 1'
_cell_length_a   3.67923800
_cell_length_b   6.57407343
_cell_length_c   11.88020100
_cell_angle_alpha   89.74831543
_cell_angle_beta   90.00000000
_cell_angle_gamma   90.00000000
_symmetry_Int_Tables_number   1
_chemical_formula_structural   Dy4Y3TmC10
_chemical_formula_sum   'Dy4 Y3 Tm1 C10'
_cell_volume   287.35054882
_cell_formula_units_Z   1
loop_
 _symmetry_equiv_pos_site_id
 _symmetry_equiv_pos_as_xyz
  1  'x, y, z'
loop_
 _atom_site_type_symbol
 _atom_site_label
 _atom_site_symmetry_multiplicity
 _atom_site_fract_x
 _atom_site_fract_y
 _atom_site_fract_z
 _atom_site_occupancy
  Dy  Dy0  1  0.500000  0.107890  0.802330  1
  Dy  Dy1  1  0.500000  0.893164  0.196266  1
  Dy  Dy2  1  0.500000  0.604999  0.697172  1
  Dy  Dy3  1  0.500000  0.391692  0.304259  1
  Y  Y4  1  0.000000  0.753448  0.456129  1
  Y  Y5  1  0.000000  0.746122  0.954460  1
  Y  Y6  1  0.000000  0.235746  0.042159  1
  Tm  Tm7  1  0.000000  0.267383  0.542187  1
  C  C8  1  0.500000  0.511599  0.501921  1
  C  C9  1  0.500000  0.984520  0.000604  1
  C  C10  1  0.000000  0.364103  0.734193  1
  C  C11  1  0.000000  0.644942  0.261327  1
  C  C12  1  0.000000  0.856355  0.758618  1
  C  C13  1  0.000000  0.133157  0.238864  1
  C  C14  1  0.000000  0.382081  0.846269  1
  C  C15  1  0.000000  0.570512  0.157416  1
  C  C16  1  0.000000  0.119696  0.351136  1
  C  C17  1  0.000000  0.932592  0.654691  1
