# generated using pymatgen
data_Ac2Tb2DySn4
_symmetry_space_group_name_H-M   'P 1'
_cell_length_a   8.38121600
_cell_length_b   8.43151100
_cell_length_c   16.13812500
_cell_angle_alpha   90.00000000
_cell_angle_beta   90.00000000
_cell_angle_gamma   90.00000000
_symmetry_Int_Tables_number   1
_chemical_formula_structural   Ac2Tb2DySn4
_chemical_formula_sum   'Ac8 Tb8 Dy4 Sn16'
_cell_volume   1140.42182310
_cell_formula_units_Z   4
loop_
 _symmetry_equiv_pos_site_id
 _symmetry_equiv_pos_as_xyz
  1  'x, y, z'
loop_
 _atom_site_type_symbol
 _atom_site_label
 _atom_site_symmetry_multiplicity
 _atom_site_fract_x
 _atom_site_fract_y
 _atom_site_fract_z
 _atom_site_occupancy
  Ac  Ac0  1  0.514458  0.322885  0.903892  1
  Ac  Ac1  1  0.014458  0.177115  0.596108  1
  Ac  Ac2  1  0.485542  0.677115  0.403892  1
  Ac  Ac3  1  0.985542  0.822885  0.096108  1
  Ac  Ac4  1  0.485542  0.677115  0.096108  1
  Ac  Ac5  1  0.985542  0.822885  0.403892  1
  Ac  Ac6  1  0.514458  0.322885  0.596108  1
  Ac  Ac7  1  0.014458  0.177115  0.903892  1
  Tb  Tb8  1  0.359792  0.838856  0.876899  1
  Tb  Tb9  1  0.859792  0.661144  0.623101  1
  Tb  Tb10  1  0.640208  0.161144  0.376899  1
  Tb  Tb11  1  0.140208  0.338856  0.123101  1
  Tb  Tb12  1  0.640208  0.161144  0.123101  1
  Tb  Tb13  1  0.140208  0.338856  0.376899  1
  Tb  Tb14  1  0.359792  0.838856  0.623101  1
  Tb  Tb15  1  0.859792  0.661144  0.876899  1
  Dy  Dy16  1  0.196640  0.504075  0.750000  1
  Dy  Dy17  1  0.696640  0.995925  0.750000  1
  Dy  Dy18  1  0.803360  0.495925  0.250000  1
  Dy  Dy19  1  0.303360  0.004075  0.250000  1
  Sn  Sn20  1  0.307953  0.045090  0.044507  1
  Sn  Sn21  1  0.807953  0.454910  0.455493  1
  Sn  Sn22  1  0.692047  0.954910  0.544507  1
  Sn  Sn23  1  0.192047  0.545090  0.955493  1
  Sn  Sn24  1  0.692047  0.954910  0.955493  1
  Sn  Sn25  1  0.192047  0.545090  0.544507  1
  Sn  Sn26  1  0.307953  0.045090  0.455493  1
  Sn  Sn27  1  0.807953  0.454910  0.044507  1
  Sn  Sn28  1  0.559200  0.632711  0.750000  1
  Sn  Sn29  1  0.059200  0.867289  0.750000  1
  Sn  Sn30  1  0.440800  0.367289  0.250000  1
  Sn  Sn31  1  0.940800  0.132711  0.250000  1
  Sn  Sn32  1  0.322825  0.136730  0.750000  1
  Sn  Sn33  1  0.822825  0.363270  0.750000  1
  Sn  Sn34  1  0.677175  0.863270  0.250000  1
  Sn  Sn35  1  0.177175  0.636730  0.250000  1
