# generated using pymatgen
data_Er15Tm5(IrRh5)2
_symmetry_space_group_name_H-M   'P 1'
_cell_length_a   10.78456666
_cell_length_b   10.78562702
_cell_length_c   6.30766424
_cell_angle_alpha   90.00582132
_cell_angle_beta   90.00433866
_cell_angle_gamma   89.99793774
_symmetry_Int_Tables_number   1
_chemical_formula_structural   Er15Tm5(IrRh5)2
_chemical_formula_sum   'Er15 Tm5 Ir2 Rh10'
_cell_volume   733.69686020
_cell_formula_units_Z   1
loop_
 _symmetry_equiv_pos_site_id
 _symmetry_equiv_pos_as_xyz
  1  'x, y, z'
loop_
 _atom_site_type_symbol
 _atom_site_label
 _atom_site_symmetry_multiplicity
 _atom_site_fract_x
 _atom_site_fract_y
 _atom_site_fract_z
 _atom_site_occupancy
  Er  Er0  1  0.290723  0.089523  0.377751  1
  Er  Er1  1  0.290824  0.910597  0.877803  1
  Er  Er2  1  0.709038  0.087934  0.877076  1
  Er  Er3  1  0.709006  0.912080  0.377050  1
  Er  Er4  1  0.586391  0.790287  0.877530  1
  Er  Er5  1  0.586420  0.209732  0.377555  1
  Er  Er6  1  0.411276  0.790658  0.378055  1
  Er  Er7  1  0.411246  0.209352  0.878075  1
  Er  Er8  1  0.210202  0.413240  0.621880  1
  Er  Er9  1  0.210217  0.586544  0.121864  1
  Er  Er10  1  0.791304  0.411442  0.122545  1
  Er  Er11  1  0.791221  0.588510  0.622499  1
  Er  Er12  1  0.912282  0.709290  0.122467  1
  Er  Er13  1  0.912369  0.290667  0.622407  1
  Er  Er14  1  0.089705  0.708875  0.622678  1
  Tm  Tm15  1  0.089734  0.291362  0.122567  1
  Tm  Tm16  1  0.999812  0.999739  0.499996  1
  Tm  Tm17  1  0.999841  0.000449  0.000057  1
  Tm  Tm18  1  0.500007  0.499718  0.999969  1
  Tm  Tm19  1  0.499994  0.500246  0.499918  1
  Ir  Ir20  1  0.346323  0.345558  0.249856  1
  Ir  Ir21  1  0.346612  0.654372  0.749985  1
  Rh  Rh22  1  0.846088  0.153584  0.250155  1
  Rh  Rh23  1  0.845877  0.846513  0.750252  1
  Rh  Rh24  1  0.152570  0.153465  0.750245  1
  Rh  Rh25  1  0.152698  0.846683  0.249750  1
  Rh  Rh26  1  0.654751  0.346334  0.750007  1
  Rh  Rh27  1  0.654759  0.653690  0.249967  1
  Rh  Rh28  1  0.500348  0.999903  0.123187  1
  Rh  Rh29  1  0.500380  0.000125  0.623204  1
  Rh  Rh30  1  0.998980  0.499634  0.877039  1
  Rh  Rh31  1  0.999002  0.499893  0.376611  1
