# generated using pymatgen
data_BeNb10Si4As
_symmetry_space_group_name_H-M   'P 1'
_cell_length_a   7.57540971
_cell_length_b   7.57540846
_cell_length_c   7.56174894
_cell_angle_alpha   128.35643276
_cell_angle_beta   128.37059404
_cell_angle_gamma   76.16900916
_symmetry_Int_Tables_number   1
_chemical_formula_structural   BeNb10Si4As
_chemical_formula_sum   'Be1 Nb10 Si4 As1'
_cell_volume   259.13973881
_cell_formula_units_Z   1
loop_
 _symmetry_equiv_pos_site_id
 _symmetry_equiv_pos_as_xyz
  1  'x, y, z'
loop_
 _atom_site_type_symbol
 _atom_site_label
 _atom_site_symmetry_multiplicity
 _atom_site_fract_x
 _atom_site_fract_y
 _atom_site_fract_z
 _atom_site_occupancy
  Be  Be0  1  0.125007  0.624175  0.749183  1
  Nb  Nb1  1  0.018570  0.188512  0.505173  1
  Nb  Nb2  1  0.515885  0.019674  0.835415  1
  Nb  Nb3  1  0.177939  0.681562  0.154647  1
  Nb  Nb4  1  0.473085  0.976708  0.154647  1
  Nb  Nb5  1  0.690308  0.514074  0.505461  1
  Nb  Nb6  1  0.991386  0.815153  0.505461  1
  Nb  Nb7  1  0.316661  0.486602  0.505173  1
  Nb  Nb8  1  0.815741  0.319531  0.835415  1
  Nb  Nb9  1  0.496555  0.498063  0.994618  1
  Nb  Nb10  1  0.002259  0.995874  0.998132  1
  Si  Si11  1  0.364777  0.132519  0.497295  1
  Si  Si12  1  0.879187  0.377675  0.256862  1
  Si  Si13  1  0.751146  0.751448  0.002666  1
  Si  Si14  1  0.251218  0.251521  0.002666  1
  As  As15  1  0.630276  0.866909  0.497184  1
