# generated using pymatgen
data_Nd5TmTaWO14
_symmetry_space_group_name_H-M   'P 1'
_cell_length_a   6.66873986
_cell_length_b   6.59590608
_cell_length_c   7.68718398
_cell_angle_alpha   89.69976676
_cell_angle_beta   90.39203210
_cell_angle_gamma   108.78929218
_symmetry_Int_Tables_number   1
_chemical_formula_structural   Nd5TmTaWO14
_chemical_formula_sum   'Nd5 Tm1 Ta1 W1 O14'
_cell_volume   320.10306802
_cell_formula_units_Z   1
loop_
 _symmetry_equiv_pos_site_id
 _symmetry_equiv_pos_as_xyz
  1  'x, y, z'
loop_
 _atom_site_type_symbol
 _atom_site_label
 _atom_site_symmetry_multiplicity
 _atom_site_fract_x
 _atom_site_fract_y
 _atom_site_fract_z
 _atom_site_occupancy
  Nd  Nd0  1  0.523040  0.517544  0.497757  1
  Nd  Nd1  1  0.536126  0.527141  0.001089  1
  Nd  Nd2  1  0.006830  0.460829  0.753862  1
  Nd  Nd3  1  0.529470  0.003774  0.747874  1
  Nd  Nd4  1  0.463238  0.002984  0.248854  1
  Tm  Tm5  1  0.004236  0.530357  0.248905  1
  Ta  Ta6  1  0.000290  0.000812  0.002586  1
  W  W7  1  0.998984  0.998724  0.497096  1
  O  O8  1  0.938784  0.059436  0.750630  1
  O  O9  1  0.062570  0.929694  0.249193  1
  O  O10  1  0.349582  0.630587  0.248761  1
  O  O11  1  0.644124  0.372303  0.750003  1
  O  O12  1  0.370537  0.629874  0.750043  1
  O  O13  1  0.650827  0.380221  0.251167  1
  O  O14  1  0.308228  0.074256  0.968190  1
  O  O15  1  0.675083  0.914176  0.473322  1
  O  O16  1  0.317045  0.084510  0.524300  1
  O  O17  1  0.678152  0.916597  0.027113  1
  O  O18  1  0.041574  0.303460  0.460151  1
  O  O19  1  0.932213  0.678325  0.978894  1
  O  O20  1  0.936066  0.684498  0.523780  1
  O  O21  1  0.033003  0.299894  0.046430  1
