# generated using pymatgen
data_K2Np2O7
_symmetry_space_group_name_H-M   'P 1'
_cell_length_a   7.99306300
_cell_length_b   6.97433251
_cell_length_c   7.11926745
_cell_angle_alpha   70.64229462
_cell_angle_beta   90.00000000
_cell_angle_gamma   90.00000000
_symmetry_Int_Tables_number   1
_chemical_formula_structural   K2Np2O7
_chemical_formula_sum   'K4 Np4 O14'
_cell_volume   374.43650403
_cell_formula_units_Z   2
loop_
 _symmetry_equiv_pos_site_id
 _symmetry_equiv_pos_as_xyz
  1  'x, y, z'
loop_
 _atom_site_type_symbol
 _atom_site_label
 _atom_site_symmetry_multiplicity
 _atom_site_fract_x
 _atom_site_fract_y
 _atom_site_fract_z
 _atom_site_occupancy
  K  K0  1  0.257099  0.021098  0.493584  1
  K  K1  1  0.757099  0.978902  0.506416  1
  K  K2  1  0.501548  0.485606  0.504567  1
  K  K3  1  0.001548  0.514394  0.495433  1
  Np  Np4  1  0.261043  0.529264  0.994578  1
  Np  Np5  1  0.761043  0.470736  0.005422  1
  Np  Np6  1  0.499905  0.979623  0.003761  1
  Np  Np7  1  0.999905  0.020377  0.996239  1
  O  O8  1  0.396808  0.265709  0.998116  1
  O  O9  1  0.896808  0.734291  0.001884  1
  O  O10  1  0.496287  0.887186  0.281913  1
  O  O11  1  0.996287  0.112814  0.718087  1
  O  O12  1  0.250413  0.437490  0.271703  1
  O  O13  1  0.750413  0.562510  0.728297  1
  O  O14  1  0.761666  0.377726  0.282410  1
  O  O15  1  0.261666  0.622274  0.717590  1
  O  O16  1  0.744313  0.130797  0.013351  1
  O  O17  1  0.244313  0.869203  0.986649  1
  O  O18  1  0.023679  0.352516  0.988592  1
  O  O19  1  0.523679  0.647484  0.011408  1
  O  O20  1  0.510942  0.072144  0.725583  1
  O  O21  1  0.010942  0.927856  0.274417  1
