# generated using pymatgen
data_ZnNiMo12(Pt3N2)2
_symmetry_space_group_name_H-M   'P 1'
_cell_length_a   6.86958075
_cell_length_b   6.86096021
_cell_length_c   6.87369060
_cell_angle_alpha   89.75837836
_cell_angle_beta   90.17070399
_cell_angle_gamma   90.06636004
_symmetry_Int_Tables_number   1
_chemical_formula_structural   ZnNiMo12(Pt3N2)2
_chemical_formula_sum   'Zn1 Ni1 Mo12 Pt6 N4'
_cell_volume   323.96570521
_cell_formula_units_Z   1
loop_
 _symmetry_equiv_pos_site_id
 _symmetry_equiv_pos_as_xyz
  1  'x, y, z'
loop_
 _atom_site_type_symbol
 _atom_site_label
 _atom_site_symmetry_multiplicity
 _atom_site_fract_x
 _atom_site_fract_y
 _atom_site_fract_z
 _atom_site_occupancy
  Zn  Zn0  1  0.562028  0.433870  0.939134  1
  Ni  Ni1  1  0.060403  0.063679  0.057054  1
  Mo  Mo2  1  0.199892  0.448867  0.125717  1
  Mo  Mo3  1  0.048992  0.875576  0.706913  1
  Mo  Mo4  1  0.442361  0.124914  0.208356  1
  Mo  Mo5  1  0.290243  0.553713  0.623339  1
  Mo  Mo6  1  0.953096  0.369177  0.794846  1
  Mo  Mo7  1  0.547298  0.624962  0.299566  1
  Mo  Mo8  1  0.709176  0.046506  0.874069  1
  Mo  Mo9  1  0.629289  0.296158  0.545390  1
  Mo  Mo10  1  0.881168  0.715819  0.055465  1
  Mo  Mo11  1  0.375921  0.797055  0.948884  1
  Mo  Mo12  1  0.128073  0.201540  0.449425  1
  Mo  Mo13  1  0.796410  0.951826  0.370443  1
  Pt  Pt14  1  0.937736  0.559886  0.436340  1
  Pt  Pt15  1  0.188163  0.818112  0.299592  1
  Pt  Pt16  1  0.440848  0.938223  0.563350  1
  Pt  Pt17  1  0.687941  0.678397  0.701270  1
  Pt  Pt18  1  0.810571  0.306849  0.176202  1
  Pt  Pt19  1  0.312364  0.192369  0.821710  1
  N  N20  1  0.876893  0.123416  0.622161  1
  N  N21  1  0.622323  0.876043  0.126010  1
  N  N22  1  0.124481  0.625655  0.877234  1
  N  N23  1  0.374331  0.377388  0.377529  1
