# generated using pymatgen
data_Hf9Ta4Se
_symmetry_space_group_name_H-M   'P 1'
_cell_length_a   8.79309900
_cell_length_b   8.79309865
_cell_length_c   8.90032600
_cell_angle_alpha   90.00000000
_cell_angle_beta   90.00000000
_cell_angle_gamma   119.99999754
_symmetry_Int_Tables_number   1
_chemical_formula_structural   Hf9Ta4Se
_chemical_formula_sum   'Hf18 Ta8 Se2'
_cell_volume   595.96460214
_cell_formula_units_Z   2
loop_
 _symmetry_equiv_pos_site_id
 _symmetry_equiv_pos_as_xyz
  1  'x, y, z'
loop_
 _atom_site_type_symbol
 _atom_site_label
 _atom_site_symmetry_multiplicity
 _atom_site_fract_x
 _atom_site_fract_y
 _atom_site_fract_z
 _atom_site_occupancy
  Hf  Hf0  1  0.542577  0.085155  0.250000  1
  Hf  Hf1  1  0.457423  0.914845  0.750000  1
  Hf  Hf2  1  0.914845  0.457423  0.250000  1
  Hf  Hf3  1  0.085155  0.542577  0.750000  1
  Hf  Hf4  1  0.542577  0.457423  0.250000  1
  Hf  Hf5  1  0.457423  0.542577  0.750000  1
  Hf  Hf6  1  0.196658  0.393315  0.046977  1
  Hf  Hf7  1  0.803342  0.606685  0.953023  1
  Hf  Hf8  1  0.606685  0.803342  0.046977  1
  Hf  Hf9  1  0.803342  0.606685  0.546977  1
  Hf  Hf10  1  0.393315  0.196658  0.953023  1
  Hf  Hf11  1  0.196658  0.393315  0.453023  1
  Hf  Hf12  1  0.196658  0.803342  0.046977  1
  Hf  Hf13  1  0.393315  0.196658  0.546977  1
  Hf  Hf14  1  0.803342  0.196658  0.953023  1
  Hf  Hf15  1  0.606685  0.803342  0.453023  1
  Hf  Hf16  1  0.803342  0.196658  0.546977  1
  Hf  Hf17  1  0.196658  0.803342  0.453023  1
  Ta  Ta18  1  0.000000  0.000000  0.000000  1
  Ta  Ta19  1  0.000000  0.000000  0.500000  1
  Ta  Ta20  1  0.887105  0.774210  0.250000  1
  Ta  Ta21  1  0.112895  0.225790  0.750000  1
  Ta  Ta22  1  0.225790  0.112895  0.250000  1
  Ta  Ta23  1  0.774210  0.887105  0.750000  1
  Ta  Ta24  1  0.887105  0.112895  0.250000  1
  Ta  Ta25  1  0.112895  0.887105  0.750000  1
  Se  Se26  1  0.333333  0.666667  0.250000  1
  Se  Se27  1  0.666667  0.333333  0.750000  1
