# generated using pymatgen
data_NdBi3(SO6)2
_symmetry_space_group_name_H-M   'P 1'
_cell_length_a   4.26454432
_cell_length_b   7.47514989
_cell_length_c   8.27548833
_cell_angle_alpha   106.01568482
_cell_angle_beta   90.59328435
_cell_angle_gamma   106.27888990
_symmetry_Int_Tables_number   1
_chemical_formula_structural   NdBi3(SO6)2
_chemical_formula_sum   'Nd1 Bi3 S2 O12'
_cell_volume   242.29981565
_cell_formula_units_Z   1
loop_
 _symmetry_equiv_pos_site_id
 _symmetry_equiv_pos_as_xyz
  1  'x, y, z'
loop_
 _atom_site_type_symbol
 _atom_site_label
 _atom_site_symmetry_multiplicity
 _atom_site_fract_x
 _atom_site_fract_y
 _atom_site_fract_z
 _atom_site_occupancy
  Nd  Nd0  1  0.652651  0.320988  0.079618  1
  Bi  Bi1  1  0.669564  0.340085  0.585069  1
  Bi  Bi2  1  0.332191  0.659114  0.411838  1
  Bi  Bi3  1  0.324969  0.658638  0.917779  1
  S  S4  1  0.947020  0.001398  0.753857  1
  S  S5  1  0.056040  0.002998  0.247734  1
  O  O6  1  0.770989  0.502463  0.872916  1
  O  O7  1  0.231295  0.489572  0.122271  1
  O  O8  1  0.264063  0.494662  0.622061  1
  O  O9  1  0.730668  0.503964  0.379992  1
  O  O10  1  0.745227  0.995413  0.603511  1
  O  O11  1  0.261223  0.011923  0.397764  1
  O  O12  1  0.742539  0.012532  0.900411  1
  O  O13  1  0.264983  0.002497  0.102661  1
  O  O14  1  0.233935  0.181582  0.799177  1
  O  O15  1  0.779870  0.820042  0.203372  1
  O  O16  1  0.049038  0.821457  0.717142  1
  O  O17  1  0.943738  0.180673  0.282825  1
