# generated using pymatgen
data_Ac2PaNi2Sn7
_symmetry_space_group_name_H-M   'P 1'
_cell_length_a   13.80319110
_cell_length_b   13.80319203
_cell_length_c   4.66433200
_cell_angle_alpha   90.00000000
_cell_angle_beta   90.00000000
_cell_angle_gamma   160.09420609
_symmetry_Int_Tables_number   1
_chemical_formula_structural   Ac2PaNi2Sn7
_chemical_formula_sum   'Ac2 Pa1 Ni2 Sn7'
_cell_volume   302.57514262
_cell_formula_units_Z   1
loop_
 _symmetry_equiv_pos_site_id
 _symmetry_equiv_pos_as_xyz
  1  'x, y, z'
loop_
 _atom_site_type_symbol
 _atom_site_label
 _atom_site_symmetry_multiplicity
 _atom_site_fract_x
 _atom_site_fract_y
 _atom_site_fract_z
 _atom_site_occupancy
  Ac  Ac0  1  0.182185  0.817815  0.000000  1
  Ac  Ac1  1  0.817815  0.182185  0.000000  1
  Pa  Pa2  1  0.500000  0.500000  0.500000  1
  Ni  Ni3  1  0.376796  0.623204  0.500000  1
  Ni  Ni4  1  0.623204  0.376796  0.500000  1
  Sn  Sn5  1  0.084539  0.915461  0.500000  1
  Sn  Sn6  1  0.915461  0.084539  0.500000  1
  Sn  Sn7  1  0.281412  0.718588  0.500000  1
  Sn  Sn8  1  0.718588  0.281412  0.500000  1
  Sn  Sn9  1  0.000000  0.000000  0.000000  1
  Sn  Sn10  1  0.584105  0.415895  0.000000  1
  Sn  Sn11  1  0.415895  0.584105  0.000000  1
