# generated using pymatgen
data_Th2Si6(Pd2Rh)7
_symmetry_space_group_name_H-M   'P 1'
_cell_length_a   8.64338960
_cell_length_b   8.64338873
_cell_length_c   8.64338951
_cell_angle_alpha   60.19872759
_cell_angle_beta   60.19872872
_cell_angle_gamma   60.19872351
_symmetry_Int_Tables_number   1
_chemical_formula_structural   Th2Si6(Pd2Rh)7
_chemical_formula_sum   'Th2 Si6 Pd14 Rh7'
_cell_volume   458.65606584
_cell_formula_units_Z   1
loop_
 _symmetry_equiv_pos_site_id
 _symmetry_equiv_pos_as_xyz
  1  'x, y, z'
loop_
 _atom_site_type_symbol
 _atom_site_label
 _atom_site_symmetry_multiplicity
 _atom_site_fract_x
 _atom_site_fract_y
 _atom_site_fract_z
 _atom_site_occupancy
  Th  Th0  1  0.749930  0.749930  0.749930  1
  Th  Th1  1  0.247129  0.247129  0.247129  1
  Si  Si2  1  0.722656  0.722656  0.277225  1
  Si  Si3  1  0.274717  0.728549  0.274717  1
  Si  Si4  1  0.728549  0.274717  0.274717  1
  Si  Si5  1  0.274717  0.274717  0.728549  1
  Si  Si6  1  0.722656  0.277225  0.722656  1
  Si  Si7  1  0.277225  0.722656  0.722656  1
  Pd  Pd8  1  0.000051  0.000051  0.000051  1
  Pd  Pd9  1  0.382836  0.382836  0.382836  1
  Pd  Pd10  1  0.999359  0.999359  0.341393  1
  Pd  Pd11  1  0.659566  0.000828  0.339889  1
  Pd  Pd12  1  0.000828  0.659566  0.339889  1
  Pd  Pd13  1  0.659566  0.339889  0.000828  1
  Pd  Pd14  1  0.999359  0.341393  0.999359  1
  Pd  Pd15  1  0.000828  0.339889  0.659566  1
  Pd  Pd16  1  0.339889  0.659566  0.000828  1
  Pd  Pd17  1  0.339889  0.000828  0.659566  1
  Pd  Pd18  1  0.341393  0.999359  0.999359  1
  Pd  Pd19  1  0.000691  0.000691  0.660127  1
  Pd  Pd20  1  0.000691  0.660127  0.000691  1
  Pd  Pd21  1  0.660127  0.000691  0.000691  1
  Rh  Rh22  1  0.616843  0.616843  0.146705  1
  Rh  Rh23  1  0.616843  0.146705  0.616843  1
  Rh  Rh24  1  0.146705  0.616843  0.616843  1
  Rh  Rh25  1  0.618157  0.618157  0.618157  1
  Rh  Rh26  1  0.381880  0.381880  0.855040  1
  Rh  Rh27  1  0.381880  0.855040  0.381880  1
  Rh  Rh28  1  0.855040  0.381880  0.381880  1
