# generated using pymatgen
data_Tb16MgIn3Pd4
_symmetry_space_group_name_H-M   'P 1'
_cell_length_a   9.77140357
_cell_length_b   9.77140339
_cell_length_c   9.77140289
_cell_angle_alpha   60.13310236
_cell_angle_beta   60.13310340
_cell_angle_gamma   60.13309908
_symmetry_Int_Tables_number   1
_chemical_formula_structural   Tb16MgIn3Pd4
_chemical_formula_sum   'Tb16 Mg1 In3 Pd4'
_cell_volume   661.70334820
_cell_formula_units_Z   1
loop_
 _symmetry_equiv_pos_site_id
 _symmetry_equiv_pos_as_xyz
  1  'x, y, z'
loop_
 _atom_site_type_symbol
 _atom_site_label
 _atom_site_symmetry_multiplicity
 _atom_site_fract_x
 _atom_site_fract_y
 _atom_site_fract_z
 _atom_site_occupancy
  Tb  Tb0  1  0.808813  0.808813  0.190344  1
  Tb  Tb1  1  0.808813  0.190344  0.808813  1
  Tb  Tb2  1  0.189169  0.189169  0.809797  1
  Tb  Tb3  1  0.648757  0.056697  0.648757  1
  Tb  Tb4  1  0.064643  0.064643  0.435053  1
  Tb  Tb5  1  0.434058  0.434058  0.065293  1
  Tb  Tb6  1  0.648665  0.648665  0.648665  1
  Tb  Tb7  1  0.809797  0.189169  0.189169  1
  Tb  Tb8  1  0.190344  0.808813  0.808813  1
  Tb  Tb9  1  0.056697  0.648757  0.648757  1
  Tb  Tb10  1  0.435053  0.064643  0.064643  1
  Tb  Tb11  1  0.434058  0.065293  0.434058  1
  Tb  Tb12  1  0.064643  0.435053  0.064643  1
  Tb  Tb13  1  0.648757  0.648757  0.056697  1
  Tb  Tb14  1  0.189169  0.809797  0.189169  1
  Tb  Tb15  1  0.065293  0.434058  0.434058  1
  Mg  Mg16  1  0.422196  0.422196  0.422196  1
  In  In17  1  0.417992  0.417992  0.745683  1
  In  In18  1  0.417992  0.745683  0.417992  1
  In  In19  1  0.745683  0.417992  0.417992  1
  Pd  Pd20  1  0.856377  0.431149  0.856377  1
  Pd  Pd21  1  0.855502  0.855502  0.855502  1
  Pd  Pd22  1  0.856377  0.856377  0.431149  1
  Pd  Pd23  1  0.431149  0.856377  0.856377  1
