# generated using pymatgen
data_Er10In5PbCl2
_symmetry_space_group_name_H-M   'P 1'
_cell_length_a   9.01545500
_cell_length_b   9.02023818
_cell_length_c   6.67849800
_cell_angle_alpha   90.00000000
_cell_angle_beta   90.00000000
_cell_angle_gamma   119.98245662
_symmetry_Int_Tables_number   1
_chemical_formula_structural   Er10In5PbCl2
_chemical_formula_sum   'Er10 In5 Pb1 Cl2'
_cell_volume   470.42656045
_cell_formula_units_Z   1
loop_
 _symmetry_equiv_pos_site_id
 _symmetry_equiv_pos_as_xyz
  1  'x, y, z'
loop_
 _atom_site_type_symbol
 _atom_site_label
 _atom_site_symmetry_multiplicity
 _atom_site_fract_x
 _atom_site_fract_y
 _atom_site_fract_z
 _atom_site_occupancy
  Er  Er0  1  0.740525  0.740988  0.250000  1
  Er  Er1  1  0.996952  0.739562  0.750000  1
  Er  Er2  1  0.743287  0.000000  0.750000  1
  Er  Er3  1  0.333255  0.664741  0.498447  1
  Er  Er4  1  0.257390  0.260438  0.750000  1
  Er  Er5  1  0.999536  0.259012  0.250000  1
  Er  Er6  1  0.668515  0.335259  0.498447  1
  Er  Er7  1  0.257864  0.000000  0.250000  1
  Er  Er8  1  0.333255  0.664741  0.001553  1
  Er  Er9  1  0.668515  0.335259  0.001553  1
  In  In10  1  0.000298  0.606253  0.250000  1
  In  In11  1  0.607108  0.000000  0.250000  1
  In  In12  1  0.999816  0.394225  0.750000  1
  In  In13  1  0.394044  0.393747  0.250000  1
  In  In14  1  0.605591  0.605775  0.750000  1
  Pb  Pb15  1  0.392634  0.000000  0.750000  1
  Cl  Cl16  1  0.000707  0.000000  0.500872  1
  Cl  Cl17  1  0.000707  0.000000  0.999128  1
