# generated using pymatgen
data_CaPa(Al3Rh)3
_symmetry_space_group_name_H-M   'P 1'
_cell_length_a   7.59811075
_cell_length_b   7.60815005
_cell_length_c   9.40863200
_cell_angle_alpha   90.00000000
_cell_angle_beta   90.00000000
_cell_angle_gamma   119.40532218
_symmetry_Int_Tables_number   1
_chemical_formula_structural   CaPa(Al3Rh)3
_chemical_formula_sum   'Ca2 Pa2 Al18 Rh6'
_cell_volume   473.81978256
_cell_formula_units_Z   2
loop_
 _symmetry_equiv_pos_site_id
 _symmetry_equiv_pos_as_xyz
  1  'x, y, z'
loop_
 _atom_site_type_symbol
 _atom_site_label
 _atom_site_symmetry_multiplicity
 _atom_site_fract_x
 _atom_site_fract_y
 _atom_site_fract_z
 _atom_site_occupancy
  Ca  Ca0  1  0.671331  0.993056  0.750000  1
  Ca  Ca1  1  0.328669  0.006944  0.250000  1
  Pa  Pa2  1  0.998607  0.673012  0.750000  1
  Pa  Pa3  1  0.001393  0.326988  0.250000  1
  Al  Al4  1  0.133359  0.125834  0.750000  1
  Al  Al5  1  0.866641  0.874166  0.250000  1
  Al  Al6  1  0.000552  0.332049  0.579574  1
  Al  Al7  1  0.999448  0.667951  0.420426  1
  Al  Al8  1  0.999448  0.667951  0.079574  1
  Al  Al9  1  0.340068  0.003468  0.925121  1
  Al  Al10  1  0.000552  0.332049  0.920426  1
  Al  Al11  1  0.659932  0.996532  0.074879  1
  Al  Al12  1  0.659932  0.996532  0.425121  1
  Al  Al13  1  0.340068  0.003468  0.574879  1
  Al  Al14  1  0.334292  0.332867  0.049692  1
  Al  Al15  1  0.665708  0.667133  0.950308  1
  Al  Al16  1  0.665708  0.667133  0.549692  1
  Al  Al17  1  0.334292  0.332867  0.450308  1
  Al  Al18  1  0.338068  0.547410  0.750000  1
  Al  Al19  1  0.661932  0.452590  0.250000  1
  Al  Al20  1  0.552542  0.346627  0.750000  1
  Al  Al21  1  0.447458  0.653373  0.250000  1
  Rh  Rh22  1  0.676808  0.331735  0.499178  1
  Rh  Rh23  1  0.323192  0.668265  0.500822  1
  Rh  Rh24  1  0.323192  0.668265  0.999178  1
  Rh  Rh25  1  0.676808  0.331735  0.000822  1
  Rh  Rh26  1  0.000000  0.000000  0.500000  1
  Rh  Rh27  1  0.000000  0.000000  0.000000  1
