# generated using pymatgen
data_Rb3In3As4
_symmetry_space_group_name_H-M   'P 1'
_cell_length_a   7.22942900
_cell_length_b   11.53547100
_cell_length_c   16.07887900
_cell_angle_alpha   90.00000000
_cell_angle_beta   90.00000000
_cell_angle_gamma   90.00000000
_symmetry_Int_Tables_number   1
_chemical_formula_structural   Rb3In3As4
_chemical_formula_sum   'Rb12 In12 As16'
_cell_volume   1340.89600106
_cell_formula_units_Z   4
loop_
 _symmetry_equiv_pos_site_id
 _symmetry_equiv_pos_as_xyz
  1  'x, y, z'
loop_
 _atom_site_type_symbol
 _atom_site_label
 _atom_site_symmetry_multiplicity
 _atom_site_fract_x
 _atom_site_fract_y
 _atom_site_fract_z
 _atom_site_occupancy
  Rb  Rb0  1  0.063359  0.379624  0.593655  1
  Rb  Rb1  1  0.063359  0.120376  0.906345  1
  Rb  Rb2  1  0.563359  0.879624  0.906345  1
  Rb  Rb3  1  0.750000  0.080404  0.500000  1
  Rb  Rb4  1  0.936641  0.879624  0.093655  1
  Rb  Rb5  1  0.563359  0.620376  0.593655  1
  Rb  Rb6  1  0.936641  0.620376  0.406345  1
  Rb  Rb7  1  0.250000  0.580404  0.000000  1
  Rb  Rb8  1  0.750000  0.419596  0.000000  1
  Rb  Rb9  1  0.436641  0.379624  0.406345  1
  Rb  Rb10  1  0.436641  0.120376  0.093655  1
  Rb  Rb11  1  0.250000  0.919596  0.500000  1
  In  In12  1  0.400678  0.110141  0.716330  1
  In  In13  1  0.900678  0.610141  0.783670  1
  In  In14  1  0.099322  0.389859  0.216330  1
  In  In15  1  0.400678  0.389859  0.783670  1
  In  In16  1  0.306068  0.750000  0.750000  1
  In  In17  1  0.806068  0.250000  0.750000  1
  In  In18  1  0.599322  0.889859  0.283670  1
  In  In19  1  0.900678  0.889859  0.716330  1
  In  In20  1  0.193932  0.750000  0.250000  1
  In  In21  1  0.693932  0.250000  0.250000  1
  In  In22  1  0.599322  0.610141  0.216330  1
  In  In23  1  0.099322  0.110141  0.283670  1
  As  As24  1  0.040311  0.096725  0.672755  1
  As  As25  1  0.039944  0.807509  0.865217  1
  As  As26  1  0.460056  0.807509  0.134783  1
  As  As27  1  0.459689  0.403275  0.172755  1
  As  As28  1  0.540311  0.596725  0.827245  1
  As  As29  1  0.540311  0.903275  0.672755  1
  As  As30  1  0.039944  0.692491  0.634783  1
  As  As31  1  0.040311  0.403275  0.827245  1
  As  As32  1  0.960056  0.192491  0.134783  1
  As  As33  1  0.539944  0.192491  0.865217  1
  As  As34  1  0.959689  0.903275  0.327245  1
  As  As35  1  0.459689  0.096725  0.327245  1
  As  As36  1  0.960056  0.307509  0.365217  1
  As  As37  1  0.539944  0.307509  0.634783  1
  As  As38  1  0.460056  0.692491  0.365217  1
  As  As39  1  0.959689  0.596725  0.172755  1
