# generated using pymatgen
data_Rb2U3OF12
_symmetry_space_group_name_H-M   'P 1'
_cell_length_a   11.34625992
_cell_length_b   11.34625998
_cell_length_c   11.34625953
_cell_angle_alpha   43.35302870
_cell_angle_beta   43.35302851
_cell_angle_gamma   43.35303053
_symmetry_Int_Tables_number   1
_chemical_formula_structural   Rb2U3OF12
_chemical_formula_sum   'Rb4 U6 O2 F24'
_cell_volume   624.40066695
_cell_formula_units_Z   2
loop_
 _symmetry_equiv_pos_site_id
 _symmetry_equiv_pos_as_xyz
  1  'x, y, z'
loop_
 _atom_site_type_symbol
 _atom_site_label
 _atom_site_symmetry_multiplicity
 _atom_site_fract_x
 _atom_site_fract_y
 _atom_site_fract_z
 _atom_site_occupancy
  Rb  Rb0  1  0.000000  0.000000  0.000000  1
  Rb  Rb1  1  0.500000  0.500000  0.500000  1
  Rb  Rb2  1  0.135071  0.135071  0.135071  1
  Rb  Rb3  1  0.864929  0.864929  0.864929  1
  U  U4  1  0.579754  0.579754  0.034667  1
  U  U5  1  0.034667  0.579754  0.579754  1
  U  U6  1  0.579754  0.034667  0.579754  1
  U  U7  1  0.420246  0.965333  0.420246  1
  U  U8  1  0.965333  0.420246  0.420246  1
  U  U9  1  0.420246  0.420246  0.965333  1
  O  O10  1  0.280582  0.280582  0.280582  1
  O  O11  1  0.719418  0.719418  0.719418  1
  F  F12  1  0.367420  0.697078  0.697078  1
  F  F13  1  0.697078  0.367420  0.697078  1
  F  F14  1  0.697078  0.697078  0.367420  1
  F  F15  1  0.632580  0.302922  0.302922  1
  F  F16  1  0.302922  0.632580  0.302922  1
  F  F17  1  0.302922  0.302922  0.632580  1
  F  F18  1  0.083985  0.598252  0.083985  1
  F  F19  1  0.083985  0.083985  0.598252  1
  F  F20  1  0.000000  0.353900  0.646100  1
  F  F21  1  0.353900  0.646100  0.000000  1
  F  F22  1  0.646100  0.000000  0.353900  1
  F  F23  1  0.000000  0.646100  0.353900  1
  F  F24  1  0.646100  0.353900  0.000000  1
  F  F25  1  0.353900  0.000000  0.646100  1
  F  F26  1  0.080968  0.660414  0.660414  1
  F  F27  1  0.660414  0.660414  0.080968  1
  F  F28  1  0.660414  0.080968  0.660414  1
  F  F29  1  0.339586  0.919032  0.339586  1
  F  F30  1  0.919032  0.339586  0.339586  1
  F  F31  1  0.339586  0.339586  0.919032  1
  F  F32  1  0.916015  0.401748  0.916015  1
  F  F33  1  0.401748  0.916015  0.916015  1
  F  F34  1  0.916015  0.916015  0.401748  1
  F  F35  1  0.598252  0.083985  0.083985  1
