# generated using pymatgen
data_La2Co9Mo3P7
_symmetry_space_group_name_H-M   'P 1'
_cell_length_a   3.77349400
_cell_length_b   9.20390478
_cell_length_c   9.20390500
_cell_angle_alpha   119.99999816
_cell_angle_beta   90.00000000
_cell_angle_gamma   90.00000000
_symmetry_Int_Tables_number   1
_chemical_formula_structural   La2Co9Mo3P7
_chemical_formula_sum   'La2 Co9 Mo3 P7'
_cell_volume   276.83343898
_cell_formula_units_Z   1
loop_
 _symmetry_equiv_pos_site_id
 _symmetry_equiv_pos_as_xyz
  1  'x, y, z'
loop_
 _atom_site_type_symbol
 _atom_site_label
 _atom_site_symmetry_multiplicity
 _atom_site_fract_x
 _atom_site_fract_y
 _atom_site_fract_z
 _atom_site_occupancy
  La  La0  1  0.000000  0.666667  0.333333  1
  La  La1  1  0.500000  0.333333  0.666667  1
  Co  Co2  1  0.000000  0.570089  0.940203  1
  Co  Co3  1  0.000000  0.370114  0.429911  1
  Co  Co4  1  0.000000  0.059797  0.629886  1
  Co  Co5  1  0.000000  0.877567  0.154365  1
  Co  Co6  1  0.000000  0.276798  0.122433  1
  Co  Co7  1  0.000000  0.845635  0.723202  1
  Co  Co8  1  0.500000  0.948752  0.382531  1
  Co  Co9  1  0.500000  0.433779  0.051248  1
  Co  Co10  1  0.500000  0.617469  0.566221  1
  Mo  Mo11  1  0.500000  0.781775  0.901572  1
  Mo  Mo12  1  0.500000  0.119797  0.218225  1
  Mo  Mo13  1  0.500000  0.098428  0.880203  1
  P  P14  1  0.000000  0.000000  0.000000  1
  P  P15  1  0.500000  0.706790  0.110027  1
  P  P16  1  0.500000  0.403238  0.293210  1
  P  P17  1  0.500000  0.889973  0.596762  1
  P  P18  1  0.000000  0.593417  0.696292  1
  P  P19  1  0.000000  0.102876  0.406583  1
  P  P20  1  0.000000  0.303708  0.897124  1
