# generated using pymatgen
data_Tb4Al18IrPd3Rh2
_symmetry_space_group_name_H-M   'P 1'
_cell_length_a   7.61500377
_cell_length_b   7.61502041
_cell_length_c   9.47147672
_cell_angle_alpha   90.00247100
_cell_angle_beta   90.00306545
_cell_angle_gamma   119.60982252
_symmetry_Int_Tables_number   1
_chemical_formula_structural   Tb4Al18IrPd3Rh2
_chemical_formula_sum   'Tb4 Al18 Ir1 Pd3 Rh2'
_cell_volume   477.51128387
_cell_formula_units_Z   1
loop_
 _symmetry_equiv_pos_site_id
 _symmetry_equiv_pos_as_xyz
  1  'x, y, z'
loop_
 _atom_site_type_symbol
 _atom_site_label
 _atom_site_symmetry_multiplicity
 _atom_site_fract_x
 _atom_site_fract_y
 _atom_site_fract_z
 _atom_site_occupancy
  Tb  Tb0  1  0.995827  0.670184  0.250334  1
  Tb  Tb1  1  0.005193  0.330351  0.749783  1
  Tb  Tb2  1  0.669647  0.994805  0.250218  1
  Tb  Tb3  1  0.329816  0.004174  0.749666  1
  Al  Al4  1  0.126920  0.127746  0.249966  1
  Al  Al5  1  0.872255  0.873081  0.750034  1
  Al  Al6  1  0.000658  0.331242  0.076192  1
  Al  Al7  1  0.999047  0.668942  0.923140  1
  Al  Al8  1  0.996478  0.664797  0.574906  1
  Al  Al9  1  0.335204  0.003523  0.425095  1
  Al  Al10  1  0.996019  0.330774  0.425240  1
  Al  Al11  1  0.669227  0.003982  0.574760  1
  Al  Al12  1  0.668760  0.999343  0.923809  1
  Al  Al13  1  0.331058  0.000953  0.076860  1
  Al  Al14  1  0.333321  0.329870  0.552123  1
  Al  Al15  1  0.670131  0.666680  0.447877  1
  Al  Al16  1  0.669355  0.669249  0.055598  1
  Al  Al17  1  0.330751  0.330646  0.944402  1
  Al  Al18  1  0.340331  0.546440  0.250666  1
  Al  Al19  1  0.659005  0.451768  0.746967  1
  Al  Al20  1  0.548234  0.340996  0.253034  1
  Al  Al21  1  0.453560  0.659669  0.749334  1
  Ir  Ir22  1  0.000311  0.999689  0.500001  1
  Pd  Pd23  1  0.672185  0.327820  0.999999  1
  Pd  Pd24  1  0.327473  0.672527  0.999999  1
  Pd  Pd25  1  0.327604  0.672400  0.500000  1
  Rh  Rh26  1  0.671687  0.328300  0.500000  1
  Rh  Rh27  1  0.999943  0.000046  0.999998  1
