# generated using pymatgen
data_Tb2Th(AlCo)3
_symmetry_space_group_name_H-M   'P 1'
_cell_length_a   6.97134427
_cell_length_b   6.97134359
_cell_length_c   3.84068300
_cell_angle_alpha   90.00000000
_cell_angle_beta   90.00000000
_cell_angle_gamma   118.61896386
_symmetry_Int_Tables_number   1
_chemical_formula_structural   Tb2Th(AlCo)3
_chemical_formula_sum   'Tb2 Th1 Al3 Co3'
_cell_volume   163.85102914
_cell_formula_units_Z   1
loop_
 _symmetry_equiv_pos_site_id
 _symmetry_equiv_pos_as_xyz
  1  'x, y, z'
loop_
 _atom_site_type_symbol
 _atom_site_label
 _atom_site_symmetry_multiplicity
 _atom_site_fract_x
 _atom_site_fract_y
 _atom_site_fract_z
 _atom_site_occupancy
  Tb  Tb0  1  0.581569  0.997224  0.000000  1
  Tb  Tb1  1  0.997224  0.581569  0.000000  1
  Th  Th2  1  0.427653  0.427653  0.000000  1
  Al  Al3  1  0.235660  0.995033  0.500000  1
  Al  Al4  1  0.995033  0.235660  0.500000  1
  Al  Al5  1  0.779592  0.779592  0.500000  1
  Co  Co6  1  0.332741  0.644397  0.500000  1
  Co  Co7  1  0.644397  0.332741  0.500000  1
  Co  Co8  1  0.006131  0.006131  0.000000  1
