# generated using pymatgen
data_Zr2TiSi2Rh
_symmetry_space_group_name_H-M   'P 1'
_cell_length_a   3.80870300
_cell_length_b   6.72410800
_cell_length_c   7.93754500
_cell_angle_alpha   90.00000000
_cell_angle_beta   90.00000000
_cell_angle_gamma   90.00000000
_symmetry_Int_Tables_number   1
_chemical_formula_structural   Zr2TiSi2Rh
_chemical_formula_sum   'Zr4 Ti2 Si4 Rh2'
_cell_volume   203.28156181
_cell_formula_units_Z   2
loop_
 _symmetry_equiv_pos_site_id
 _symmetry_equiv_pos_as_xyz
  1  'x, y, z'
loop_
 _atom_site_type_symbol
 _atom_site_label
 _atom_site_symmetry_multiplicity
 _atom_site_fract_x
 _atom_site_fract_y
 _atom_site_fract_z
 _atom_site_occupancy
  Zr  Zr0  1  0.250000  0.026290  0.328232  1
  Zr  Zr1  1  0.250000  0.526290  0.171768  1
  Zr  Zr2  1  0.750000  0.970632  0.672486  1
  Zr  Zr3  1  0.750000  0.470632  0.827514  1
  Ti  Ti4  1  0.250000  0.140151  0.940661  1
  Ti  Ti5  1  0.250000  0.640151  0.559339  1
  Si  Si6  1  0.250000  0.263329  0.624544  1
  Si  Si7  1  0.250000  0.763329  0.875456  1
  Si  Si8  1  0.750000  0.732763  0.356938  1
  Si  Si9  1  0.750000  0.232763  0.143062  1
  Rh  Rh10  1  0.750000  0.866834  0.059274  1
  Rh  Rh11  1  0.750000  0.366834  0.440726  1
