# generated using pymatgen
data_Dy6VNi17P12
_symmetry_space_group_name_H-M   'P 1'
_cell_length_a   3.77616000
_cell_length_b   10.56883200
_cell_length_c   12.32744400
_cell_angle_alpha   89.99978468
_cell_angle_beta   90.00100267
_cell_angle_gamma   90.00003144
_symmetry_Int_Tables_number   1
_chemical_formula_structural   Dy6VNi17P12
_chemical_formula_sum   'Dy6 V1 Ni17 P12'
_cell_volume   491.98336698
_cell_formula_units_Z   1
loop_
 _symmetry_equiv_pos_site_id
 _symmetry_equiv_pos_as_xyz
  1  'x, y, z'
loop_
 _atom_site_type_symbol
 _atom_site_label
 _atom_site_symmetry_multiplicity
 _atom_site_fract_x
 _atom_site_fract_y
 _atom_site_fract_z
 _atom_site_occupancy
  Dy  Dy0  1  0.751927  0.999998  0.477150  1
  Dy  Dy1  1  0.251944  0.500002  0.519519  1
  Dy  Dy2  1  0.251798  0.682814  0.793900  1
  Dy  Dy3  1  0.251798  0.317187  0.793901  1
  Dy  Dy4  1  0.751758  0.815980  0.205449  1
  Dy  Dy5  1  0.751759  0.184020  0.205448  1
  V  V6  1  0.251720  0.000000  0.847295  1
  Ni  Ni7  1  0.751791  0.999999  0.015890  1
  Ni  Ni8  1  0.251851  0.500000  0.983727  1
  Ni  Ni9  1  0.252035  0.198736  0.571924  1
  Ni  Ni10  1  0.252029  0.801264  0.571927  1
  Ni  Ni11  1  0.752084  0.301504  0.428519  1
  Ni  Ni12  1  0.752084  0.698496  0.428518  1
  Ni  Ni13  1  0.251877  0.620926  0.288628  1
  Ni  Ni14  1  0.251880  0.379073  0.288627  1
  Ni  Ni15  1  0.751833  0.880548  0.710286  1
  Ni  Ni16  1  0.751834  0.119451  0.710287  1
  Ni  Ni17  1  0.251703  0.169786  0.007588  1
  Ni  Ni18  1  0.251701  0.830213  0.007588  1
  Ni  Ni19  1  0.751777  0.335636  0.994667  1
  Ni  Ni20  1  0.751775  0.664366  0.994666  1
  Ni  Ni21  1  0.751209  0.500002  0.159455  1
  Ni  Ni22  1  0.251883  0.000000  0.298854  1
  Ni  Ni23  1  0.751884  0.500000  0.699815  1
  P  P24  1  0.251948  0.186895  0.385185  1
  P  P25  1  0.251947  0.813106  0.385185  1
  P  P26  1  0.751934  0.313886  0.613952  1
  P  P27  1  0.751927  0.686111  0.613951  1
  P  P28  1  0.251762  0.000000  0.120582  1
  P  P29  1  0.751783  0.500001  0.876588  1
  P  P30  1  0.251639  0.650868  0.107501  1
  P  P31  1  0.251641  0.349133  0.107500  1
  P  P32  1  0.751705  0.845781  0.893500  1
  P  P33  1  0.751705  0.154218  0.893500  1
  P  P34  1  0.251851  0.000001  0.654925  1
  P  P35  1  0.751833  0.499999  0.344004  1
