# generated using pymatgen
data_Zr2CrFe11P7
_symmetry_space_group_name_H-M   'P 1'
_cell_length_a   8.88507900
_cell_length_b   8.90420598
_cell_length_c   3.59526400
_cell_angle_alpha   90.00000000
_cell_angle_beta   90.00000000
_cell_angle_gamma   119.99069962
_symmetry_Int_Tables_number   1
_chemical_formula_structural   Zr2CrFe11P7
_chemical_formula_sum   'Zr2 Cr1 Fe11 P7'
_cell_volume   246.35342385
_cell_formula_units_Z   1
loop_
 _symmetry_equiv_pos_site_id
 _symmetry_equiv_pos_as_xyz
  1  'x, y, z'
loop_
 _atom_site_type_symbol
 _atom_site_label
 _atom_site_symmetry_multiplicity
 _atom_site_fract_x
 _atom_site_fract_y
 _atom_site_fract_z
 _atom_site_occupancy
  Zr  Zr0  1  0.999904  0.000389  0.000000  1
  Zr  Zr1  1  0.331759  0.666108  0.500000  1
  Cr  Cr2  1  0.883734  0.449126  0.500000  1
  Fe  Fe3  1  0.298424  0.393822  0.000000  1
  Fe  Fe4  1  0.097952  0.703876  0.000000  1
  Fe  Fe5  1  0.547420  0.431622  0.500000  1
  Fe  Fe6  1  0.390915  0.177682  0.000000  1
  Fe  Fe7  1  0.785267  0.609431  0.000000  1
  Fe  Fe8  1  0.820788  0.211264  0.000000  1
  Fe  Fe9  1  0.231183  0.950298  0.500000  1
  Fe  Fe10  1  0.052885  0.281335  0.500000  1
  Fe  Fe11  1  0.718068  0.770696  0.500000  1
  Fe  Fe12  1  0.569130  0.114428  0.500000  1
  Fe  Fe13  1  0.605016  0.903279  0.000000  1
  P  P14  1  0.664478  0.332232  0.000000  1
  P  P15  1  0.080623  0.447446  0.000000  1
  P  P16  1  0.263388  0.218496  0.500000  1
  P  P17  1  0.782156  0.043776  0.500000  1
  P  P18  1  0.957273  0.742182  0.500000  1
  P  P19  1  0.551358  0.631945  0.000000  1
  P  P20  1  0.368278  0.920568  0.000000  1
