# generated using pymatgen
data_TbErLu2CdPt
_symmetry_space_group_name_H-M   'P 1'
_cell_length_a   9.57850464
_cell_length_b   9.56476401
_cell_length_c   9.56476413
_cell_angle_alpha   60.09505908
_cell_angle_beta   59.95246226
_cell_angle_gamma   59.95246488
_symmetry_Int_Tables_number   1
_chemical_formula_structural   TbErLu2CdPt
_chemical_formula_sum   'Tb4 Er4 Lu8 Cd4 Pt4'
_cell_volume   619.62566728
_cell_formula_units_Z   4
loop_
 _symmetry_equiv_pos_site_id
 _symmetry_equiv_pos_as_xyz
  1  'x, y, z'
loop_
 _atom_site_type_symbol
 _atom_site_label
 _atom_site_symmetry_multiplicity
 _atom_site_fract_x
 _atom_site_fract_y
 _atom_site_fract_z
 _atom_site_occupancy
  Tb  Tb0  1  0.565302  0.934698  0.565302  1
  Tb  Tb1  1  0.934698  0.565302  0.934698  1
  Tb  Tb2  1  0.565302  0.565302  0.934698  1
  Tb  Tb3  1  0.934698  0.934698  0.565302  1
  Er  Er4  1  0.353014  0.352364  0.352364  1
  Er  Er5  1  0.352364  0.353014  0.942258  1
  Er  Er6  1  0.352364  0.942258  0.353014  1
  Er  Er7  1  0.942258  0.352364  0.352364  1
  Lu  Lu8  1  0.811651  0.188349  0.188349  1
  Lu  Lu9  1  0.188349  0.811651  0.811651  1
  Lu  Lu10  1  0.188163  0.811837  0.188163  1
  Lu  Lu11  1  0.811837  0.188163  0.811837  1
  Lu  Lu12  1  0.188163  0.188163  0.811837  1
  Lu  Lu13  1  0.811837  0.811837  0.188163  1
  Lu  Lu14  1  0.938800  0.561200  0.561200  1
  Lu  Lu15  1  0.561200  0.938800  0.938800  1
  Cd  Cd16  1  0.583051  0.581016  0.581016  1
  Cd  Cd17  1  0.581016  0.583051  0.254915  1
  Cd  Cd18  1  0.581016  0.254915  0.583051  1
  Cd  Cd19  1  0.254915  0.581016  0.581016  1
  Pt  Pt20  1  0.143833  0.141870  0.141870  1
  Pt  Pt21  1  0.141870  0.143833  0.572427  1
  Pt  Pt22  1  0.141870  0.572427  0.143833  1
  Pt  Pt23  1  0.572427  0.141870  0.141870  1
