# generated using pymatgen
data_Dy3Tm7(SiPb3)2
_symmetry_space_group_name_H-M   'P 1'
_cell_length_a   9.24690600
_cell_length_b   9.24690556
_cell_length_c   6.46306200
_cell_angle_alpha   90.00000000
_cell_angle_beta   90.00000000
_cell_angle_gamma   120.00000156
_symmetry_Int_Tables_number   1
_chemical_formula_structural   Dy3Tm7(SiPb3)2
_chemical_formula_sum   'Dy3 Tm7 Si2 Pb6'
_cell_volume   478.58800789
_cell_formula_units_Z   1
loop_
 _symmetry_equiv_pos_site_id
 _symmetry_equiv_pos_as_xyz
  1  'x, y, z'
loop_
 _atom_site_type_symbol
 _atom_site_label
 _atom_site_symmetry_multiplicity
 _atom_site_fract_x
 _atom_site_fract_y
 _atom_site_fract_z
 _atom_site_occupancy
  Dy  Dy0  1  0.751506  0.751506  0.250000  1
  Dy  Dy1  1  0.248494  0.000000  0.250000  1
  Dy  Dy2  1  0.000000  0.248494  0.250000  1
  Tm  Tm3  1  0.666667  0.333333  0.500168  1
  Tm  Tm4  1  0.333333  0.666667  0.500168  1
  Tm  Tm5  1  0.333333  0.666667  0.999832  1
  Tm  Tm6  1  0.666667  0.333333  0.999832  1
  Tm  Tm7  1  0.250582  0.250582  0.750000  1
  Tm  Tm8  1  0.749418  0.000000  0.750000  1
  Tm  Tm9  1  0.000000  0.749418  0.750000  1
  Si  Si10  1  0.000000  0.000000  0.507813  1
  Si  Si11  1  0.000000  0.000000  0.992187  1
  Pb  Pb12  1  0.393110  0.393110  0.250000  1
  Pb  Pb13  1  0.606890  0.000000  0.250000  1
  Pb  Pb14  1  0.000000  0.606890  0.250000  1
  Pb  Pb15  1  0.607825  0.607825  0.750000  1
  Pb  Pb16  1  0.392175  0.000000  0.750000  1
  Pb  Pb17  1  0.000000  0.392175  0.750000  1
