# generated using pymatgen
data_Dy4Al4OsRu3
_symmetry_space_group_name_H-M   'P 1'
_cell_length_a   4.00300800
_cell_length_b   7.06839615
_cell_length_c   8.11316641
_cell_angle_alpha   90.06419316
_cell_angle_beta   90.00000000
_cell_angle_gamma   90.00000000
_symmetry_Int_Tables_number   1
_chemical_formula_structural   Dy4Al4OsRu3
_chemical_formula_sum   'Dy4 Al4 Os1 Ru3'
_cell_volume   229.56065264
_cell_formula_units_Z   1
loop_
 _symmetry_equiv_pos_site_id
 _symmetry_equiv_pos_as_xyz
  1  'x, y, z'
loop_
 _atom_site_type_symbol
 _atom_site_label
 _atom_site_symmetry_multiplicity
 _atom_site_fract_x
 _atom_site_fract_y
 _atom_site_fract_z
 _atom_site_occupancy
  Dy  Dy0  1  0.250000  0.033721  0.322460  1
  Dy  Dy1  1  0.250000  0.531553  0.179067  1
  Dy  Dy2  1  0.750000  0.967351  0.678404  1
  Dy  Dy3  1  0.750000  0.467715  0.822138  1
  Al  Al4  1  0.250000  0.137311  0.941061  1
  Al  Al5  1  0.250000  0.636585  0.557448  1
  Al  Al6  1  0.750000  0.863188  0.057566  1
  Al  Al7  1  0.750000  0.363400  0.442420  1
  Os  Os8  1  0.250000  0.271090  0.627346  1
  Ru  Ru9  1  0.250000  0.770194  0.873687  1
  Ru  Ru10  1  0.750000  0.729719  0.371723  1
  Ru  Ru11  1  0.750000  0.228173  0.126677  1
