# generated using pymatgen
data_La8Yb11ScPb16
_symmetry_space_group_name_H-M   'P 1'
_cell_length_a   8.06479140
_cell_length_b   8.61699665
_cell_length_c   16.21869800
_cell_angle_alpha   90.04814656
_cell_angle_beta   90.11197306
_cell_angle_gamma   89.97838927
_symmetry_Int_Tables_number   1
_chemical_formula_structural   La8Yb11ScPb16
_chemical_formula_sum   'La8 Yb11 Sc1 Pb16'
_cell_volume   1127.10411811
_cell_formula_units_Z   1
loop_
 _symmetry_equiv_pos_site_id
 _symmetry_equiv_pos_as_xyz
  1  'x, y, z'
loop_
 _atom_site_type_symbol
 _atom_site_label
 _atom_site_symmetry_multiplicity
 _atom_site_fract_x
 _atom_site_fract_y
 _atom_site_fract_z
 _atom_site_occupancy
  La  La0  1  0.501281  0.682638  0.595241  1
  La  La1  1  0.002242  0.814591  0.904649  1
  La  La2  1  0.498519  0.314429  0.095317  1
  La  La3  1  0.999182  0.186225  0.404937  1
  La  La4  1  0.498620  0.314844  0.405699  1
  La  La5  1  0.998704  0.185883  0.095137  1
  La  La6  1  0.502291  0.684001  0.903926  1
  La  La7  1  0.001388  0.814279  0.593909  1
  Yb  Yb8  1  0.168901  0.334328  0.875756  1
  Yb  Yb9  1  0.331489  0.834826  0.123221  1
  Yb  Yb10  1  0.831129  0.665415  0.379131  1
  Yb  Yb11  1  0.331486  0.835638  0.378302  1
  Yb  Yb12  1  0.831647  0.665028  0.123071  1
  Yb  Yb13  1  0.669097  0.163915  0.875988  1
  Yb  Yb14  1  0.168979  0.335245  0.621662  1
  Yb  Yb15  1  0.837904  0.494085  0.749361  1
  Yb  Yb16  1  0.335219  0.005869  0.749979  1
  Yb  Yb17  1  0.161800  0.506994  0.250161  1
  Yb  Yb18  1  0.661888  0.994204  0.251351  1
  Sc  Sc19  1  0.666136  0.167804  0.623604  1
  Pb  Pb20  1  0.680577  0.965704  0.465032  1
  Pb  Pb21  1  0.176778  0.538475  0.040486  1
  Pb  Pb22  1  0.324316  0.038194  0.958707  1
  Pb  Pb23  1  0.815533  0.453590  0.542839  1
  Pb  Pb24  1  0.333323  0.041492  0.544102  1
  Pb  Pb25  1  0.824084  0.460705  0.958316  1
  Pb  Pb26  1  0.675994  0.961070  0.040825  1
  Pb  Pb27  1  0.176562  0.538785  0.459414  1
  Pb  Pb28  1  0.473869  0.382311  0.748090  1
  Pb  Pb29  1  0.963136  0.115669  0.742682  1
  Pb  Pb30  1  0.529553  0.611972  0.250989  1
  Pb  Pb31  1  0.029348  0.889424  0.250341  1
  Pb  Pb32  1  0.705066  0.857892  0.747299  1
  Pb  Pb33  1  0.207100  0.643831  0.749020  1
  Pb  Pb34  1  0.293359  0.145707  0.250718  1
  Pb  Pb35  1  0.793503  0.354942  0.250737  1
