# generated using pymatgen
data_DyTm4(In2Ir)2
_symmetry_space_group_name_H-M   'P 1'
_cell_length_a   3.61218200
_cell_length_b   7.94662700
_cell_length_c   18.16230000
_cell_angle_alpha   90.00000000
_cell_angle_beta   90.00000000
_cell_angle_gamma   90.00000000
_symmetry_Int_Tables_number   1
_chemical_formula_structural   DyTm4(In2Ir)2
_chemical_formula_sum   'Dy2 Tm8 In8 Ir4'
_cell_volume   521.34270099
_cell_formula_units_Z   2
loop_
 _symmetry_equiv_pos_site_id
 _symmetry_equiv_pos_as_xyz
  1  'x, y, z'
loop_
 _atom_site_type_symbol
 _atom_site_label
 _atom_site_symmetry_multiplicity
 _atom_site_fract_x
 _atom_site_fract_y
 _atom_site_fract_z
 _atom_site_occupancy
  Dy  Dy0  1  0.000000  0.000000  0.000000  1
  Dy  Dy1  1  0.000000  0.500000  0.500000  1
  Tm  Tm2  1  0.000000  0.115775  0.410944  1
  Tm  Tm3  1  0.000000  0.884225  0.589056  1
  Tm  Tm4  1  0.000000  0.384225  0.910944  1
  Tm  Tm5  1  0.000000  0.615775  0.089056  1
  Tm  Tm6  1  0.000000  0.244800  0.221628  1
  Tm  Tm7  1  0.000000  0.755200  0.778372  1
  Tm  Tm8  1  0.000000  0.255200  0.721628  1
  Tm  Tm9  1  0.000000  0.744800  0.278372  1
  In  In10  1  0.500000  0.425565  0.350147  1
  In  In11  1  0.500000  0.574435  0.649853  1
  In  In12  1  0.500000  0.074435  0.850147  1
  In  In13  1  0.500000  0.925565  0.149853  1
  In  In14  1  0.500000  0.294735  0.067502  1
  In  In15  1  0.500000  0.705265  0.932498  1
  In  In16  1  0.500000  0.205265  0.567502  1
  In  In17  1  0.500000  0.794735  0.432498  1
  Ir  Ir18  1  0.500000  0.022627  0.304272  1
  Ir  Ir19  1  0.500000  0.977373  0.695728  1
  Ir  Ir20  1  0.500000  0.477373  0.804272  1
  Ir  Ir21  1  0.500000  0.522627  0.195728  1
