# generated using pymatgen
data_HfGaPPt8
_symmetry_space_group_name_H-M   'P 1'
_cell_length_a   3.99641700
_cell_length_b   3.99641700
_cell_length_c   10.90642600
_cell_angle_alpha   90.00000000
_cell_angle_beta   90.00000000
_cell_angle_gamma   90.00000000
_symmetry_Int_Tables_number   1
_chemical_formula_structural   HfGaPPt8
_chemical_formula_sum   'Hf1 Ga1 P1 Pt8'
_cell_volume   174.19033422
_cell_formula_units_Z   1
loop_
 _symmetry_equiv_pos_site_id
 _symmetry_equiv_pos_as_xyz
  1  'x, y, z'
loop_
 _atom_site_type_symbol
 _atom_site_label
 _atom_site_symmetry_multiplicity
 _atom_site_fract_x
 _atom_site_fract_y
 _atom_site_fract_z
 _atom_site_occupancy
  Hf  Hf0  1  0.500000  0.500000  0.819633  1
  Ga  Ga1  1  0.500000  0.500000  0.186614  1
  P  P2  1  0.000000  0.000000  0.495830  1
  Pt  Pt3  1  0.500000  0.000000  0.000920  1
  Pt  Pt4  1  0.000000  0.500000  0.000920  1
  Pt  Pt5  1  0.500000  0.000000  0.631969  1
  Pt  Pt6  1  0.000000  0.500000  0.631969  1
  Pt  Pt7  1  0.500000  0.000000  0.365739  1
  Pt  Pt8  1  0.000000  0.500000  0.365739  1
  Pt  Pt9  1  0.000000  0.000000  0.818232  1
  Pt  Pt10  1  0.000000  0.000000  0.182436  1
