# generated using pymatgen
data_Nd17(DyRh4)3
_symmetry_space_group_name_H-M   'P 1'
_cell_length_a   11.23715900
_cell_length_b   11.23715900
_cell_length_c   6.56655500
_cell_angle_alpha   90.00000000
_cell_angle_beta   90.00000000
_cell_angle_gamma   90.00000000
_symmetry_Int_Tables_number   1
_chemical_formula_structural   Nd17(DyRh4)3
_chemical_formula_sum   'Nd17 Dy3 Rh12'
_cell_volume   829.18347447
_cell_formula_units_Z   1
loop_
 _symmetry_equiv_pos_site_id
 _symmetry_equiv_pos_as_xyz
  1  'x, y, z'
loop_
 _atom_site_type_symbol
 _atom_site_label
 _atom_site_symmetry_multiplicity
 _atom_site_fract_x
 _atom_site_fract_y
 _atom_site_fract_z
 _atom_site_occupancy
  Nd  Nd0  1  0.089278  0.289743  0.115163  1
  Nd  Nd1  1  0.788887  0.411122  0.116025  1
  Nd  Nd2  1  0.211113  0.588878  0.116025  1
  Nd  Nd3  1  0.910722  0.710257  0.115163  1
  Nd  Nd4  1  0.411529  0.788755  0.384275  1
  Nd  Nd5  1  0.588471  0.211245  0.384275  1
  Nd  Nd6  1  0.290753  0.089142  0.383711  1
  Nd  Nd7  1  0.709247  0.910858  0.383711  1
  Nd  Nd8  1  0.411122  0.211113  0.883975  1
  Nd  Nd9  1  0.710257  0.089278  0.884837  1
  Nd  Nd10  1  0.289743  0.910722  0.884837  1
  Nd  Nd11  1  0.588878  0.788887  0.883975  1
  Nd  Nd12  1  0.089142  0.709247  0.616289  1
  Nd  Nd13  1  0.910858  0.290753  0.616289  1
  Nd  Nd14  1  0.211245  0.411529  0.615725  1
  Nd  Nd15  1  0.788755  0.588471  0.615725  1
  Nd  Nd16  1  0.000000  0.000000  0.500000  1
  Dy  Dy17  1  0.000000  0.000000  0.000000  1
  Dy  Dy18  1  0.500000  0.500000  0.000000  1
  Dy  Dy19  1  0.500000  0.500000  0.500000  1
  Rh  Rh20  1  0.150961  0.848968  0.244732  1
  Rh  Rh21  1  0.352900  0.352489  0.250318  1
  Rh  Rh22  1  0.647100  0.647511  0.250318  1
  Rh  Rh23  1  0.849039  0.151032  0.244732  1
  Rh  Rh24  1  0.352489  0.647100  0.749682  1
  Rh  Rh25  1  0.151032  0.150961  0.755268  1
  Rh  Rh26  1  0.848968  0.849039  0.755268  1
  Rh  Rh27  1  0.647511  0.352900  0.749682  1
  Rh  Rh28  1  0.000000  0.500000  0.376225  1
  Rh  Rh29  1  0.500000  0.000000  0.124620  1
  Rh  Rh30  1  0.500000  0.000000  0.623775  1
  Rh  Rh31  1  0.000000  0.500000  0.875380  1
