# generated using pymatgen
data_Dy8TiPd17Pt7
_symmetry_space_group_name_H-M   'P 1'
_cell_length_a   8.26082300
_cell_length_b   8.25607900
_cell_length_c   8.27081300
_cell_angle_alpha   90.00000000
_cell_angle_beta   90.00000000
_cell_angle_gamma   90.00000000
_symmetry_Int_Tables_number   1
_chemical_formula_structural   Dy8TiPd17Pt7
_chemical_formula_sum   'Dy8 Ti1 Pd17 Pt7'
_cell_volume   564.08604855
_cell_formula_units_Z   1
loop_
 _symmetry_equiv_pos_site_id
 _symmetry_equiv_pos_as_xyz
  1  'x, y, z'
loop_
 _atom_site_type_symbol
 _atom_site_label
 _atom_site_symmetry_multiplicity
 _atom_site_fract_x
 _atom_site_fract_y
 _atom_site_fract_z
 _atom_site_occupancy
  Dy  Dy0  1  0.250561  0.250918  0.250343  1
  Dy  Dy1  1  0.749402  0.749356  0.749086  1
  Dy  Dy2  1  0.749402  0.749356  0.250914  1
  Dy  Dy3  1  0.749402  0.250644  0.749086  1
  Dy  Dy4  1  0.250561  0.250918  0.749657  1
  Dy  Dy5  1  0.250561  0.749082  0.250343  1
  Dy  Dy6  1  0.250561  0.749082  0.749657  1
  Dy  Dy7  1  0.749402  0.250644  0.250914  1
  Ti  Ti8  1  0.000707  0.000000  0.000000  1
  Pd  Pd9  1  0.735356  0.500000  0.000000  1
  Pd  Pd10  1  0.999934  0.264385  0.500000  1
  Pd  Pd11  1  0.500364  0.264175  0.000000  1
  Pd  Pd12  1  0.999934  0.735615  0.500000  1
  Pd  Pd13  1  0.500364  0.735825  0.000000  1
  Pd  Pd14  1  0.500067  0.000000  0.264521  1
  Pd  Pd15  1  0.264639  0.000000  0.500000  1
  Pd  Pd16  1  0.500067  0.000000  0.735479  1
  Pd  Pd17  1  0.735574  0.000000  0.500000  1
  Pd  Pd18  1  0.999730  0.500000  0.264952  1
  Pd  Pd19  1  0.999730  0.500000  0.735048  1
  Pd  Pd20  1  0.254965  0.500000  0.500000  1
  Pd  Pd21  1  0.744779  0.500000  0.500000  1
  Pd  Pd22  1  0.500103  0.254923  0.500000  1
  Pd  Pd23  1  0.500103  0.745077  0.500000  1
  Pd  Pd24  1  0.499989  0.500000  0.255002  1
  Pd  Pd25  1  0.499989  0.500000  0.744998  1
  Pt  Pt26  1  0.264310  0.500000  0.000000  1
  Pt  Pt27  1  0.300129  0.000000  0.000000  1
  Pt  Pt28  1  0.700745  0.000000  0.000000  1
  Pt  Pt29  1  0.999237  0.299676  0.000000  1
  Pt  Pt30  1  0.999237  0.700324  0.000000  1
  Pt  Pt31  1  0.000048  0.000000  0.299695  1
  Pt  Pt32  1  0.000048  0.000000  0.700305  1
