# generated using pymatgen
data_Sm2BeSiBr2
_symmetry_space_group_name_H-M   'P 1'
_cell_length_a   3.95218500
_cell_length_b   3.95218509
_cell_length_c   11.64546000
_cell_angle_alpha   90.00000000
_cell_angle_beta   90.00000000
_cell_angle_gamma   119.99999090
_symmetry_Int_Tables_number   1
_chemical_formula_structural   Sm2BeSiBr2
_chemical_formula_sum   'Sm2 Be1 Si1 Br2'
_cell_volume   157.52948753
_cell_formula_units_Z   1
loop_
 _symmetry_equiv_pos_site_id
 _symmetry_equiv_pos_as_xyz
  1  'x, y, z'
loop_
 _atom_site_type_symbol
 _atom_site_label
 _atom_site_symmetry_multiplicity
 _atom_site_fract_x
 _atom_site_fract_y
 _atom_site_fract_z
 _atom_site_occupancy
  Sm  Sm0  1  0.000000  0.000000  0.172805  1
  Sm  Sm1  1  0.000000  0.000000  0.825482  1
  Be  Be2  1  0.333333  0.666667  0.009775  1
  Si  Si3  1  0.666667  0.333333  0.992515  1
  Br  Br4  1  0.333333  0.666667  0.662553  1
  Br  Br5  1  0.666667  0.333333  0.336871  1
