# generated using pymatgen
data_Tb5MnRhO12
_symmetry_space_group_name_H-M   'P 1'
_cell_length_a   6.85638770
_cell_length_b   6.85638849
_cell_length_c   7.30731315
_cell_angle_alpha   74.45654246
_cell_angle_beta   74.45654046
_cell_angle_gamma   50.74015851
_symmetry_Int_Tables_number   1
_chemical_formula_structural   Tb5MnRhO12
_chemical_formula_sum   'Tb5 Mn1 Rh1 O12'
_cell_volume   254.01366886
_cell_formula_units_Z   1
loop_
 _symmetry_equiv_pos_site_id
 _symmetry_equiv_pos_as_xyz
  1  'x, y, z'
loop_
 _atom_site_type_symbol
 _atom_site_label
 _atom_site_symmetry_multiplicity
 _atom_site_fract_x
 _atom_site_fract_y
 _atom_site_fract_z
 _atom_site_occupancy
  Tb  Tb0  1  0.691687  0.691680  0.668243  1
  Tb  Tb1  1  0.689626  0.703312  0.141250  1
  Tb  Tb2  1  0.000202  0.999798  0.000000  1
  Tb  Tb3  1  0.296688  0.310374  0.858750  1
  Tb  Tb4  1  0.308320  0.308313  0.331757  1
  Mn  Mn5  1  0.249919  0.750081  0.500000  1
  Rh  Rh6  1  0.759920  0.240080  0.500000  1
  O  O7  1  0.402508  0.906085  0.923353  1
  O  O8  1  0.576500  0.097486  0.582185  1
  O  O9  1  0.902514  0.423500  0.417815  1
  O  O10  1  0.093915  0.597492  0.076647  1
  O  O11  1  0.011201  0.989104  0.319692  1
  O  O12  1  0.493274  0.506519  0.682843  1
  O  O13  1  0.900781  0.402614  0.925875  1
  O  O14  1  0.098639  0.577457  0.581008  1
  O  O15  1  0.422543  0.901361  0.418992  1
  O  O16  1  0.597386  0.099219  0.074125  1
  O  O17  1  0.493481  0.506726  0.317157  1
  O  O18  1  0.010896  0.988799  0.680308  1
