# generated using pymatgen
data_Ce2Ho2ReTcC4
_symmetry_space_group_name_H-M   'P 1'
_cell_length_a   5.19097200
_cell_length_b   6.53558000
_cell_length_c   9.86158300
_cell_angle_alpha   90.00000000
_cell_angle_beta   90.00000000
_cell_angle_gamma   90.00000000
_symmetry_Int_Tables_number   1
_chemical_formula_structural   Ce2Ho2ReTcC4
_chemical_formula_sum   'Ce4 Ho4 Re2 Tc2 C8'
_cell_volume   334.56419093
_cell_formula_units_Z   2
loop_
 _symmetry_equiv_pos_site_id
 _symmetry_equiv_pos_as_xyz
  1  'x, y, z'
loop_
 _atom_site_type_symbol
 _atom_site_label
 _atom_site_symmetry_multiplicity
 _atom_site_fract_x
 _atom_site_fract_y
 _atom_site_fract_z
 _atom_site_occupancy
  Ce  Ce0  1  0.750000  0.468147  0.782929  1
  Ce  Ce1  1  0.250000  0.031853  0.282929  1
  Ce  Ce2  1  0.750000  0.970563  0.716670  1
  Ce  Ce3  1  0.250000  0.529437  0.216670  1
  Ho  Ho4  1  0.750000  0.822419  0.052665  1
  Ho  Ho5  1  0.250000  0.677581  0.552665  1
  Ho  Ho6  1  0.750000  0.321567  0.446254  1
  Ho  Ho7  1  0.250000  0.178433  0.946254  1
  Re  Re8  1  0.750000  0.779761  0.365763  1
  Re  Re9  1  0.250000  0.720239  0.865763  1
  Tc  Tc10  1  0.750000  0.278911  0.134166  1
  Tc  Tc11  1  0.250000  0.221089  0.634166  1
  C  C12  1  0.750000  0.173934  0.947298  1
  C  C13  1  0.250000  0.824967  0.052997  1
  C  C14  1  0.750000  0.675033  0.552997  1
  C  C15  1  0.250000  0.326066  0.447298  1
  C  C16  1  0.750000  0.046051  0.259968  1
  C  C17  1  0.250000  0.453949  0.759968  1
  C  C18  1  0.750000  0.547421  0.241288  1
  C  C19  1  0.250000  0.952579  0.741288  1
