# generated using pymatgen
data_La2Ga7Cu
_symmetry_space_group_name_H-M   'P 1'
_cell_length_a   6.16557447
_cell_length_b   6.16729649
_cell_length_c   11.43727910
_cell_angle_alpha   74.35871836
_cell_angle_beta   74.36319555
_cell_angle_gamma   89.99999791
_symmetry_Int_Tables_number   1
_chemical_formula_structural   La2Ga7Cu
_chemical_formula_sum   'La4 Ga14 Cu2'
_cell_volume   402.05654891
_cell_formula_units_Z   2
loop_
 _symmetry_equiv_pos_site_id
 _symmetry_equiv_pos_as_xyz
  1  'x, y, z'
loop_
 _atom_site_type_symbol
 _atom_site_label
 _atom_site_symmetry_multiplicity
 _atom_site_fract_x
 _atom_site_fract_y
 _atom_site_fract_z
 _atom_site_occupancy
  La  La0  1  0.997796  0.997796  0.004409  1
  La  La1  1  0.501861  0.501861  0.996277  1
  La  La2  1  0.751865  0.251865  0.496271  1
  La  La3  1  0.247829  0.747829  0.504343  1
  Ga  Ga4  1  0.198614  0.198614  0.602773  1
  Ga  Ga5  1  0.810638  0.810638  0.378725  1
  Ga  Ga6  1  0.610975  0.128278  0.252283  1
  Ga  Ga7  1  0.136741  0.619438  0.252283  1
  Ga  Ga8  1  0.610975  0.619438  0.252283  1
  Ga  Ga9  1  0.136741  0.128278  0.252283  1
  Ga  Ga10  1  0.869536  0.360342  0.752303  1
  Ga  Ga11  1  0.378161  0.887353  0.752303  1
  Ga  Ga12  1  0.869536  0.887353  0.752303  1
  Ga  Ga13  1  0.378161  0.360342  0.752303  1
  Ga  Ga14  1  0.691530  0.691530  0.616940  1
  Ga  Ga15  1  0.060888  0.560888  0.878224  1
  Ga  Ga16  1  0.448384  0.948384  0.103231  1
  Ga  Ga17  1  0.941796  0.441796  0.116408  1
  Cu  Cu18  1  0.311482  0.311482  0.377036  1
  Cu  Cu19  1  0.561322  0.061322  0.877356  1
