# generated using pymatgen
data_Y20Si7Hg4Pt
_symmetry_space_group_name_H-M   'P 1'
_cell_length_a   7.60548711
_cell_length_b   7.60548713
_cell_length_c   14.25028200
_cell_angle_alpha   90.00958259
_cell_angle_beta   90.00958259
_cell_angle_gamma   89.63417016
_symmetry_Int_Tables_number   1
_chemical_formula_structural   Y20Si7Hg4Pt
_chemical_formula_sum   'Y20 Si7 Hg4 Pt1'
_cell_volume   824.26842612
_cell_formula_units_Z   1
loop_
 _symmetry_equiv_pos_site_id
 _symmetry_equiv_pos_as_xyz
  1  'x, y, z'
loop_
 _atom_site_type_symbol
 _atom_site_label
 _atom_site_symmetry_multiplicity
 _atom_site_fract_x
 _atom_site_fract_y
 _atom_site_fract_z
 _atom_site_occupancy
  Y  Y0  1  0.835538  0.830875  0.890783  1
  Y  Y1  1  0.169125  0.164462  0.609217  1
  Y  Y2  1  0.832847  0.171153  0.389087  1
  Y  Y3  1  0.167917  0.828102  0.389143  1
  Y  Y4  1  0.328887  0.330703  0.390490  1
  Y  Y5  1  0.828847  0.167153  0.110913  1
  Y  Y6  1  0.327063  0.668869  0.891942  1
  Y  Y7  1  0.171898  0.832083  0.110857  1
  Y  Y8  1  0.504665  0.008574  0.753559  1
  Y  Y9  1  0.002115  0.500347  0.246154  1
  Y  Y10  1  0.331131  0.672937  0.608058  1
  Y  Y11  1  0.669297  0.671113  0.109510  1
  Y  Y12  1  0.667991  0.327411  0.608756  1
  Y  Y13  1  0.991426  0.495335  0.746441  1
  Y  Y14  1  0.831249  0.835088  0.609012  1
  Y  Y15  1  0.672589  0.332009  0.891244  1
  Y  Y16  1  0.164912  0.168751  0.890988  1
  Y  Y17  1  0.499653  0.997885  0.253846  1
  Y  Y18  1  0.673604  0.666914  0.390459  1
  Y  Y19  1  0.333086  0.326396  0.109541  1
  Si  Si20  1  0.624429  0.375571  0.250000  1
  Si  Si21  1  0.376421  0.623579  0.250000  1
  Si  Si22  1  0.126302  0.127116  0.249961  1
  Si  Si23  1  0.372471  0.379216  0.750063  1
  Si  Si24  1  0.128474  0.871526  0.750000  1
  Si  Si25  1  0.872884  0.873698  0.250039  1
  Si  Si26  1  0.620784  0.627529  0.749937  1
  Hg  Hg27  1  0.999539  0.502004  0.002358  1
  Hg  Hg28  1  0.497794  0.000002  0.000208  1
  Hg  Hg29  1  0.497996  0.000461  0.497642  1
  Hg  Hg30  1  0.999998  0.502206  0.499792  1
  Pt  Pt31  1  0.879068  0.120932  0.750000  1
