# generated using pymatgen
data_Zr8Ta3Ti9Ge16
_symmetry_space_group_name_H-M   'P 1'
_cell_length_a   6.83974833
_cell_length_b   6.95331902
_cell_length_c   13.14683100
_cell_angle_alpha   90.00000000
_cell_angle_beta   90.00000000
_cell_angle_gamma   90.01626963
_symmetry_Int_Tables_number   1
_chemical_formula_structural   Zr8Ta3Ti9Ge16
_chemical_formula_sum   'Zr8 Ta3 Ti9 Ge16'
_cell_volume   625.24948113
_cell_formula_units_Z   1
loop_
 _symmetry_equiv_pos_site_id
 _symmetry_equiv_pos_as_xyz
  1  'x, y, z'
loop_
 _atom_site_type_symbol
 _atom_site_label
 _atom_site_symmetry_multiplicity
 _atom_site_fract_x
 _atom_site_fract_y
 _atom_site_fract_z
 _atom_site_occupancy
  Zr  Zr0  1  0.489807  0.675320  0.594012  1
  Zr  Zr1  1  0.992154  0.826397  0.905377  1
  Zr  Zr2  1  0.509029  0.326115  0.094601  1
  Zr  Zr3  1  0.009109  0.174892  0.405004  1
  Zr  Zr4  1  0.509029  0.326115  0.405399  1
  Zr  Zr5  1  0.009109  0.174892  0.094996  1
  Zr  Zr6  1  0.489807  0.675320  0.905988  1
  Zr  Zr7  1  0.992154  0.826397  0.594623  1
  Ta  Ta8  1  0.330014  0.005274  0.750000  1
  Ta  Ta9  1  0.170416  0.506143  0.250000  1
  Ta  Ta10  1  0.670325  0.994316  0.250000  1
  Ti  Ti11  1  0.656084  0.167453  0.625634  1
  Ti  Ti12  1  0.159675  0.331233  0.874516  1
  Ti  Ti13  1  0.342046  0.831334  0.124862  1
  Ti  Ti14  1  0.842302  0.667810  0.375561  1
  Ti  Ti15  1  0.342046  0.831334  0.375138  1
  Ti  Ti16  1  0.842302  0.667810  0.124439  1
  Ti  Ti17  1  0.656084  0.167453  0.874366  1
  Ti  Ti18  1  0.159675  0.331233  0.625484  1
  Ti  Ti19  1  0.829818  0.493649  0.750000  1
  Ge  Ge20  1  0.682506  0.958991  0.461040  1
  Ge  Ge21  1  0.182296  0.541273  0.038813  1
  Ge  Ge22  1  0.317293  0.042030  0.960942  1
  Ge  Ge23  1  0.817678  0.458568  0.541010  1
  Ge  Ge24  1  0.317293  0.042030  0.539058  1
  Ge  Ge25  1  0.817678  0.458568  0.958990  1
  Ge  Ge26  1  0.682506  0.958991  0.038960  1
  Ge  Ge27  1  0.182296  0.541273  0.461187  1
  Ge  Ge28  1  0.461109  0.380755  0.750000  1
  Ge  Ge29  1  0.956248  0.123701  0.750000  1
  Ge  Ge30  1  0.542487  0.621818  0.250000  1
  Ge  Ge31  1  0.041804  0.878475  0.250000  1
  Ge  Ge32  1  0.694182  0.854635  0.750000  1
  Ge  Ge33  1  0.188405  0.638185  0.750000  1
  Ge  Ge34  1  0.307719  0.140515  0.250000  1
  Ge  Ge35  1  0.807516  0.359700  0.250000  1
