# generated using pymatgen
data_HgBiPt3Rh(PbO7)2
_symmetry_space_group_name_H-M   'P 1'
_cell_length_a   7.40161162
_cell_length_b   7.29317552
_cell_length_c   7.40161100
_cell_angle_alpha   59.50692343
_cell_angle_beta   59.99998934
_cell_angle_gamma   59.50692705
_symmetry_Int_Tables_number   1
_chemical_formula_structural   HgBiPt3Rh(PbO7)2
_chemical_formula_sum   'Hg1 Bi1 Pt3 Rh1 Pb2 O14'
_cell_volume   280.39930624
_cell_formula_units_Z   1
loop_
 _symmetry_equiv_pos_site_id
 _symmetry_equiv_pos_as_xyz
  1  'x, y, z'
loop_
 _atom_site_type_symbol
 _atom_site_label
 _atom_site_symmetry_multiplicity
 _atom_site_fract_x
 _atom_site_fract_y
 _atom_site_fract_z
 _atom_site_occupancy
  Hg  Hg0  1  0.125000  0.625000  0.125000  1
  Bi  Bi1  1  0.125000  0.125000  0.625000  1
  Pt  Pt2  1  0.625000  0.625000  0.125000  1
  Pt  Pt3  1  0.625000  0.625000  0.625000  1
  Pt  Pt4  1  0.125000  0.625000  0.625000  1
  Rh  Rh5  1  0.625000  0.125000  0.625000  1
  Pb  Pb6  1  0.125000  0.125000  0.125000  1
  Pb  Pb7  1  0.625000  0.125000  0.125000  1
  O  O8  1  0.707882  0.290177  0.294060  1
  O  O9  1  0.708567  0.288632  0.710112  1
  O  O10  1  0.993477  0.008312  0.004734  1
  O  O11  1  0.293401  0.710031  0.293335  1
  O  O12  1  0.703234  0.710031  0.293335  1
  O  O13  1  0.957381  0.540099  0.545137  1
  O  O14  1  0.292619  0.709901  0.704863  1
  O  O15  1  0.256523  0.241688  0.245266  1
  O  O16  1  0.956599  0.539969  0.956665  1
  O  O17  1  0.541433  0.961368  0.539888  1
  O  O18  1  0.546766  0.539969  0.956665  1
  O  O19  1  0.957309  0.961368  0.539888  1
  O  O20  1  0.542118  0.959823  0.955940  1
  O  O21  1  0.292691  0.288632  0.710112  1
