# generated using pymatgen
data_Tb7Dy(ZnI6)2
_symmetry_space_group_name_H-M   'P 1'
_cell_length_a   4.19377600
_cell_length_b   14.21520711
_cell_length_c   14.94574212
_cell_angle_alpha   89.98553110
_cell_angle_beta   90.00000000
_cell_angle_gamma   90.00000000
_symmetry_Int_Tables_number   1
_chemical_formula_structural   Tb7Dy(ZnI6)2
_chemical_formula_sum   'Tb7 Dy1 Zn2 I12'
_cell_volume   890.99628302
_cell_formula_units_Z   1
loop_
 _symmetry_equiv_pos_site_id
 _symmetry_equiv_pos_as_xyz
  1  'x, y, z'
loop_
 _atom_site_type_symbol
 _atom_site_label
 _atom_site_symmetry_multiplicity
 _atom_site_fract_x
 _atom_site_fract_y
 _atom_site_fract_z
 _atom_site_occupancy
  Tb  Tb0  1  0.500000  0.885826  0.652983  1
  Tb  Tb1  1  0.500000  0.614254  0.153091  1
  Tb  Tb2  1  0.500000  0.385739  0.846904  1
  Tb  Tb3  1  0.000000  0.114518  0.577035  1
  Tb  Tb4  1  0.000000  0.885523  0.422899  1
  Tb  Tb5  1  0.000000  0.614602  0.922861  1
  Tb  Tb6  1  0.000000  0.385418  0.077128  1
  Dy  Dy7  1  0.500000  0.114070  0.347163  1
  Zn  Zn8  1  0.500000  0.000140  0.499811  1
  Zn  Zn9  1  0.500000  0.499990  0.000010  1
  I  I10  1  0.500000  0.245065  0.163112  1
  I  I11  1  0.500000  0.754766  0.837110  1
  I  I12  1  0.500000  0.745235  0.337114  1
  I  I13  1  0.500000  0.254772  0.662870  1
  I  I14  1  0.000000  0.259597  0.413393  1
  I  I15  1  0.000000  0.740027  0.586286  1
  I  I16  1  0.000000  0.760021  0.086293  1
  I  I17  1  0.000000  0.239982  0.913714  1
  I  I18  1  0.000000  0.999212  0.238838  1
  I  I19  1  0.000000  0.001245  0.761382  1
  I  I20  1  0.000000  0.498740  0.261430  1
  I  I21  1  0.000000  0.501256  0.738574  1
