# generated using pymatgen
data_Ba11Pr(SnAu)12
_symmetry_space_group_name_H-M   'P 1'
_cell_length_a   5.02893100
_cell_length_b   8.48600459
_cell_length_c   25.02375197
_cell_angle_alpha   90.10424377
_cell_angle_beta   90.00000000
_cell_angle_gamma   90.00000000
_symmetry_Int_Tables_number   1
_chemical_formula_structural   Ba11Pr(SnAu)12
_chemical_formula_sum   'Ba11 Pr1 Sn12 Au12'
_cell_volume   1067.90014903
_cell_formula_units_Z   1
loop_
 _symmetry_equiv_pos_site_id
 _symmetry_equiv_pos_as_xyz
  1  'x, y, z'
loop_
 _atom_site_type_symbol
 _atom_site_label
 _atom_site_symmetry_multiplicity
 _atom_site_fract_x
 _atom_site_fract_y
 _atom_site_fract_z
 _atom_site_occupancy
  Ba  Ba0  1  0.250000  0.794884  0.166826  1
  Ba  Ba1  1  0.250000  0.787106  0.502605  1
  Ba  Ba2  1  0.250000  0.793075  0.832513  1
  Ba  Ba3  1  0.250000  0.707876  0.335378  1
  Ba  Ba4  1  0.750000  0.204727  0.833136  1
  Ba  Ba5  1  0.750000  0.291939  0.997246  1
  Ba  Ba6  1  0.750000  0.291197  0.665459  1
  Ba  Ba7  1  0.750000  0.294048  0.334312  1
  Ba  Ba8  1  0.250000  0.704119  0.664054  1
  Ba  Ba9  1  0.250000  0.708196  0.002794  1
  Ba  Ba10  1  0.750000  0.206505  0.167349  1
  Pr  Pr11  1  0.750000  0.232165  0.496626  1
  Sn  Sn12  1  0.250000  0.405050  0.560128  1
  Sn  Sn13  1  0.250000  0.087535  0.401503  1
  Sn  Sn14  1  0.250000  0.086661  0.062868  1
  Sn  Sn15  1  0.250000  0.417144  0.895381  1
  Sn  Sn16  1  0.750000  0.582576  0.104768  1
  Sn  Sn17  1  0.250000  0.418140  0.770797  1
  Sn  Sn18  1  0.750000  0.581893  0.229019  1
  Sn  Sn19  1  0.750000  0.584648  0.436645  1
  Sn  Sn20  1  0.750000  0.913304  0.937141  1
  Sn  Sn21  1  0.250000  0.081127  0.273690  1
  Sn  Sn22  1  0.750000  0.916028  0.599583  1
  Sn  Sn23  1  0.750000  0.918436  0.726287  1
  Au  Au24  1  0.250000  0.086705  0.588594  1
  Au  Au25  1  0.250000  0.086246  0.738710  1
  Au  Au26  1  0.750000  0.586743  0.905648  1
  Au  Au27  1  0.750000  0.922571  0.413895  1
  Au  Au28  1  0.750000  0.578167  0.562922  1
  Au  Au29  1  0.750000  0.586211  0.758906  1
  Au  Au30  1  0.250000  0.404642  0.439243  1
  Au  Au31  1  0.250000  0.414082  0.240708  1
  Au  Au32  1  0.750000  0.918499  0.066852  1
  Au  Au33  1  0.250000  0.413359  0.094320  1
  Au  Au34  1  0.250000  0.081309  0.932826  1
  Au  Au35  1  0.750000  0.913087  0.261269  1
