# generated using pymatgen
data_Ce2BiSbF15
_symmetry_space_group_name_H-M   'P 1'
_cell_length_a   8.55394273
_cell_length_b   8.55394444
_cell_length_c   8.60947800
_cell_angle_alpha   79.67152962
_cell_angle_beta   79.67152073
_cell_angle_gamma   99.53031421
_symmetry_Int_Tables_number   1
_chemical_formula_structural   Ce2BiSbF15
_chemical_formula_sum   'Ce4 Bi2 Sb2 F30'
_cell_volume   596.84763905
_cell_formula_units_Z   2
loop_
 _symmetry_equiv_pos_site_id
 _symmetry_equiv_pos_as_xyz
  1  'x, y, z'
loop_
 _atom_site_type_symbol
 _atom_site_label
 _atom_site_symmetry_multiplicity
 _atom_site_fract_x
 _atom_site_fract_y
 _atom_site_fract_z
 _atom_site_occupancy
  Ce  Ce0  1  0.749987  0.675360  0.671601  1
  Ce  Ce1  1  0.324640  0.250013  0.828399  1
  Ce  Ce2  1  0.250013  0.324640  0.328399  1
  Ce  Ce3  1  0.675360  0.749987  0.171601  1
  Bi  Bi4  1  0.173878  0.826122  0.250000  1
  Bi  Bi5  1  0.826122  0.173878  0.750000  1
  Sb  Sb6  1  0.751290  0.248710  0.250000  1
  Sb  Sb7  1  0.248710  0.751290  0.750000  1
  F  F8  1  0.470525  0.529475  0.250000  1
  F  F9  1  0.756590  0.966927  0.969362  1
  F  F10  1  0.033073  0.243410  0.530638  1
  F  F11  1  0.243410  0.033073  0.030638  1
  F  F12  1  0.966927  0.756590  0.469362  1
  F  F13  1  0.529475  0.470525  0.750000  1
  F  F14  1  0.215985  0.519989  0.772194  1
  F  F15  1  0.233588  0.718770  0.978351  1
  F  F16  1  0.018043  0.733661  0.784222  1
  F  F17  1  0.733661  0.018043  0.284222  1
  F  F18  1  0.718770  0.233588  0.478351  1
  F  F19  1  0.519989  0.215985  0.272194  1
  F  F20  1  0.784016  0.480011  0.227806  1
  F  F21  1  0.766412  0.281230  0.021649  1
  F  F22  1  0.981957  0.266339  0.215778  1
  F  F23  1  0.266339  0.981957  0.715778  1
  F  F24  1  0.281230  0.766412  0.521649  1
  F  F25  1  0.480011  0.784015  0.727806  1
  F  F26  1  0.545627  0.144987  0.809588  1
  F  F27  1  0.196426  0.053608  0.351036  1
  F  F28  1  0.648190  0.691952  0.444514  1
  F  F29  1  0.691952  0.648190  0.944514  1
  F  F30  1  0.053608  0.196426  0.851036  1
  F  F31  1  0.144987  0.545627  0.309588  1
  F  F32  1  0.454373  0.855013  0.190412  1
  F  F33  1  0.803574  0.946392  0.648964  1
  F  F34  1  0.351810  0.308048  0.555486  1
  F  F35  1  0.308048  0.351810  0.055486  1
  F  F36  1  0.946392  0.803574  0.148964  1
  F  F37  1  0.855013  0.454373  0.690412  1
