# generated using pymatgen
data_Zr12Ir3Os
_symmetry_space_group_name_H-M   'P 1'
_cell_length_a   8.19513500
_cell_length_b   8.17059775
_cell_length_c   8.17059696
_cell_angle_alpha   97.18633185
_cell_angle_beta   96.64710335
_cell_angle_gamma   139.15924472
_symmetry_Int_Tables_number   1
_chemical_formula_structural   Zr12Ir3Os
_chemical_formula_sum   'Zr12 Ir3 Os1'
_cell_volume   335.78717315
_cell_formula_units_Z   1
loop_
 _symmetry_equiv_pos_site_id
 _symmetry_equiv_pos_as_xyz
  1  'x, y, z'
loop_
 _atom_site_type_symbol
 _atom_site_label
 _atom_site_symmetry_multiplicity
 _atom_site_fract_x
 _atom_site_fract_y
 _atom_site_fract_z
 _atom_site_occupancy
  Zr  Zr0  1  0.545396  0.957904  0.999412  1
  Zr  Zr1  1  0.454604  0.454016  0.412509  1
  Zr  Zr2  1  0.039656  0.038651  0.587346  1
  Zr  Zr3  1  0.960344  0.547691  0.998995  1
  Zr  Zr4  1  0.500000  0.853737  0.353737  1
  Zr  Zr5  1  0.854764  0.500654  0.355802  1
  Zr  Zr6  1  0.145236  0.501037  0.645890  1
  Zr  Zr7  1  0.500000  0.146475  0.646475  1
  Zr  Zr8  1  0.165818  0.356898  0.999813  1
  Zr  Zr9  1  0.834182  0.833995  0.191080  1
  Zr  Zr10  1  0.643749  0.644406  0.808311  1
  Zr  Zr11  1  0.356251  0.164563  0.000657  1
  Ir  Ir12  1  0.709560  0.000939  0.708715  1
  Ir  Ir13  1  0.290440  0.999155  0.291379  1
  Ir  Ir14  1  0.000000  0.290857  0.290857  1
  Os  Os15  1  0.000000  0.709021  0.709021  1
