# generated using pymatgen
data_Eu3Al12CuOs3
_symmetry_space_group_name_H-M   'P 1'
_cell_length_a   8.94571628
_cell_length_b   8.95916137
_cell_length_c   9.70730600
_cell_angle_alpha   90.00000000
_cell_angle_beta   90.00000000
_cell_angle_gamma   120.04973446
_symmetry_Int_Tables_number   1
_chemical_formula_structural   Eu3Al12CuOs3
_chemical_formula_sum   'Eu6 Al24 Cu2 Os6'
_cell_volume   673.43233117
_cell_formula_units_Z   2
loop_
 _symmetry_equiv_pos_site_id
 _symmetry_equiv_pos_as_xyz
  1  'x, y, z'
loop_
 _atom_site_type_symbol
 _atom_site_label
 _atom_site_symmetry_multiplicity
 _atom_site_fract_x
 _atom_site_fract_y
 _atom_site_fract_z
 _atom_site_occupancy
  Eu  Eu0  1  0.192069  0.383690  0.250000  1
  Eu  Eu1  1  0.807931  0.616310  0.750000  1
  Eu  Eu2  1  0.608105  0.804053  0.250000  1
  Eu  Eu3  1  0.391895  0.195947  0.750000  1
  Eu  Eu4  1  0.192069  0.808379  0.250000  1
  Eu  Eu5  1  0.807931  0.191621  0.750000  1
  Al  Al6  1  0.337893  0.668947  0.005696  1
  Al  Al7  1  0.662107  0.331053  0.994304  1
  Al  Al8  1  0.662107  0.331053  0.505696  1
  Al  Al9  1  0.337893  0.668947  0.494304  1
  Al  Al10  1  0.169557  0.322491  0.575805  1
  Al  Al11  1  0.830443  0.677509  0.424195  1
  Al  Al12  1  0.674913  0.837455  0.576856  1
  Al  Al13  1  0.830443  0.677509  0.075805  1
  Al  Al14  1  0.325087  0.162545  0.423144  1
  Al  Al15  1  0.169557  0.322491  0.924195  1
  Al  Al16  1  0.169557  0.847065  0.575805  1
  Al  Al17  1  0.325087  0.162545  0.076856  1
  Al  Al18  1  0.830443  0.152935  0.424195  1
  Al  Al19  1  0.674913  0.837455  0.923144  1
  Al  Al20  1  0.830443  0.152935  0.075805  1
  Al  Al21  1  0.169557  0.847065  0.924195  1
  Al  Al22  1  0.559528  0.123344  0.250000  1
  Al  Al23  1  0.440472  0.876656  0.750000  1
  Al  Al24  1  0.872781  0.436391  0.250000  1
  Al  Al25  1  0.127219  0.563609  0.750000  1
  Al  Al26  1  0.559528  0.436185  0.250000  1
  Al  Al27  1  0.440472  0.563815  0.750000  1
  Al  Al28  1  0.001151  0.000575  0.250000  1
  Al  Al29  1  0.998849  0.999425  0.750000  1
  Cu  Cu30  1  0.000000  0.500000  0.000000  1
  Cu  Cu31  1  0.000000  0.500000  0.500000  1
  Os  Os32  1  0.500000  0.000000  0.000000  1
  Os  Os33  1  0.500000  0.000000  0.500000  1
  Os  Os34  1  0.500000  0.500000  0.000000  1
  Os  Os35  1  0.500000  0.500000  0.500000  1
  Os  Os36  1  0.000000  0.000000  0.000000  1
  Os  Os37  1  0.000000  0.000000  0.500000  1
