# generated using pymatgen
data_PrNdRu2F14
_symmetry_space_group_name_H-M   'P 1'
_cell_length_a   5.70305900
_cell_length_b   9.14366244
_cell_length_c   12.29544669
_cell_angle_alpha   63.16025483
_cell_angle_beta   90.00000000
_cell_angle_gamma   90.00000000
_symmetry_Int_Tables_number   1
_chemical_formula_structural   PrNdRu2F14
_chemical_formula_sum   'Pr2 Nd2 Ru4 F28'
_cell_volume   572.09747709
_cell_formula_units_Z   2
loop_
 _symmetry_equiv_pos_site_id
 _symmetry_equiv_pos_as_xyz
  1  'x, y, z'
loop_
 _atom_site_type_symbol
 _atom_site_label
 _atom_site_symmetry_multiplicity
 _atom_site_fract_x
 _atom_site_fract_y
 _atom_site_fract_z
 _atom_site_occupancy
  Pr  Pr0  1  0.240983  0.192832  0.232299  1
  Pr  Pr1  1  0.740983  0.807168  0.267701  1
  Nd  Nd2  1  0.759043  0.808250  0.767590  1
  Nd  Nd3  1  0.259043  0.191750  0.732410  1
  Ru  Ru4  1  0.754534  0.273211  0.956140  1
  Ru  Ru5  1  0.254534  0.726789  0.543860  1
  Ru  Ru6  1  0.246012  0.728312  0.041269  1
  Ru  Ru7  1  0.746012  0.271688  0.458731  1
  F  F8  1  0.441338  0.707872  0.917098  1
  F  F9  1  0.941338  0.292128  0.582902  1
  F  F10  1  0.559929  0.293039  0.080851  1
  F  F11  1  0.059929  0.706961  0.419149  1
  F  F12  1  0.457882  0.281903  0.544606  1
  F  F13  1  0.957882  0.718097  0.955394  1
  F  F14  1  0.541576  0.716628  0.457662  1
  F  F15  1  0.041576  0.283372  0.042338  1
  F  F16  1  0.763854  0.507014  0.862551  1
  F  F17  1  0.263854  0.492986  0.637449  1
  F  F18  1  0.235594  0.494627  0.135121  1
  F  F19  1  0.735594  0.505373  0.364879  1
  F  F20  1  0.756765  0.040434  0.047267  1
  F  F21  1  0.256765  0.959566  0.452733  1
  F  F22  1  0.244083  0.961241  0.951131  1
  F  F23  1  0.744083  0.038759  0.548869  1
  F  F24  1  0.971664  0.731029  0.634284  1
  F  F25  1  0.471664  0.268971  0.865716  1
  F  F26  1  0.029038  0.268994  0.368237  1
  F  F27  1  0.529038  0.731006  0.131763  1
  F  F28  1  0.053308  0.746837  0.167813  1
  F  F29  1  0.553308  0.253163  0.332187  1
  F  F30  1  0.948700  0.253183  0.830563  1
  F  F31  1  0.448700  0.746817  0.669437  1
  F  F32  1  0.410752  0.968097  0.230586  1
  F  F33  1  0.910752  0.031903  0.269414  1
  F  F34  1  0.584945  0.030047  0.768629  1
  F  F35  1  0.084945  0.969953  0.731371  1
