# generated using pymatgen
data_RbMg2H8Rh
_symmetry_space_group_name_H-M   'P 1'
_cell_length_a   4.91329200
_cell_length_b   4.91329200
_cell_length_c   10.78206800
_cell_angle_alpha   90.00000000
_cell_angle_beta   90.00000000
_cell_angle_gamma   90.00000000
_symmetry_Int_Tables_number   1
_chemical_formula_structural   RbMg2H8Rh
_chemical_formula_sum   'Rb2 Mg4 H16 Rh2'
_cell_volume   260.28384706
_cell_formula_units_Z   2
loop_
 _symmetry_equiv_pos_site_id
 _symmetry_equiv_pos_as_xyz
  1  'x, y, z'
loop_
 _atom_site_type_symbol
 _atom_site_label
 _atom_site_symmetry_multiplicity
 _atom_site_fract_x
 _atom_site_fract_y
 _atom_site_fract_z
 _atom_site_occupancy
  Rb  Rb0  1  0.500000  0.000000  0.000000  1
  Rb  Rb1  1  0.000000  0.500000  0.500000  1
  Mg  Mg2  1  0.500000  0.000000  0.632722  1
  Mg  Mg3  1  0.000000  0.500000  0.132722  1
  Mg  Mg4  1  0.500000  0.000000  0.367278  1
  Mg  Mg5  1  0.000000  0.500000  0.867278  1
  H  H6  1  0.239723  0.239723  0.750000  1
  H  H7  1  0.760277  0.760277  0.750000  1
  H  H8  1  0.760277  0.239723  0.250000  1
  H  H9  1  0.239723  0.760277  0.250000  1
  H  H10  1  0.760277  0.760277  0.250000  1
  H  H11  1  0.239723  0.239723  0.250000  1
  H  H12  1  0.239723  0.760277  0.750000  1
  H  H13  1  0.760277  0.239723  0.750000  1
  H  H14  1  0.500000  0.251098  0.500000  1
  H  H15  1  0.500000  0.748902  0.500000  1
  H  H16  1  0.748902  0.500000  0.000000  1
  H  H17  1  0.251098  0.500000  0.000000  1
  H  H18  1  0.000000  0.000000  0.597112  1
  H  H19  1  0.000000  0.000000  0.097112  1
  H  H20  1  0.000000  0.000000  0.402888  1
  H  H21  1  0.000000  0.000000  0.902888  1
  Rh  Rh22  1  0.000000  0.000000  0.750000  1
  Rh  Rh23  1  0.000000  0.000000  0.250000  1
