# generated using pymatgen
data_Tb4Cd3Ag10
_symmetry_space_group_name_H-M   'P 1'
_cell_length_a   8.60089561
_cell_length_b   8.60089684
_cell_length_c   10.32352200
_cell_angle_alpha   90.00000000
_cell_angle_beta   90.00000000
_cell_angle_gamma   107.37705075
_symmetry_Int_Tables_number   1
_chemical_formula_structural   Tb4Cd3Ag10
_chemical_formula_sum   'Tb8 Cd6 Ag20'
_cell_volume   728.83218875
_cell_formula_units_Z   2
loop_
 _symmetry_equiv_pos_site_id
 _symmetry_equiv_pos_as_xyz
  1  'x, y, z'
loop_
 _atom_site_type_symbol
 _atom_site_label
 _atom_site_symmetry_multiplicity
 _atom_site_fract_x
 _atom_site_fract_y
 _atom_site_fract_z
 _atom_site_occupancy
  Tb  Tb0  1  0.699960  0.300040  0.000000  1
  Tb  Tb1  1  0.300040  0.699960  0.000000  1
  Tb  Tb2  1  0.800040  0.199960  0.500000  1
  Tb  Tb3  1  0.199960  0.800040  0.500000  1
  Tb  Tb4  1  0.306197  0.306197  0.204713  1
  Tb  Tb5  1  0.693803  0.693803  0.795287  1
  Tb  Tb6  1  0.193803  0.193803  0.704713  1
  Tb  Tb7  1  0.806197  0.806197  0.295287  1
  Cd  Cd8  1  0.031218  0.531218  0.250000  1
  Cd  Cd9  1  0.968782  0.468782  0.750000  1
  Cd  Cd10  1  0.468782  0.968782  0.750000  1
  Cd  Cd11  1  0.531218  0.031218  0.250000  1
  Cd  Cd12  1  0.000000  0.000000  0.000000  1
  Cd  Cd13  1  0.500000  0.500000  0.500000  1
  Ag  Ag14  1  0.098859  0.098859  0.406296  1
  Ag  Ag15  1  0.901141  0.901141  0.593704  1
  Ag  Ag16  1  0.401141  0.401141  0.906296  1
  Ag  Ag17  1  0.598859  0.598859  0.093704  1
  Ag  Ag18  1  0.894720  0.176988  0.209766  1
  Ag  Ag19  1  0.105280  0.823012  0.790234  1
  Ag  Ag20  1  0.605280  0.323012  0.709766  1
  Ag  Ag21  1  0.676988  0.394720  0.290234  1
  Ag  Ag22  1  0.394720  0.676988  0.290234  1
  Ag  Ag23  1  0.323012  0.605280  0.709766  1
  Ag  Ag24  1  0.823012  0.105280  0.790234  1
  Ag  Ag25  1  0.176988  0.894720  0.209766  1
  Ag  Ag26  1  0.929026  0.651543  0.017896  1
  Ag  Ag27  1  0.070974  0.348457  0.982104  1
  Ag  Ag28  1  0.570974  0.848457  0.517896  1
  Ag  Ag29  1  0.151543  0.429026  0.482104  1
  Ag  Ag30  1  0.429026  0.151543  0.482104  1
  Ag  Ag31  1  0.848457  0.570974  0.517896  1
  Ag  Ag32  1  0.348457  0.070974  0.982104  1
  Ag  Ag33  1  0.651543  0.929026  0.017896  1
