# generated using pymatgen
data_MgPa4AlRh4
_symmetry_space_group_name_H-M   'P 1'
_cell_length_a   7.51916300
_cell_length_b   7.51916300
_cell_length_c   3.67522400
_cell_angle_alpha   90.00000000
_cell_angle_beta   90.00000000
_cell_angle_gamma   90.00000000
_symmetry_Int_Tables_number   1
_chemical_formula_structural   MgPa4AlRh4
_chemical_formula_sum   'Mg1 Pa4 Al1 Rh4'
_cell_volume   207.78912438
_cell_formula_units_Z   1
loop_
 _symmetry_equiv_pos_site_id
 _symmetry_equiv_pos_as_xyz
  1  'x, y, z'
loop_
 _atom_site_type_symbol
 _atom_site_label
 _atom_site_symmetry_multiplicity
 _atom_site_fract_x
 _atom_site_fract_y
 _atom_site_fract_z
 _atom_site_occupancy
  Mg  Mg0  1  0.500000  0.500000  0.000000  1
  Pa  Pa1  1  0.677142  0.164515  0.500000  1
  Pa  Pa2  1  0.164515  0.322858  0.500000  1
  Pa  Pa3  1  0.835486  0.677142  0.500000  1
  Pa  Pa4  1  0.322858  0.835486  0.500000  1
  Al  Al5  1  0.000000  0.000000  0.000000  1
  Rh  Rh6  1  0.356517  0.133235  0.000000  1
  Rh  Rh7  1  0.866765  0.356517  0.000000  1
  Rh  Rh8  1  0.133235  0.643484  0.000000  1
  Rh  Rh9  1  0.643484  0.866765  0.000000  1
