# generated using pymatgen
data_YbZnCdCu2Pt
_symmetry_space_group_name_H-M   'P 1'
_cell_length_a   5.24473481
_cell_length_b   5.24473573
_cell_length_c   5.15550403
_cell_angle_alpha   59.70617137
_cell_angle_beta   59.70616402
_cell_angle_gamma   59.45399696
_symmetry_Int_Tables_number   1
_chemical_formula_structural   YbZnCdCu2Pt
_chemical_formula_sum   'Yb1 Zn1 Cd1 Cu2 Pt1'
_cell_volume   99.41498785
_cell_formula_units_Z   1
loop_
 _symmetry_equiv_pos_site_id
 _symmetry_equiv_pos_as_xyz
  1  'x, y, z'
loop_
 _atom_site_type_symbol
 _atom_site_label
 _atom_site_symmetry_multiplicity
 _atom_site_fract_x
 _atom_site_fract_y
 _atom_site_fract_z
 _atom_site_occupancy
  Yb  Yb0  1  0.000304  0.000304  0.994228  1
  Zn  Zn1  1  0.624289  0.624289  0.127474  1
  Cd  Cd2  1  0.252222  0.252222  0.249751  1
  Cu  Cu3  1  0.624362  0.124552  0.626193  1
  Cu  Cu4  1  0.124552  0.624362  0.626193  1
  Pt  Pt5  1  0.624269  0.624269  0.626161  1
