# generated using pymatgen
data_Tm3In3PtAu
_symmetry_space_group_name_H-M   'P 1'
_cell_length_a   7.74763600
_cell_length_b   7.74763498
_cell_length_c   3.59649000
_cell_angle_alpha   90.00000000
_cell_angle_beta   90.00000000
_cell_angle_gamma   119.99998840
_symmetry_Int_Tables_number   1
_chemical_formula_structural   Tm3In3PtAu
_chemical_formula_sum   'Tm3 In3 Pt1 Au1'
_cell_volume   186.95965568
_cell_formula_units_Z   1
loop_
 _symmetry_equiv_pos_site_id
 _symmetry_equiv_pos_as_xyz
  1  'x, y, z'
loop_
 _atom_site_type_symbol
 _atom_site_label
 _atom_site_symmetry_multiplicity
 _atom_site_fract_x
 _atom_site_fract_y
 _atom_site_fract_z
 _atom_site_occupancy
  Tm  Tm0  1  0.578475  0.986766  0.500001  1
  Tm  Tm1  1  0.408290  0.421524  0.500001  1
  Tm  Tm2  1  0.013234  0.591709  0.500001  1
  In  In3  1  0.236735  0.002076  0.000000  1
  In  In4  1  0.997924  0.234659  0.000000  1
  In  In5  1  0.765341  0.763266  0.000000  1
  Pt  Pt6  1  0.333333  0.666667  0.000000  1
  Au  Au7  1  0.666667  0.333333  0.000000  1
