# generated using pymatgen
data_TbGd5Dy2(MoO6)4
_symmetry_space_group_name_H-M   'P 1'
_cell_length_a   10.03751188
_cell_length_b   10.03751171
_cell_length_c   5.44940400
_cell_angle_alpha   75.01811327
_cell_angle_beta   75.01811971
_cell_angle_gamma   68.15922636
_symmetry_Int_Tables_number   1
_chemical_formula_structural   TbGd5Dy2(MoO6)4
_chemical_formula_sum   'Tb1 Gd5 Dy2 Mo4 O24'
_cell_volume   484.16825483
_cell_formula_units_Z   1
loop_
 _symmetry_equiv_pos_site_id
 _symmetry_equiv_pos_as_xyz
  1  'x, y, z'
loop_
 _atom_site_type_symbol
 _atom_site_label
 _atom_site_symmetry_multiplicity
 _atom_site_fract_x
 _atom_site_fract_y
 _atom_site_fract_z
 _atom_site_occupancy
  Tb  Tb0  1  0.135900  0.864100  0.250000  1
  Gd  Gd1  1  0.784321  0.552221  0.620079  1
  Gd  Gd2  1  0.447779  0.215679  0.879921  1
  Gd  Gd3  1  0.215595  0.448638  0.379435  1
  Gd  Gd4  1  0.551362  0.784405  0.120565  1
  Gd  Gd5  1  0.864030  0.135970  0.750000  1
  Dy  Dy6  1  0.392890  0.607110  0.750000  1
  Dy  Dy7  1  0.606296  0.393704  0.250000  1
  Mo  Mo8  1  0.989292  0.704262  0.938408  1
  Mo  Mo9  1  0.295738  0.010708  0.561592  1
  Mo  Mo10  1  0.011311  0.295700  0.061515  1
  Mo  Mo11  1  0.704300  0.988689  0.438485  1
  O  O12  1  0.427500  0.392625  0.076994  1
  O  O13  1  0.607375  0.572500  0.423006  1
  O  O14  1  0.572300  0.607602  0.922620  1
  O  O15  1  0.392398  0.427700  0.577380  1
  O  O16  1  0.192892  0.663981  0.078793  1
  O  O17  1  0.336019  0.807108  0.421207  1
  O  O18  1  0.807480  0.336755  0.922561  1
  O  O19  1  0.663245  0.192520  0.577439  1
  O  O20  1  0.115440  0.674322  0.629010  1
  O  O21  1  0.325678  0.884560  0.870990  1
  O  O22  1  0.884723  0.327371  0.369437  1
  O  O23  1  0.672629  0.115277  0.130563  1
  O  O24  1  0.711078  0.818484  0.363867  1
  O  O25  1  0.181516  0.288922  0.136133  1
  O  O26  1  0.288600  0.181057  0.636174  1
  O  O27  1  0.818943  0.711400  0.863826  1
  O  O28  1  0.888952  0.951398  0.483234  1
  O  O29  1  0.048602  0.111048  0.016766  1
  O  O30  1  0.112132  0.047435  0.513536  1
  O  O31  1  0.952565  0.887868  0.986464  1
  O  O32  1  0.569863  0.975351  0.741395  1
  O  O33  1  0.024649  0.430137  0.758605  1
  O  O34  1  0.430521  0.023917  0.259313  1
  O  O35  1  0.976083  0.569479  0.240687  1
