# generated using pymatgen
data_UTiP
_symmetry_space_group_name_H-M   'P 1'
_cell_length_a   3.60857400
_cell_length_b   7.80538900
_cell_length_c   7.28620200
_cell_angle_alpha   90.00000000
_cell_angle_beta   90.00000000
_cell_angle_gamma   90.00000000
_symmetry_Int_Tables_number   1
_chemical_formula_structural   UTiP
_chemical_formula_sum   'U4 Ti4 P4'
_cell_volume   205.22552484
_cell_formula_units_Z   4
loop_
 _symmetry_equiv_pos_site_id
 _symmetry_equiv_pos_as_xyz
  1  'x, y, z'
loop_
 _atom_site_type_symbol
 _atom_site_label
 _atom_site_symmetry_multiplicity
 _atom_site_fract_x
 _atom_site_fract_y
 _atom_site_fract_z
 _atom_site_occupancy
  U  U0  1  0.750000  0.616779  0.477852  1
  U  U1  1  0.250000  0.383221  0.522148  1
  U  U2  1  0.750000  0.883221  0.977852  1
  U  U3  1  0.250000  0.116779  0.022148  1
  Ti  Ti4  1  0.250000  0.563122  0.133611  1
  Ti  Ti5  1  0.750000  0.436878  0.866389  1
  Ti  Ti6  1  0.250000  0.936878  0.633611  1
  Ti  Ti7  1  0.750000  0.063122  0.366389  1
  P  P8  1  0.750000  0.150192  0.701603  1
  P  P9  1  0.250000  0.849808  0.298397  1
  P  P10  1  0.750000  0.349808  0.201603  1
  P  P11  1  0.250000  0.650192  0.798397  1
