# generated using pymatgen
data_DyBi7(W2O11)2
_symmetry_space_group_name_H-M   'P 1'
_cell_length_a   6.60065862
_cell_length_b   7.76490629
_cell_length_c   9.95397426
_cell_angle_alpha   100.66248294
_cell_angle_beta   90.62330147
_cell_angle_gamma   90.13772597
_symmetry_Int_Tables_number   1
_chemical_formula_structural   DyBi7(W2O11)2
_chemical_formula_sum   'Dy1 Bi7 W4 O22'
_cell_volume   501.33262847
_cell_formula_units_Z   1
loop_
 _symmetry_equiv_pos_site_id
 _symmetry_equiv_pos_as_xyz
  1  'x, y, z'
loop_
 _atom_site_type_symbol
 _atom_site_label
 _atom_site_symmetry_multiplicity
 _atom_site_fract_x
 _atom_site_fract_y
 _atom_site_fract_z
 _atom_site_occupancy
  Dy  Dy0  1  0.748960  0.371911  0.477540  1
  Bi  Bi1  1  0.244094  0.622697  0.516167  1
  Bi  Bi2  1  0.752343  0.876374  0.485048  1
  Bi  Bi3  1  0.250002  0.127108  0.516584  1
  Bi  Bi4  1  0.460561  0.937674  0.816672  1
  Bi  Bi5  1  0.538265  0.064339  0.183127  1
  Bi  Bi6  1  0.388170  0.455226  0.825413  1
  Bi  Bi7  1  0.617524  0.542855  0.174068  1
  W  W8  1  0.923290  0.699756  0.809352  1
  W  W9  1  0.074578  0.298606  0.189299  1
  W  W10  1  0.917199  0.200221  0.802667  1
  W  W11  1  0.081208  0.800497  0.195259  1
  O  O12  1  0.230095  0.716906  0.761438  1
  O  O13  1  0.767545  0.284653  0.240207  1
  O  O14  1  0.624818  0.670030  0.830790  1
  O  O15  1  0.373441  0.331529  0.171854  1
  O  O16  1  0.644202  0.254644  0.854407  1
  O  O17  1  0.354771  0.744204  0.150108  1
  O  O18  1  0.876875  0.175334  0.597802  1
  O  O19  1  0.118542  0.834760  0.402786  1
  O  O20  1  0.209012  0.145233  0.760185  1
  O  O21  1  0.790130  0.856586  0.240429  1
  O  O22  1  0.900170  0.626545  0.601299  1
  O  O23  1  0.088347  0.361660  0.398474  1
  O  O24  1  0.997806  0.548620  0.189598  1
  O  O25  1  0.002004  0.451881  0.813325  1
  O  O26  1  0.990276  0.780088  0.994483  1
  O  O27  1  0.007297  0.219740  0.004956  1
  O  O28  1  0.586065  0.601993  0.392400  1
  O  O29  1  0.439536  0.388934  0.608299  1
  O  O30  1  0.170849  0.057318  0.218963  1
  O  O31  1  0.829269  0.941350  0.776512  1
  O  O32  1  0.550147  0.105821  0.401079  1
  O  O33  1  0.452609  0.904907  0.599412  1
