# generated using pymatgen
data_Lu2ZnSi13Ir6
_symmetry_space_group_name_H-M   'P 1'
_cell_length_a   7.97131293
_cell_length_b   7.97131373
_cell_length_c   7.97131352
_cell_angle_alpha   57.60845319
_cell_angle_beta   57.60844767
_cell_angle_gamma   57.60845336
_symmetry_Int_Tables_number   1
_chemical_formula_structural   Lu2ZnSi13Ir6
_chemical_formula_sum   'Lu2 Zn1 Si13 Ir6'
_cell_volume   338.46883815
_cell_formula_units_Z   1
loop_
 _symmetry_equiv_pos_site_id
 _symmetry_equiv_pos_as_xyz
  1  'x, y, z'
loop_
 _atom_site_type_symbol
 _atom_site_label
 _atom_site_symmetry_multiplicity
 _atom_site_fract_x
 _atom_site_fract_y
 _atom_site_fract_z
 _atom_site_occupancy
  Lu  Lu0  1  0.998739  0.998739  0.998739  1
  Lu  Lu1  1  0.501261  0.501261  0.501261  1
  Zn  Zn2  1  0.750000  0.750000  0.750000  1
  Si  Si3  1  0.250000  0.250000  0.250000  1
  Si  Si4  1  0.848232  0.061579  0.671971  1
  Si  Si5  1  0.671971  0.848232  0.061579  1
  Si  Si6  1  0.061579  0.671971  0.848232  1
  Si  Si7  1  0.651768  0.828029  0.438421  1
  Si  Si8  1  0.438421  0.651768  0.828029  1
  Si  Si9  1  0.828029  0.438421  0.651768  1
  Si  Si10  1  0.169321  0.559155  0.359082  1
  Si  Si11  1  0.559155  0.359082  0.169321  1
  Si  Si12  1  0.359082  0.169321  0.559155  1
  Si  Si13  1  0.940845  0.330679  0.140918  1
  Si  Si14  1  0.330679  0.140918  0.940845  1
  Si  Si15  1  0.140918  0.940845  0.330679  1
  Ir  Ir16  1  0.089808  0.410192  0.750000  1
  Ir  Ir17  1  0.250000  0.925845  0.574155  1
  Ir  Ir18  1  0.574155  0.250000  0.925845  1
  Ir  Ir19  1  0.925845  0.574155  0.250000  1
  Ir  Ir20  1  0.410192  0.750000  0.089808  1
  Ir  Ir21  1  0.750000  0.089808  0.410192  1
