# generated using pymatgen
data_Er3Tm5MgInNi2
_symmetry_space_group_name_H-M   'P 1'
_cell_length_a   9.47538879
_cell_length_b   9.47579747
_cell_length_c   9.44421701
_cell_angle_alpha   60.10730144
_cell_angle_beta   60.11203863
_cell_angle_gamma   60.27357492
_symmetry_Int_Tables_number   1
_chemical_formula_structural   Er3Tm5MgInNi2
_chemical_formula_sum   'Er6 Tm10 Mg2 In2 Ni4'
_cell_volume   601.83100725
_cell_formula_units_Z   2
loop_
 _symmetry_equiv_pos_site_id
 _symmetry_equiv_pos_as_xyz
  1  'x, y, z'
loop_
 _atom_site_type_symbol
 _atom_site_label
 _atom_site_symmetry_multiplicity
 _atom_site_fract_x
 _atom_site_fract_y
 _atom_site_fract_z
 _atom_site_occupancy
  Er  Er0  1  0.596200  0.596235  0.595842  1
  Er  Er1  1  0.596242  0.596213  0.211714  1
  Er  Er2  1  0.600784  0.205635  0.596785  1
  Er  Er3  1  0.205640  0.600784  0.596812  1
  Er  Er4  1  0.061849  0.437013  0.438445  1
  Er  Er5  1  0.437013  0.061848  0.062694  1
  Tm  Tm6  1  0.437029  0.061778  0.438469  1
  Tm  Tm7  1  0.061779  0.437029  0.062722  1
  Tm  Tm8  1  0.435172  0.435170  0.064829  1
  Tm  Tm9  1  0.060705  0.060701  0.439296  1
  Tm  Tm10  1  0.185469  0.814521  0.814214  1
  Tm  Tm11  1  0.814522  0.185468  0.185794  1
  Tm  Tm12  1  0.814504  0.185474  0.814204  1
  Tm  Tm13  1  0.185473  0.814506  0.185814  1
  Tm  Tm14  1  0.814536  0.814536  0.185463  1
  Tm  Tm15  1  0.185907  0.185906  0.814093  1
  Mg  Mg16  1  0.829440  0.514417  0.828099  1
  Mg  Mg17  1  0.514417  0.829439  0.828043  1
  In  In18  1  0.832141  0.832112  0.833335  1
  In  In19  1  0.832113  0.832142  0.502407  1
  Ni  Ni20  1  0.392064  0.391999  0.393503  1
  Ni  Ni21  1  0.392000  0.392066  0.822427  1
  Ni  Ni22  1  0.390230  0.824777  0.392538  1
  Ni  Ni23  1  0.824771  0.390232  0.392457  1
