# generated using pymatgen
data_Ho3ErHf3O12
_symmetry_space_group_name_H-M   'P 1'
_cell_length_a   6.29925537
_cell_length_b   6.34615942
_cell_length_c   6.54665246
_cell_angle_alpha   99.92999938
_cell_angle_beta   98.31686258
_cell_angle_gamma   99.68221278
_symmetry_Int_Tables_number   1
_chemical_formula_structural   Ho3ErHf3O12
_chemical_formula_sum   'Ho3 Er1 Hf3 O12'
_cell_volume   250.02011044
_cell_formula_units_Z   1
loop_
 _symmetry_equiv_pos_site_id
 _symmetry_equiv_pos_as_xyz
  1  'x, y, z'
loop_
 _atom_site_type_symbol
 _atom_site_label
 _atom_site_symmetry_multiplicity
 _atom_site_fract_x
 _atom_site_fract_y
 _atom_site_fract_z
 _atom_site_occupancy
  Ho  Ho0  1  0.695534  0.865051  0.388912  1
  Ho  Ho1  1  0.613585  0.300722  0.133168  1
  Ho  Ho2  1  0.304039  0.134909  0.611122  1
  Er  Er3  1  0.386074  0.699414  0.866470  1
  Hf  Hf4  1  0.999785  0.999484  0.999756  1
  Hf  Hf5  1  0.848490  0.397797  0.668685  1
  Hf  Hf6  1  0.151881  0.602636  0.331893  1
  O  O7  1  0.022154  0.678733  0.880230  1
  O  O8  1  0.685341  0.931986  0.057791  1
  O  O9  1  0.919638  0.087924  0.698056  1
  O  O10  1  0.979038  0.320837  0.120138  1
  O  O11  1  0.314224  0.066168  0.940976  1
  O  O12  1  0.080348  0.912163  0.302147  1
  O  O13  1  0.590157  0.189862  0.434982  1
  O  O14  1  0.170559  0.428956  0.574102  1
  O  O15  1  0.412630  0.583420  0.179251  1
  O  O16  1  0.409938  0.809737  0.565789  1
  O  O17  1  0.829801  0.571560  0.426657  1
  O  O18  1  0.586786  0.418641  0.819876  1
