# generated using pymatgen
data_Ho5ErRh18
_symmetry_space_group_name_H-M   'P 1'
_cell_length_a   5.26110300
_cell_length_b   5.26110288
_cell_length_c   17.57504100
_cell_angle_alpha   90.00000000
_cell_angle_beta   90.00000000
_cell_angle_gamma   119.99999447
_symmetry_Int_Tables_number   1
_chemical_formula_structural   Ho5ErRh18
_chemical_formula_sum   'Ho5 Er1 Rh18'
_cell_volume   421.28946740
_cell_formula_units_Z   1
loop_
 _symmetry_equiv_pos_site_id
 _symmetry_equiv_pos_as_xyz
  1  'x, y, z'
loop_
 _atom_site_type_symbol
 _atom_site_label
 _atom_site_symmetry_multiplicity
 _atom_site_fract_x
 _atom_site_fract_y
 _atom_site_fract_z
 _atom_site_occupancy
  Ho  Ho0  1  0.333333  0.666666  0.041733  1
  Ho  Ho1  1  0.333333  0.666666  0.249976  1
  Ho  Ho2  1  0.333333  0.666666  0.458135  1
  Ho  Ho3  1  0.666667  0.333334  0.541881  1
  Ho  Ho4  1  0.666667  0.333334  0.750079  1
  Er  Er5  1  0.666667  0.333334  0.958037  1
  Rh  Rh6  1  0.000000  0.000000  0.999888  1
  Rh  Rh7  1  0.334619  0.167310  0.125352  1
  Rh  Rh8  1  0.832689  0.167310  0.125352  1
  Rh  Rh9  1  0.832690  0.665381  0.125352  1
  Rh  Rh10  1  0.000000  0.000000  0.249915  1
  Rh  Rh11  1  0.666667  0.333334  0.249969  1
  Rh  Rh12  1  0.334578  0.167289  0.374497  1
  Rh  Rh13  1  0.832710  0.167289  0.374497  1
  Rh  Rh14  1  0.832711  0.665422  0.374497  1
  Rh  Rh15  1  0.000000  0.000000  0.500035  1
  Rh  Rh16  1  0.167292  0.334582  0.625614  1
  Rh  Rh17  1  0.167293  0.832708  0.625614  1
  Rh  Rh18  1  0.665418  0.832708  0.625614  1
  Rh  Rh19  1  0.000000  0.000000  0.750070  1
  Rh  Rh20  1  0.333333  0.666666  0.750072  1
  Rh  Rh21  1  0.167311  0.334622  0.874607  1
  Rh  Rh22  1  0.167312  0.832689  0.874607  1
  Rh  Rh23  1  0.665378  0.832689  0.874607  1
