# generated using pymatgen
data_Ho2Pa(SnIr)3
_symmetry_space_group_name_H-M   'P 1'
_cell_length_a   7.45421304
_cell_length_b   7.45421267
_cell_length_c   3.96089800
_cell_angle_alpha   90.00000000
_cell_angle_beta   90.00000000
_cell_angle_gamma   119.12959278
_symmetry_Int_Tables_number   1
_chemical_formula_structural   Ho2Pa(SnIr)3
_chemical_formula_sum   'Ho2 Pa1 Sn3 Ir3'
_cell_volume   192.25185894
_cell_formula_units_Z   1
loop_
 _symmetry_equiv_pos_site_id
 _symmetry_equiv_pos_as_xyz
  1  'x, y, z'
loop_
 _atom_site_type_symbol
 _atom_site_label
 _atom_site_symmetry_multiplicity
 _atom_site_fract_x
 _atom_site_fract_y
 _atom_site_fract_z
 _atom_site_occupancy
  Ho  Ho0  1  0.595875  0.000032  0.500000  1
  Ho  Ho1  1  0.000032  0.595875  0.500000  1
  Pa  Pa2  1  0.412128  0.412128  0.500000  1
  Sn  Sn3  1  0.754454  0.754454  0.000000  1
  Sn  Sn4  1  0.257005  0.987264  0.000000  1
  Sn  Sn5  1  0.987264  0.257005  0.000000  1
  Ir  Ir6  1  0.644125  0.336237  0.000000  1
  Ir  Ir7  1  0.336237  0.644125  0.000000  1
  Ir  Ir8  1  0.012878  0.012878  0.500000  1
