# generated using pymatgen
data_Zr3Sc5(P3Ir4)4
_symmetry_space_group_name_H-M   'P 1'
_cell_length_a   12.81846900
_cell_length_b   12.81846806
_cell_length_c   3.91352300
_cell_angle_alpha   90.00000000
_cell_angle_beta   90.00000000
_cell_angle_gamma   119.99999983
_symmetry_Int_Tables_number   1
_chemical_formula_structural   Zr3Sc5(P3Ir4)4
_chemical_formula_sum   'Zr3 Sc5 P12 Ir16'
_cell_volume   556.89177820
_cell_formula_units_Z   1
loop_
 _symmetry_equiv_pos_site_id
 _symmetry_equiv_pos_as_xyz
  1  'x, y, z'
loop_
 _atom_site_type_symbol
 _atom_site_label
 _atom_site_symmetry_multiplicity
 _atom_site_fract_x
 _atom_site_fract_y
 _atom_site_fract_z
 _atom_site_occupancy
  Zr  Zr0  1  0.449961  0.000000  0.000000  1
  Zr  Zr1  1  0.000000  0.449961  0.000000  1
  Zr  Zr2  1  0.550039  0.550039  0.000000  1
  Sc  Sc3  1  0.333333  0.666667  0.000000  1
  Sc  Sc4  1  0.666667  0.333333  0.000000  1
  Sc  Sc5  1  0.816694  0.000000  0.500000  1
  Sc  Sc6  1  0.000000  0.816694  0.500000  1
  Sc  Sc7  1  0.183306  0.183306  0.500000  1
  P  P8  1  0.173756  0.000000  0.000000  1
  P  P9  1  0.000000  0.173756  0.000000  1
  P  P10  1  0.826244  0.826244  0.000000  1
  P  P11  1  0.171111  0.483928  0.500000  1
  P  P12  1  0.516072  0.687182  0.500000  1
  P  P13  1  0.312818  0.828889  0.500000  1
  P  P14  1  0.687182  0.516072  0.500000  1
  P  P15  1  0.828889  0.312818  0.500000  1
  P  P16  1  0.483928  0.171111  0.500000  1
  P  P17  1  0.652970  0.000000  0.000000  1
  P  P18  1  0.000000  0.652970  0.000000  1
  P  P19  1  0.347030  0.347030  0.000000  1
  Ir  Ir20  1  0.356740  0.494768  0.500000  1
  Ir  Ir21  1  0.505232  0.861972  0.500000  1
  Ir  Ir22  1  0.138028  0.643260  0.500000  1
  Ir  Ir23  1  0.861972  0.505232  0.500000  1
  Ir  Ir24  1  0.643260  0.138028  0.500000  1
  Ir  Ir25  1  0.494768  0.356740  0.500000  1
  Ir  Ir26  1  0.178057  0.368177  0.000000  1
  Ir  Ir27  1  0.631823  0.809881  0.000000  1
  Ir  Ir28  1  0.190119  0.821943  0.000000  1
  Ir  Ir29  1  0.809881  0.631823  0.000000  1
  Ir  Ir30  1  0.821943  0.190119  0.000000  1
  Ir  Ir31  1  0.368177  0.178057  0.000000  1
  Ir  Ir32  1  0.276529  0.000000  0.500000  1
  Ir  Ir33  1  0.000000  0.276529  0.500000  1
  Ir  Ir34  1  0.723471  0.723471  0.500000  1
  Ir  Ir35  1  0.000000  0.000000  0.000000  1
