# generated using pymatgen
data_ReMo(IrRu)3
_symmetry_space_group_name_H-M   'P 1'
_cell_length_a   5.51900628
_cell_length_b   5.50716063
_cell_length_c   4.38717000
_cell_angle_alpha   90.00000000
_cell_angle_beta   90.00000000
_cell_angle_gamma   120.21410829
_symmetry_Int_Tables_number   1
_chemical_formula_structural   ReMo(IrRu)3
_chemical_formula_sum   'Re1 Mo1 Ir3 Ru3'
_cell_volume   115.22923786
_cell_formula_units_Z   1
loop_
 _symmetry_equiv_pos_site_id
 _symmetry_equiv_pos_as_xyz
  1  'x, y, z'
loop_
 _atom_site_type_symbol
 _atom_site_label
 _atom_site_symmetry_multiplicity
 _atom_site_fract_x
 _atom_site_fract_y
 _atom_site_fract_z
 _atom_site_occupancy
  Re  Re0  1  0.665691  0.331295  0.250000  1
  Mo  Mo1  1  0.332167  0.668184  0.750000  1
  Ir  Ir2  1  0.164998  0.331532  0.250000  1
  Ir  Ir3  1  0.668973  0.836083  0.250000  1
  Ir  Ir4  1  0.833638  0.664696  0.750000  1
  Ru  Ru5  1  0.167481  0.835117  0.250000  1
  Ru  Ru6  1  0.335628  0.165630  0.750000  1
  Ru  Ru7  1  0.831426  0.167463  0.750000  1
