# generated using pymatgen
data_Y4Co2Sn5
_symmetry_space_group_name_H-M   'P 1'
_cell_length_a   7.28797255
_cell_length_b   7.28797256
_cell_length_c   10.59854173
_cell_angle_alpha   54.06454615
_cell_angle_beta   54.06454674
_cell_angle_gamma   35.62082331
_symmetry_Int_Tables_number   1
_chemical_formula_structural   Y4Co2Sn5
_chemical_formula_sum   'Y4 Co2 Sn5'
_cell_volume   258.16747474
_cell_formula_units_Z   1
loop_
 _symmetry_equiv_pos_site_id
 _symmetry_equiv_pos_as_xyz
  1  'x, y, z'
loop_
 _atom_site_type_symbol
 _atom_site_label
 _atom_site_symmetry_multiplicity
 _atom_site_fract_x
 _atom_site_fract_y
 _atom_site_fract_z
 _atom_site_occupancy
  Y  Y0  1  0.935985  0.935985  0.717305  1
  Y  Y1  1  0.064015  0.064015  0.282695  1
  Y  Y2  1  0.327219  0.327219  0.288254  1
  Y  Y3  1  0.672781  0.672781  0.711746  1
  Co  Co4  1  0.773172  0.773172  0.141797  1
  Co  Co5  1  0.226828  0.226828  0.858203  1
  Sn  Sn6  1  0.650674  0.650674  0.026443  1
  Sn  Sn7  1  0.349326  0.349326  0.973557  1
  Sn  Sn8  1  0.626674  0.626674  0.450603  1
  Sn  Sn9  1  0.373326  0.373326  0.549397  1
  Sn  Sn10  1  0.000000  0.000000  0.000000  1
