# generated using pymatgen
data_In6Si2PtO9
_symmetry_space_group_name_H-M   'P 1'
_cell_length_a   7.13757451
_cell_length_b   7.13757415
_cell_length_c   7.13757400
_cell_angle_alpha   60.00000070
_cell_angle_beta   60.00000239
_cell_angle_gamma   60.00000258
_symmetry_Int_Tables_number   1
_chemical_formula_structural   In6Si2PtO9
_chemical_formula_sum   'In6 Si2 Pt1 O9'
_cell_volume   257.12063560
_cell_formula_units_Z   1
loop_
 _symmetry_equiv_pos_site_id
 _symmetry_equiv_pos_as_xyz
  1  'x, y, z'
loop_
 _atom_site_type_symbol
 _atom_site_label
 _atom_site_symmetry_multiplicity
 _atom_site_fract_x
 _atom_site_fract_y
 _atom_site_fract_z
 _atom_site_occupancy
  In  In0  1  0.260325  0.260325  0.739675  1
  In  In1  1  0.739675  0.260325  0.739675  1
  In  In2  1  0.260325  0.739675  0.260325  1
  In  In3  1  0.739675  0.739675  0.260325  1
  In  In4  1  0.260325  0.739675  0.739675  1
  In  In5  1  0.739675  0.260325  0.260325  1
  Si  Si6  1  0.250000  0.250000  0.250000  1
  Si  Si7  1  0.750000  0.750000  0.750000  1
  Pt  Pt8  1  0.000000  0.000000  0.000000  1
  O  O9  1  0.500000  0.500000  0.500000  1
  O  O10  1  0.655168  0.034495  0.655168  1
  O  O11  1  0.344832  0.344832  0.344832  1
  O  O12  1  0.965505  0.344832  0.344832  1
  O  O13  1  0.344832  0.344832  0.965505  1
  O  O14  1  0.344832  0.965505  0.344832  1
  O  O15  1  0.655168  0.655168  0.034495  1
  O  O16  1  0.655168  0.655168  0.655168  1
  O  O17  1  0.034495  0.655168  0.655168  1
