# generated using pymatgen
data_Tm4Lu8TlInFe2Ru
_symmetry_space_group_name_H-M   'P 1'
_cell_length_a   8.18785008
_cell_length_b   8.18785034
_cell_length_c   8.18785000
_cell_angle_alpha   108.32495627
_cell_angle_beta   108.61887271
_cell_angle_gamma   111.48899826
_symmetry_Int_Tables_number   1
_chemical_formula_structural   Tm4Lu8TlInFe2Ru
_chemical_formula_sum   'Tm4 Lu8 Tl1 In1 Fe2 Ru1'
_cell_volume   422.16212154
_cell_formula_units_Z   1
loop_
 _symmetry_equiv_pos_site_id
 _symmetry_equiv_pos_as_xyz
  1  'x, y, z'
loop_
 _atom_site_type_symbol
 _atom_site_label
 _atom_site_symmetry_multiplicity
 _atom_site_fract_x
 _atom_site_fract_y
 _atom_site_fract_z
 _atom_site_occupancy
  Tm  Tm0  1  0.306855  0.307822  0.614679  1
  Tm  Tm1  1  0.693145  0.692178  0.385321  1
  Tm  Tm2  1  0.693145  0.307822  0.000967  1
  Tm  Tm3  1  0.306855  0.692178  0.999033  1
  Lu  Lu4  1  0.191904  0.428730  0.236826  1
  Lu  Lu5  1  0.808096  0.571270  0.763174  1
  Lu  Lu6  1  0.191904  0.955077  0.763174  1
  Lu  Lu7  1  0.953901  0.192529  0.761373  1
  Lu  Lu8  1  0.808096  0.044923  0.236826  1
  Lu  Lu9  1  0.046099  0.807471  0.238627  1
  Lu  Lu10  1  0.431156  0.192529  0.238627  1
  Lu  Lu11  1  0.568844  0.807471  0.761373  1
  Tl  Tl12  1  0.500000  0.000000  0.500000  1
  In  In13  1  0.000000  0.500000  0.500000  1
  Fe  Fe14  1  0.383344  0.383344  0.000000  1
  Fe  Fe15  1  0.616656  0.616656  0.000000  1
  Ru  Ru16  1  0.000000  0.000000  0.000000  1
