# generated using pymatgen
data_Tb2YZn2Co9B4
_symmetry_space_group_name_H-M   'P 1'
_cell_length_a   5.12041901
_cell_length_b   5.12374094
_cell_length_c   9.69167700
_cell_angle_alpha   89.99993717
_cell_angle_beta   90.00011464
_cell_angle_gamma   119.97720620
_symmetry_Int_Tables_number   1
_chemical_formula_structural   Tb2YZn2Co9B4
_chemical_formula_sum   'Tb2 Y1 Zn2 Co9 B4'
_cell_volume   220.25305110
_cell_formula_units_Z   1
loop_
 _symmetry_equiv_pos_site_id
 _symmetry_equiv_pos_as_xyz
  1  'x, y, z'
loop_
 _atom_site_type_symbol
 _atom_site_label
 _atom_site_symmetry_multiplicity
 _atom_site_fract_x
 _atom_site_fract_y
 _atom_site_fract_z
 _atom_site_occupancy
  Tb  Tb0  1  0.999996  0.000001  0.342180  1
  Tb  Tb1  1  0.000001  0.000000  0.658076  1
  Y  Y2  1  0.999986  0.999999  0.999851  1
  Zn  Zn3  1  0.333271  0.666602  0.999859  1
  Zn  Zn4  1  0.666703  0.333397  0.999859  1
  Co  Co5  1  0.499998  0.000000  0.500106  1
  Co  Co6  1  0.499998  0.500001  0.500120  1
  Co  Co7  1  0.999997  0.499999  0.500091  1
  Co  Co8  1  0.499993  0.000001  0.210448  1
  Co  Co9  1  0.499992  0.500000  0.210434  1
  Co  Co10  1  0.999992  0.499999  0.210428  1
  Co  Co11  1  0.500000  0.000000  0.789478  1
  Co  Co12  1  0.499998  0.500001  0.789453  1
  Co  Co13  1  0.999996  0.499999  0.789497  1
  B  B14  1  0.333270  0.666524  0.350791  1
  B  B15  1  0.666718  0.333477  0.350791  1
  B  B16  1  0.666645  0.333401  0.649270  1
  B  B17  1  0.333347  0.666599  0.649270  1
