# generated using pymatgen
data_PrNd(Be11Cu2)2
_symmetry_space_group_name_H-M   'P 1'
_cell_length_a   7.45243323
_cell_length_b   7.45059831
_cell_length_c   7.42146566
_cell_angle_alpha   60.14559071
_cell_angle_beta   60.12103674
_cell_angle_gamma   59.73337156
_symmetry_Int_Tables_number   1
_chemical_formula_structural   PrNd(Be11Cu2)2
_chemical_formula_sum   'Pr1 Nd1 Be22 Cu4'
_cell_volume   291.37334127
_cell_formula_units_Z   1
loop_
 _symmetry_equiv_pos_site_id
 _symmetry_equiv_pos_as_xyz
  1  'x, y, z'
loop_
 _atom_site_type_symbol
 _atom_site_label
 _atom_site_symmetry_multiplicity
 _atom_site_fract_x
 _atom_site_fract_y
 _atom_site_fract_z
 _atom_site_occupancy
  Pr  Pr0  1  0.500000  0.500000  0.500000  1
  Nd  Nd1  1  0.000000  0.000000  0.000000  1
  Be  Be2  1  0.028740  0.681573  0.470398  1
  Be  Be3  1  0.470398  0.819290  0.028740  1
  Be  Be4  1  0.681573  0.028740  0.819290  1
  Be  Be5  1  0.819290  0.470398  0.681573  1
  Be  Be6  1  0.953329  0.547045  0.310540  1
  Be  Be7  1  0.547045  0.953329  0.189086  1
  Be  Be8  1  0.189086  0.310540  0.547045  1
  Be  Be9  1  0.310540  0.189086  0.953329  1
  Be  Be10  1  0.465884  0.033782  0.683947  1
  Be  Be11  1  0.033782  0.465884  0.816387  1
  Be  Be12  1  0.816387  0.683947  0.033782  1
  Be  Be13  1  0.683947  0.816387  0.465884  1
  Be  Be14  1  0.318271  0.958117  0.542766  1
  Be  Be15  1  0.180846  0.542766  0.958117  1
  Be  Be16  1  0.542766  0.180846  0.318271  1
  Be  Be17  1  0.958117  0.318271  0.180846  1
  Be  Be18  1  0.690284  0.465535  0.033684  1
  Be  Be19  1  0.810496  0.033684  0.465535  1
  Be  Be20  1  0.033684  0.810496  0.690284  1
  Be  Be21  1  0.465535  0.690284  0.810496  1
  Be  Be22  1  0.250000  0.250000  0.250000  1
  Be  Be23  1  0.750000  0.750000  0.750000  1
  Cu  Cu24  1  0.552283  0.307944  0.948535  1
  Cu  Cu25  1  0.948535  0.191237  0.552283  1
  Cu  Cu26  1  0.307944  0.552283  0.191237  1
  Cu  Cu27  1  0.191237  0.948535  0.307944  1
