# generated using pymatgen
data_Nd6Cd(SiS7)2
_symmetry_space_group_name_H-M   'P 1'
_cell_length_a   10.27993500
_cell_length_b   10.27993401
_cell_length_c   5.71976700
_cell_angle_alpha   90.00000000
_cell_angle_beta   90.00000000
_cell_angle_gamma   119.99999998
_symmetry_Int_Tables_number   1
_chemical_formula_structural   Nd6Cd(SiS7)2
_chemical_formula_sum   'Nd6 Cd1 Si2 S14'
_cell_volume   523.46742955
_cell_formula_units_Z   1
loop_
 _symmetry_equiv_pos_site_id
 _symmetry_equiv_pos_as_xyz
  1  'x, y, z'
loop_
 _atom_site_type_symbol
 _atom_site_label
 _atom_site_symmetry_multiplicity
 _atom_site_fract_x
 _atom_site_fract_y
 _atom_site_fract_z
 _atom_site_occupancy
  Nd  Nd0  1  0.876632  0.234795  0.248871  1
  Nd  Nd1  1  0.765205  0.641838  0.248871  1
  Nd  Nd2  1  0.358162  0.123368  0.248871  1
  Nd  Nd3  1  0.123539  0.765432  0.751111  1
  Nd  Nd4  1  0.234568  0.358106  0.751111  1
  Nd  Nd5  1  0.641894  0.876461  0.751111  1
  Cd  Cd6  1  0.000000  0.000000  0.489246  1
  Si  Si7  1  0.666667  0.333333  0.835474  1
  Si  Si8  1  0.333333  0.666667  0.339253  1
  S  S9  1  0.666667  0.333333  0.467161  1
  S  S10  1  0.333333  0.666667  0.970294  1
  S  S11  1  0.911843  0.167709  0.731315  1
  S  S12  1  0.832291  0.744134  0.731315  1
  S  S13  1  0.255866  0.088157  0.731315  1
  S  S14  1  0.086028  0.830600  0.240908  1
  S  S15  1  0.169400  0.255428  0.240908  1
  S  S16  1  0.744572  0.913972  0.240908  1
  S  S17  1  0.591114  0.114200  0.981694  1
  S  S18  1  0.885800  0.476915  0.981694  1
  S  S19  1  0.523085  0.408886  0.981694  1
  S  S20  1  0.409136  0.885981  0.484178  1
  S  S21  1  0.114019  0.523154  0.484178  1
  S  S22  1  0.476846  0.590864  0.484178  1
