# generated using pymatgen
data_Sm5Ho(ZnAu5)2
_symmetry_space_group_name_H-M   'P 1'
_cell_length_a   8.55009565
_cell_length_b   8.55009650
_cell_length_c   13.52693500
_cell_angle_alpha   90.05294607
_cell_angle_beta   89.94705392
_cell_angle_gamma   127.13142602
_symmetry_Int_Tables_number   1
_chemical_formula_structural   Sm5Ho(ZnAu5)2
_chemical_formula_sum   'Sm10 Ho2 Zn4 Au20'
_cell_volume   788.38308967
_cell_formula_units_Z   2
loop_
 _symmetry_equiv_pos_site_id
 _symmetry_equiv_pos_as_xyz
  1  'x, y, z'
loop_
 _atom_site_type_symbol
 _atom_site_label
 _atom_site_symmetry_multiplicity
 _atom_site_fract_x
 _atom_site_fract_y
 _atom_site_fract_z
 _atom_site_occupancy
  Sm  Sm0  1  0.927917  0.072083  0.251133  1
  Sm  Sm1  1  0.072083  0.927917  0.748867  1
  Sm  Sm2  1  0.319788  0.680212  0.251144  1
  Sm  Sm3  1  0.680212  0.319788  0.748856  1
  Sm  Sm4  1  0.630659  0.369341  0.038619  1
  Sm  Sm5  1  0.369341  0.630659  0.961381  1
  Sm  Sm6  1  0.881802  0.118198  0.950845  1
  Sm  Sm7  1  0.118198  0.881802  0.049155  1
  Sm  Sm8  1  0.881577  0.118423  0.548968  1
  Sm  Sm9  1  0.118423  0.881577  0.451032  1
  Ho  Ho10  1  0.630630  0.369370  0.462086  1
  Ho  Ho11  1  0.369370  0.630630  0.537914  1
  Zn  Zn12  1  0.720323  0.279677  0.251513  1
  Zn  Zn13  1  0.279677  0.720323  0.748487  1
  Zn  Zn14  1  0.533143  0.466857  0.250875  1
  Zn  Zn15  1  0.466857  0.533143  0.749125  1
  Au  Au16  1  0.319816  0.066479  0.250233  1
  Au  Au17  1  0.066479  0.319816  0.749767  1
  Au  Au18  1  0.680184  0.933521  0.749767  1
  Au  Au19  1  0.933521  0.680184  0.250233  1
  Au  Au20  1  0.569311  0.004598  0.397945  1
  Au  Au21  1  0.004598  0.569311  0.602055  1
  Au  Au22  1  0.569718  0.003123  0.104057  1
  Au  Au23  1  0.003123  0.569718  0.895943  1
  Au  Au24  1  0.430689  0.995402  0.602055  1
  Au  Au25  1  0.995402  0.430689  0.397945  1
  Au  Au26  1  0.430282  0.996877  0.895943  1
  Au  Au27  1  0.996877  0.430282  0.104057  1
  Au  Au28  1  0.682692  0.738315  0.396033  1
  Au  Au29  1  0.738315  0.682692  0.603967  1
  Au  Au30  1  0.686958  0.742379  0.106094  1
  Au  Au31  1  0.742379  0.686958  0.893906  1
  Au  Au32  1  0.317308  0.261685  0.603967  1
  Au  Au33  1  0.261685  0.317308  0.396033  1
  Au  Au34  1  0.313042  0.257621  0.893906  1
  Au  Au35  1  0.257621  0.313042  0.106094  1
