# generated using pymatgen
data_Sm3ZnCo9SiB4
_symmetry_space_group_name_H-M   'P 1'
_cell_length_a   5.16907000
_cell_length_b   5.16906869
_cell_length_c   9.51572200
_cell_angle_alpha   90.00000000
_cell_angle_beta   90.00000000
_cell_angle_gamma   119.99999558
_symmetry_Int_Tables_number   1
_chemical_formula_structural   Sm3ZnCo9SiB4
_chemical_formula_sum   'Sm3 Zn1 Co9 Si1 B4'
_cell_volume   220.18975779
_cell_formula_units_Z   1
loop_
 _symmetry_equiv_pos_site_id
 _symmetry_equiv_pos_as_xyz
  1  'x, y, z'
loop_
 _atom_site_type_symbol
 _atom_site_label
 _atom_site_symmetry_multiplicity
 _atom_site_fract_x
 _atom_site_fract_y
 _atom_site_fract_z
 _atom_site_occupancy
  Sm  Sm0  1  0.000000  0.000000  0.000000  1
  Sm  Sm1  1  0.000000  0.000000  0.659686  1
  Sm  Sm2  1  0.000000  0.000000  0.340314  1
  Zn  Zn3  1  0.666667  0.333333  0.000000  1
  Co  Co4  1  0.500708  0.499292  0.500000  1
  Co  Co5  1  0.500708  0.001416  0.500000  1
  Co  Co6  1  0.998584  0.499292  0.500000  1
  Co  Co7  1  0.497283  0.502717  0.796249  1
  Co  Co8  1  0.497283  0.994565  0.796249  1
  Co  Co9  1  0.005435  0.502717  0.796249  1
  Co  Co10  1  0.497283  0.502717  0.203751  1
  Co  Co11  1  0.497283  0.994565  0.203751  1
  Co  Co12  1  0.005435  0.502717  0.203751  1
  Si  Si13  1  0.333333  0.666667  0.000000  1
  B  B14  1  0.666667  0.333333  0.653963  1
  B  B15  1  0.333333  0.666667  0.650299  1
  B  B16  1  0.333333  0.666667  0.349701  1
  B  B17  1  0.666667  0.333333  0.346037  1
