# generated using pymatgen
data_Na2La3Tc3(P3Ir4)4
_symmetry_space_group_name_H-M   'P 1'
_cell_length_a   12.68190600
_cell_length_b   12.68190894
_cell_length_c   4.06020400
_cell_angle_alpha   90.00000000
_cell_angle_beta   90.00000000
_cell_angle_gamma   120.00000278
_symmetry_Int_Tables_number   1
_chemical_formula_structural   Na2La3Tc3(P3Ir4)4
_chemical_formula_sum   'Na2 La3 Tc3 P12 Ir16'
_cell_volume   565.51956481
_cell_formula_units_Z   1
loop_
 _symmetry_equiv_pos_site_id
 _symmetry_equiv_pos_as_xyz
  1  'x, y, z'
loop_
 _atom_site_type_symbol
 _atom_site_label
 _atom_site_symmetry_multiplicity
 _atom_site_fract_x
 _atom_site_fract_y
 _atom_site_fract_z
 _atom_site_occupancy
  Na  Na0  1  0.333333  0.666667  0.000000  1
  Na  Na1  1  0.666667  0.333333  0.000000  1
  La  La2  1  0.000000  0.818095  0.500000  1
  La  La3  1  0.181905  0.181905  0.500000  1
  La  La4  1  0.818095  0.000000  0.500000  1
  Tc  Tc5  1  0.000000  0.297383  0.500000  1
  Tc  Tc6  1  0.702617  0.702617  0.500000  1
  Tc  Tc7  1  0.297383  0.000000  0.500000  1
  P  P8  1  0.000000  0.187993  0.000000  1
  P  P9  1  0.812007  0.812007  0.000000  1
  P  P10  1  0.187993  0.000000  0.000000  1
  P  P11  1  0.514266  0.692047  0.500000  1
  P  P12  1  0.307953  0.822220  0.500000  1
  P  P13  1  0.177780  0.485734  0.500000  1
  P  P14  1  0.485734  0.177780  0.500000  1
  P  P15  1  0.692047  0.514266  0.500000  1
  P  P16  1  0.822220  0.307953  0.500000  1
  P  P17  1  0.000000  0.632937  0.000000  1
  P  P18  1  0.367063  0.367063  0.000000  1
  P  P19  1  0.632937  0.000000  0.000000  1
  Ir  Ir20  1  0.619513  0.803662  0.000000  1
  Ir  Ir21  1  0.196338  0.815851  0.000000  1
  Ir  Ir22  1  0.184149  0.380487  0.000000  1
  Ir  Ir23  1  0.380487  0.184149  0.000000  1
  Ir  Ir24  1  0.803662  0.619513  0.000000  1
  Ir  Ir25  1  0.815851  0.196338  0.000000  1
  Ir  Ir26  1  0.507678  0.871616  0.500000  1
  Ir  Ir27  1  0.128384  0.636063  0.500000  1
  Ir  Ir28  1  0.363937  0.492322  0.500000  1
  Ir  Ir29  1  0.492322  0.363937  0.500000  1
  Ir  Ir30  1  0.871616  0.507678  0.500000  1
  Ir  Ir31  1  0.636063  0.128384  0.500000  1
  Ir  Ir32  1  0.000000  0.000000  0.000000  1
  Ir  Ir33  1  0.000000  0.453579  0.000000  1
  Ir  Ir34  1  0.546421  0.546421  0.000000  1
  Ir  Ir35  1  0.453579  0.000000  0.000000  1
