# generated using pymatgen
data_Hf9TaReAsW2
_symmetry_space_group_name_H-M   'P 1'
_cell_length_a   8.66536800
_cell_length_b   8.72209624
_cell_length_c   8.74197600
_cell_angle_alpha   90.00000000
_cell_angle_beta   90.00000000
_cell_angle_gamma   119.78542772
_symmetry_Int_Tables_number   1
_chemical_formula_structural   Hf9TaReAsW2
_chemical_formula_sum   'Hf18 Ta2 Re2 As2 W4'
_cell_volume   573.43354054
_cell_formula_units_Z   2
loop_
 _symmetry_equiv_pos_site_id
 _symmetry_equiv_pos_as_xyz
  1  'x, y, z'
loop_
 _atom_site_type_symbol
 _atom_site_label
 _atom_site_symmetry_multiplicity
 _atom_site_fract_x
 _atom_site_fract_y
 _atom_site_fract_z
 _atom_site_occupancy
  Hf  Hf0  1  0.195277  0.390553  0.048262  1
  Hf  Hf1  1  0.804723  0.609447  0.548262  1
  Hf  Hf2  1  0.610248  0.805425  0.045493  1
  Hf  Hf3  1  0.195176  0.805424  0.045494  1
  Hf  Hf4  1  0.804824  0.194576  0.545494  1
  Hf  Hf5  1  0.389752  0.194575  0.545493  1
  Hf  Hf6  1  0.804723  0.609447  0.951738  1
  Hf  Hf7  1  0.804824  0.194576  0.954506  1
  Hf  Hf8  1  0.389752  0.194575  0.954507  1
  Hf  Hf9  1  0.610248  0.805425  0.454507  1
  Hf  Hf10  1  0.195176  0.805424  0.454506  1
  Hf  Hf11  1  0.195277  0.390553  0.451738  1
  Hf  Hf12  1  0.540105  0.080217  0.250000  1
  Hf  Hf13  1  0.459895  0.919783  0.750000  1
  Hf  Hf14  1  0.920016  0.458403  0.250000  1
  Hf  Hf15  1  0.538385  0.458402  0.250000  1
  Hf  Hf16  1  0.461615  0.541598  0.750000  1
  Hf  Hf17  1  0.079984  0.541597  0.750000  1
  Ta  Ta18  1  0.890562  0.781123  0.250000  1
  Ta  Ta19  1  0.109438  0.218877  0.750000  1
  Re  Re20  1  0.000000  0.000000  0.000000  1
  Re  Re21  1  0.000000  0.000000  0.500000  1
  As  As22  1  0.333387  0.666786  0.250000  1
  As  As23  1  0.666613  0.333214  0.750000  1
  W  W24  1  0.219713  0.110843  0.250000  1
  W  W25  1  0.891132  0.110842  0.250000  1
  W  W26  1  0.108868  0.889158  0.750000  1
  W  W27  1  0.780287  0.889157  0.750000  1
