# generated using pymatgen
data_Mn2Fe2Br7F
_symmetry_space_group_name_H-M   'P 1'
_cell_length_a   7.81463254
_cell_length_b   7.80605229
_cell_length_c   7.80605270
_cell_angle_alpha   58.77762895
_cell_angle_beta   57.92609114
_cell_angle_gamma   57.92608790
_symmetry_Int_Tables_number   1
_chemical_formula_structural   Mn2Fe2Br7F
_chemical_formula_sum   'Mn2 Fe2 Br7 F1'
_cell_volume   322.84959055
_cell_formula_units_Z   1
loop_
 _symmetry_equiv_pos_site_id
 _symmetry_equiv_pos_as_xyz
  1  'x, y, z'
loop_
 _atom_site_type_symbol
 _atom_site_label
 _atom_site_symmetry_multiplicity
 _atom_site_fract_x
 _atom_site_fract_y
 _atom_site_fract_z
 _atom_site_occupancy
  Mn  Mn0  1  0.136319  0.135605  0.616203  1
  Mn  Mn1  1  0.136319  0.616203  0.135605  1
  Fe  Fe2  1  0.610802  0.137558  0.137558  1
  Fe  Fe3  1  0.127843  0.127971  0.127971  1
  Br  Br4  1  0.376501  0.371122  0.882737  1
  Br  Br5  1  0.881562  0.890084  0.890084  1
  Br  Br6  1  0.877344  0.885427  0.369570  1
  Br  Br7  1  0.374060  0.881568  0.881568  1
  Br  Br8  1  0.376501  0.882737  0.371122  1
  Br  Br9  1  0.877344  0.369570  0.885427  1
  Br  Br10  1  0.880742  0.373716  0.373716  1
  F  F11  1  0.344661  0.328439  0.328439  1
