# generated using pymatgen
data_Er16In6TcPt
_symmetry_space_group_name_H-M   'P 1'
_cell_length_a   10.35280800
_cell_length_b   10.35280687
_cell_length_c   7.00124800
_cell_angle_alpha   90.00000000
_cell_angle_beta   90.00000000
_cell_angle_gamma   119.99999722
_symmetry_Int_Tables_number   1
_chemical_formula_structural   Er16In6TcPt
_chemical_formula_sum   'Er16 In6 Tc1 Pt1'
_cell_volume   649.86384773
_cell_formula_units_Z   1
loop_
 _symmetry_equiv_pos_site_id
 _symmetry_equiv_pos_as_xyz
  1  'x, y, z'
loop_
 _atom_site_type_symbol
 _atom_site_label
 _atom_site_symmetry_multiplicity
 _atom_site_fract_x
 _atom_site_fract_y
 _atom_site_fract_z
 _atom_site_occupancy
  Er  Er0  1  0.529320  0.058639  0.795365  1
  Er  Er1  1  0.941361  0.470680  0.795365  1
  Er  Er2  1  0.529320  0.470680  0.795365  1
  Er  Er3  1  0.466915  0.933831  0.294131  1
  Er  Er4  1  0.066169  0.533085  0.294131  1
  Er  Er5  1  0.466915  0.533085  0.294131  1
  Er  Er6  1  0.824529  0.649059  0.500394  1
  Er  Er7  1  0.350941  0.175471  0.500394  1
  Er  Er8  1  0.824529  0.175471  0.500394  1
  Er  Er9  1  0.176256  0.352512  0.001038  1
  Er  Er10  1  0.647488  0.823744  0.001038  1
  Er  Er11  1  0.176256  0.823744  0.001038  1
  Er  Er12  1  0.666667  0.333333  0.170313  1
  Er  Er13  1  0.333333  0.666667  0.668565  1
  Er  Er14  1  0.000000  0.000000  0.776801  1
  Er  Er15  1  0.000000  0.000000  0.276573  1
  In  In16  1  0.836687  0.673373  0.039040  1
  In  In17  1  0.326627  0.163313  0.039040  1
  In  In18  1  0.836687  0.163313  0.039040  1
  In  In19  1  0.162873  0.325747  0.539291  1
  In  In20  1  0.674253  0.837127  0.539291  1
  In  In21  1  0.162873  0.837127  0.539291  1
  Tc  Tc22  1  0.333333  0.666667  0.067123  1
  Pt  Pt23  1  0.666667  0.333333  0.568753  1
