# generated using pymatgen
data_Er3Lu2Zr(SnIr)6
_symmetry_space_group_name_H-M   'P 1'
_cell_length_a   7.46397073
_cell_length_b   7.52342413
_cell_length_c   7.69497900
_cell_angle_alpha   90.00000000
_cell_angle_beta   90.00000000
_cell_angle_gamma   120.29874032
_symmetry_Int_Tables_number   1
_chemical_formula_structural   Er3Lu2Zr(SnIr)6
_chemical_formula_sum   'Er3 Lu2 Zr1 Sn6 Ir6'
_cell_volume   373.08543770
_cell_formula_units_Z   1
loop_
 _symmetry_equiv_pos_site_id
 _symmetry_equiv_pos_as_xyz
  1  'x, y, z'
loop_
 _atom_site_type_symbol
 _atom_site_label
 _atom_site_symmetry_multiplicity
 _atom_site_fract_x
 _atom_site_fract_y
 _atom_site_fract_z
 _atom_site_occupancy
  Er  Er0  1  0.597494  0.593523  0.750000  1
  Er  Er1  1  0.000804  0.408226  0.750000  1
  Er  Er2  1  0.402734  0.996173  0.750000  1
  Lu  Lu3  1  0.403119  0.003391  0.250000  1
  Lu  Lu4  1  0.598046  0.599083  0.250000  1
  Zr  Zr5  1  0.999194  0.397691  0.250000  1
  Sn  Sn6  1  0.265859  0.263757  0.500285  1
  Sn  Sn7  1  0.265859  0.263757  0.999715  1
  Sn  Sn8  1  0.734007  0.997286  0.999790  1
  Sn  Sn9  1  0.000653  0.740171  0.491849  1
  Sn  Sn10  1  0.734007  0.997286  0.500210  1
  Sn  Sn11  1  0.000653  0.740171  0.008151  1
  Ir  Ir12  1  0.675038  0.334915  0.486899  1
  Ir  Ir13  1  0.675038  0.334915  0.013101  1
  Ir  Ir14  1  0.324398  0.659877  0.016169  1
  Ir  Ir15  1  0.324398  0.659877  0.483831  1
  Ir  Ir16  1  0.999306  0.998565  0.750000  1
  Ir  Ir17  1  0.999394  0.011339  0.250000  1
