# generated using pymatgen
data_Dy2Ta4C5
_symmetry_space_group_name_H-M   'P 1'
_cell_length_a   5.71925874
_cell_length_b   5.71925922
_cell_length_c   5.59953083
_cell_angle_alpha   81.87106062
_cell_angle_beta   81.87104511
_cell_angle_gamma   121.48955158
_symmetry_Int_Tables_number   1
_chemical_formula_structural   Dy2Ta4C5
_chemical_formula_sum   'Dy2 Ta4 C5'
_cell_volume   149.50645333
_cell_formula_units_Z   1
loop_
 _symmetry_equiv_pos_site_id
 _symmetry_equiv_pos_as_xyz
  1  'x, y, z'
loop_
 _atom_site_type_symbol
 _atom_site_label
 _atom_site_symmetry_multiplicity
 _atom_site_fract_x
 _atom_site_fract_y
 _atom_site_fract_z
 _atom_site_occupancy
  Dy  Dy0  1  0.762333  0.762333  0.758924  1
  Dy  Dy1  1  0.237667  0.237667  0.241076  1
  Ta  Ta2  1  0.101901  0.452314  0.740071  1
  Ta  Ta3  1  0.547686  0.898099  0.259929  1
  Ta  Ta4  1  0.898099  0.547686  0.259929  1
  Ta  Ta5  1  0.452314  0.101901  0.740071  1
  C  C6  1  0.500000  0.500000  0.500000  1
  C  C7  1  0.681549  0.318451  0.000000  1
  C  C8  1  0.318451  0.681549  0.000000  1
  C  C9  1  0.819201  0.180799  0.500000  1
  C  C10  1  0.180799  0.819201  0.500000  1
