# generated using pymatgen
data_Ti4Nb2B4IrRu9
_symmetry_space_group_name_H-M   'P 1'
_cell_length_a   9.33479835
_cell_length_b   9.32242830
_cell_length_c   3.00916500
_cell_angle_alpha   90.00000000
_cell_angle_beta   90.00000000
_cell_angle_gamma   89.42513804
_symmetry_Int_Tables_number   1
_chemical_formula_structural   Ti4Nb2B4IrRu9
_chemical_formula_sum   'Ti4 Nb2 B4 Ir1 Ru9'
_cell_volume   261.85335045
_cell_formula_units_Z   1
loop_
 _symmetry_equiv_pos_site_id
 _symmetry_equiv_pos_as_xyz
  1  'x, y, z'
loop_
 _atom_site_type_symbol
 _atom_site_label
 _atom_site_symmetry_multiplicity
 _atom_site_fract_x
 _atom_site_fract_y
 _atom_site_fract_z
 _atom_site_occupancy
  Ti  Ti0  1  0.829029  0.674806  0.000000  1
  Ti  Ti1  1  0.175480  0.324272  0.000000  1
  Ti  Ti2  1  0.498401  0.495080  0.000000  1
  Ti  Ti3  1  0.000122  0.000798  0.000000  1
  Nb  Nb4  1  0.318572  0.824404  0.000000  1
  Nb  Nb5  1  0.677974  0.178047  0.000000  1
  B  B6  1  0.626838  0.879516  0.000000  1
  B  B7  1  0.373501  0.125003  0.000000  1
  B  B8  1  0.122330  0.622260  0.000000  1
  B  B9  1  0.877953  0.377559  0.000000  1
  Ir  Ir10  1  0.573120  0.714297  0.500000  1
  Ru  Ru11  1  0.427372  0.283874  0.500000  1
  Ru  Ru12  1  0.069138  0.784273  0.500000  1
  Ru  Ru13  1  0.929413  0.215890  0.500000  1
  Ru  Ru14  1  0.284904  0.570991  0.500000  1
  Ru  Ru15  1  0.715918  0.431655  0.500000  1
  Ru  Ru16  1  0.214671  0.072656  0.500000  1
  Ru  Ru17  1  0.785089  0.926051  0.500000  1
  Ru  Ru18  1  0.499437  0.998692  0.500000  1
  Ru  Ru19  1  0.000737  0.499874  0.500000  1
