# generated using pymatgen
data_Tb2Y2Ga4IrPd3
_symmetry_space_group_name_H-M   'P 1'
_cell_length_a   4.45909900
_cell_length_b   6.92703172
_cell_length_c   7.68239489
_cell_angle_alpha   89.72091841
_cell_angle_beta   90.00000000
_cell_angle_gamma   90.00000000
_symmetry_Int_Tables_number   1
_chemical_formula_structural   Tb2Y2Ga4IrPd3
_chemical_formula_sum   'Tb2 Y2 Ga4 Ir1 Pd3'
_cell_volume   237.29345855
_cell_formula_units_Z   1
loop_
 _symmetry_equiv_pos_site_id
 _symmetry_equiv_pos_as_xyz
  1  'x, y, z'
loop_
 _atom_site_type_symbol
 _atom_site_label
 _atom_site_symmetry_multiplicity
 _atom_site_fract_x
 _atom_site_fract_y
 _atom_site_fract_z
 _atom_site_occupancy
  Tb  Tb0  1  0.250000  0.988888  0.305477  1
  Tb  Tb1  1  0.750000  0.024065  0.691271  1
  Y  Y2  1  0.250000  0.479373  0.199055  1
  Y  Y3  1  0.750000  0.519308  0.804631  1
  Ga  Ga4  1  0.250000  0.328502  0.571243  1
  Ga  Ga5  1  0.250000  0.828676  0.928869  1
  Ga  Ga6  1  0.750000  0.663731  0.427452  1
  Ga  Ga7  1  0.750000  0.173355  0.074022  1
  Ir  Ir8  1  0.750000  0.274632  0.397552  1
  Pd  Pd9  1  0.250000  0.219457  0.898025  1
  Pd  Pd10  1  0.250000  0.720223  0.601730  1
  Pd  Pd11  1  0.750000  0.779787  0.100674  1
