# generated using pymatgen
data_Nb12ZnGa7(NiC)4
_symmetry_space_group_name_H-M   'P 1'
_cell_length_a   8.26806145
_cell_length_b   8.27502530
_cell_length_c   8.27458020
_cell_angle_alpha   60.00228963
_cell_angle_beta   59.97303350
_cell_angle_gamma   59.97488364
_symmetry_Int_Tables_number   1
_chemical_formula_structural   Nb12ZnGa7(NiC)4
_chemical_formula_sum   'Nb12 Zn1 Ga7 Ni4 C4'
_cell_volume   400.16624165
_cell_formula_units_Z   1
loop_
 _symmetry_equiv_pos_site_id
 _symmetry_equiv_pos_as_xyz
  1  'x, y, z'
loop_
 _atom_site_type_symbol
 _atom_site_label
 _atom_site_symmetry_multiplicity
 _atom_site_fract_x
 _atom_site_fract_y
 _atom_site_fract_z
 _atom_site_occupancy
  Nb  Nb0  1  0.813474  0.813322  0.186618  1
  Nb  Nb1  1  0.186938  0.186608  0.813232  1
  Nb  Nb2  1  0.813473  0.186617  0.813303  1
  Nb  Nb3  1  0.186920  0.813255  0.186597  1
  Nb  Nb4  1  0.186939  0.813241  0.813222  1
  Nb  Nb5  1  0.813487  0.186592  0.186615  1
  Nb  Nb6  1  0.436395  0.437080  0.063251  1
  Nb  Nb7  1  0.062988  0.064133  0.436437  1
  Nb  Nb8  1  0.436393  0.063259  0.437090  1
  Nb  Nb9  1  0.063008  0.436419  0.064134  1
  Nb  Nb10  1  0.062984  0.436436  0.436450  1
  Nb  Nb11  1  0.436379  0.063280  0.063256  1
  Zn  Zn12  1  0.747321  0.417568  0.417551  1
  Ga  Ga13  1  0.419162  0.749074  0.415878  1
  Ga  Ga14  1  0.419152  0.415919  0.749052  1
  Ga  Ga15  1  0.419147  0.415922  0.415870  1
  Ga  Ga16  1  0.498602  0.833758  0.833830  1
  Ga  Ga17  1  0.833731  0.498796  0.833741  1
  Ga  Ga18  1  0.833744  0.833704  0.498805  1
  Ga  Ga19  1  0.833746  0.833706  0.833757  1
  Ni  Ni20  1  0.125170  0.624949  0.624939  1
  Ni  Ni21  1  0.624440  0.122061  0.626741  1
  Ni  Ni22  1  0.624468  0.626724  0.122081  1
  Ni  Ni23  1  0.624476  0.626714  0.626706  1
  C  C24  1  0.624595  0.125141  0.125133  1
  C  C25  1  0.124289  0.624924  0.125397  1
  C  C26  1  0.124291  0.125399  0.624920  1
  C  C27  1  0.124288  0.125397  0.125396  1
