# generated using pymatgen
data_Th4Zn10GaSn
_symmetry_space_group_name_H-M   'P 1'
_cell_length_a   8.50798813
_cell_length_b   8.50798705
_cell_length_c   8.99621900
_cell_angle_alpha   90.00000000
_cell_angle_beta   90.00000000
_cell_angle_gamma   149.57084909
_symmetry_Int_Tables_number   1
_chemical_formula_structural   Th4Zn10GaSn
_chemical_formula_sum   'Th4 Zn10 Ga1 Sn1'
_cell_volume   329.81439607
_cell_formula_units_Z   1
loop_
 _symmetry_equiv_pos_site_id
 _symmetry_equiv_pos_as_xyz
  1  'x, y, z'
loop_
 _atom_site_type_symbol
 _atom_site_label
 _atom_site_symmetry_multiplicity
 _atom_site_fract_x
 _atom_site_fract_y
 _atom_site_fract_z
 _atom_site_occupancy
  Th  Th0  1  0.202062  0.797938  0.250000  1
  Th  Th1  1  0.795257  0.204743  0.750000  1
  Th  Th2  1  0.000700  0.999300  0.488050  1
  Th  Th3  1  0.000700  0.999300  0.011950  1
  Zn  Zn4  1  0.813420  0.186580  0.392307  1
  Zn  Zn5  1  0.185319  0.814681  0.605510  1
  Zn  Zn6  1  0.813420  0.186580  0.107693  1
  Zn  Zn7  1  0.185319  0.814681  0.894490  1
  Zn  Zn8  1  0.650519  0.349481  0.477950  1
  Zn  Zn9  1  0.344533  0.655467  0.513985  1
  Zn  Zn10  1  0.650519  0.349481  0.022050  1
  Zn  Zn11  1  0.344533  0.655467  0.986015  1
  Zn  Zn12  1  0.404400  0.595600  0.250000  1
  Zn  Zn13  1  0.605748  0.394252  0.750000  1
  Ga  Ga14  1  0.557352  0.442648  0.250000  1
  Sn  Sn15  1  0.446200  0.553800  0.750000  1
