# generated using pymatgen
data_Er8Si16Mo5W7
_symmetry_space_group_name_H-M   'P 1'
_cell_length_a   6.74418138
_cell_length_b   6.91861139
_cell_length_c   12.86977302
_cell_angle_alpha   89.97146412
_cell_angle_beta   89.98187840
_cell_angle_gamma   90.05836480
_symmetry_Int_Tables_number   1
_chemical_formula_structural   Er8Si16Mo5W7
_chemical_formula_sum   'Er8 Si16 Mo5 W7'
_cell_volume   600.50795617
_cell_formula_units_Z   1
loop_
 _symmetry_equiv_pos_site_id
 _symmetry_equiv_pos_as_xyz
  1  'x, y, z'
loop_
 _atom_site_type_symbol
 _atom_site_label
 _atom_site_symmetry_multiplicity
 _atom_site_fract_x
 _atom_site_fract_y
 _atom_site_fract_z
 _atom_site_occupancy
  Er  Er0  1  0.495509  0.331875  0.093332  1
  Er  Er1  1  0.996284  0.168339  0.406565  1
  Er  Er2  1  0.504460  0.668065  0.593593  1
  Er  Er3  1  0.004501  0.831651  0.906823  1
  Er  Er4  1  0.503780  0.668640  0.906887  1
  Er  Er5  1  0.003968  0.831572  0.593472  1
  Er  Er6  1  0.496609  0.331515  0.406544  1
  Er  Er7  1  0.995735  0.168533  0.093476  1
  Si  Si8  1  0.660622  0.041071  0.547123  1
  Si  Si9  1  0.161337  0.458369  0.953397  1
  Si  Si10  1  0.337977  0.958827  0.046597  1
  Si  Si11  1  0.839565  0.541637  0.452841  1
  Si  Si12  1  0.338840  0.958065  0.452331  1
  Si  Si13  1  0.837822  0.542168  0.046899  1
  Si  Si14  1  0.662291  0.041881  0.953058  1
  Si  Si15  1  0.161887  0.458125  0.547056  1
  Si  Si16  1  0.534206  0.370737  0.749073  1
  Si  Si17  1  0.034431  0.129566  0.750757  1
  Si  Si18  1  0.466171  0.630036  0.249932  1
  Si  Si19  1  0.964996  0.869987  0.250681  1
  Si  Si20  1  0.802078  0.634572  0.750495  1
  Si  Si21  1  0.302036  0.865607  0.749570  1
  Si  Si22  1  0.198170  0.365640  0.250184  1
  Si  Si23  1  0.697590  0.133847  0.249765  1
  Mo  Mo24  1  0.669134  0.835868  0.374307  1
  Mo  Mo25  1  0.170635  0.662834  0.374978  1
  Mo  Mo26  1  0.669225  0.836502  0.125584  1
  Mo  Mo27  1  0.829358  0.337633  0.875252  1
  Mo  Mo28  1  0.329399  0.162757  0.624441  1
  W  W29  1  0.831286  0.335761  0.626348  1
  W  W30  1  0.331813  0.164271  0.873315  1
  W  W31  1  0.168745  0.663453  0.126140  1
  W  W32  1  0.665256  0.999586  0.750344  1
  W  W33  1  0.165193  0.500580  0.750167  1
  W  W34  1  0.333873  0.001143  0.249059  1
  W  W35  1  0.835220  0.499284  0.249611  1
