# generated using pymatgen
data_Gd3Dy2HoTa2O14
_symmetry_space_group_name_H-M   'P 1'
_cell_length_a   6.53928197
_cell_length_b   6.50391905
_cell_length_c   7.52547105
_cell_angle_alpha   89.96471523
_cell_angle_beta   90.07423544
_cell_angle_gamma   108.68355071
_symmetry_Int_Tables_number   1
_chemical_formula_structural   Gd3Dy2HoTa2O14
_chemical_formula_sum   'Gd3 Dy2 Ho1 Ta2 O14'
_cell_volume   303.19853014
_cell_formula_units_Z   1
loop_
 _symmetry_equiv_pos_site_id
 _symmetry_equiv_pos_as_xyz
  1  'x, y, z'
loop_
 _atom_site_type_symbol
 _atom_site_label
 _atom_site_symmetry_multiplicity
 _atom_site_fract_x
 _atom_site_fract_y
 _atom_site_fract_z
 _atom_site_occupancy
  Gd  Gd0  1  0.467004  0.000512  0.257089  1
  Gd  Gd1  1  0.468024  0.471813  0.000304  1
  Gd  Gd2  1  0.534637  0.531215  0.501884  1
  Dy  Dy3  1  0.000272  0.464636  0.742495  1
  Dy  Dy4  1  0.534919  0.000323  0.757530  1
  Ho  Ho5  1  0.000535  0.535341  0.242370  1
  Ta  Ta6  1  0.002645  0.002743  0.500995  1
  Ta  Ta7  1  0.998185  0.997465  0.999732  1
  O  O8  1  0.934932  0.069915  0.750236  1
  O  O9  1  0.642618  0.360567  0.751129  1
  O  O10  1  0.308374  0.056584  0.544287  1
  O  O11  1  0.955954  0.692388  0.956952  1
  O  O12  1  0.635432  0.374770  0.247888  1
  O  O13  1  0.923111  0.673623  0.525369  1
  O  O14  1  0.325308  0.081352  0.972195  1
  O  O15  1  0.076486  0.325273  0.027988  1
  O  O16  1  0.672613  0.917113  0.479083  1
  O  O17  1  0.367770  0.629885  0.749256  1
  O  O18  1  0.688061  0.938145  0.036403  1
  O  O19  1  0.043689  0.306134  0.454447  1
  O  O20  1  0.356769  0.637619  0.252251  1
  O  O21  1  0.062661  0.932584  0.250118  1
