# generated using pymatgen
data_Rb3SnS3
_symmetry_space_group_name_H-M   'P 1'
_cell_length_a   8.09300010
_cell_length_b   8.09299953
_cell_length_c   8.91307324
_cell_angle_alpha   75.42855871
_cell_angle_beta   75.42856107
_cell_angle_gamma   109.80762194
_symmetry_Int_Tables_number   1
_chemical_formula_structural   Rb3SnS3
_chemical_formula_sum   'Rb6 Sn2 S6'
_cell_volume   493.86326590
_cell_formula_units_Z   2
loop_
 _symmetry_equiv_pos_site_id
 _symmetry_equiv_pos_as_xyz
  1  'x, y, z'
loop_
 _atom_site_type_symbol
 _atom_site_label
 _atom_site_symmetry_multiplicity
 _atom_site_fract_x
 _atom_site_fract_y
 _atom_site_fract_z
 _atom_site_occupancy
  Rb  Rb0  1  0.784364  0.784364  0.685207  1
  Rb  Rb1  1  0.215636  0.215636  0.314793  1
  Rb  Rb2  1  0.500000  0.000000  0.000000  1
  Rb  Rb3  1  0.000000  0.500000  0.000000  1
  Rb  Rb4  1  0.330458  0.669542  0.500000  1
  Rb  Rb5  1  0.669542  0.330458  0.500000  1
  Sn  Sn6  1  0.125039  0.125039  0.835083  1
  Sn  Sn7  1  0.874961  0.874961  0.164917  1
  S  S8  1  0.052155  0.753038  0.306682  1
  S  S9  1  0.246962  0.947845  0.693318  1
  S  S10  1  0.379259  0.379259  0.850836  1
  S  S11  1  0.620741  0.620741  0.149164  1
  S  S12  1  0.947845  0.246962  0.693318  1
  S  S13  1  0.753038  0.052155  0.306682  1
