# generated using pymatgen
data_YbHoEr2(ReN3)4
_symmetry_space_group_name_H-M   'P 1'
_cell_length_a   7.36486947
_cell_length_b   7.36486987
_cell_length_c   6.26304564
_cell_angle_alpha   72.99593099
_cell_angle_beta   72.99593397
_cell_angle_gamma   82.35915440
_symmetry_Int_Tables_number   1
_chemical_formula_structural   YbHoEr2(ReN3)4
_chemical_formula_sum   'Yb1 Ho1 Er2 Re4 N12'
_cell_volume   310.24462439
_cell_formula_units_Z   1
loop_
 _symmetry_equiv_pos_site_id
 _symmetry_equiv_pos_as_xyz
  1  'x, y, z'
loop_
 _atom_site_type_symbol
 _atom_site_label
 _atom_site_symmetry_multiplicity
 _atom_site_fract_x
 _atom_site_fract_y
 _atom_site_fract_z
 _atom_site_occupancy
  Yb  Yb0  1  0.290648  0.709352  0.750000  1
  Ho  Ho1  1  0.711712  0.288288  0.250000  1
  Er  Er2  1  0.908327  0.091673  0.750000  1
  Er  Er3  1  0.091470  0.908530  0.250000  1
  Re  Re4  1  0.621695  0.797193  0.277326  1
  Re  Re5  1  0.202807  0.378305  0.222674  1
  Re  Re6  1  0.377041  0.205382  0.722257  1
  Re  Re7  1  0.794618  0.622959  0.777743  1
  N  N8  1  0.337411  0.359435  0.925047  1
  N  N9  1  0.004249  0.216861  0.341077  1
  N  N10  1  0.783139  0.995751  0.158923  1
  N  N11  1  0.215232  0.011484  0.843887  1
  N  N12  1  0.665775  0.633022  0.081380  1
  N  N13  1  0.871913  0.373136  0.837551  1
  N  N14  1  0.123741  0.622697  0.171955  1
  N  N15  1  0.988516  0.784768  0.656113  1
  N  N16  1  0.377303  0.876259  0.328045  1
  N  N17  1  0.640565  0.662589  0.574953  1
  N  N18  1  0.626864  0.128087  0.662449  1
  N  N19  1  0.366978  0.334225  0.418620  1
