# generated using pymatgen
data_CaNbReB6
_symmetry_space_group_name_H-M   'P 1'
_cell_length_a   3.53978900
_cell_length_b   8.96696200
_cell_length_c   11.33983400
_cell_angle_alpha   90.00000000
_cell_angle_beta   90.00000000
_cell_angle_gamma   90.00000000
_symmetry_Int_Tables_number   1
_chemical_formula_structural   CaNbReB6
_chemical_formula_sum   'Ca4 Nb4 Re4 B24'
_cell_volume   359.93941110
_cell_formula_units_Z   4
loop_
 _symmetry_equiv_pos_site_id
 _symmetry_equiv_pos_as_xyz
  1  'x, y, z'
loop_
 _atom_site_type_symbol
 _atom_site_label
 _atom_site_symmetry_multiplicity
 _atom_site_fract_x
 _atom_site_fract_y
 _atom_site_fract_z
 _atom_site_occupancy
  Ca  Ca0  1  0.000000  0.322388  0.414840  1
  Ca  Ca1  1  0.000000  0.677612  0.585160  1
  Ca  Ca2  1  0.000000  0.822388  0.085160  1
  Ca  Ca3  1  0.000000  0.177612  0.914840  1
  Nb  Nb4  1  0.000000  0.946857  0.372918  1
  Nb  Nb5  1  0.000000  0.053143  0.627082  1
  Nb  Nb6  1  0.000000  0.446857  0.127082  1
  Nb  Nb7  1  0.000000  0.553143  0.872918  1
  Re  Re8  1  0.000000  0.644684  0.315596  1
  Re  Re9  1  0.000000  0.355316  0.684404  1
  Re  Re10  1  0.000000  0.144684  0.184404  1
  Re  Re11  1  0.000000  0.855316  0.815596  1
  B  B12  1  0.500000  0.554544  0.432985  1
  B  B13  1  0.500000  0.445456  0.567015  1
  B  B14  1  0.500000  0.054544  0.067015  1
  B  B15  1  0.500000  0.945456  0.932985  1
  B  B16  1  0.500000  0.754696  0.417287  1
  B  B17  1  0.500000  0.245304  0.582713  1
  B  B18  1  0.500000  0.254696  0.082713  1
  B  B19  1  0.500000  0.745304  0.917287  1
  B  B20  1  0.500000  0.798217  0.263130  1
  B  B21  1  0.500000  0.201783  0.736870  1
  B  B22  1  0.500000  0.298217  0.236870  1
  B  B23  1  0.500000  0.701783  0.763130  1
  B  B24  1  0.500000  0.631220  0.180701  1
  B  B25  1  0.500000  0.368780  0.819299  1
  B  B26  1  0.500000  0.131220  0.319299  1
  B  B27  1  0.500000  0.868780  0.680701  1
  B  B28  1  0.500000  0.982869  0.213837  1
  B  B29  1  0.500000  0.017131  0.786163  1
  B  B30  1  0.500000  0.482869  0.286163  1
  B  B31  1  0.500000  0.517131  0.713837  1
  B  B32  1  0.500000  0.598431  0.025794  1
  B  B33  1  0.500000  0.401569  0.974206  1
  B  B34  1  0.500000  0.098431  0.474206  1
  B  B35  1  0.500000  0.901569  0.525794  1
