# generated using pymatgen
data_Ho6Al24Os3Ru4Pt
_symmetry_space_group_name_H-M   'P 1'
_cell_length_a   8.79525601
_cell_length_b   8.82125198
_cell_length_c   9.56509910
_cell_angle_alpha   90.19466695
_cell_angle_beta   89.82446763
_cell_angle_gamma   119.98624347
_symmetry_Int_Tables_number   1
_chemical_formula_structural   Ho6Al24Os3Ru4Pt
_chemical_formula_sum   'Ho6 Al24 Os3 Ru4 Pt1'
_cell_volume   642.77053102
_cell_formula_units_Z   1
loop_
 _symmetry_equiv_pos_site_id
 _symmetry_equiv_pos_as_xyz
  1  'x, y, z'
loop_
 _atom_site_type_symbol
 _atom_site_label
 _atom_site_symmetry_multiplicity
 _atom_site_fract_x
 _atom_site_fract_y
 _atom_site_fract_z
 _atom_site_occupancy
  Ho  Ho0  1  0.192729  0.385310  0.248476  1
  Ho  Ho1  1  0.807271  0.614690  0.751524  1
  Ho  Ho2  1  0.612710  0.809069  0.249037  1
  Ho  Ho3  1  0.387290  0.190931  0.750963  1
  Ho  Ho4  1  0.196822  0.808826  0.248762  1
  Ho  Ho5  1  0.803178  0.191174  0.751238  1
  Al  Al6  1  0.332410  0.665990  0.018204  1
  Al  Al7  1  0.667590  0.334010  0.981796  1
  Al  Al8  1  0.669931  0.332189  0.519354  1
  Al  Al9  1  0.330069  0.667811  0.480646  1
  Al  Al10  1  0.156592  0.323546  0.579012  1
  Al  Al11  1  0.843408  0.676454  0.420988  1
  Al  Al12  1  0.676056  0.841920  0.577877  1
  Al  Al13  1  0.837546  0.675073  0.077888  1
  Al  Al14  1  0.323944  0.158080  0.422123  1
  Al  Al15  1  0.162454  0.324927  0.922112  1
  Al  Al16  1  0.161517  0.836762  0.577753  1
  Al  Al17  1  0.325245  0.163426  0.076892  1
  Al  Al18  1  0.838483  0.163238  0.422247  1
  Al  Al19  1  0.674755  0.836574  0.923108  1
  Al  Al20  1  0.837776  0.163205  0.077032  1
  Al  Al21  1  0.162224  0.836795  0.922968  1
  Al  Al22  1  0.562400  0.124465  0.250611  1
  Al  Al23  1  0.437600  0.875535  0.749389  1
  Al  Al24  1  0.878942  0.440063  0.250682  1
  Al  Al25  1  0.121058  0.559937  0.749318  1
  Al  Al26  1  0.563053  0.437902  0.248064  1
  Al  Al27  1  0.436947  0.562098  0.751936  1
  Al  Al28  1  0.999817  0.000624  0.249878  1
  Al  Al29  1  0.000183  0.999376  0.750122  1
  Os  Os30  1  0.500000  0.000000  0.000000  1
  Os  Os31  1  0.500000  0.000000  0.500000  1
  Os  Os32  1  0.500000  0.500000  0.000000  1
  Ru  Ru33  1  0.000000  0.500000  0.000000  1
  Ru  Ru34  1  0.000000  0.500000  0.500000  1
  Ru  Ru35  1  0.000000  0.000000  0.000000  1
  Ru  Ru36  1  0.000000  0.000000  0.500000  1
  Pt  Pt37  1  0.500000  0.500000  0.500000  1
