# generated using pymatgen
data_Ac6In2SiSe14
_symmetry_space_group_name_H-M   'P 1'
_cell_length_a   11.06407700
_cell_length_b   11.06407710
_cell_length_c   6.46328800
_cell_angle_alpha   90.00000000
_cell_angle_beta   90.00000000
_cell_angle_gamma   120.00000867
_symmetry_Int_Tables_number   1
_chemical_formula_structural   Ac6In2SiSe14
_chemical_formula_sum   'Ac6 In2 Si1 Se14'
_cell_volume   685.19547306
_cell_formula_units_Z   1
loop_
 _symmetry_equiv_pos_site_id
 _symmetry_equiv_pos_as_xyz
  1  'x, y, z'
loop_
 _atom_site_type_symbol
 _atom_site_label
 _atom_site_symmetry_multiplicity
 _atom_site_fract_x
 _atom_site_fract_y
 _atom_site_fract_z
 _atom_site_occupancy
  Ac  Ac0  1  0.805361  0.700142  0.523660  1
  Ac  Ac1  1  0.894780  0.194639  0.523660  1
  Ac  Ac2  1  0.299858  0.105220  0.523660  1
  Ac  Ac3  1  0.522933  0.967229  0.043944  1
  Ac  Ac4  1  0.444296  0.477067  0.043944  1
  Ac  Ac5  1  0.032771  0.555704  0.043944  1
  In  In6  1  0.666667  0.333333  0.318669  1
  In  In7  1  0.333333  0.666667  0.453731  1
  Si  Si8  1  0.000000  0.000000  0.940248  1
  Se  Se9  1  0.000000  0.000000  0.295904  1
  Se  Se10  1  0.333333  0.666667  0.849036  1
  Se  Se11  1  0.080805  0.860229  0.805420  1
  Se  Se12  1  0.779423  0.919195  0.805420  1
  Se  Se13  1  0.139771  0.220577  0.805420  1
  Se  Se14  1  0.234929  0.818743  0.296949  1
  Se  Se15  1  0.583813  0.765071  0.296949  1
  Se  Se16  1  0.181257  0.416187  0.296949  1
  Se  Se17  1  0.917616  0.488839  0.549014  1
  Se  Se18  1  0.571225  0.082384  0.549014  1
  Se  Se19  1  0.511161  0.428775  0.549014  1
  Se  Se20  1  0.423430  0.187443  0.075821  1
  Se  Se21  1  0.764013  0.576570  0.075821  1
  Se  Se22  1  0.812557  0.235987  0.075821  1
