# generated using pymatgen
data_TbPr2TaO7
_symmetry_space_group_name_H-M   'P 1'
_cell_length_a   6.65040311
_cell_length_b   6.63120661
_cell_length_c   7.69652600
_cell_angle_alpha   90.00000000
_cell_angle_beta   90.00000000
_cell_angle_gamma   110.50678316
_symmetry_Int_Tables_number   1
_chemical_formula_structural   TbPr2TaO7
_chemical_formula_sum   'Tb2 Pr4 Ta2 O14'
_cell_volume   317.90961946
_cell_formula_units_Z   2
loop_
 _symmetry_equiv_pos_site_id
 _symmetry_equiv_pos_as_xyz
  1  'x, y, z'
loop_
 _atom_site_type_symbol
 _atom_site_label
 _atom_site_symmetry_multiplicity
 _atom_site_fract_x
 _atom_site_fract_y
 _atom_site_fract_z
 _atom_site_occupancy
  Tb  Tb0  1  0.484484  0.942997  0.750000  1
  Tb  Tb1  1  0.515516  0.057003  0.250000  1
  Pr  Pr2  1  0.000000  0.000000  0.000000  1
  Pr  Pr3  1  0.000000  0.000000  0.500000  1
  Pr  Pr4  1  0.933885  0.478029  0.750000  1
  Pr  Pr5  1  0.066115  0.521971  0.250000  1
  Ta  Ta6  1  0.500000  0.500000  0.000000  1
  Ta  Ta7  1  0.500000  0.500000  0.500000  1
  O  O8  1  0.562552  0.575301  0.750000  1
  O  O9  1  0.437448  0.424699  0.250000  1
  O  O10  1  0.838763  0.100433  0.750000  1
  O  O11  1  0.161237  0.899567  0.250000  1
  O  O12  1  0.126811  0.849027  0.750000  1
  O  O13  1  0.873189  0.150973  0.250000  1
  O  O14  1  0.464411  0.191475  0.963972  1
  O  O15  1  0.535589  0.808525  0.463972  1
  O  O16  1  0.180264  0.418130  0.968468  1
  O  O17  1  0.819736  0.581870  0.468468  1
  O  O18  1  0.464411  0.191475  0.536028  1
  O  O19  1  0.535589  0.808525  0.036028  1
  O  O20  1  0.819736  0.581870  0.031532  1
  O  O21  1  0.180264  0.418130  0.531532  1
