# generated using pymatgen
data_ThRuI18
_symmetry_space_group_name_H-M   'P 1'
_cell_length_a   10.34996022
_cell_length_b   10.41384304
_cell_length_c   10.32669190
_cell_angle_alpha   92.66482860
_cell_angle_beta   92.59601334
_cell_angle_gamma   92.37847284
_symmetry_Int_Tables_number   1
_chemical_formula_structural   ThRuI18
_chemical_formula_sum   'Th1 Ru1 I18'
_cell_volume   1109.63475109
_cell_formula_units_Z   1
loop_
 _symmetry_equiv_pos_site_id
 _symmetry_equiv_pos_as_xyz
  1  'x, y, z'
loop_
 _atom_site_type_symbol
 _atom_site_label
 _atom_site_symmetry_multiplicity
 _atom_site_fract_x
 _atom_site_fract_y
 _atom_site_fract_z
 _atom_site_occupancy
  Th  Th0  1  0.500000  0.500000  0.500000  1
  Ru  Ru1  1  0.000000  0.000000  0.000000  1
  I  I2  1  0.797131  0.480607  0.523990  1
  I  I3  1  0.523610  0.795141  0.480230  1
  I  I4  1  0.482124  0.524613  0.797912  1
  I  I5  1  0.202869  0.519393  0.476010  1
  I  I6  1  0.476390  0.204859  0.519770  1
  I  I7  1  0.517876  0.475387  0.202088  1
  I  I8  1  0.905211  0.357767  0.773046  1
  I  I9  1  0.772440  0.902605  0.358616  1
  I  I10  1  0.358345  0.772162  0.904226  1
  I  I11  1  0.094789  0.642233  0.226954  1
  I  I12  1  0.227560  0.097395  0.641384  1
  I  I13  1  0.641655  0.227838  0.095774  1
  I  I14  1  0.005134  0.971184  0.739920  1
  I  I15  1  0.740535  0.004926  0.970853  1
  I  I16  1  0.970864  0.742262  0.003258  1
  I  I17  1  0.994866  0.028816  0.260080  1
  I  I18  1  0.259465  0.995074  0.029147  1
  I  I19  1  0.029136  0.257738  0.996742  1
