# generated using pymatgen
data_K8ZrSb4
_symmetry_space_group_name_H-M   'P 1'
_cell_length_a   11.68197961
_cell_length_b   11.68197936
_cell_length_c   11.68198000
_cell_angle_alpha   59.99999819
_cell_angle_beta   59.99999891
_cell_angle_gamma   59.99999856
_symmetry_Int_Tables_number   1
_chemical_formula_structural   K8ZrSb4
_chemical_formula_sum   'K16 Zr2 Sb8'
_cell_volume   1127.28654903
_cell_formula_units_Z   2
loop_
 _symmetry_equiv_pos_site_id
 _symmetry_equiv_pos_as_xyz
  1  'x, y, z'
loop_
 _atom_site_type_symbol
 _atom_site_label
 _atom_site_symmetry_multiplicity
 _atom_site_fract_x
 _atom_site_fract_y
 _atom_site_fract_z
 _atom_site_occupancy
  K  K0  1  0.625000  0.125000  0.625000  1
  K  K1  1  0.625000  0.625000  0.125000  1
  K  K2  1  0.125000  0.625000  0.625000  1
  K  K3  1  0.625000  0.625000  0.625000  1
  K  K4  1  0.025020  0.025020  0.474980  1
  K  K5  1  0.775020  0.224980  0.224980  1
  K  K6  1  0.224980  0.775020  0.775020  1
  K  K7  1  0.775020  0.775020  0.224980  1
  K  K8  1  0.775020  0.224980  0.775020  1
  K  K9  1  0.224980  0.775020  0.224980  1
  K  K10  1  0.474980  0.025020  0.474980  1
  K  K11  1  0.474980  0.025020  0.025020  1
  K  K12  1  0.025020  0.474980  0.474980  1
  K  K13  1  0.025020  0.474980  0.025020  1
  K  K14  1  0.224980  0.224980  0.775020  1
  K  K15  1  0.474980  0.474980  0.025020  1
  Zr  Zr16  1  0.750000  0.750000  0.750000  1
  Zr  Zr17  1  0.500000  0.500000  0.500000  1
  Sb  Sb18  1  0.399058  0.802825  0.399058  1
  Sb  Sb19  1  0.850942  0.850942  0.447175  1
  Sb  Sb20  1  0.447175  0.850942  0.850942  1
  Sb  Sb21  1  0.850942  0.850942  0.850942  1
  Sb  Sb22  1  0.802825  0.399058  0.399058  1
  Sb  Sb23  1  0.399058  0.399058  0.399058  1
  Sb  Sb24  1  0.399058  0.399058  0.802825  1
  Sb  Sb25  1  0.850942  0.447175  0.850942  1
