# generated using pymatgen
data_HoEr5(CoI3)2
_symmetry_space_group_name_H-M   'P 1'
_cell_length_a   4.08301300
_cell_length_b   8.85968990
_cell_length_c   12.16653794
_cell_angle_alpha   93.72981790
_cell_angle_beta   90.00000000
_cell_angle_gamma   90.00000000
_symmetry_Int_Tables_number   1
_chemical_formula_structural   HoEr5(CoI3)2
_chemical_formula_sum   'Ho1 Er5 Co2 I6'
_cell_volume   439.18292190
_cell_formula_units_Z   1
loop_
 _symmetry_equiv_pos_site_id
 _symmetry_equiv_pos_as_xyz
  1  'x, y, z'
loop_
 _atom_site_type_symbol
 _atom_site_label
 _atom_site_symmetry_multiplicity
 _atom_site_fract_x
 _atom_site_fract_y
 _atom_site_fract_z
 _atom_site_occupancy
  Ho  Ho0  1  0.750000  0.260872  0.601486  1
  Er  Er1  1  0.250000  0.741334  0.398699  1
  Er  Er2  1  0.750000  0.874514  0.621683  1
  Er  Er3  1  0.250000  0.125639  0.377935  1
  Er  Er4  1  0.750000  0.900653  0.190183  1
  Er  Er5  1  0.250000  0.098498  0.809987  1
  Co  Co6  1  0.750000  0.939351  0.406870  1
  Co  Co7  1  0.250000  0.060546  0.593236  1
  I  I8  1  0.750000  0.415138  0.366104  1
  I  I9  1  0.250000  0.585026  0.633490  1
  I  I10  1  0.750000  0.859399  0.889172  1
  I  I11  1  0.250000  0.139683  0.110624  1
  I  I12  1  0.750000  0.355541  0.863275  1
  I  I13  1  0.250000  0.643805  0.137257  1
