# generated using pymatgen
data_Pm4Os3
_symmetry_space_group_name_H-M   'P 1'
_cell_length_a   6.34967349
_cell_length_b   6.30204360
_cell_length_c   5.03263395
_cell_angle_alpha   113.67636791
_cell_angle_beta   66.62119549
_cell_angle_gamma   105.53193806
_symmetry_Int_Tables_number   1
_chemical_formula_structural   Pm4Os3
_chemical_formula_sum   'Pm4 Os3'
_cell_volume   167.87855809
_cell_formula_units_Z   1
loop_
 _symmetry_equiv_pos_site_id
 _symmetry_equiv_pos_as_xyz
  1  'x, y, z'
loop_
 _atom_site_type_symbol
 _atom_site_label
 _atom_site_symmetry_multiplicity
 _atom_site_fract_x
 _atom_site_fract_y
 _atom_site_fract_z
 _atom_site_occupancy
  Pm  Pm0  1  0.892777  0.497513  0.251561  1
  Pm  Pm1  1  0.390313  0.011520  0.256694  1
  Pm  Pm2  1  0.980383  0.917683  0.917642  1
  Pm  Pm3  1  0.473815  0.432485  0.927422  1
  Os  Os4  1  0.513527  0.789118  0.583395  1
  Os  Os5  1  0.175746  0.456521  0.589728  1
  Os  Os6  1  0.839645  0.124429  0.591812  1
