# generated using pymatgen
data_BiAs(PO3)6
_symmetry_space_group_name_H-M   'P 1'
_cell_length_a   5.39428431
_cell_length_b   7.08527998
_cell_length_c   11.14984600
_cell_angle_alpha   98.47130139
_cell_angle_beta   92.43014763
_cell_angle_gamma   93.21298977
_symmetry_Int_Tables_number   1
_chemical_formula_structural   BiAs(PO3)6
_chemical_formula_sum   'Bi1 As1 P6 O18'
_cell_volume   420.28129141
_cell_formula_units_Z   1
loop_
 _symmetry_equiv_pos_site_id
 _symmetry_equiv_pos_as_xyz
  1  'x, y, z'
loop_
 _atom_site_type_symbol
 _atom_site_label
 _atom_site_symmetry_multiplicity
 _atom_site_fract_x
 _atom_site_fract_y
 _atom_site_fract_z
 _atom_site_occupancy
  Bi  Bi0  1  0.000000  0.500000  0.500000  1
  As  As1  1  0.000000  0.000000  0.000000  1
  P  P2  1  0.516249  0.961795  0.175063  1
  P  P3  1  0.249860  0.311618  0.223496  1
  P  P4  1  0.498735  0.321268  0.653094  1
  P  P5  1  0.483751  0.038205  0.824937  1
  P  P6  1  0.750140  0.688382  0.776504  1
  P  P7  1  0.501265  0.678732  0.346906  1
  O  O8  1  0.491892  0.185308  0.222568  1
  O  O9  1  0.112491  0.273439  0.100861  1
  O  O10  1  0.316779  0.886340  0.077711  1
  O  O11  1  0.224869  0.348457  0.640494  1
  O  O12  1  0.645170  0.319566  0.540930  1
  O  O13  1  0.216635  0.067857  0.852090  1
  O  O14  1  0.620570  0.476696  0.764529  1
  O  O15  1  0.887509  0.726561  0.899139  1
  O  O16  1  0.545140  0.125627  0.703235  1
  O  O17  1  0.775131  0.651543  0.359506  1
  O  O18  1  0.891128  0.715597  0.666056  1
  O  O19  1  0.783365  0.932143  0.147910  1
  O  O20  1  0.508108  0.814692  0.777432  1
  O  O21  1  0.683221  0.113660  0.922289  1
  O  O22  1  0.454860  0.874373  0.296765  1
  O  O23  1  0.108872  0.284403  0.333944  1
  O  O24  1  0.379430  0.523304  0.235471  1
  O  O25  1  0.354830  0.680434  0.459070  1
