# generated using pymatgen
data_Tb3Yb3Al18(Si3Os4)2
_symmetry_space_group_name_H-M   'P 1'
_cell_length_a   8.68984133
_cell_length_b   8.64548578
_cell_length_c   9.60604700
_cell_angle_alpha   90.00000000
_cell_angle_beta   90.00000000
_cell_angle_gamma   120.13814398
_symmetry_Int_Tables_number   1
_chemical_formula_structural   Tb3Yb3Al18(Si3Os4)2
_chemical_formula_sum   'Tb3 Yb3 Al18 Si6 Os8'
_cell_volume   624.12323505
_cell_formula_units_Z   1
loop_
 _symmetry_equiv_pos_site_id
 _symmetry_equiv_pos_as_xyz
  1  'x, y, z'
loop_
 _atom_site_type_symbol
 _atom_site_label
 _atom_site_symmetry_multiplicity
 _atom_site_fract_x
 _atom_site_fract_y
 _atom_site_fract_z
 _atom_site_occupancy
  Tb  Tb0  1  0.390123  0.192857  0.750000  1
  Tb  Tb1  1  0.197552  0.807980  0.250000  1
  Tb  Tb2  1  0.803027  0.192143  0.750000  1
  Yb  Yb3  1  0.194410  0.387928  0.250000  1
  Yb  Yb4  1  0.806116  0.612309  0.750000  1
  Yb  Yb5  1  0.609340  0.806794  0.250000  1
  Al  Al6  1  0.165674  0.331661  0.577214  1
  Al  Al7  1  0.833527  0.668184  0.422513  1
  Al  Al8  1  0.669088  0.833908  0.575395  1
  Al  Al9  1  0.833527  0.668184  0.077487  1
  Al  Al10  1  0.330932  0.166213  0.423034  1
  Al  Al11  1  0.165674  0.331661  0.922786  1
  Al  Al12  1  0.165013  0.833746  0.576606  1
  Al  Al13  1  0.330932  0.166213  0.076966  1
  Al  Al14  1  0.834421  0.165719  0.423509  1
  Al  Al15  1  0.669088  0.833908  0.924605  1
  Al  Al16  1  0.834421  0.165719  0.076491  1
  Al  Al17  1  0.165013  0.833746  0.923394  1
  Al  Al18  1  0.872006  0.432186  0.250000  1
  Al  Al19  1  0.127156  0.567735  0.750000  1
  Al  Al20  1  0.560022  0.433602  0.250000  1
  Al  Al21  1  0.440875  0.568187  0.750000  1
  Al  Al22  1  0.998919  0.998955  0.250000  1
  Al  Al23  1  0.999899  0.000056  0.750000  1
  Si  Si24  1  0.332296  0.663617  0.037944  1
  Si  Si25  1  0.669166  0.337006  0.961498  1
  Si  Si26  1  0.669166  0.337006  0.538502  1
  Si  Si27  1  0.332296  0.663617  0.462056  1
  Si  Si28  1  0.564547  0.127677  0.250000  1
  Si  Si29  1  0.436073  0.871786  0.750000  1
  Os  Os30  1  0.499485  0.000447  0.999264  1
  Os  Os31  1  0.000358  0.500069  0.999524  1
  Os  Os32  1  0.499485  0.000447  0.500736  1
  Os  Os33  1  0.499492  0.498979  0.998633  1
  Os  Os34  1  0.000358  0.500069  0.500476  1
  Os  Os35  1  0.499492  0.498979  0.501367  1
  Os  Os36  1  0.000516  0.000353  0.000391  1
  Os  Os37  1  0.000516  0.000353  0.499609  1
