# generated using pymatgen
data_Dy8Lu4InCo4Pt
_symmetry_space_group_name_H-M   'P 1'
_cell_length_a   8.25250877
_cell_length_b   8.25250917
_cell_length_c   8.25251032
_cell_angle_alpha   111.21645027
_cell_angle_beta   110.39874435
_cell_angle_gamma   106.83139609
_symmetry_Int_Tables_number   1
_chemical_formula_structural   Dy8Lu4InCo4Pt
_chemical_formula_sum   'Dy8 Lu4 In1 Co4 Pt1'
_cell_volume   431.94153213
_cell_formula_units_Z   1
loop_
 _symmetry_equiv_pos_site_id
 _symmetry_equiv_pos_as_xyz
  1  'x, y, z'
loop_
 _atom_site_type_symbol
 _atom_site_label
 _atom_site_symmetry_multiplicity
 _atom_site_fract_x
 _atom_site_fract_y
 _atom_site_fract_z
 _atom_site_occupancy
  Dy  Dy0  1  0.417018  0.218258  0.198761  1
  Dy  Dy1  1  0.582982  0.781742  0.801239  1
  Dy  Dy2  1  0.019497  0.218258  0.801239  1
  Dy  Dy3  1  0.980503  0.781742  0.198761  1
  Dy  Dy4  1  0.186015  0.289242  0.475257  1
  Dy  Dy5  1  0.813985  0.710758  0.524743  1
  Dy  Dy6  1  0.186015  0.710758  0.896775  1
  Dy  Dy7  1  0.813985  0.289242  0.103225  1
  Lu  Lu8  1  0.316969  0.624360  0.307390  1
  Lu  Lu9  1  0.683031  0.375640  0.692610  1
  Lu  Lu10  1  0.316969  0.009579  0.692610  1
  Lu  Lu11  1  0.683031  0.990421  0.307390  1
  In  In12  1  0.500000  0.500000  0.000000  1
  Co  Co13  1  0.379228  0.000000  0.379228  1
  Co  Co14  1  0.620772  0.000000  0.620772  1
  Co  Co15  1  0.112962  0.612962  0.500000  1
  Co  Co16  1  0.887038  0.387038  0.500000  1
  Pt  Pt17  1  0.000000  0.000000  0.000000  1
