# generated using pymatgen
data_Ho5Er7Tc3Ir
_symmetry_space_group_name_H-M   'P 1'
_cell_length_a   6.25732393
_cell_length_b   7.36106685
_cell_length_c   9.04390066
_cell_angle_alpha   89.98755267
_cell_angle_beta   89.95805414
_cell_angle_gamma   89.94986679
_symmetry_Int_Tables_number   1
_chemical_formula_structural   Ho5Er7Tc3Ir
_chemical_formula_sum   'Ho5 Er7 Tc3 Ir1'
_cell_volume   416.56702717
_cell_formula_units_Z   1
loop_
 _symmetry_equiv_pos_site_id
 _symmetry_equiv_pos_as_xyz
  1  'x, y, z'
loop_
 _atom_site_type_symbol
 _atom_site_label
 _atom_site_symmetry_multiplicity
 _atom_site_fract_x
 _atom_site_fract_y
 _atom_site_fract_z
 _atom_site_occupancy
  Ho  Ho0  1  0.162446  0.175757  0.063091  1
  Ho  Ho1  1  0.874545  0.540897  0.250200  1
  Ho  Ho2  1  0.624532  0.038280  0.250267  1
  Ho  Ho3  1  0.129703  0.458204  0.749794  1
  Ho  Ho4  1  0.372852  0.959812  0.749756  1
  Er  Er5  1  0.333975  0.676170  0.064141  1
  Er  Er6  1  0.162463  0.175517  0.437190  1
  Er  Er7  1  0.663558  0.322647  0.561493  1
  Er  Er8  1  0.836432  0.825111  0.937950  1
  Er  Er9  1  0.663552  0.322779  0.938359  1
  Er  Er10  1  0.836616  0.825445  0.561856  1
  Er  Er11  1  0.333764  0.676290  0.435904  1
  Tc  Tc12  1  0.038619  0.884196  0.250168  1
  Tc  Tc13  1  0.463566  0.386968  0.250411  1
  Tc  Tc14  1  0.959765  0.116066  0.749274  1
  Ir  Ir15  1  0.543612  0.615859  0.750147  1
