# generated using pymatgen
data_HfZr3Mn2(CuSi2)2
_symmetry_space_group_name_H-M   'P 1'
_cell_length_a   3.80961300
_cell_length_b   6.56376872
_cell_length_c   7.50410404
_cell_angle_alpha   89.74120902
_cell_angle_beta   90.00000000
_cell_angle_gamma   90.00000000
_symmetry_Int_Tables_number   1
_chemical_formula_structural   HfZr3Mn2(CuSi2)2
_chemical_formula_sum   'Hf1 Zr3 Mn2 Cu2 Si4'
_cell_volume   187.64134918
_cell_formula_units_Z   1
loop_
 _symmetry_equiv_pos_site_id
 _symmetry_equiv_pos_as_xyz
  1  'x, y, z'
loop_
 _atom_site_type_symbol
 _atom_site_label
 _atom_site_symmetry_multiplicity
 _atom_site_fract_x
 _atom_site_fract_y
 _atom_site_fract_z
 _atom_site_occupancy
  Hf  Hf0  1  0.750000  0.981963  0.184627  1
  Zr  Zr1  1  0.250000  0.524896  0.676990  1
  Zr  Zr2  1  0.750000  0.475129  0.322633  1
  Zr  Zr3  1  0.250000  0.018653  0.817166  1
  Mn  Mn4  1  0.750000  0.860900  0.561453  1
  Mn  Mn5  1  0.250000  0.138540  0.435950  1
  Cu  Cu6  1  0.750000  0.352994  0.937107  1
  Cu  Cu7  1  0.250000  0.647797  0.063799  1
  Si  Si8  1  0.250000  0.268151  0.122556  1
  Si  Si9  1  0.750000  0.730711  0.878627  1
  Si  Si10  1  0.250000  0.773697  0.382127  1
  Si  Si11  1  0.750000  0.226569  0.616966  1
