# generated using pymatgen
data_Y2Tm3(In2Pd)2
_symmetry_space_group_name_H-M   'P 1'
_cell_length_a   3.62267700
_cell_length_b   8.15763853
_cell_length_c   18.25770500
_cell_angle_alpha   89.88467283
_cell_angle_beta   90.00000000
_cell_angle_gamma   90.00000000
_symmetry_Int_Tables_number   1
_chemical_formula_structural   Y2Tm3(In2Pd)2
_chemical_formula_sum   'Y4 Tm6 In8 Pd4'
_cell_volume   539.55954156
_cell_formula_units_Z   2
loop_
 _symmetry_equiv_pos_site_id
 _symmetry_equiv_pos_as_xyz
  1  'x, y, z'
loop_
 _atom_site_type_symbol
 _atom_site_label
 _atom_site_symmetry_multiplicity
 _atom_site_fract_x
 _atom_site_fract_y
 _atom_site_fract_z
 _atom_site_occupancy
  Y  Y0  1  0.000000  0.500000  0.500000  1
  Y  Y1  1  0.000000  0.000000  0.000000  1
  Y  Y2  1  0.000000  0.738550  0.280808  1
  Y  Y3  1  0.000000  0.261450  0.719192  1
  Tm  Tm4  1  0.000000  0.760915  0.780420  1
  Tm  Tm5  1  0.000000  0.239085  0.219580  1
  Tm  Tm6  1  0.000000  0.615405  0.083820  1
  Tm  Tm7  1  0.000000  0.384595  0.916180  1
  Tm  Tm8  1  0.000000  0.883736  0.583828  1
  Tm  Tm9  1  0.000000  0.116264  0.416172  1
  In  In10  1  0.500000  0.708158  0.932373  1
  In  In11  1  0.500000  0.291842  0.067627  1
  In  In12  1  0.500000  0.793200  0.432805  1
  In  In13  1  0.500000  0.206800  0.567195  1
  In  In14  1  0.500000  0.583320  0.650531  1
  In  In15  1  0.500000  0.416680  0.349469  1
  In  In16  1  0.500000  0.918856  0.150231  1
  In  In17  1  0.500000  0.081144  0.849769  1
  Pd  Pd18  1  0.500000  0.519771  0.194670  1
  Pd  Pd19  1  0.500000  0.480229  0.805330  1
  Pd  Pd20  1  0.500000  0.973037  0.695435  1
  Pd  Pd21  1  0.500000  0.026963  0.304565  1
