# generated using pymatgen
data_HoEr11(CoTc)2
_symmetry_space_group_name_H-M   'P 1'
_cell_length_a   6.25217500
_cell_length_b   7.14263300
_cell_length_c   9.13322300
_cell_angle_alpha   90.00000000
_cell_angle_beta   90.00000000
_cell_angle_gamma   89.99976856
_symmetry_Int_Tables_number   1
_chemical_formula_structural   HoEr11(CoTc)2
_chemical_formula_sum   'Ho1 Er11 Co2 Tc2'
_cell_volume   407.86226166
_cell_formula_units_Z   1
loop_
 _symmetry_equiv_pos_site_id
 _symmetry_equiv_pos_as_xyz
  1  'x, y, z'
loop_
 _atom_site_type_symbol
 _atom_site_label
 _atom_site_symmetry_multiplicity
 _atom_site_fract_x
 _atom_site_fract_y
 _atom_site_fract_z
 _atom_site_occupancy
  Ho  Ho0  1  0.643838  0.459243  0.750000  1
  Er  Er1  1  0.668242  0.173251  0.063505  1
  Er  Er2  1  0.370538  0.546768  0.250000  1
  Er  Er3  1  0.143890  0.040711  0.250000  1
  Er  Er4  1  0.823202  0.681530  0.433365  1
  Er  Er5  1  0.323201  0.818523  0.933385  1
  Er  Er6  1  0.168235  0.326699  0.563493  1
  Er  Er7  1  0.668242  0.173251  0.436495  1
  Er  Er8  1  0.168235  0.326699  0.936507  1
  Er  Er9  1  0.323201  0.818523  0.566615  1
  Er  Er10  1  0.870512  0.953276  0.750000  1
  Er  Er11  1  0.823202  0.681530  0.066635  1
  Co  Co12  1  0.540585  0.885433  0.250000  1
  Co  Co13  1  0.040638  0.614594  0.750000  1
  Tc  Tc14  1  0.962135  0.390824  0.250000  1
  Tc  Tc15  1  0.462104  0.109144  0.750000  1
