# generated using pymatgen
data_Cs2NaHoAs2
_symmetry_space_group_name_H-M   'P 1'
_cell_length_a   9.80908794
_cell_length_b   9.80908810
_cell_length_c   9.80908859
_cell_angle_alpha   136.68500956
_cell_angle_beta   136.47488545
_cell_angle_gamma   63.08515052
_symmetry_Int_Tables_number   1
_chemical_formula_structural   Cs2NaHoAs2
_chemical_formula_sum   'Cs4 Na2 Ho2 As4'
_cell_volume   440.25237013
_cell_formula_units_Z   2
loop_
 _symmetry_equiv_pos_site_id
 _symmetry_equiv_pos_as_xyz
  1  'x, y, z'
loop_
 _atom_site_type_symbol
 _atom_site_label
 _atom_site_symmetry_multiplicity
 _atom_site_fract_x
 _atom_site_fract_y
 _atom_site_fract_z
 _atom_site_occupancy
  Cs  Cs0  1  0.537943  0.320547  0.217396  1
  Cs  Cs1  1  0.462057  0.679453  0.782604  1
  Cs  Cs2  1  0.103151  0.820547  0.282604  1
  Cs  Cs3  1  0.896849  0.179453  0.717396  1
  Na  Na4  1  0.500000  0.250000  0.750000  1
  Na  Na5  1  0.500000  0.750000  0.250000  1
  Ho  Ho6  1  0.000000  0.250000  0.250000  1
  Ho  Ho7  1  0.000000  0.750000  0.750000  1
  As  As8  1  0.308869  0.088939  0.219930  1
  As  As9  1  0.691131  0.911061  0.780070  1
  As  As10  1  0.869010  0.588939  0.280070  1
  As  As11  1  0.130990  0.411061  0.719930  1
