# generated using pymatgen
data_La(Tc2P)2
_symmetry_space_group_name_H-M   'P 1'
_cell_length_a   7.55482800
_cell_length_b   7.55482800
_cell_length_c   3.97537200
_cell_angle_alpha   90.00000000
_cell_angle_beta   90.00000000
_cell_angle_gamma   90.00000000
_symmetry_Int_Tables_number   1
_chemical_formula_structural   La(Tc2P)2
_chemical_formula_sum   'La2 Tc8 P4'
_cell_volume   226.89605084
_cell_formula_units_Z   2
loop_
 _symmetry_equiv_pos_site_id
 _symmetry_equiv_pos_as_xyz
  1  'x, y, z'
loop_
 _atom_site_type_symbol
 _atom_site_label
 _atom_site_symmetry_multiplicity
 _atom_site_fract_x
 _atom_site_fract_y
 _atom_site_fract_z
 _atom_site_occupancy
  La  La0  1  0.000000  0.000000  0.500000  1
  La  La1  1  0.500000  0.500000  0.000000  1
  Tc  Tc2  1  0.081336  0.341518  0.000000  1
  Tc  Tc3  1  0.841518  0.418664  0.500000  1
  Tc  Tc4  1  0.158482  0.581336  0.500000  1
  Tc  Tc5  1  0.918664  0.658482  0.000000  1
  Tc  Tc6  1  0.418664  0.841518  0.500000  1
  Tc  Tc7  1  0.581336  0.158482  0.500000  1
  Tc  Tc8  1  0.341518  0.081336  0.000000  1
  Tc  Tc9  1  0.658482  0.918664  0.000000  1
  P  P10  1  0.786276  0.213724  0.000000  1
  P  P11  1  0.713724  0.713724  0.500000  1
  P  P12  1  0.286276  0.286276  0.500000  1
  P  P13  1  0.213724  0.786276  0.000000  1
