# generated using pymatgen
data_Ho11Th5Mg3HgRu4
_symmetry_space_group_name_H-M   'P 1'
_cell_length_a   9.66895354
_cell_length_b   9.73939893
_cell_length_c   9.73939967
_cell_angle_alpha   59.74944691
_cell_angle_beta   60.28943843
_cell_angle_gamma   60.28944038
_symmetry_Int_Tables_number   1
_chemical_formula_structural   Ho11Th5Mg3HgRu4
_chemical_formula_sum   'Ho11 Th5 Mg3 Hg1 Ru4'
_cell_volume   650.09799055
_cell_formula_units_Z   1
loop_
 _symmetry_equiv_pos_site_id
 _symmetry_equiv_pos_as_xyz
  1  'x, y, z'
loop_
 _atom_site_type_symbol
 _atom_site_label
 _atom_site_symmetry_multiplicity
 _atom_site_fract_x
 _atom_site_fract_y
 _atom_site_fract_z
 _atom_site_occupancy
  Ho  Ho0  1  0.186238  0.812663  0.812663  1
  Ho  Ho1  1  0.191130  0.809023  0.185805  1
  Ho  Ho2  1  0.812443  0.185106  0.809460  1
  Ho  Ho3  1  0.191130  0.185805  0.809023  1
  Ho  Ho4  1  0.812443  0.809460  0.185106  1
  Ho  Ho5  1  0.931530  0.566865  0.566865  1
  Ho  Ho6  1  0.564379  0.934724  0.934724  1
  Ho  Ho7  1  0.562877  0.933118  0.564580  1
  Ho  Ho8  1  0.936657  0.564051  0.935443  1
  Ho  Ho9  1  0.562877  0.564580  0.933118  1
  Ho  Ho10  1  0.936657  0.935443  0.564051  1
  Th  Th11  1  0.342414  0.348326  0.348326  1
  Th  Th12  1  0.348172  0.348307  0.956884  1
  Th  Th13  1  0.348172  0.956884  0.348307  1
  Th  Th14  1  0.956415  0.350655  0.350655  1
  Th  Th15  1  0.816493  0.183914  0.183914  1
  Mg  Mg16  1  0.578667  0.582325  0.261397  1
  Mg  Mg17  1  0.578667  0.261397  0.582325  1
  Mg  Mg18  1  0.262891  0.579105  0.579105  1
  Hg  Hg19  1  0.583497  0.583370  0.583370  1
  Ru  Ru20  1  0.129660  0.146935  0.146935  1
  Ru  Ru21  1  0.144980  0.142358  0.568225  1
  Ru  Ru22  1  0.144980  0.568225  0.142358  1
  Ru  Ru23  1  0.576627  0.147364  0.147364  1
