# generated using pymatgen
data_YbYNi7
_symmetry_space_group_name_H-M   'P 1'
_cell_length_a   4.88542959
_cell_length_b   4.88542953
_cell_length_c   12.29406884
_cell_angle_alpha   78.53961125
_cell_angle_beta   78.53961141
_cell_angle_gamma   59.99999248
_symmetry_Int_Tables_number   1
_chemical_formula_structural   YbYNi7
_chemical_formula_sum   'Yb2 Y2 Ni14'
_cell_volume   247.33747412
_cell_formula_units_Z   2
loop_
 _symmetry_equiv_pos_site_id
 _symmetry_equiv_pos_as_xyz
  1  'x, y, z'
loop_
 _atom_site_type_symbol
 _atom_site_label
 _atom_site_symmetry_multiplicity
 _atom_site_fract_x
 _atom_site_fract_y
 _atom_site_fract_z
 _atom_site_occupancy
  Yb  Yb0  1  0.851126  0.851126  0.446621  1
  Yb  Yb1  1  0.148874  0.148874  0.553379  1
  Y  Y2  1  0.947756  0.947756  0.156732  1
  Y  Y3  1  0.052244  0.052244  0.843268  1
  Ni  Ni4  1  0.500000  0.500000  0.500000  1
  Ni  Ni5  1  0.722256  0.722256  0.833231  1
  Ni  Ni6  1  0.277744  0.277744  0.166769  1
  Ni  Ni7  1  0.611440  0.611440  0.165679  1
  Ni  Ni8  1  0.388560  0.388560  0.834321  1
  Ni  Ni9  1  0.000000  0.500000  0.000000  1
  Ni  Ni10  1  0.500000  0.000000  0.000000  1
  Ni  Ni11  1  0.500000  0.500000  0.000000  1
  Ni  Ni12  1  0.389216  0.389216  0.331467  1
  Ni  Ni13  1  0.890102  0.389216  0.331467  1
  Ni  Ni14  1  0.389216  0.890102  0.331467  1
  Ni  Ni15  1  0.610784  0.610784  0.668533  1
  Ni  Ni16  1  0.109898  0.610784  0.668533  1
  Ni  Ni17  1  0.610784  0.109898  0.668533  1
