# generated using pymatgen
data_Cs4TcMoP4
_symmetry_space_group_name_H-M   'P 1'
_cell_length_a   8.75269613
_cell_length_b   8.75269596
_cell_length_c   8.75269618
_cell_angle_alpha   139.15744663
_cell_angle_beta   124.80004203
_cell_angle_gamma   70.89964889
_symmetry_Int_Tables_number   1
_chemical_formula_structural   Cs4TcMoP4
_chemical_formula_sum   'Cs4 Tc1 Mo1 P4'
_cell_volume   353.20500399
_cell_formula_units_Z   1
loop_
 _symmetry_equiv_pos_site_id
 _symmetry_equiv_pos_as_xyz
  1  'x, y, z'
loop_
 _atom_site_type_symbol
 _atom_site_label
 _atom_site_symmetry_multiplicity
 _atom_site_fract_x
 _atom_site_fract_y
 _atom_site_fract_z
 _atom_site_occupancy
  Cs  Cs0  1  0.986780  0.150977  0.834945  1
  Cs  Cs1  1  0.013220  0.848167  0.164198  1
  Cs  Cs2  1  0.683969  0.349023  0.335802  1
  Cs  Cs3  1  0.316031  0.651833  0.665055  1
  Tc  Tc4  1  0.500000  0.250000  0.750000  1
  Mo  Mo5  1  0.500000  0.750000  0.250000  1
  P  P6  1  0.742464  0.584053  0.150677  1
  P  P7  1  0.566624  0.915947  0.658410  1
  P  P8  1  0.433376  0.091786  0.349323  1
  P  P9  1  0.257536  0.408214  0.841590  1
