# generated using pymatgen
data_Er(ZnAg)6
_symmetry_space_group_name_H-M   'P 1'
_cell_length_a   7.06319015
_cell_length_b   7.06318948
_cell_length_c   7.06318954
_cell_angle_alpha   97.49740159
_cell_angle_beta   98.07207186
_cell_angle_gamma   136.81100328
_symmetry_Int_Tables_number   1
_chemical_formula_structural   Er(ZnAg)6
_chemical_formula_sum   'Er1 Zn6 Ag6'
_cell_volume   224.23584109
_cell_formula_units_Z   1
loop_
 _symmetry_equiv_pos_site_id
 _symmetry_equiv_pos_as_xyz
  1  'x, y, z'
loop_
 _atom_site_type_symbol
 _atom_site_label
 _atom_site_symmetry_multiplicity
 _atom_site_fract_x
 _atom_site_fract_y
 _atom_site_fract_z
 _atom_site_occupancy
  Er  Er0  1  0.000000  0.000000  0.000000  1
  Zn  Zn1  1  0.000000  0.500000  0.000000  1
  Zn  Zn2  1  0.500000  0.500000  0.500000  1
  Zn  Zn3  1  0.000000  0.000000  0.500000  1
  Zn  Zn4  1  0.500000  0.000000  0.000000  1
  Zn  Zn5  1  0.500000  0.720523  0.220523  1
  Zn  Zn6  1  0.500000  0.279477  0.779477  1
  Ag  Ag7  1  0.700639  0.500000  0.200639  1
  Ag  Ag8  1  0.347694  0.000000  0.347694  1
  Ag  Ag9  1  0.000000  0.655198  0.655198  1
  Ag  Ag10  1  0.000000  0.344802  0.344802  1
  Ag  Ag11  1  0.652306  0.000000  0.652306  1
  Ag  Ag12  1  0.299361  0.500000  0.799361  1
