# generated using pymatgen
data_PRuPt
_symmetry_space_group_name_H-M   'P 1'
_cell_length_a   3.85919800
_cell_length_b   8.15440100
_cell_length_c   5.67692100
_cell_angle_alpha   90.00000000
_cell_angle_beta   90.00000000
_cell_angle_gamma   90.00000000
_symmetry_Int_Tables_number   1
_chemical_formula_structural   PRuPt
_chemical_formula_sum   'P4 Ru4 Pt4'
_cell_volume   178.64957038
_cell_formula_units_Z   4
loop_
 _symmetry_equiv_pos_site_id
 _symmetry_equiv_pos_as_xyz
  1  'x, y, z'
loop_
 _atom_site_type_symbol
 _atom_site_label
 _atom_site_symmetry_multiplicity
 _atom_site_fract_x
 _atom_site_fract_y
 _atom_site_fract_z
 _atom_site_occupancy
  P  P0  1  0.250000  0.853916  0.683102  1
  P  P1  1  0.250000  0.353916  0.816898  1
  P  P2  1  0.750000  0.146084  0.316898  1
  P  P3  1  0.750000  0.646084  0.183102  1
  Ru  Ru4  1  0.250000  0.123969  0.556877  1
  Ru  Ru5  1  0.250000  0.623969  0.943123  1
  Ru  Ru6  1  0.750000  0.876031  0.443123  1
  Ru  Ru7  1  0.750000  0.376031  0.056877  1
  Pt  Pt8  1  0.250000  0.115403  0.058232  1
  Pt  Pt9  1  0.250000  0.615403  0.441768  1
  Pt  Pt10  1  0.750000  0.884597  0.941768  1
  Pt  Pt11  1  0.750000  0.384597  0.558232  1
