# generated using pymatgen
data_TbDy3Be4(SiO7)2
_symmetry_space_group_name_H-M   'P 1'
_cell_length_a   7.34179003
_cell_length_b   7.34179003
_cell_length_c   4.79379032
_cell_angle_alpha   90.02984030
_cell_angle_beta   89.97015970
_cell_angle_gamma   90.05296225
_symmetry_Int_Tables_number   1
_chemical_formula_structural   TbDy3Be4(SiO7)2
_chemical_formula_sum   'Tb1 Dy3 Be4 Si2 O14'
_cell_volume   258.39413467
_cell_formula_units_Z   1
loop_
 _symmetry_equiv_pos_site_id
 _symmetry_equiv_pos_as_xyz
  1  'x, y, z'
loop_
 _atom_site_type_symbol
 _atom_site_label
 _atom_site_symmetry_multiplicity
 _atom_site_fract_x
 _atom_site_fract_y
 _atom_site_fract_z
 _atom_site_occupancy
  Tb  Tb0  1  0.158910  0.341090  0.507240  1
  Dy  Dy1  1  0.658758  0.158744  0.492273  1
  Dy  Dy2  1  0.341256  0.841242  0.492273  1
  Dy  Dy3  1  0.840873  0.659127  0.507635  1
  Be  Be4  1  0.136593  0.637276  0.040038  1
  Be  Be5  1  0.636510  0.863490  0.959666  1
  Be  Be6  1  0.363857  0.136143  0.959585  1
  Be  Be7  1  0.862724  0.363407  0.040038  1
  Si  Si8  1  0.500372  0.500094  0.000260  1
  Si  Si9  1  0.999906  0.999628  0.000260  1
  O  O10  1  0.918197  0.162818  0.199386  1
  O  O11  1  0.837101  0.918290  0.800208  1
  O  O12  1  0.163167  0.080863  0.801079  1
  O  O13  1  0.081453  0.837282  0.200514  1
  O  O14  1  0.419137  0.336833  0.801079  1
  O  O15  1  0.581710  0.662899  0.800208  1
  O  O16  1  0.662718  0.418547  0.200514  1
  O  O17  1  0.337182  0.581803  0.199386  1
  O  O18  1  0.641480  0.858520  0.291413  1
  O  O19  1  0.141251  0.642390  0.708503  1
  O  O20  1  0.857610  0.358749  0.708503  1
  O  O21  1  0.359785  0.140215  0.291520  1
  O  O22  1  0.500314  0.999686  0.817779  1
  O  O23  1  0.999136  0.500864  0.180639  1
