# generated using pymatgen
data_Yb5GeSb2
_symmetry_space_group_name_H-M   'P 1'
_cell_length_a   7.93580200
_cell_length_b   9.44862500
_cell_length_c   12.60808800
_cell_angle_alpha   90.00000000
_cell_angle_beta   90.00000000
_cell_angle_gamma   90.00000000
_symmetry_Int_Tables_number   1
_chemical_formula_structural   Yb5GeSb2
_chemical_formula_sum   'Yb20 Ge4 Sb8'
_cell_volume   945.38491416
_cell_formula_units_Z   4
loop_
 _symmetry_equiv_pos_site_id
 _symmetry_equiv_pos_as_xyz
  1  'x, y, z'
loop_
 _atom_site_type_symbol
 _atom_site_label
 _atom_site_symmetry_multiplicity
 _atom_site_fract_x
 _atom_site_fract_y
 _atom_site_fract_z
 _atom_site_occupancy
  Yb  Yb0  1  0.328585  0.750000  0.717820  1
  Yb  Yb1  1  0.671415  0.250000  0.282180  1
  Yb  Yb2  1  0.828585  0.250000  0.782180  1
  Yb  Yb3  1  0.171415  0.750000  0.217820  1
  Yb  Yb4  1  0.055341  0.750000  0.500583  1
  Yb  Yb5  1  0.944659  0.250000  0.499417  1
  Yb  Yb6  1  0.555341  0.250000  0.999417  1
  Yb  Yb7  1  0.444659  0.750000  0.000583  1
  Yb  Yb8  1  0.853429  0.750000  0.801003  1
  Yb  Yb9  1  0.146571  0.250000  0.198997  1
  Yb  Yb10  1  0.353429  0.250000  0.698997  1
  Yb  Yb11  1  0.646571  0.750000  0.301003  1
  Yb  Yb12  1  0.677599  0.527229  0.574093  1
  Yb  Yb13  1  0.322401  0.472771  0.425907  1
  Yb  Yb14  1  0.177599  0.472771  0.925907  1
  Yb  Yb15  1  0.322401  0.027229  0.425907  1
  Yb  Yb16  1  0.822401  0.527229  0.074093  1
  Yb  Yb17  1  0.677599  0.972771  0.574093  1
  Yb  Yb18  1  0.822401  0.972771  0.074093  1
  Yb  Yb19  1  0.177599  0.027229  0.925907  1
  Ge  Ge20  1  0.058833  0.750000  0.990540  1
  Ge  Ge21  1  0.941167  0.250000  0.009460  1
  Ge  Ge22  1  0.558833  0.250000  0.509460  1
  Ge  Ge23  1  0.441167  0.750000  0.490540  1
  Sb  Sb24  1  0.560273  0.507479  0.831416  1
  Sb  Sb25  1  0.439727  0.492521  0.168584  1
  Sb  Sb26  1  0.060273  0.492521  0.668584  1
  Sb  Sb27  1  0.439727  0.007479  0.168584  1
  Sb  Sb28  1  0.939727  0.507479  0.331416  1
  Sb  Sb29  1  0.560273  0.992521  0.831416  1
  Sb  Sb30  1  0.939727  0.992521  0.331416  1
  Sb  Sb31  1  0.060273  0.007479  0.668584  1
