# generated using pymatgen
data_Ba2Tc6Se11
_symmetry_space_group_name_H-M   'P 1'
_cell_length_a   12.55786953
_cell_length_b   12.55786937
_cell_length_c   12.55786872
_cell_angle_alpha   45.20701682
_cell_angle_beta   45.20702058
_cell_angle_gamma   45.20701449
_symmetry_Int_Tables_number   1
_chemical_formula_structural   Ba2Tc6Se11
_chemical_formula_sum   'Ba4 Tc12 Se22'
_cell_volume   908.16080941
_cell_formula_units_Z   2
loop_
 _symmetry_equiv_pos_site_id
 _symmetry_equiv_pos_as_xyz
  1  'x, y, z'
loop_
 _atom_site_type_symbol
 _atom_site_label
 _atom_site_symmetry_multiplicity
 _atom_site_fract_x
 _atom_site_fract_y
 _atom_site_fract_z
 _atom_site_occupancy
  Ba  Ba0  1  0.310532  0.310532  0.310532  1
  Ba  Ba1  1  0.189468  0.189468  0.189468  1
  Ba  Ba2  1  0.689468  0.689468  0.689468  1
  Ba  Ba3  1  0.810532  0.810532  0.810532  1
  Tc  Tc4  1  0.613527  0.299132  0.489788  1
  Tc  Tc5  1  0.489788  0.613527  0.299132  1
  Tc  Tc6  1  0.799132  0.113527  0.989788  1
  Tc  Tc7  1  0.989788  0.799132  0.113527  1
  Tc  Tc8  1  0.113527  0.989788  0.799132  1
  Tc  Tc9  1  0.700868  0.510212  0.386473  1
  Tc  Tc10  1  0.386473  0.700868  0.510212  1
  Tc  Tc11  1  0.510212  0.386473  0.700868  1
  Tc  Tc12  1  0.299132  0.489788  0.613527  1
  Tc  Tc13  1  0.886473  0.010212  0.200868  1
  Tc  Tc14  1  0.010212  0.200868  0.886473  1
  Tc  Tc15  1  0.200868  0.886473  0.010212  1
  Se  Se16  1  0.090732  0.090732  0.090732  1
  Se  Se17  1  0.409268  0.409268  0.409268  1
  Se  Se18  1  0.909268  0.909268  0.909268  1
  Se  Se19  1  0.590732  0.590732  0.590732  1
  Se  Se20  1  0.250000  0.984062  0.515938  1
  Se  Se21  1  0.515938  0.250000  0.984062  1
  Se  Se22  1  0.984062  0.515938  0.250000  1
  Se  Se23  1  0.750000  0.015938  0.484062  1
  Se  Se24  1  0.484062  0.750000  0.015938  1
  Se  Se25  1  0.015938  0.484062  0.750000  1
  Se  Se26  1  0.073569  0.707823  0.310077  1
  Se  Se27  1  0.310077  0.073569  0.707823  1
  Se  Se28  1  0.707823  0.310077  0.073569  1
  Se  Se29  1  0.426431  0.189923  0.792177  1
  Se  Se30  1  0.792177  0.426431  0.189923  1
  Se  Se31  1  0.189923  0.792177  0.426431  1
  Se  Se32  1  0.810077  0.207823  0.573569  1
  Se  Se33  1  0.207823  0.573569  0.810077  1
  Se  Se34  1  0.573569  0.810077  0.207823  1
  Se  Se35  1  0.292177  0.689923  0.926431  1
  Se  Se36  1  0.689923  0.926431  0.292177  1
  Se  Se37  1  0.926431  0.292177  0.689923  1
