# generated using pymatgen
data_Pr4HoCo(P2Ru3)6
_symmetry_space_group_name_H-M   'P 1'
_cell_length_a   12.58542351
_cell_length_b   12.63260092
_cell_length_c   4.00768100
_cell_angle_alpha   90.00000000
_cell_angle_beta   90.00000000
_cell_angle_gamma   120.12408725
_symmetry_Int_Tables_number   1
_chemical_formula_structural   Pr4HoCo(P2Ru3)6
_chemical_formula_sum   'Pr4 Ho1 Co1 P12 Ru18'
_cell_volume   551.11216017
_cell_formula_units_Z   1
loop_
 _symmetry_equiv_pos_site_id
 _symmetry_equiv_pos_as_xyz
  1  'x, y, z'
loop_
 _atom_site_type_symbol
 _atom_site_label
 _atom_site_symmetry_multiplicity
 _atom_site_fract_x
 _atom_site_fract_y
 _atom_site_fract_z
 _atom_site_occupancy
  Pr  Pr0  1  0.666353  0.332528  0.000000  1
  Pr  Pr1  1  0.333647  0.666177  0.000000  1
  Pr  Pr2  1  0.816212  0.816685  0.500000  1
  Pr  Pr3  1  0.183788  0.000473  0.500000  1
  Ho  Ho4  1  0.000000  0.185084  0.500000  1
  Co  Co5  1  0.000000  0.001882  0.000000  1
  P  P6  1  0.694594  0.168992  0.500000  1
  P  P7  1  0.830516  0.524329  0.500000  1
  P  P8  1  0.472945  0.304519  0.500000  1
  P  P9  1  0.169484  0.693812  0.500000  1
  P  P10  1  0.527055  0.831573  0.500000  1
  P  P11  1  0.305406  0.474397  0.500000  1
  P  P12  1  0.177003  0.180745  0.000000  1
  P  P13  1  0.822997  0.003741  0.000000  1
  P  P14  1  0.000000  0.818351  0.000000  1
  P  P15  1  0.624683  0.625010  0.000000  1
  P  P16  1  0.375317  0.000327  0.000000  1
  P  P17  1  0.000000  0.373381  0.000000  1
  Ru  Ru18  1  0.875664  0.365489  0.500000  1
  Ru  Ru19  1  0.632784  0.508281  0.500000  1
  Ru  Ru20  1  0.489816  0.123773  0.500000  1
  Ru  Ru21  1  0.367216  0.875496  0.500000  1
  Ru  Ru22  1  0.510184  0.633956  0.500000  1
  Ru  Ru23  1  0.124336  0.489824  0.500000  1
  Ru  Ru24  1  0.442165  0.444073  0.000000  1
  Ru  Ru25  1  0.557835  0.001909  0.000000  1
  Ru  Ru26  1  0.000000  0.554871  0.000000  1
  Ru  Ru27  1  0.811224  0.184789  0.000000  1
  Ru  Ru28  1  0.816014  0.622933  0.000000  1
  Ru  Ru29  1  0.375237  0.193403  0.000000  1
  Ru  Ru30  1  0.183986  0.806919  0.000000  1
  Ru  Ru31  1  0.624763  0.818167  0.000000  1
  Ru  Ru32  1  0.188776  0.373566  0.000000  1
  Ru  Ru33  1  0.278795  0.280983  0.500000  1
  Ru  Ru34  1  0.721205  0.002187  0.500000  1
  Ru  Ru35  1  0.000000  0.717376  0.500000  1
