# generated using pymatgen
data_Sm2SiGe(Ru2C)2
_symmetry_space_group_name_H-M   'P 1'
_cell_length_a   5.90275356
_cell_length_b   5.90275244
_cell_length_c   7.27523000
_cell_angle_alpha   90.00000000
_cell_angle_beta   90.00000000
_cell_angle_gamma   141.18024666
_symmetry_Int_Tables_number   1
_chemical_formula_structural   Sm2SiGe(Ru2C)2
_chemical_formula_sum   'Sm2 Si1 Ge1 Ru4 C2'
_cell_volume   158.90411315
_cell_formula_units_Z   1
loop_
 _symmetry_equiv_pos_site_id
 _symmetry_equiv_pos_as_xyz
  1  'x, y, z'
loop_
 _atom_site_type_symbol
 _atom_site_label
 _atom_site_symmetry_multiplicity
 _atom_site_fract_x
 _atom_site_fract_y
 _atom_site_fract_z
 _atom_site_occupancy
  Sm  Sm0  1  0.547793  0.452207  0.250000  1
  Sm  Sm1  1  0.452500  0.547500  0.750000  1
  Si  Si2  1  0.269144  0.730856  0.250000  1
  Ge  Ge3  1  0.731391  0.268609  0.750000  1
  Ru  Ru4  1  0.836065  0.163935  0.063176  1
  Ru  Ru5  1  0.164004  0.835996  0.947667  1
  Ru  Ru6  1  0.164004  0.835996  0.552333  1
  Ru  Ru7  1  0.836065  0.163935  0.436824  1
  C  C8  1  0.999516  0.000484  0.000731  1
  C  C9  1  0.999516  0.000484  0.499269  1
