# generated using pymatgen
data_Lu(ZnAu)6
_symmetry_space_group_name_H-M   'P 1'
_cell_length_a   7.03071690
_cell_length_b   7.03071639
_cell_length_c   7.03071607
_cell_angle_alpha   100.13737144
_cell_angle_beta   95.81662560
_cell_angle_gamma   136.27338153
_symmetry_Int_Tables_number   1
_chemical_formula_structural   Lu(ZnAu)6
_chemical_formula_sum   'Lu1 Zn6 Au6'
_cell_volume   222.73510393
_cell_formula_units_Z   1
loop_
 _symmetry_equiv_pos_site_id
 _symmetry_equiv_pos_as_xyz
  1  'x, y, z'
loop_
 _atom_site_type_symbol
 _atom_site_label
 _atom_site_symmetry_multiplicity
 _atom_site_fract_x
 _atom_site_fract_y
 _atom_site_fract_z
 _atom_site_occupancy
  Lu  Lu0  1  0.000000  0.000000  0.000000  1
  Zn  Zn1  1  0.000000  0.000000  0.500000  1
  Zn  Zn2  1  0.500000  0.000000  0.000000  1
  Zn  Zn3  1  0.000000  0.500000  0.000000  1
  Zn  Zn4  1  0.500000  0.500000  0.500000  1
  Zn  Zn5  1  0.500000  0.742161  0.242161  1
  Zn  Zn6  1  0.500000  0.257839  0.757839  1
  Au  Au7  1  0.327539  0.500000  0.827539  1
  Au  Au8  1  0.664036  0.000000  0.664036  1
  Au  Au9  1  0.000000  0.667862  0.667862  1
  Au  Au10  1  0.000000  0.332138  0.332138  1
  Au  Au11  1  0.335964  0.000000  0.335964  1
  Au  Au12  1  0.672461  0.500000  0.172461  1
