# generated using pymatgen
data_Hf10Re3Ni
_symmetry_space_group_name_H-M   'P 1'
_cell_length_a   8.71664200
_cell_length_b   8.71664301
_cell_length_c   8.45757400
_cell_angle_alpha   90.00000000
_cell_angle_beta   90.00000000
_cell_angle_gamma   120.00000375
_symmetry_Int_Tables_number   1
_chemical_formula_structural   Hf10Re3Ni
_chemical_formula_sum   'Hf20 Re6 Ni2'
_cell_volume   556.51245840
_cell_formula_units_Z   2
loop_
 _symmetry_equiv_pos_site_id
 _symmetry_equiv_pos_as_xyz
  1  'x, y, z'
loop_
 _atom_site_type_symbol
 _atom_site_label
 _atom_site_symmetry_multiplicity
 _atom_site_fract_x
 _atom_site_fract_y
 _atom_site_fract_z
 _atom_site_occupancy
  Hf  Hf0  1  0.201057  0.798943  0.442512  1
  Hf  Hf1  1  0.201057  0.402113  0.442512  1
  Hf  Hf2  1  0.597887  0.798943  0.442512  1
  Hf  Hf3  1  0.798943  0.201057  0.557488  1
  Hf  Hf4  1  0.798943  0.597887  0.557488  1
  Hf  Hf5  1  0.402113  0.201057  0.557488  1
  Hf  Hf6  1  0.798943  0.201057  0.942512  1
  Hf  Hf7  1  0.798943  0.597887  0.942512  1
  Hf  Hf8  1  0.402113  0.201057  0.942512  1
  Hf  Hf9  1  0.201057  0.798943  0.057488  1
  Hf  Hf10  1  0.201057  0.402113  0.057488  1
  Hf  Hf11  1  0.597887  0.798943  0.057488  1
  Hf  Hf12  1  0.542413  0.457587  0.250000  1
  Hf  Hf13  1  0.542413  0.084826  0.250000  1
  Hf  Hf14  1  0.915174  0.457587  0.250000  1
  Hf  Hf15  1  0.457587  0.542413  0.750000  1
  Hf  Hf16  1  0.457587  0.915174  0.750000  1
  Hf  Hf17  1  0.084826  0.542413  0.750000  1
  Hf  Hf18  1  0.000000  0.000000  0.500000  1
  Hf  Hf19  1  0.000000  0.000000  0.000000  1
  Re  Re20  1  0.882505  0.117495  0.250000  1
  Re  Re21  1  0.882505  0.765009  0.250000  1
  Re  Re22  1  0.234991  0.117495  0.250000  1
  Re  Re23  1  0.117495  0.882505  0.750000  1
  Re  Re24  1  0.117495  0.234991  0.750000  1
  Re  Re25  1  0.765009  0.882505  0.750000  1
  Ni  Ni26  1  0.333333  0.666667  0.250000  1
  Ni  Ni27  1  0.666667  0.333333  0.750000  1
