# generated using pymatgen
data_GaSn3(PN2)6
_symmetry_space_group_name_H-M   'P 1'
_cell_length_a   7.41729555
_cell_length_b   7.41729432
_cell_length_c   7.41729600
_cell_angle_alpha   109.42746308
_cell_angle_beta   109.42745152
_cell_angle_gamma   109.42743456
_symmetry_Int_Tables_number   1
_chemical_formula_structural   GaSn3(PN2)6
_chemical_formula_sum   'Ga1 Sn3 P6 N12'
_cell_volume   314.64195550
_cell_formula_units_Z   1
loop_
 _symmetry_equiv_pos_site_id
 _symmetry_equiv_pos_as_xyz
  1  'x, y, z'
loop_
 _atom_site_type_symbol
 _atom_site_label
 _atom_site_symmetry_multiplicity
 _atom_site_fract_x
 _atom_site_fract_y
 _atom_site_fract_z
 _atom_site_occupancy
  Ga  Ga0  1  0.718080  0.718080  0.718080  1
  Sn  Sn1  1  0.007032  0.302925  0.007032  1
  Sn  Sn2  1  0.007032  0.007032  0.302925  1
  Sn  Sn3  1  0.302925  0.007032  0.007032  1
  P  P4  1  0.516896  0.268574  0.768382  1
  P  P5  1  0.268574  0.768382  0.516896  1
  P  P6  1  0.768382  0.516896  0.268574  1
  P  P7  1  0.768382  0.268574  0.516896  1
  P  P8  1  0.516896  0.768382  0.268574  1
  P  P9  1  0.268574  0.516896  0.768382  1
  N  N10  1  0.445762  0.728274  0.445762  1
  N  N11  1  0.728274  0.445762  0.445762  1
  N  N12  1  0.445762  0.445762  0.728274  1
  N  N13  1  0.733780  0.304103  0.733780  1
  N  N14  1  0.018693  0.595166  0.299022  1
  N  N15  1  0.299022  0.595166  0.018693  1
  N  N16  1  0.299022  0.018693  0.595166  1
  N  N17  1  0.018693  0.299022  0.595166  1
  N  N18  1  0.733780  0.733780  0.304103  1
  N  N19  1  0.595166  0.018693  0.299022  1
  N  N20  1  0.304103  0.733780  0.733780  1
  N  N21  1  0.595166  0.299022  0.018693  1
