# generated using pymatgen
data_Ba3Tm2WO9
_symmetry_space_group_name_H-M   'P 1'
_cell_length_a   6.04233040
_cell_length_b   8.56095495
_cell_length_c   10.47236881
_cell_angle_alpha   65.87428107
_cell_angle_beta   73.23246836
_cell_angle_gamma   89.99999793
_symmetry_Int_Tables_number   1
_chemical_formula_structural   Ba3Tm2WO9
_chemical_formula_sum   'Ba6 Tm4 W2 O18'
_cell_volume   469.04762088
_cell_formula_units_Z   2
loop_
 _symmetry_equiv_pos_site_id
 _symmetry_equiv_pos_as_xyz
  1  'x, y, z'
loop_
 _atom_site_type_symbol
 _atom_site_label
 _atom_site_symmetry_multiplicity
 _atom_site_fract_x
 _atom_site_fract_y
 _atom_site_fract_z
 _atom_site_occupancy
  Ba  Ba0  1  0.500000  0.265906  0.000000  1
  Ba  Ba1  1  0.839496  0.579900  0.321006  1
  Ba  Ba2  1  0.160504  0.900908  0.678994  1
  Ba  Ba3  1  0.500000  0.734094  0.000000  1
  Ba  Ba4  1  0.839496  0.099092  0.321006  1
  Ba  Ba5  1  0.160504  0.420100  0.678994  1
  Tm  Tm6  1  0.000000  0.000000  0.000000  1
  Tm  Tm7  1  0.329786  0.329786  0.340427  1
  Tm  Tm8  1  0.670214  0.670214  0.659573  1
  Tm  Tm9  1  0.000000  0.500000  0.000000  1
  W  W10  1  0.334151  0.834151  0.331698  1
  W  W11  1  0.665849  0.165849  0.668301  1
  O  O12  1  0.000000  0.246592  0.000000  1
  O  O13  1  0.330726  0.599867  0.338545  1
  O  O14  1  0.669274  0.938414  0.661455  1
  O  O15  1  0.162600  0.411403  0.177194  1
  O  O16  1  0.491290  0.758912  0.482174  1
  O  O17  1  0.818625  0.088882  0.822235  1
  O  O18  1  0.339793  0.588597  0.822806  1
  O  O19  1  0.640861  0.911118  0.177765  1
  O  O20  1  0.973466  0.241088  0.517826  1
  O  O21  1  0.000000  0.753408  0.000000  1
  O  O22  1  0.330726  0.061586  0.338545  1
  O  O23  1  0.669274  0.400133  0.661455  1
  O  O24  1  0.837400  0.588597  0.822806  1
  O  O25  1  0.181375  0.911118  0.177765  1
  O  O26  1  0.508710  0.241088  0.517826  1
  O  O27  1  0.660207  0.411403  0.177194  1
  O  O28  1  0.026534  0.758912  0.482174  1
  O  O29  1  0.359139  0.088882  0.822235  1
