# generated using pymatgen
data_Y14ErTh5Sn16
_symmetry_space_group_name_H-M   'P 1'
_cell_length_a   8.11581559
_cell_length_b   8.21848817
_cell_length_c   15.55072997
_cell_angle_alpha   90.05595217
_cell_angle_beta   89.56392230
_cell_angle_gamma   89.85680077
_symmetry_Int_Tables_number   1
_chemical_formula_structural   Y14ErTh5Sn16
_chemical_formula_sum   'Y14 Er1 Th5 Sn16'
_cell_volume   1037.19576400
_cell_formula_units_Z   1
loop_
 _symmetry_equiv_pos_site_id
 _symmetry_equiv_pos_as_xyz
  1  'x, y, z'
loop_
 _atom_site_type_symbol
 _atom_site_label
 _atom_site_symmetry_multiplicity
 _atom_site_fract_x
 _atom_site_fract_y
 _atom_site_fract_z
 _atom_site_occupancy
  Y  Y0  1  0.359415  0.834807  0.876134  1
  Y  Y1  1  0.863370  0.663739  0.623066  1
  Y  Y2  1  0.635898  0.164923  0.377352  1
  Y  Y3  1  0.136959  0.335777  0.123320  1
  Y  Y4  1  0.639338  0.161863  0.124099  1
  Y  Y5  1  0.134180  0.337224  0.377776  1
  Y  Y6  1  0.366143  0.838763  0.623588  1
  Y  Y7  1  0.862400  0.661171  0.875426  1
  Y  Y8  1  0.525616  0.323635  0.899527  1
  Y  Y9  1  0.029006  0.175527  0.601008  1
  Y  Y10  1  0.470611  0.676196  0.400109  1
  Y  Y11  1  0.193623  0.500045  0.749449  1
  Y  Y12  1  0.694039  0.999696  0.750330  1
  Y  Y13  1  0.806708  0.500421  0.250392  1
  Er  Er14  1  0.306401  0.999952  0.250712  1
  Th  Th15  1  0.980195  0.820708  0.096740  1
  Th  Th16  1  0.482152  0.678412  0.095989  1
  Th  Th17  1  0.981225  0.823178  0.403543  1
  Th  Th18  1  0.517551  0.322371  0.596261  1
  Th  Th19  1  0.015524  0.177702  0.905092  1
  Sn  Sn20  1  0.300029  0.036385  0.042457  1
  Sn  Sn21  1  0.789361  0.470297  0.456224  1
  Sn  Sn22  1  0.710210  0.970259  0.543742  1
  Sn  Sn23  1  0.205434  0.533114  0.957267  1
  Sn  Sn24  1  0.696615  0.958596  0.958578  1
  Sn  Sn25  1  0.202476  0.542268  0.540774  1
  Sn  Sn26  1  0.296731  0.040062  0.459252  1
  Sn  Sn27  1  0.797721  0.457915  0.039887  1
  Sn  Sn28  1  0.559947  0.621203  0.748696  1
  Sn  Sn29  1  0.059899  0.878649  0.750175  1
  Sn  Sn30  1  0.439261  0.376873  0.249308  1
  Sn  Sn31  1  0.940884  0.121692  0.250637  1
  Sn  Sn32  1  0.328091  0.145895  0.752672  1
  Sn  Sn33  1  0.828764  0.353003  0.747817  1
  Sn  Sn34  1  0.669542  0.854336  0.252516  1
  Sn  Sn35  1  0.174677  0.643344  0.250083  1
