# generated using pymatgen
data_Gd12In2TcNi3
_symmetry_space_group_name_H-M   'P 1'
_cell_length_a   8.60653823
_cell_length_b   8.60653655
_cell_length_c   8.60653800
_cell_angle_alpha   113.13018584
_cell_angle_beta   109.59742945
_cell_angle_gamma   105.76955393
_symmetry_Int_Tables_number   1
_chemical_formula_structural   Gd12In2TcNi3
_chemical_formula_sum   'Gd12 In2 Tc1 Ni3'
_cell_volume   488.73144368
_cell_formula_units_Z   1
loop_
 _symmetry_equiv_pos_site_id
 _symmetry_equiv_pos_as_xyz
  1  'x, y, z'
loop_
 _atom_site_type_symbol
 _atom_site_label
 _atom_site_symmetry_multiplicity
 _atom_site_fract_x
 _atom_site_fract_y
 _atom_site_fract_z
 _atom_site_occupancy
  Gd  Gd0  1  0.443286  0.242118  0.201789  1
  Gd  Gd1  1  0.571460  0.771922  0.798652  1
  Gd  Gd2  1  0.026729  0.228078  0.799538  1
  Gd  Gd3  1  0.959672  0.757882  0.201167  1
  Gd  Gd4  1  0.189401  0.287272  0.475863  1
  Gd  Gd5  1  0.823301  0.710730  0.532949  1
  Gd  Gd6  1  0.188593  0.712728  0.902131  1
  Gd  Gd7  1  0.822219  0.289270  0.112571  1
  Gd  Gd8  1  0.325228  0.641592  0.310482  1
  Gd  Gd9  1  0.668889  0.358408  0.683634  1
  Gd  Gd10  1  0.324828  0.014455  0.684962  1
  Gd  Gd11  1  0.670507  0.985545  0.310372  1
  In  In12  1  0.495657  0.500000  0.995657  1
  In  In13  1  0.013117  0.000000  0.013117  1
  Tc  Tc14  1  0.328467  0.000000  0.328467  1
  Ni  Ni15  1  0.647971  0.000000  0.647971  1
  Ni  Ni16  1  0.118803  0.618512  0.500382  1
  Ni  Ni17  1  0.881869  0.381488  0.500291  1
