# generated using pymatgen
data_BeSn5PRh6
_symmetry_space_group_name_H-M   'P 1'
_cell_length_a   6.80083000
_cell_length_b   6.80083053
_cell_length_c   5.68325800
_cell_angle_alpha   90.00000000
_cell_angle_beta   90.00000000
_cell_angle_gamma   120.00001690
_symmetry_Int_Tables_number   1
_chemical_formula_structural   BeSn5PRh6
_chemical_formula_sum   'Be1 Sn5 P1 Rh6'
_cell_volume   227.64169004
_cell_formula_units_Z   1
loop_
 _symmetry_equiv_pos_site_id
 _symmetry_equiv_pos_as_xyz
  1  'x, y, z'
loop_
 _atom_site_type_symbol
 _atom_site_label
 _atom_site_symmetry_multiplicity
 _atom_site_fract_x
 _atom_site_fract_y
 _atom_site_fract_z
 _atom_site_occupancy
  Be  Be0  1  0.000000  0.000000  0.000000  1
  Sn  Sn1  1  0.389449  0.389449  0.000000  1
  Sn  Sn2  1  0.610551  0.000000  0.000000  1
  Sn  Sn3  1  0.000000  0.610551  0.000000  1
  Sn  Sn4  1  0.666667  0.333333  0.500000  1
  Sn  Sn5  1  0.333333  0.666667  0.500000  1
  P  P6  1  0.000000  0.000000  0.500000  1
  Rh  Rh7  1  0.274347  0.000000  0.747457  1
  Rh  Rh8  1  0.725653  0.725653  0.252543  1
  Rh  Rh9  1  0.000000  0.274347  0.252543  1
  Rh  Rh10  1  0.274347  0.000000  0.252543  1
  Rh  Rh11  1  0.725653  0.725653  0.747457  1
  Rh  Rh12  1  0.000000  0.274347  0.747457  1
