# generated using pymatgen
data_Y6Ho4AlSb5
_symmetry_space_group_name_H-M   'P 1'
_cell_length_a   6.37976000
_cell_length_b   8.92186910
_cell_length_c   8.91177422
_cell_angle_alpha   120.03748073
_cell_angle_beta   89.99997940
_cell_angle_gamma   90.00005827
_symmetry_Int_Tables_number   1
_chemical_formula_structural   Y6Ho4AlSb5
_chemical_formula_sum   'Y6 Ho4 Al1 Sb5'
_cell_volume   439.12771401
_cell_formula_units_Z   1
loop_
 _symmetry_equiv_pos_site_id
 _symmetry_equiv_pos_as_xyz
  1  'x, y, z'
loop_
 _atom_site_type_symbol
 _atom_site_label
 _atom_site_symmetry_multiplicity
 _atom_site_fract_x
 _atom_site_fract_y
 _atom_site_fract_z
 _atom_site_occupancy
  Y  Y0  1  0.750004  0.247903  0.000000  1
  Y  Y1  1  0.750000  0.753089  0.761994  1
  Y  Y2  1  0.750000  0.991095  0.238006  1
  Y  Y3  1  0.249999  0.757014  0.000000  1
  Y  Y4  1  0.250005  0.246158  0.245307  1
  Y  Y5  1  0.250005  0.000851  0.754693  1
  Ho  Ho6  1  0.500889  0.338278  0.673015  1
  Ho  Ho7  1  0.500889  0.665263  0.326985  1
  Ho  Ho8  1  0.999107  0.665269  0.326993  1
  Ho  Ho9  1  0.999107  0.338276  0.673007  1
  Al  Al10  1  0.750001  0.603809  0.000000  1
  Sb  Sb11  1  0.749998  0.388452  0.390257  1
  Sb  Sb12  1  0.749998  0.998192  0.609743  1
  Sb  Sb13  1  0.249998  0.392548  0.000000  1
  Sb  Sb14  1  0.250000  0.610998  0.608193  1
  Sb  Sb15  1  0.250000  0.002806  0.391807  1
