# generated using pymatgen
data_Rb3Ta2PSe11
_symmetry_space_group_name_H-M   'P 1'
_cell_length_a   10.33810494
_cell_length_b   10.33810523
_cell_length_c   10.24168415
_cell_angle_alpha   84.36101074
_cell_angle_beta   84.36101027
_cell_angle_gamma   84.90152303
_symmetry_Int_Tables_number   1
_chemical_formula_structural   Rb3Ta2PSe11
_chemical_formula_sum   'Rb6 Ta4 P2 Se22'
_cell_volume   1080.55298746
_cell_formula_units_Z   2
loop_
 _symmetry_equiv_pos_site_id
 _symmetry_equiv_pos_as_xyz
  1  'x, y, z'
loop_
 _atom_site_type_symbol
 _atom_site_label
 _atom_site_symmetry_multiplicity
 _atom_site_fract_x
 _atom_site_fract_y
 _atom_site_fract_z
 _atom_site_occupancy
  Rb  Rb0  1  0.508760  0.354806  0.928275  1
  Rb  Rb1  1  0.993666  0.153530  0.015460  1
  Rb  Rb2  1  0.753845  0.889931  0.683435  1
  Rb  Rb3  1  0.354806  0.508760  0.428275  1
  Rb  Rb4  1  0.889931  0.753845  0.183435  1
  Rb  Rb5  1  0.153530  0.993666  0.515460  1
  Ta  Ta6  1  0.790262  0.247200  0.415690  1
  Ta  Ta7  1  0.247200  0.790262  0.915690  1
  Ta  Ta8  1  0.500612  0.908819  0.098613  1
  Ta  Ta9  1  0.908819  0.500612  0.598613  1
  P  P10  1  0.123471  0.451327  0.852860  1
  P  P11  1  0.451327  0.123471  0.352860  1
  Se  Se12  1  0.573326  0.664988  0.162485  1
  Se  Se13  1  0.399587  0.885801  0.714841  1
  Se  Se14  1  0.356759  0.017649  0.897955  1
  Se  Se15  1  0.271830  0.595673  0.761408  1
  Se  Se16  1  0.824464  0.236972  0.668699  1
  Se  Se17  1  0.911855  0.535297  0.849962  1
  Se  Se18  1  0.664988  0.573326  0.662485  1
  Se  Se19  1  0.535297  0.911855  0.349962  1
  Se  Se20  1  0.236972  0.824464  0.168699  1
  Se  Se21  1  0.036320  0.872375  0.858186  1
  Se  Se22  1  0.212981  0.608621  0.105476  1
  Se  Se23  1  0.685578  0.021216  0.014520  1
  Se  Se24  1  0.109702  0.330327  0.673353  1
  Se  Se25  1  0.723347  0.521462  0.439920  1
  Se  Se26  1  0.872375  0.036320  0.358186  1
  Se  Se27  1  0.521462  0.723347  0.939920  1
  Se  Se28  1  0.885801  0.399587  0.214841  1
  Se  Se29  1  0.608621  0.212981  0.605476  1
  Se  Se30  1  0.330327  0.109702  0.173353  1
  Se  Se31  1  0.017649  0.356759  0.397955  1
  Se  Se32  1  0.595673  0.271830  0.261408  1
  Se  Se33  1  0.021216  0.685578  0.514520  1
