# generated using pymatgen
data_Yb2Sm3U5O19
_symmetry_space_group_name_H-M   'P 1'
_cell_length_a   6.77344465
_cell_length_b   7.52759859
_cell_length_c   8.51174060
_cell_angle_alpha   99.58261979
_cell_angle_beta   97.52298222
_cell_angle_gamma   107.44283030
_symmetry_Int_Tables_number   1
_chemical_formula_structural   Yb2Sm3U5O19
_chemical_formula_sum   'Yb2 Sm3 U5 O19'
_cell_volume   400.64742115
_cell_formula_units_Z   1
loop_
 _symmetry_equiv_pos_site_id
 _symmetry_equiv_pos_as_xyz
  1  'x, y, z'
loop_
 _atom_site_type_symbol
 _atom_site_label
 _atom_site_symmetry_multiplicity
 _atom_site_fract_x
 _atom_site_fract_y
 _atom_site_fract_z
 _atom_site_occupancy
  Yb  Yb0  1  0.999651  0.500313  0.999834  1
  Yb  Yb1  1  0.207415  0.911522  0.386457  1
  Sm  Sm2  1  0.802243  0.103356  0.603406  1
  Sm  Sm3  1  0.384700  0.297205  0.797368  1
  Sm  Sm4  1  0.606379  0.703557  0.203492  1
  U  U5  1  0.781867  0.598624  0.601649  1
  U  U6  1  0.604510  0.204891  0.196914  1
  U  U7  1  0.000613  0.004235  0.000762  1
  U  U8  1  0.406994  0.806597  0.812121  1
  U  U9  1  0.200154  0.387991  0.388915  1
  O  O10  1  0.341487  0.057342  0.953051  1
  O  O11  1  0.430386  0.988099  0.651177  1
  O  O12  1  0.040204  0.215101  0.859812  1
  O  O13  1  0.721708  0.383132  0.733992  1
  O  O14  1  0.150596  0.181180  0.532680  1
  O  O15  1  0.360697  0.595068  0.952341  1
  O  O16  1  0.948648  0.265278  0.163988  1
  O  O17  1  0.899614  0.389278  0.465716  1
  O  O18  1  0.748628  0.860665  0.763958  1
  O  O19  1  0.549700  0.456017  0.362760  1
  O  O20  1  0.407880  0.552743  0.632621  1
  O  O21  1  0.257695  0.135813  0.231625  1
  O  O22  1  0.063044  0.716833  0.793098  1
  O  O23  1  0.642596  0.409580  0.058802  1
  O  O24  1  0.863656  0.803302  0.463463  1
  O  O25  1  0.252414  0.618570  0.279539  1
  O  O26  1  0.956105  0.788193  0.125439  1
  O  O27  1  0.575941  0.007165  0.346411  1
  O  O28  1  0.658393  0.945989  0.046846  1
