# generated using pymatgen
data_Tb13Tm3In4(NiRh)2
_symmetry_space_group_name_H-M   'P 1'
_cell_length_a   9.61546844
_cell_length_b   9.62296829
_cell_length_c   9.61185456
_cell_angle_alpha   59.98661183
_cell_angle_beta   60.17887470
_cell_angle_gamma   59.94934994
_symmetry_Int_Tables_number   1
_chemical_formula_structural   Tb13Tm3In4(NiRh)2
_chemical_formula_sum   'Tb13 Tm3 In4 Ni2 Rh2'
_cell_volume   629.42550768
_cell_formula_units_Z   1
loop_
 _symmetry_equiv_pos_site_id
 _symmetry_equiv_pos_as_xyz
  1  'x, y, z'
loop_
 _atom_site_type_symbol
 _atom_site_label
 _atom_site_symmetry_multiplicity
 _atom_site_fract_x
 _atom_site_fract_y
 _atom_site_fract_z
 _atom_site_occupancy
  Tb  Tb0  1  0.651864  0.046195  0.652710  1
  Tb  Tb1  1  0.061620  0.062273  0.436893  1
  Tb  Tb2  1  0.436893  0.439214  0.061620  1
  Tb  Tb3  1  0.652710  0.649231  0.651864  1
  Tb  Tb4  1  0.810284  0.190093  0.185912  1
  Tb  Tb5  1  0.185912  0.813710  0.810284  1
  Tb  Tb6  1  0.048100  0.648708  0.653151  1
  Tb  Tb7  1  0.436518  0.062661  0.061927  1
  Tb  Tb8  1  0.438345  0.061655  0.438345  1
  Tb  Tb9  1  0.062265  0.437735  0.062265  1
  Tb  Tb10  1  0.653151  0.650041  0.048100  1
  Tb  Tb11  1  0.189121  0.810879  0.189121  1
  Tb  Tb12  1  0.061927  0.438894  0.436518  1
  Tm  Tm13  1  0.808856  0.812638  0.187819  1
  Tm  Tm14  1  0.811114  0.188886  0.811114  1
  Tm  Tm15  1  0.187819  0.190687  0.808856  1
  In  In16  1  0.417739  0.417272  0.418083  1
  In  In17  1  0.418581  0.417197  0.746895  1
  In  In18  1  0.418083  0.746905  0.417739  1
  In  In19  1  0.746895  0.417328  0.418581  1
  Ni  Ni20  1  0.860166  0.424149  0.858026  1
  Ni  Ni21  1  0.858026  0.857659  0.860166  1
  Rh  Rh22  1  0.857860  0.856429  0.426150  1
  Rh  Rh23  1  0.426150  0.859562  0.857860  1
