# generated using pymatgen
data_Dy6Y4Si5P
_symmetry_space_group_name_H-M   'P 1'
_cell_length_a   8.41996600
_cell_length_b   8.42672845
_cell_length_c   6.32032000
_cell_angle_alpha   90.00000000
_cell_angle_beta   90.00000000
_cell_angle_gamma   119.97601578
_symmetry_Int_Tables_number   1
_chemical_formula_structural   Dy6Y4Si5P
_chemical_formula_sum   'Dy6 Y4 Si5 P1'
_cell_volume   388.45788899
_cell_formula_units_Z   1
loop_
 _symmetry_equiv_pos_site_id
 _symmetry_equiv_pos_as_xyz
  1  'x, y, z'
loop_
 _atom_site_type_symbol
 _atom_site_label
 _atom_site_symmetry_multiplicity
 _atom_site_fract_x
 _atom_site_fract_y
 _atom_site_fract_z
 _atom_site_occupancy
  Dy  Dy0  1  0.754934  0.000035  0.750000  1
  Dy  Dy1  1  0.244253  0.243232  0.750000  1
  Dy  Dy2  1  0.666280  0.332521  0.999515  1
  Dy  Dy3  1  0.333765  0.667459  0.500478  1
  Dy  Dy4  1  0.333765  0.667459  0.999522  1
  Dy  Dy5  1  0.666280  0.332521  0.500485  1
  Y  Y6  1  0.001047  0.756818  0.750000  1
  Y  Y7  1  0.000896  0.244378  0.250000  1
  Y  Y8  1  0.756484  0.755626  0.250000  1
  Y  Y9  1  0.243917  0.000034  0.250000  1
  Si  Si10  1  0.394149  0.393634  0.250000  1
  Si  Si11  1  0.000499  0.606343  0.250000  1
  Si  Si12  1  0.000124  0.393441  0.750000  1
  Si  Si13  1  0.606621  0.606502  0.750000  1
  Si  Si14  1  0.607187  0.999984  0.250000  1
  P  P15  1  0.389800  0.000015  0.750000  1
