# generated using pymatgen
data_YTm3(Si2Os)2
_symmetry_space_group_name_H-M   'P 1'
_cell_length_a   5.67200199
_cell_length_b   5.67200158
_cell_length_c   9.94474319
_cell_angle_alpha   63.57248224
_cell_angle_beta   63.57248298
_cell_angle_gamma   43.62526402
_symmetry_Int_Tables_number   1
_chemical_formula_structural   YTm3(Si2Os)2
_chemical_formula_sum   'Y1 Tm3 Si4 Os2'
_cell_volume   193.72028630
_cell_formula_units_Z   1
loop_
 _symmetry_equiv_pos_site_id
 _symmetry_equiv_pos_as_xyz
  1  'x, y, z'
loop_
 _atom_site_type_symbol
 _atom_site_label
 _atom_site_symmetry_multiplicity
 _atom_site_fract_x
 _atom_site_fract_y
 _atom_site_fract_z
 _atom_site_occupancy
  Y  Y0  1  0.813437  0.813437  0.109465  1
  Tm  Tm1  1  0.005788  0.005788  0.322940  1
  Tm  Tm2  1  0.185502  0.185502  0.887730  1
  Tm  Tm3  1  0.993535  0.993535  0.677818  1
  Si  Si4  1  0.357667  0.357667  0.561363  1
  Si  Si5  1  0.495050  0.495050  0.875468  1
  Si  Si6  1  0.642643  0.642643  0.439835  1
  Si  Si7  1  0.505925  0.505925  0.123638  1
  Os  Os8  1  0.730154  0.730154  0.628346  1
  Os  Os9  1  0.270300  0.270300  0.373397  1
