# generated using pymatgen
data_Ho16Cd4OsPdPt2
_symmetry_space_group_name_H-M   'P 1'
_cell_length_a   9.66088728
_cell_length_b   9.67181978
_cell_length_c   9.67182208
_cell_angle_alpha   59.47374365
_cell_angle_beta   59.43830147
_cell_angle_gamma   59.43829285
_symmetry_Int_Tables_number   1
_chemical_formula_structural   Ho16Cd4OsPdPt2
_chemical_formula_sum   'Ho16 Cd4 Os1 Pd1 Pt2'
_cell_volume   631.03179308
_cell_formula_units_Z   1
loop_
 _symmetry_equiv_pos_site_id
 _symmetry_equiv_pos_as_xyz
  1  'x, y, z'
loop_
 _atom_site_type_symbol
 _atom_site_label
 _atom_site_symmetry_multiplicity
 _atom_site_fract_x
 _atom_site_fract_y
 _atom_site_fract_z
 _atom_site_occupancy
  Ho  Ho0  1  0.350827  0.352832  0.352832  1
  Ho  Ho1  1  0.349773  0.351819  0.945548  1
  Ho  Ho2  1  0.349773  0.945548  0.351819  1
  Ho  Ho3  1  0.946955  0.350720  0.350720  1
  Ho  Ho4  1  0.815619  0.188627  0.188627  1
  Ho  Ho5  1  0.188409  0.810023  0.810023  1
  Ho  Ho6  1  0.188692  0.814134  0.189018  1
  Ho  Ho7  1  0.811281  0.188388  0.809068  1
  Ho  Ho8  1  0.188692  0.189018  0.814134  1
  Ho  Ho9  1  0.811281  0.809068  0.188388  1
  Ho  Ho10  1  0.935174  0.565632  0.565632  1
  Ho  Ho11  1  0.558120  0.937358  0.937358  1
  Ho  Ho12  1  0.565461  0.935122  0.566825  1
  Ho  Ho13  1  0.937771  0.558072  0.937771  1
  Ho  Ho14  1  0.565461  0.566825  0.935122  1
  Ho  Ho15  1  0.937771  0.937771  0.558072  1
  Cd  Cd16  1  0.580125  0.580307  0.580307  1
  Cd  Cd17  1  0.581291  0.581008  0.253603  1
  Cd  Cd18  1  0.581291  0.253603  0.581008  1
  Cd  Cd19  1  0.253717  0.581096  0.581096  1
  Os  Os20  1  0.143695  0.143760  0.143760  1
  Pd  Pd21  1  0.570360  0.144112  0.144112  1
  Pt  Pt22  1  0.144229  0.143721  0.571438  1
  Pt  Pt23  1  0.144229  0.571438  0.143721  1
