# generated using pymatgen
data_Ba12Dy3ErGaCo7O30
_symmetry_space_group_name_H-M   'P 1'
_cell_length_a   6.04031502
_cell_length_b   8.04544718
_cell_length_c   18.67383300
_cell_angle_alpha   91.28495735
_cell_angle_beta   89.99595915
_cell_angle_gamma   89.99863070
_symmetry_Int_Tables_number   1
_chemical_formula_structural   Ba12Dy3ErGaCo7O30
_chemical_formula_sum   'Ba12 Dy3 Er1 Ga1 Co7 O30'
_cell_volume   907.26471490
_cell_formula_units_Z   1
loop_
 _symmetry_equiv_pos_site_id
 _symmetry_equiv_pos_as_xyz
  1  'x, y, z'
loop_
 _atom_site_type_symbol
 _atom_site_label
 _atom_site_symmetry_multiplicity
 _atom_site_fract_x
 _atom_site_fract_y
 _atom_site_fract_z
 _atom_site_occupancy
  Ba  Ba0  1  0.749227  0.022093  0.089121  1
  Ba  Ba1  1  0.753846  0.497974  0.421225  1
  Ba  Ba2  1  0.245928  0.505476  0.577872  1
  Ba  Ba3  1  0.250919  0.977723  0.910147  1
  Ba  Ba4  1  0.331867  0.499490  0.250245  1
  Ba  Ba5  1  0.752606  0.504051  0.077317  1
  Ba  Ba6  1  0.719753  0.000253  0.749560  1
  Ba  Ba7  1  0.279120  0.000174  0.250409  1
  Ba  Ba8  1  0.247082  0.495308  0.922450  1
  Ba  Ba9  1  0.668387  0.499016  0.748752  1
  Ba  Ba10  1  0.250101  0.020197  0.590470  1
  Ba  Ba11  1  0.749264  0.975674  0.408330  1
  Dy  Dy12  1  0.746233  0.245188  0.910983  1
  Dy  Dy13  1  0.746103  0.753645  0.588857  1
  Dy  Dy14  1  0.253720  0.754939  0.088754  1
  Er  Er15  1  0.254278  0.245410  0.411407  1
  Ga  Ga16  1  0.747551  0.245051  0.557764  1
  Co  Co17  1  0.252290  0.753817  0.438411  1
  Co  Co18  1  0.778555  0.767159  0.234915  1
  Co  Co19  1  0.778129  0.233115  0.265498  1
  Co  Co20  1  0.251820  0.246126  0.061736  1
  Co  Co21  1  0.748054  0.753736  0.938171  1
  Co  Co22  1  0.221373  0.233281  0.764485  1
  Co  Co23  1  0.221482  0.767168  0.735864  1
  O  O24  1  0.244985  0.530541  0.412301  1
  O  O25  1  0.511791  0.764370  0.497211  1
  O  O26  1  0.958265  0.280232  0.810827  1
  O  O27  1  0.015226  0.233182  0.992326  1
  O  O28  1  0.812108  0.999882  0.250883  1
  O  O29  1  0.342086  0.692378  0.816835  1
  O  O30  1  0.040647  0.278450  0.312781  1
  O  O31  1  0.547191  0.751277  0.163190  1
  O  O32  1  0.544020  0.248545  0.337165  1
  O  O33  1  0.340606  0.306738  0.683039  1
  O  O34  1  0.488917  0.765120  0.997653  1
  O  O35  1  0.235470  0.957038  0.393350  1
  O  O36  1  0.958338  0.722462  0.689276  1
  O  O37  1  0.451856  0.751856  0.663153  1
  O  O38  1  0.657411  0.692969  0.316150  1
  O  O39  1  0.188495  0.000140  0.750473  1
  O  O40  1  0.766756  0.046822  0.608186  1
  O  O41  1  0.758041  0.467522  0.589957  1
  O  O42  1  0.983884  0.766737  0.008188  1
  O  O43  1  0.756503  0.531394  0.912627  1
  O  O44  1  0.234058  0.044523  0.107288  1
  O  O45  1  0.766359  0.955799  0.893249  1
  O  O46  1  0.511667  0.235185  0.002749  1
  O  O47  1  0.452610  0.248724  0.836823  1
  O  O48  1  0.014549  0.766268  0.507306  1
  O  O49  1  0.660523  0.309035  0.184390  1
  O  O50  1  0.042899  0.720577  0.189575  1
  O  O51  1  0.984724  0.233593  0.490787  1
  O  O52  1  0.244136  0.468422  0.087894  1
  O  O53  1  0.488193  0.234157  0.501622  1
