# generated using pymatgen
data_DyEr3Ga5Tc3
_symmetry_space_group_name_H-M   'P 1'
_cell_length_a   5.45659305
_cell_length_b   5.51544944
_cell_length_c   8.68253000
_cell_angle_alpha   90.00000116
_cell_angle_beta   89.99850874
_cell_angle_gamma   120.35746342
_symmetry_Int_Tables_number   1
_chemical_formula_structural   DyEr3Ga5Tc3
_chemical_formula_sum   'Dy1 Er3 Ga5 Tc3'
_cell_volume   225.47778241
_cell_formula_units_Z   1
loop_
 _symmetry_equiv_pos_site_id
 _symmetry_equiv_pos_as_xyz
  1  'x, y, z'
loop_
 _atom_site_type_symbol
 _atom_site_label
 _atom_site_symmetry_multiplicity
 _atom_site_fract_x
 _atom_site_fract_y
 _atom_site_fract_z
 _atom_site_occupancy
  Dy  Dy0  1  0.334443  0.667223  0.443424  1
  Er  Er1  1  0.662627  0.331313  0.552255  1
  Er  Er2  1  0.662643  0.331321  0.947750  1
  Er  Er3  1  0.334429  0.667215  0.056541  1
  Ga  Ga4  1  0.835468  0.164865  0.249965  1
  Ga  Ga5  1  0.835468  0.670604  0.249965  1
  Ga  Ga6  1  0.326559  0.163280  0.249984  1
  Ga  Ga7  1  0.189244  0.841238  0.750038  1
  Ga  Ga8  1  0.189244  0.348005  0.750038  1
  Tc  Tc9  1  0.975670  0.987835  0.510100  1
  Tc  Tc10  1  0.975620  0.987810  0.989929  1
  Tc  Tc11  1  0.678584  0.839291  0.750011  1
