# generated using pymatgen
data_Rb3LiBr16
_symmetry_space_group_name_H-M   'P 1'
_cell_length_a   8.18300694
_cell_length_b   9.92955299
_cell_length_c   10.33379608
_cell_angle_alpha   69.38006910
_cell_angle_beta   91.07630919
_cell_angle_gamma   90.93603077
_symmetry_Int_Tables_number   1
_chemical_formula_structural   Rb3LiBr16
_chemical_formula_sum   'Rb3 Li1 Br16'
_cell_volume   785.68614556
_cell_formula_units_Z   1
loop_
 _symmetry_equiv_pos_site_id
 _symmetry_equiv_pos_as_xyz
  1  'x, y, z'
loop_
 _atom_site_type_symbol
 _atom_site_label
 _atom_site_symmetry_multiplicity
 _atom_site_fract_x
 _atom_site_fract_y
 _atom_site_fract_z
 _atom_site_occupancy
  Rb  Rb0  1  0.109943  0.264134  0.801695  1
  Rb  Rb1  1  0.381849  0.253881  0.297383  1
  Rb  Rb2  1  0.862285  0.727976  0.198595  1
  Li  Li3  1  0.643097  0.946160  0.643990  1
  Br  Br4  1  0.359846  0.532195  0.508360  1
  Br  Br5  1  0.870677  0.449523  0.988520  1
  Br  Br6  1  0.629793  0.449956  0.476808  1
  Br  Br7  1  0.144583  0.537077  0.014047  1
  Br  Br8  1  0.057319  0.641238  0.551537  1
  Br  Br9  1  0.531771  0.318421  0.952659  1
  Br  Br10  1  0.987047  0.336567  0.426156  1
  Br  Br11  1  0.458767  0.662141  0.051964  1
  Br  Br12  1  0.202911  0.846131  0.606708  1
  Br  Br13  1  0.684247  0.125029  0.897682  1
  Br  Br14  1  0.814864  0.124603  0.411797  1
  Br  Br15  1  0.295202  0.857261  0.107516  1
  Br  Br16  1  0.362997  0.046274  0.660243  1
  Br  Br17  1  0.846605  0.932702  0.834302  1
  Br  Br18  1  0.636052  0.905229  0.413502  1
  Br  Br19  1  0.120147  0.043502  0.156536  1
