# generated using pymatgen
data_Sm6FeCl10
_symmetry_space_group_name_H-M   'P 1'
_cell_length_a   7.28708984
_cell_length_b   8.82058490
_cell_length_c   9.11179567
_cell_angle_alpha   109.81157198
_cell_angle_beta   107.37025899
_cell_angle_gamma   96.19024414
_symmetry_Int_Tables_number   1
_chemical_formula_structural   Sm6FeCl10
_chemical_formula_sum   'Sm6 Fe1 Cl10'
_cell_volume   511.43388645
_cell_formula_units_Z   1
loop_
 _symmetry_equiv_pos_site_id
 _symmetry_equiv_pos_as_xyz
  1  'x, y, z'
loop_
 _atom_site_type_symbol
 _atom_site_label
 _atom_site_symmetry_multiplicity
 _atom_site_fract_x
 _atom_site_fract_y
 _atom_site_fract_z
 _atom_site_occupancy
  Sm  Sm0  1  0.875095  0.230896  0.952413  1
  Sm  Sm1  1  0.124905  0.769104  0.047587  1
  Sm  Sm2  1  0.021456  0.890581  0.685331  1
  Sm  Sm3  1  0.978544  0.109419  0.314669  1
  Sm  Sm4  1  0.377705  0.201017  0.151028  1
  Sm  Sm5  1  0.622295  0.798983  0.848972  1
  Fe  Fe6  1  0.000000  0.000000  0.000000  1
  Cl  Cl7  1  0.905479  0.162061  0.633646  1
  Cl  Cl8  1  0.094521  0.837939  0.366354  1
  Cl  Cl9  1  0.453779  0.074765  0.830428  1
  Cl  Cl10  1  0.546221  0.925235  0.169572  1
  Cl  Cl11  1  0.194593  0.643293  0.742832  1
  Cl  Cl12  1  0.805407  0.356707  0.257168  1
  Cl  Cl13  1  0.243728  0.454430  0.081049  1
  Cl  Cl14  1  0.756272  0.545570  0.918951  1
  Cl  Cl15  1  0.636316  0.716286  0.536608  1
  Cl  Cl16  1  0.363684  0.283714  0.463392  1
