# generated using pymatgen
data_Nd20Ir2Ru7Pt3
_symmetry_space_group_name_H-M   'P 1'
_cell_length_a   11.24990963
_cell_length_b   11.24990338
_cell_length_c   6.62983354
_cell_angle_alpha   89.88860731
_cell_angle_beta   89.88862765
_cell_angle_gamma   90.05166826
_symmetry_Int_Tables_number   1
_chemical_formula_structural   Nd20Ir2Ru7Pt3
_chemical_formula_sum   'Nd20 Ir2 Ru7 Pt3'
_cell_volume   839.07084559
_cell_formula_units_Z   1
loop_
 _symmetry_equiv_pos_site_id
 _symmetry_equiv_pos_as_xyz
  1  'x, y, z'
loop_
 _atom_site_type_symbol
 _atom_site_label
 _atom_site_symmetry_multiplicity
 _atom_site_fract_x
 _atom_site_fract_y
 _atom_site_fract_z
 _atom_site_occupancy
  Nd  Nd0  1  0.084647  0.289883  0.116893  1
  Nd  Nd1  1  0.793994  0.407869  0.115932  1
  Nd  Nd2  1  0.205483  0.586111  0.117128  1
  Nd  Nd3  1  0.911533  0.707167  0.116083  1
  Nd  Nd4  1  0.413889  0.794518  0.382874  1
  Nd  Nd5  1  0.592131  0.206005  0.384069  1
  Nd  Nd6  1  0.292834  0.088467  0.383917  1
  Nd  Nd7  1  0.710116  0.915354  0.383107  1
  Nd  Nd8  1  0.412345  0.203950  0.877618  1
  Nd  Nd9  1  0.707362  0.089484  0.884537  1
  Nd  Nd10  1  0.294165  0.912899  0.877439  1
  Nd  Nd11  1  0.588601  0.796867  0.877677  1
  Nd  Nd12  1  0.087101  0.705837  0.622561  1
  Nd  Nd13  1  0.910516  0.292636  0.615463  1
  Nd  Nd14  1  0.203134  0.411399  0.622323  1
  Nd  Nd15  1  0.796049  0.587655  0.622382  1
  Nd  Nd16  1  0.996886  0.001340  0.997266  1
  Nd  Nd17  1  0.500378  0.500415  0.998047  1
  Nd  Nd18  1  0.499584  0.499621  0.501953  1
  Nd  Nd19  1  0.998660  0.003114  0.502734  1
  Ir  Ir20  1  0.348616  0.651384  0.749999  1
  Ir  Ir21  1  0.650185  0.349815  0.750000  1
  Ru  Ru22  1  0.847635  0.152366  0.250000  1
  Ru  Ru23  1  0.153357  0.151591  0.750913  1
  Ru  Ru24  1  0.848409  0.846642  0.749087  1
  Ru  Ru25  1  0.000225  0.500256  0.377324  1
  Ru  Ru26  1  0.499744  0.999775  0.122675  1
  Ru  Ru27  1  0.499520  0.000311  0.619589  1
  Ru  Ru28  1  0.999689  0.500481  0.880410  1
  Pt  Pt29  1  0.154217  0.845783  0.250000  1
  Pt  Pt30  1  0.346290  0.347296  0.249845  1
  Pt  Pt31  1  0.652704  0.653710  0.250155  1
