# generated using pymatgen
data_Tm2Si7Rh12
_symmetry_space_group_name_H-M   'P 1'
_cell_length_a   9.74631500
_cell_length_b   9.74631405
_cell_length_c   3.84897300
_cell_angle_alpha   90.00000000
_cell_angle_beta   90.00000000
_cell_angle_gamma   120.00000661
_symmetry_Int_Tables_number   1
_chemical_formula_structural   Tm2Si7Rh12
_chemical_formula_sum   'Tm2 Si7 Rh12'
_cell_volume   316.63309960
_cell_formula_units_Z   1
loop_
 _symmetry_equiv_pos_site_id
 _symmetry_equiv_pos_as_xyz
  1  'x, y, z'
loop_
 _atom_site_type_symbol
 _atom_site_label
 _atom_site_symmetry_multiplicity
 _atom_site_fract_x
 _atom_site_fract_y
 _atom_site_fract_z
 _atom_site_occupancy
  Tm  Tm0  1  0.333333  0.666667  0.750295  1
  Tm  Tm1  1  0.666667  0.333333  0.249705  1
  Si  Si2  1  0.000000  0.000000  0.500000  1
  Si  Si3  1  0.401487  0.289783  0.751198  1
  Si  Si4  1  0.710217  0.111703  0.751198  1
  Si  Si5  1  0.888297  0.598513  0.751198  1
  Si  Si6  1  0.598513  0.710217  0.248802  1
  Si  Si7  1  0.289783  0.888297  0.248802  1
  Si  Si8  1  0.111703  0.401487  0.248802  1
  Rh  Rh9  1  0.444847  0.064241  0.751655  1
  Rh  Rh10  1  0.935759  0.380605  0.751655  1
  Rh  Rh11  1  0.619395  0.555153  0.751655  1
  Rh  Rh12  1  0.555153  0.935759  0.248345  1
  Rh  Rh13  1  0.064241  0.619395  0.248345  1
  Rh  Rh14  1  0.380605  0.444847  0.248345  1
  Rh  Rh15  1  0.143654  0.262484  0.745121  1
  Rh  Rh16  1  0.737516  0.881171  0.745121  1
  Rh  Rh17  1  0.118829  0.856346  0.745121  1
  Rh  Rh18  1  0.856346  0.737516  0.254879  1
  Rh  Rh19  1  0.262484  0.118829  0.254879  1
  Rh  Rh20  1  0.881171  0.143654  0.254879  1
