# generated using pymatgen
data_UPa3(CoP)4
_symmetry_space_group_name_H-M   'P 1'
_cell_length_a   3.91104900
_cell_length_b   3.91104993
_cell_length_c   14.97521900
_cell_angle_alpha   90.00000000
_cell_angle_beta   90.00000000
_cell_angle_gamma   120.00001749
_symmetry_Int_Tables_number   1
_chemical_formula_structural   UPa3(CoP)4
_chemical_formula_sum   'U1 Pa3 Co4 P4'
_cell_volume   198.37656008
_cell_formula_units_Z   1
loop_
 _symmetry_equiv_pos_site_id
 _symmetry_equiv_pos_as_xyz
  1  'x, y, z'
loop_
 _atom_site_type_symbol
 _atom_site_label
 _atom_site_symmetry_multiplicity
 _atom_site_fract_x
 _atom_site_fract_y
 _atom_site_fract_z
 _atom_site_occupancy
  U  U0  1  0.000000  0.000000  0.750000  1
  Pa  Pa1  1  0.000000  0.000000  0.250000  1
  Pa  Pa2  1  0.000000  0.000000  0.998876  1
  Pa  Pa3  1  0.000000  0.000000  0.501124  1
  Co  Co4  1  0.333333  0.666667  0.117373  1
  Co  Co5  1  0.666667  0.333333  0.865236  1
  Co  Co6  1  0.666667  0.333333  0.634764  1
  Co  Co7  1  0.333333  0.666667  0.382627  1
  P  P8  1  0.333333  0.666667  0.626450  1
  P  P9  1  0.666667  0.333333  0.372628  1
  P  P10  1  0.666667  0.333333  0.127372  1
  P  P11  1  0.333333  0.666667  0.873550  1
