# generated using pymatgen
data_Cr3Ag2SbSe8
_symmetry_space_group_name_H-M   'P 1'
_cell_length_a   7.84670044
_cell_length_b   7.84670083
_cell_length_c   7.84670014
_cell_angle_alpha   57.82851053
_cell_angle_beta   57.82850664
_cell_angle_gamma   57.82852229
_symmetry_Int_Tables_number   1
_chemical_formula_structural   Cr3Ag2SbSe8
_chemical_formula_sum   'Cr3 Ag2 Sb1 Se8'
_cell_volume   324.58999596
_cell_formula_units_Z   1
loop_
 _symmetry_equiv_pos_site_id
 _symmetry_equiv_pos_as_xyz
  1  'x, y, z'
loop_
 _atom_site_type_symbol
 _atom_site_label
 _atom_site_symmetry_multiplicity
 _atom_site_fract_x
 _atom_site_fract_y
 _atom_site_fract_z
 _atom_site_occupancy
  Cr  Cr0  1  0.500000  0.000000  0.500000  1
  Cr  Cr1  1  0.500000  0.500000  0.000000  1
  Cr  Cr2  1  0.000000  0.500000  0.500000  1
  Ag  Ag3  1  0.131575  0.131575  0.131575  1
  Ag  Ag4  1  0.868425  0.868425  0.868425  1
  Sb  Sb5  1  0.500000  0.500000  0.500000  1
  Se  Se6  1  0.249350  0.714514  0.249350  1
  Se  Se7  1  0.750650  0.750650  0.285486  1
  Se  Se8  1  0.285486  0.750650  0.750650  1
  Se  Se9  1  0.735323  0.735323  0.735323  1
  Se  Se10  1  0.714514  0.249350  0.249350  1
  Se  Se11  1  0.264677  0.264677  0.264677  1
  Se  Se12  1  0.750650  0.285486  0.750650  1
  Se  Se13  1  0.249350  0.249350  0.714514  1
