# generated using pymatgen
data_CeTh7(AlRu)8
_symmetry_space_group_name_H-M   'P 1'
_cell_length_a   4.15527700
_cell_length_b   7.25067016
_cell_length_c   16.12804153
_cell_angle_alpha   89.93543081
_cell_angle_beta   90.00000000
_cell_angle_gamma   90.00000000
_symmetry_Int_Tables_number   1
_chemical_formula_structural   CeTh7(AlRu)8
_chemical_formula_sum   'Ce1 Th7 Al8 Ru8'
_cell_volume   485.91408370
_cell_formula_units_Z   1
loop_
 _symmetry_equiv_pos_site_id
 _symmetry_equiv_pos_as_xyz
  1  'x, y, z'
loop_
 _atom_site_type_symbol
 _atom_site_label
 _atom_site_symmetry_multiplicity
 _atom_site_fract_x
 _atom_site_fract_y
 _atom_site_fract_z
 _atom_site_occupancy
  Ce  Ce0  1  0.250000  0.542833  0.717118  1
  Th  Th1  1  0.750000  0.958847  0.218020  1
  Th  Th2  1  0.250000  0.167173  0.562269  1
  Th  Th3  1  0.750000  0.833973  0.439701  1
  Th  Th4  1  0.750000  0.458668  0.282038  1
  Th  Th5  1  0.750000  0.334589  0.060687  1
  Th  Th6  1  0.250000  0.666386  0.937140  1
  Th  Th7  1  0.250000  0.041409  0.781427  1
  Al  Al8  1  0.750000  0.503420  0.563975  1
  Al  Al9  1  0.750000  0.366974  0.848129  1
  Al  Al10  1  0.750000  0.003248  0.937343  1
  Al  Al11  1  0.750000  0.863048  0.650207  1
  Al  Al12  1  0.250000  0.497068  0.438335  1
  Al  Al13  1  0.250000  0.996451  0.061723  1
  Al  Al14  1  0.250000  0.635133  0.149304  1
  Al  Al15  1  0.250000  0.134906  0.350899  1
  Ru  Ru16  1  0.750000  0.743488  0.816302  1
  Ru  Ru17  1  0.250000  0.239614  0.934708  1
  Ru  Ru18  1  0.750000  0.261103  0.435481  1
  Ru  Ru19  1  0.250000  0.754341  0.316506  1
  Ru  Ru20  1  0.750000  0.760442  0.064453  1
  Ru  Ru21  1  0.750000  0.246416  0.683899  1
  Ru  Ru22  1  0.250000  0.253406  0.183343  1
  Ru  Ru23  1  0.250000  0.737065  0.566993  1
