# generated using pymatgen
data_Dy5Co16Si10Mo3P2
_symmetry_space_group_name_H-M   'P 1'
_cell_length_a   12.32727584
_cell_length_b   12.32727513
_cell_length_c   3.75121400
_cell_angle_alpha   90.00000000
_cell_angle_beta   90.00000000
_cell_angle_gamma   120.18941391
_symmetry_Int_Tables_number   1
_chemical_formula_structural   Dy5Co16Si10Mo3P2
_chemical_formula_sum   'Dy5 Co16 Si10 Mo3 P2'
_cell_volume   492.72498676
_cell_formula_units_Z   1
loop_
 _symmetry_equiv_pos_site_id
 _symmetry_equiv_pos_as_xyz
  1  'x, y, z'
loop_
 _atom_site_type_symbol
 _atom_site_label
 _atom_site_symmetry_multiplicity
 _atom_site_fract_x
 _atom_site_fract_y
 _atom_site_fract_z
 _atom_site_occupancy
  Dy  Dy0  1  0.666654  0.332522  0.000000  1
  Dy  Dy1  1  0.332522  0.666654  0.000000  1
  Dy  Dy2  1  0.183191  0.183191  0.500000  1
  Dy  Dy3  1  0.817370  0.001567  0.500000  1
  Dy  Dy4  1  0.001567  0.817370  0.500000  1
  Co  Co5  1  0.824503  0.195509  0.000000  1
  Co  Co6  1  0.804059  0.624146  0.000000  1
  Co  Co7  1  0.371488  0.176172  0.000000  1
  Co  Co8  1  0.195509  0.824503  0.000000  1
  Co  Co9  1  0.624146  0.804059  0.000000  1
  Co  Co10  1  0.176172  0.371488  0.000000  1
  Co  Co11  1  0.645229  0.123616  0.500000  1
  Co  Co12  1  0.877416  0.521606  0.500000  1
  Co  Co13  1  0.477782  0.354657  0.500000  1
  Co  Co14  1  0.123616  0.645229  0.500000  1
  Co  Co15  1  0.521606  0.877416  0.500000  1
  Co  Co16  1  0.354657  0.477782  0.500000  1
  Co  Co17  1  0.718925  0.718925  0.500000  1
  Co  Co18  1  0.276568  0.000100  0.500000  1
  Co  Co19  1  0.000100  0.276568  0.500000  1
  Co  Co20  1  0.004280  0.004280  0.000000  1
  Si  Si21  1  0.363335  0.363335  0.000000  1
  Si  Si22  1  0.636778  0.000389  0.000000  1
  Si  Si23  1  0.000389  0.636778  0.000000  1
  Si  Si24  1  0.834830  0.312127  0.500000  1
  Si  Si25  1  0.687964  0.521370  0.500000  1
  Si  Si26  1  0.477528  0.165603  0.500000  1
  Si  Si27  1  0.312127  0.834830  0.500000  1
  Si  Si28  1  0.521370  0.687964  0.500000  1
  Si  Si29  1  0.165603  0.477528  0.500000  1
  Si  Si30  1  0.817768  0.817768  0.000000  1
  Mo  Mo31  1  0.564714  0.564714  0.000000  1
  Mo  Mo32  1  0.437157  0.000435  0.000000  1
  Mo  Mo33  1  0.000435  0.437157  0.000000  1
  P  P34  1  0.182394  0.000247  0.000000  1
  P  P35  1  0.000247  0.182394  0.000000  1
