# generated using pymatgen
data_In11CoAgIr3
_symmetry_space_group_name_H-M   'P 1'
_cell_length_a   7.02778975
_cell_length_b   7.10110106
_cell_length_c   7.18321300
_cell_angle_alpha   90.00000000
_cell_angle_beta   90.00000000
_cell_angle_gamma   90.01909745
_symmetry_Int_Tables_number   1
_chemical_formula_structural   In11CoAgIr3
_chemical_formula_sum   'In11 Co1 Ag1 Ir3'
_cell_volume   358.47854985
_cell_formula_units_Z   1
loop_
 _symmetry_equiv_pos_site_id
 _symmetry_equiv_pos_as_xyz
  1  'x, y, z'
loop_
 _atom_site_type_symbol
 _atom_site_label
 _atom_site_symmetry_multiplicity
 _atom_site_fract_x
 _atom_site_fract_y
 _atom_site_fract_z
 _atom_site_occupancy
  In  In0  1  0.333744  0.346563  0.246855  1
  In  In1  1  0.151650  0.834014  0.771984  1
  In  In2  1  0.151650  0.834014  0.228016  1
  In  In3  1  0.857976  0.173691  0.228089  1
  In  In4  1  0.857976  0.173691  0.771911  1
  In  In5  1  0.494480  0.008712  0.000000  1
  In  In6  1  0.657398  0.645556  0.249063  1
  In  In7  1  0.657398  0.645556  0.750937  1
  In  In8  1  0.000873  0.498226  0.500000  1
  In  In9  1  0.333744  0.346563  0.753145  1
  In  In10  1  0.497452  0.001239  0.500000  1
  Co  Co11  1  0.158593  0.137600  0.000000  1
  Ag  Ag12  1  0.007573  0.494718  0.000000  1
  Ir  Ir13  1  0.652862  0.343135  0.500000  1
  Ir  Ir14  1  0.345785  0.656260  0.500000  1
  Ir  Ir15  1  0.840849  0.860464  0.000000  1
