# generated using pymatgen
data_Tb3Lu(ZrPt)4
_symmetry_space_group_name_H-M   'P 1'
_cell_length_a   4.68501300
_cell_length_b   7.17776930
_cell_length_c   8.22654060
_cell_angle_alpha   89.70352566
_cell_angle_beta   90.00000000
_cell_angle_gamma   90.00000000
_symmetry_Int_Tables_number   1
_chemical_formula_structural   Tb3Lu(ZrPt)4
_chemical_formula_sum   'Tb3 Lu1 Zr4 Pt4'
_cell_volume   276.63793046
_cell_formula_units_Z   1
loop_
 _symmetry_equiv_pos_site_id
 _symmetry_equiv_pos_as_xyz
  1  'x, y, z'
loop_
 _atom_site_type_symbol
 _atom_site_label
 _atom_site_symmetry_multiplicity
 _atom_site_fract_x
 _atom_site_fract_y
 _atom_site_fract_z
 _atom_site_occupancy
  Tb  Tb0  1  0.250000  0.517731  0.177709  1
  Tb  Tb1  1  0.750000  0.482767  0.824376  1
  Tb  Tb2  1  0.750000  0.983018  0.675745  1
  Lu  Lu3  1  0.250000  0.019937  0.321881  1
  Zr  Zr4  1  0.250000  0.647780  0.577947  1
  Zr  Zr5  1  0.750000  0.352608  0.420747  1
  Zr  Zr6  1  0.750000  0.852908  0.081274  1
  Zr  Zr7  1  0.250000  0.146790  0.921920  1
  Pt  Pt8  1  0.250000  0.773100  0.903697  1
  Pt  Pt9  1  0.750000  0.224054  0.099113  1
  Pt  Pt10  1  0.750000  0.729320  0.404719  1
  Pt  Pt11  1  0.250000  0.269988  0.590872  1
