# generated using pymatgen
data_Dy3AlPt3Pb2
_symmetry_space_group_name_H-M   'P 1'
_cell_length_a   7.76629576
_cell_length_b   7.76629657
_cell_length_c   3.85976000
_cell_angle_alpha   90.00000000
_cell_angle_beta   90.00000000
_cell_angle_gamma   121.09824525
_symmetry_Int_Tables_number   1
_chemical_formula_structural   Dy3AlPt3Pb2
_chemical_formula_sum   'Dy3 Al1 Pt3 Pb2'
_cell_volume   199.34505674
_cell_formula_units_Z   1
loop_
 _symmetry_equiv_pos_site_id
 _symmetry_equiv_pos_as_xyz
  1  'x, y, z'
loop_
 _atom_site_type_symbol
 _atom_site_label
 _atom_site_symmetry_multiplicity
 _atom_site_fract_x
 _atom_site_fract_y
 _atom_site_fract_z
 _atom_site_occupancy
  Dy  Dy0  1  0.415733  0.415733  0.500000  1
  Dy  Dy1  1  0.596474  0.987420  0.500000  1
  Dy  Dy2  1  0.987420  0.596474  0.500000  1
  Al  Al3  1  0.740857  0.740857  0.000000  1
  Pt  Pt4  1  0.674425  0.364909  0.000000  1
  Pt  Pt5  1  0.364909  0.674425  0.000000  1
  Pt  Pt6  1  0.960786  0.960786  0.500000  1
  Pb  Pb7  1  0.261357  0.998039  0.000000  1
  Pb  Pb8  1  0.998039  0.261357  0.000000  1
