# generated using pymatgen
data_Yb19In8N7
_symmetry_space_group_name_H-M   'P 1'
_cell_length_a   10.32713812
_cell_length_b   10.32713812
_cell_length_c   10.32713900
_cell_angle_alpha   60.00000039
_cell_angle_beta   60.00000040
_cell_angle_gamma   60.00000026
_symmetry_Int_Tables_number   1
_chemical_formula_structural   Yb19In8N7
_chemical_formula_sum   'Yb19 In8 N7'
_cell_volume   778.79830820
_cell_formula_units_Z   1
loop_
 _symmetry_equiv_pos_site_id
 _symmetry_equiv_pos_as_xyz
  1  'x, y, z'
loop_
 _atom_site_type_symbol
 _atom_site_label
 _atom_site_symmetry_multiplicity
 _atom_site_fract_x
 _atom_site_fract_y
 _atom_site_fract_z
 _atom_site_occupancy
  Yb  Yb0  1  0.173840  0.500000  0.826160  1
  Yb  Yb1  1  0.500000  0.826160  0.173840  1
  Yb  Yb2  1  0.826160  0.173840  0.500000  1
  Yb  Yb3  1  0.166302  0.833698  0.166302  1
  Yb  Yb4  1  0.826160  0.500000  0.173840  1
  Yb  Yb5  1  0.173840  0.826160  0.500000  1
  Yb  Yb6  1  0.166302  0.166302  0.833698  1
  Yb  Yb7  1  0.173840  0.500000  0.500000  1
  Yb  Yb8  1  0.833698  0.833698  0.166302  1
  Yb  Yb9  1  0.833698  0.166302  0.833698  1
  Yb  Yb10  1  0.500000  0.826160  0.500000  1
  Yb  Yb11  1  0.500000  0.500000  0.500000  1
  Yb  Yb12  1  0.500000  0.500000  0.173840  1
  Yb  Yb13  1  0.166302  0.833698  0.833698  1
  Yb  Yb14  1  0.500000  0.173840  0.826160  1
  Yb  Yb15  1  0.500000  0.173840  0.500000  1
  Yb  Yb16  1  0.826160  0.500000  0.500000  1
  Yb  Yb17  1  0.833698  0.166302  0.166302  1
  Yb  Yb18  1  0.500000  0.500000  0.826160  1
  In  In19  1  0.174046  0.174046  0.477862  1
  In  In20  1  0.825954  0.522138  0.825954  1
  In  In21  1  0.477862  0.174046  0.174046  1
  In  In22  1  0.174046  0.477862  0.174046  1
  In  In23  1  0.522138  0.825954  0.825954  1
  In  In24  1  0.174046  0.174046  0.174046  1
  In  In25  1  0.825954  0.825954  0.825954  1
  In  In26  1  0.825954  0.825954  0.522138  1
  N  N27  1  0.672352  0.327648  0.672352  1
  N  N28  1  0.672352  0.327648  0.327648  1
  N  N29  1  0.327648  0.672352  0.672352  1
  N  N30  1  0.327648  0.672352  0.327648  1
  N  N31  1  0.327648  0.327648  0.672352  1
  N  N32  1  0.672352  0.672352  0.327648  1
  N  N33  1  0.000000  0.000000  0.000000  1
