# generated using pymatgen
data_Tb4Ho2Al24Os7Au
_symmetry_space_group_name_H-M   'P 1'
_cell_length_a   8.87507435
_cell_length_b   8.87507453
_cell_length_c   9.57551805
_cell_angle_alpha   89.81132625
_cell_angle_beta   90.18867662
_cell_angle_gamma   119.97697923
_symmetry_Int_Tables_number   1
_chemical_formula_structural   Tb4Ho2Al24Os7Au
_chemical_formula_sum   'Tb4 Ho2 Al24 Os7 Au1'
_cell_volume   653.33282234
_cell_formula_units_Z   1
loop_
 _symmetry_equiv_pos_site_id
 _symmetry_equiv_pos_as_xyz
  1  'x, y, z'
loop_
 _atom_site_type_symbol
 _atom_site_label
 _atom_site_symmetry_multiplicity
 _atom_site_fract_x
 _atom_site_fract_y
 _atom_site_fract_z
 _atom_site_occupancy
  Tb  Tb0  1  0.190439  0.386583  0.251235  1
  Tb  Tb1  1  0.809561  0.613417  0.748765  1
  Tb  Tb2  1  0.613417  0.809561  0.251235  1
  Tb  Tb3  1  0.386583  0.190439  0.748765  1
  Ho  Ho4  1  0.194842  0.805158  0.253383  1
  Ho  Ho5  1  0.805158  0.194842  0.746617  1
  Al  Al6  1  0.328575  0.671425  0.021264  1
  Al  Al7  1  0.671425  0.328575  0.978736  1
  Al  Al8  1  0.666379  0.333621  0.517864  1
  Al  Al9  1  0.333621  0.666379  0.482136  1
  Al  Al10  1  0.162557  0.325713  0.575657  1
  Al  Al11  1  0.837443  0.674287  0.424343  1
  Al  Al12  1  0.674287  0.837443  0.575657  1
  Al  Al13  1  0.848353  0.677727  0.079430  1
  Al  Al14  1  0.325713  0.162557  0.424343  1
  Al  Al15  1  0.151647  0.322273  0.920570  1
  Al  Al16  1  0.163213  0.836787  0.575070  1
  Al  Al17  1  0.322273  0.151647  0.079430  1
  Al  Al18  1  0.836787  0.163213  0.424930  1
  Al  Al19  1  0.677727  0.848353  0.920570  1
  Al  Al20  1  0.836812  0.163188  0.075828  1
  Al  Al21  1  0.163188  0.836812  0.924172  1
  Al  Al22  1  0.560674  0.121520  0.249312  1
  Al  Al23  1  0.439326  0.878480  0.750688  1
  Al  Al24  1  0.878480  0.439326  0.249312  1
  Al  Al25  1  0.121520  0.560674  0.750688  1
  Al  Al26  1  0.563722  0.436278  0.255690  1
  Al  Al27  1  0.436278  0.563722  0.744310  1
  Al  Al28  1  0.999586  0.000414  0.250355  1
  Al  Al29  1  0.000414  0.999586  0.749645  1
  Os  Os30  1  0.500000  0.000000  0.000000  1
  Os  Os31  1  0.000000  0.500000  0.000000  1
  Os  Os32  1  0.500000  0.000000  0.500000  1
  Os  Os33  1  0.000000  0.500000  0.500000  1
  Os  Os34  1  0.500000  0.500000  0.500000  1
  Os  Os35  1  0.000000  0.000000  0.000000  1
  Os  Os36  1  0.000000  0.000000  0.500000  1
  Au  Au37  1  0.500000  0.500000  0.000000  1
