# generated using pymatgen
data_HoTm3(InRh2)4
_symmetry_space_group_name_H-M   'P 1'
_cell_length_a   6.32504800
_cell_length_b   6.32496700
_cell_length_c   7.21238200
_cell_angle_alpha   89.99823356
_cell_angle_beta   90.00117761
_cell_angle_gamma   90.00112331
_symmetry_Int_Tables_number   1
_chemical_formula_structural   HoTm3(InRh2)4
_chemical_formula_sum   'Ho1 Tm3 In4 Rh8'
_cell_volume   288.53653391
_cell_formula_units_Z   1
loop_
 _symmetry_equiv_pos_site_id
 _symmetry_equiv_pos_as_xyz
  1  'x, y, z'
loop_
 _atom_site_type_symbol
 _atom_site_label
 _atom_site_symmetry_multiplicity
 _atom_site_fract_x
 _atom_site_fract_y
 _atom_site_fract_z
 _atom_site_occupancy
  Ho  Ho0  1  0.249951  0.749988  0.500003  1
  Tm  Tm1  1  0.750005  0.250010  0.000002  1
  Tm  Tm2  1  0.249990  0.749995  0.999996  1
  Tm  Tm3  1  0.750028  0.250013  0.500018  1
  In  In4  1  0.249989  0.250002  0.999807  1
  In  In5  1  0.750042  0.750011  0.000111  1
  In  In6  1  0.250011  0.249999  0.500231  1
  In  In7  1  0.749993  0.749987  0.499824  1
  Rh  Rh8  1  0.999133  0.000546  0.248838  1
  Rh  Rh9  1  0.999220  0.499493  0.248875  1
  Rh  Rh10  1  0.500815  0.000521  0.248856  1
  Rh  Rh11  1  0.500773  0.499410  0.248811  1
  Rh  Rh12  1  0.500525  0.000817  0.751157  1
  Rh  Rh13  1  0.500563  0.499186  0.751182  1
  Rh  Rh14  1  0.999453  0.000840  0.751145  1
  Rh  Rh15  1  0.999509  0.499182  0.751145  1
