# generated using pymatgen
data_NdSmAg2(Pt2O7)2
_symmetry_space_group_name_H-M   'P 1'
_cell_length_a   7.29809706
_cell_length_b   7.29809703
_cell_length_c   7.46007306
_cell_angle_alpha   59.31287330
_cell_angle_beta   59.31287485
_cell_angle_gamma   59.44938786
_symmetry_Int_Tables_number   1
_chemical_formula_structural   NdSmAg2(Pt2O7)2
_chemical_formula_sum   'Nd1 Sm1 Ag2 Pt4 O14'
_cell_volume   276.85742465
_cell_formula_units_Z   1
loop_
 _symmetry_equiv_pos_site_id
 _symmetry_equiv_pos_as_xyz
  1  'x, y, z'
loop_
 _atom_site_type_symbol
 _atom_site_label
 _atom_site_symmetry_multiplicity
 _atom_site_fract_x
 _atom_site_fract_y
 _atom_site_fract_z
 _atom_site_occupancy
  Nd  Nd0  1  0.125000  0.125000  0.125000  1
  Sm  Sm1  1  0.125000  0.125000  0.625000  1
  Ag  Ag2  1  0.625000  0.125000  0.125000  1
  Ag  Ag3  1  0.125000  0.625000  0.125000  1
  Pt  Pt4  1  0.625000  0.625000  0.125000  1
  Pt  Pt5  1  0.625000  0.625000  0.625000  1
  Pt  Pt6  1  0.625000  0.125000  0.625000  1
  Pt  Pt7  1  0.125000  0.625000  0.625000  1
  O  O8  1  0.713550  0.292512  0.297071  1
  O  O9  1  0.716585  0.291622  0.695823  1
  O  O10  1  0.982221  0.982221  0.014975  1
  O  O11  1  0.292512  0.713550  0.297071  1
  O  O12  1  0.703101  0.703101  0.297044  1
  O  O13  1  0.958378  0.533415  0.554177  1
  O  O14  1  0.291622  0.716585  0.695823  1
  O  O15  1  0.267779  0.267779  0.235025  1
  O  O16  1  0.957488  0.536450  0.952929  1
  O  O17  1  0.533415  0.958378  0.554177  1
  O  O18  1  0.546899  0.546899  0.952956  1
  O  O19  1  0.965490  0.965490  0.536356  1
  O  O20  1  0.536450  0.957488  0.952929  1
  O  O21  1  0.284510  0.284510  0.713644  1
