# generated using pymatgen
data_Cs12Sc(GaSe4)3
_symmetry_space_group_name_H-M   'P 1'
_cell_length_a   11.11519351
_cell_length_b   11.11519401
_cell_length_c   14.26952752
_cell_angle_alpha   90.04709512
_cell_angle_beta   90.04709856
_cell_angle_gamma   139.31364480
_symmetry_Int_Tables_number   1
_chemical_formula_structural   Cs12Sc(GaSe4)3
_chemical_formula_sum   'Cs12 Sc1 Ga3 Se12'
_cell_volume   1149.30506212
_cell_formula_units_Z   1
loop_
 _symmetry_equiv_pos_site_id
 _symmetry_equiv_pos_as_xyz
  1  'x, y, z'
loop_
 _atom_site_type_symbol
 _atom_site_label
 _atom_site_symmetry_multiplicity
 _atom_site_fract_x
 _atom_site_fract_y
 _atom_site_fract_z
 _atom_site_occupancy
  Cs  Cs0  1  0.864109  0.864297  0.676851  1
  Cs  Cs1  1  0.135703  0.135891  0.323149  1
  Cs  Cs2  1  0.633629  0.631418  0.180847  1
  Cs  Cs3  1  0.368582  0.366371  0.819153  1
  Cs  Cs4  1  0.174779  0.533950  0.129356  1
  Cs  Cs5  1  0.466050  0.825221  0.870644  1
  Cs  Cs6  1  0.981184  0.336621  0.624115  1
  Cs  Cs7  1  0.663379  0.018816  0.375885  1
  Cs  Cs8  1  0.833504  0.479928  0.874780  1
  Cs  Cs9  1  0.520072  0.166496  0.125220  1
  Cs  Cs10  1  0.018016  0.664510  0.376038  1
  Cs  Cs11  1  0.335490  0.981984  0.623962  1
  Sc  Sc12  1  0.920914  0.079086  0.000000  1
  Ga  Ga13  1  0.418037  0.581963  0.500000  1
  Ga  Ga14  1  0.082359  0.917641  0.000000  1
  Ga  Ga15  1  0.581496  0.418504  0.500000  1
  Se  Se16  1  0.294670  0.295114  0.566158  1
  Se  Se17  1  0.704886  0.705330  0.433842  1
  Se  Se18  1  0.220756  0.211101  0.068922  1
  Se  Se19  1  0.788899  0.779244  0.931078  1
  Se  Se20  1  0.703667  0.000926  0.122882  1
  Se  Se21  1  0.999074  0.296333  0.877118  1
  Se  Se22  1  0.494329  0.789274  0.618187  1
  Se  Se23  1  0.210726  0.505671  0.381813  1
  Se  Se24  1  0.284751  0.992690  0.879624  1
  Se  Se25  1  0.007310  0.715249  0.120376  1
  Se  Se26  1  0.506233  0.212605  0.381347  1
  Se  Se27  1  0.787395  0.493767  0.618653  1
