# generated using pymatgen
data_Mg4Zn5Ni3
_symmetry_space_group_name_H-M   'P 1'
_cell_length_a   5.11295100
_cell_length_b   5.05481544
_cell_length_c   8.08420100
_cell_angle_alpha   90.00000000
_cell_angle_beta   90.00000000
_cell_angle_gamma   120.38116603
_symmetry_Int_Tables_number   1
_chemical_formula_structural   Mg4Zn5Ni3
_chemical_formula_sum   'Mg4 Zn5 Ni3'
_cell_volume   180.24521672
_cell_formula_units_Z   1
loop_
 _symmetry_equiv_pos_site_id
 _symmetry_equiv_pos_as_xyz
  1  'x, y, z'
loop_
 _atom_site_type_symbol
 _atom_site_label
 _atom_site_symmetry_multiplicity
 _atom_site_fract_x
 _atom_site_fract_y
 _atom_site_fract_z
 _atom_site_occupancy
  Mg  Mg0  1  0.330114  0.660230  0.073400  1
  Mg  Mg1  1  0.662644  0.325287  0.558134  1
  Mg  Mg2  1  0.662644  0.325287  0.941866  1
  Mg  Mg3  1  0.330114  0.660230  0.426600  1
  Zn  Zn4  1  0.015846  0.031691  0.007007  1
  Zn  Zn5  1  0.015846  0.031691  0.492993  1
  Zn  Zn6  1  0.658655  0.823099  0.750000  1
  Zn  Zn7  1  0.164444  0.823099  0.750000  1
  Zn  Zn8  1  0.827877  0.655754  0.250000  1
  Ni  Ni9  1  0.170169  0.340339  0.750000  1
  Ni  Ni10  1  0.816520  0.161648  0.250000  1
  Ni  Ni11  1  0.345128  0.161648  0.250000  1
