# generated using pymatgen
data_Tm5PaAl18
_symmetry_space_group_name_H-M   'P 1'
_cell_length_a   14.56504282
_cell_length_b   14.56504293
_cell_length_c   14.56504328
_cell_angle_alpha   24.27303040
_cell_angle_beta   24.27303140
_cell_angle_gamma   24.27303408
_symmetry_Int_Tables_number   1
_chemical_formula_structural   Tm5PaAl18
_chemical_formula_sum   'Tm5 Pa1 Al18'
_cell_volume   458.95838455
_cell_formula_units_Z   1
loop_
 _symmetry_equiv_pos_site_id
 _symmetry_equiv_pos_as_xyz
  1  'x, y, z'
loop_
 _atom_site_type_symbol
 _atom_site_label
 _atom_site_symmetry_multiplicity
 _atom_site_fract_x
 _atom_site_fract_y
 _atom_site_fract_z
 _atom_site_occupancy
  Tm  Tm0  1  0.890725  0.890725  0.890725  1
  Tm  Tm1  1  0.390901  0.390901  0.390901  1
  Tm  Tm2  1  0.999712  0.999712  0.999712  1
  Tm  Tm3  1  0.499956  0.499956  0.499956  1
  Tm  Tm4  1  0.609307  0.609307  0.609307  1
  Pa  Pa5  1  0.108963  0.108963  0.108963  1
  Al  Al6  1  0.922298  0.372344  0.372344  1
  Al  Al7  1  0.419924  0.871599  0.871599  1
  Al  Al8  1  0.372344  0.372344  0.922298  1
  Al  Al9  1  0.871599  0.871599  0.419924  1
  Al  Al10  1  0.372344  0.922298  0.372344  1
  Al  Al11  1  0.871599  0.419924  0.871599  1
  Al  Al12  1  0.578786  0.127939  0.127939  1
  Al  Al13  1  0.079449  0.627770  0.627770  1
  Al  Al14  1  0.127939  0.127939  0.578786  1
  Al  Al15  1  0.627770  0.627770  0.079449  1
  Al  Al16  1  0.127939  0.578786  0.127939  1
  Al  Al17  1  0.627770  0.079449  0.627770  1
  Al  Al18  1  0.499629  0.499629  0.999748  1
  Al  Al19  1  0.001765  0.001765  0.498141  1
  Al  Al20  1  0.499629  0.999748  0.499629  1
  Al  Al21  1  0.001765  0.498141  0.001765  1
  Al  Al22  1  0.999748  0.499629  0.499629  1
  Al  Al23  1  0.498141  0.001765  0.001765  1
