# generated using pymatgen
data_TbPa7Ti5Si16W7
_symmetry_space_group_name_H-M   'P 1'
_cell_length_a   6.95180143
_cell_length_b   6.94718198
_cell_length_c   12.94603143
_cell_angle_alpha   90.05826100
_cell_angle_beta   89.99268798
_cell_angle_gamma   90.11350700
_symmetry_Int_Tables_number   1
_chemical_formula_structural   TbPa7Ti5Si16W7
_chemical_formula_sum   'Tb1 Pa7 Ti5 Si16 W7'
_cell_volume   625.23259445
_cell_formula_units_Z   1
loop_
 _symmetry_equiv_pos_site_id
 _symmetry_equiv_pos_as_xyz
  1  'x, y, z'
loop_
 _atom_site_type_symbol
 _atom_site_label
 _atom_site_symmetry_multiplicity
 _atom_site_fract_x
 _atom_site_fract_y
 _atom_site_fract_z
 _atom_site_occupancy
  Tb  Tb0  1  0.000565  0.663662  0.030804  1
  Pa  Pa1  1  0.334958  0.000976  0.470617  1
  Pa  Pa2  1  0.499803  0.833670  0.722212  1
  Pa  Pa3  1  0.499880  0.163586  0.220412  1
  Pa  Pa4  1  0.835779  0.498146  0.279855  1
  Pa  Pa5  1  0.167477  0.499167  0.778466  1
  Pa  Pa6  1  0.659735  0.002346  0.971115  1
  Pa  Pa7  1  0.000947  0.335664  0.528903  1
  Ti  Ti8  1  0.336509  0.330157  0.999866  1
  Ti  Ti9  1  0.168498  0.834676  0.250930  1
  Ti  Ti10  1  0.833019  0.168541  0.751787  1
  Ti  Ti11  1  0.664300  0.665914  0.498151  1
  Ti  Ti12  1  0.002198  0.834127  0.625591  1
  Si  Si13  1  0.203766  0.122598  0.682240  1
  Si  Si14  1  0.375216  0.702055  0.934097  1
  Si  Si15  1  0.622920  0.297786  0.433881  1
  Si  Si16  1  0.700895  0.377988  0.065766  1
  Si  Si17  1  0.299624  0.623874  0.566644  1
  Si  Si18  1  0.799628  0.875759  0.183429  1
  Si  Si19  1  0.122588  0.200411  0.316660  1
  Si  Si20  1  0.878411  0.798492  0.818134  1
  Si  Si21  1  0.283987  0.966926  0.064413  1
  Si  Si22  1  0.533702  0.786305  0.314222  1
  Si  Si23  1  0.465338  0.211677  0.814125  1
  Si  Si24  1  0.789124  0.535740  0.685239  1
  Si  Si25  1  0.215347  0.465094  0.185189  1
  Si  Si26  1  0.711238  0.036308  0.566081  1
  Si  Si27  1  0.965766  0.287992  0.936335  1
  Si  Si28  1  0.035958  0.713078  0.434626  1
  W  W29  1  0.171552  0.998370  0.871241  1
  W  W30  1  0.503182  0.669069  0.121901  1
  W  W31  1  0.497971  0.334620  0.624737  1
  W  W32  1  0.661664  0.500531  0.874280  1
  W  W33  1  0.331963  0.493070  0.376388  1
  W  W34  1  0.831774  0.003337  0.374301  1
  W  W35  1  0.994712  0.168293  0.127360  1
