# generated using pymatgen
data_Sr3PrMnFeO8
_symmetry_space_group_name_H-M   'P 1'
_cell_length_a   5.49668500
_cell_length_b   12.54735900
_cell_length_c   5.50728600
_cell_angle_alpha   89.99994087
_cell_angle_beta   89.99997949
_cell_angle_gamma   90.00074773
_symmetry_Int_Tables_number   1
_chemical_formula_structural   Sr3PrMnFeO8
_chemical_formula_sum   'Sr6 Pr2 Mn2 Fe2 O16'
_cell_volume   379.83134730
_cell_formula_units_Z   2
loop_
 _symmetry_equiv_pos_site_id
 _symmetry_equiv_pos_as_xyz
  1  'x, y, z'
loop_
 _atom_site_type_symbol
 _atom_site_label
 _atom_site_symmetry_multiplicity
 _atom_site_fract_x
 _atom_site_fract_y
 _atom_site_fract_z
 _atom_site_occupancy
  Sr  Sr0  1  0.499999  0.144721  0.999996  1
  Sr  Sr1  1  0.500006  0.644721  0.500005  1
  Sr  Sr2  1  0.000011  0.142658  0.500004  1
  Sr  Sr3  1  0.999992  0.642659  0.999995  1
  Sr  Sr4  1  0.999997  0.355134  0.999998  1
  Sr  Sr5  1  0.000000  0.855138  0.500005  1
  Pr  Pr6  1  0.500011  0.361241  0.500013  1
  Pr  Pr7  1  0.500045  0.861242  0.999997  1
  Mn  Mn8  1  0.000016  0.501077  0.499947  1
  Mn  Mn9  1  0.000013  0.001072  0.000039  1
  Fe  Fe10  1  0.500001  0.001799  0.499981  1
  Fe  Fe11  1  0.499977  0.501799  0.000015  1
  O  O12  1  0.000002  0.340268  0.500000  1
  O  O13  1  0.999908  0.840270  0.000003  1
  O  O14  1  0.500001  0.337735  0.999994  1
  O  O15  1  0.500004  0.837738  0.500000  1
  O  O16  1  0.500003  0.172121  0.500001  1
  O  O17  1  0.499988  0.672122  0.000003  1
  O  O18  1  0.000008  0.156402  0.000001  1
  O  O19  1  0.000007  0.656401  0.499997  1
  O  O20  1  0.250156  0.496709  0.742043  1
  O  O21  1  0.250152  0.996706  0.242044  1
  O  O22  1  0.749845  0.496709  0.257952  1
  O  O23  1  0.749849  0.996720  0.757951  1
  O  O24  1  0.749853  0.496710  0.742052  1
  O  O25  1  0.749851  0.996721  0.242054  1
  O  O26  1  0.250152  0.496708  0.257949  1
  O  O27  1  0.250155  0.996705  0.757961  1
