# generated using pymatgen
data_Y2Mn4Fe8P7
_symmetry_space_group_name_H-M   'P 1'
_cell_length_a   9.18715707
_cell_length_b   9.07432065
_cell_length_c   3.61051600
_cell_angle_alpha   90.00000000
_cell_angle_beta   90.00000000
_cell_angle_gamma   120.18883887
_symmetry_Int_Tables_number   1
_chemical_formula_structural   Y2Mn4Fe8P7
_chemical_formula_sum   'Y2 Mn4 Fe8 P7'
_cell_volume   260.17503116
_cell_formula_units_Z   1
loop_
 _symmetry_equiv_pos_site_id
 _symmetry_equiv_pos_as_xyz
  1  'x, y, z'
loop_
 _atom_site_type_symbol
 _atom_site_label
 _atom_site_symmetry_multiplicity
 _atom_site_fract_x
 _atom_site_fract_y
 _atom_site_fract_z
 _atom_site_occupancy
  Y  Y0  1  0.660480  0.330707  0.000000  1
  Y  Y1  1  0.338436  0.668389  0.500000  1
  Mn  Mn2  1  0.952098  0.389407  0.500000  1
  Mn  Mn3  1  0.107673  0.876813  0.500000  1
  Mn  Mn4  1  0.776042  0.896601  0.500000  1
  Mn  Mn5  1  0.123072  0.227469  0.500000  1
  Fe  Fe6  1  0.052434  0.623222  0.000000  1
  Fe  Fe7  1  0.573757  0.942486  0.000000  1
  Fe  Fe8  1  0.372138  0.426010  0.000000  1
  Fe  Fe9  1  0.270780  0.117877  0.000000  1
  Fe  Fe10  1  0.846826  0.728285  0.000000  1
  Fe  Fe11  1  0.880552  0.158596  0.000000  1
  Fe  Fe12  1  0.433172  0.049055  0.500000  1
  Fe  Fe13  1  0.613145  0.564813  0.500000  1
  P  P14  1  0.303386  0.890817  0.000000  1
  P  P15  1  0.589508  0.698553  0.000000  1
  P  P16  1  0.122705  0.411416  0.000000  1
  P  P17  1  0.404577  0.287610  0.500000  1
  P  P18  1  0.874134  0.596550  0.500000  1
  P  P19  1  0.704860  0.112582  0.500000  1
  P  P20  1  0.000225  0.002746  0.000000  1
