# generated using pymatgen
data_CeTh5(Cu3Sn4)2
_symmetry_space_group_name_H-M   'P 1'
_cell_length_a   8.45986542
_cell_length_b   8.45986525
_cell_length_c   8.45986553
_cell_angle_alpha   109.49142023
_cell_angle_beta   109.49142269
_cell_angle_gamma   109.43083293
_symmetry_Int_Tables_number   1
_chemical_formula_structural   CeTh5(Cu3Sn4)2
_chemical_formula_sum   'Ce1 Th5 Cu6 Sn8'
_cell_volume   466.08837650
_cell_formula_units_Z   1
loop_
 _symmetry_equiv_pos_site_id
 _symmetry_equiv_pos_as_xyz
  1  'x, y, z'
loop_
 _atom_site_type_symbol
 _atom_site_label
 _atom_site_symmetry_multiplicity
 _atom_site_fract_x
 _atom_site_fract_y
 _atom_site_fract_z
 _atom_site_occupancy
  Ce  Ce0  1  0.375000  0.625000  0.750000  1
  Th  Th1  1  0.875162  0.250132  0.125412  1
  Th  Th2  1  0.624721  0.749750  0.374588  1
  Th  Th3  1  0.250250  0.124838  0.874971  1
  Th  Th4  1  0.749868  0.375279  0.625029  1
  Th  Th5  1  0.125000  0.875000  0.250000  1
  Cu  Cu6  1  0.375257  0.251471  0.626536  1
  Cu  Cu7  1  0.124935  0.748721  0.873464  1
  Cu  Cu8  1  0.251279  0.624743  0.376215  1
  Cu  Cu9  1  0.748529  0.875065  0.123785  1
  Cu  Cu10  1  0.625000  0.375000  0.250000  1
  Cu  Cu11  1  0.875000  0.125000  0.750000  1
  Sn  Sn12  1  0.662658  0.500887  0.998784  1
  Sn  Sn13  1  0.499226  0.998766  0.663863  1
  Sn  Sn14  1  0.002102  0.663874  0.501216  1
  Sn  Sn15  1  0.834903  0.835362  0.836137  1
  Sn  Sn16  1  0.499113  0.997898  0.161771  1
  Sn  Sn17  1  0.164638  0.500774  0.999540  1
  Sn  Sn18  1  0.001234  0.165097  0.500460  1
  Sn  Sn19  1  0.336126  0.337342  0.338229  1
