# generated using pymatgen
data_Ce4As3N3O
_symmetry_space_group_name_H-M   'P 1'
_cell_length_a   6.87677818
_cell_length_b   6.87677786
_cell_length_c   7.99740890
_cell_angle_alpha   89.73819240
_cell_angle_beta   90.26180638
_cell_angle_gamma   146.12725038
_symmetry_Int_Tables_number   1
_chemical_formula_structural   Ce4As3N3O
_chemical_formula_sum   'Ce4 As3 N3 O1'
_cell_volume   210.78639973
_cell_formula_units_Z   1
loop_
 _symmetry_equiv_pos_site_id
 _symmetry_equiv_pos_as_xyz
  1  'x, y, z'
loop_
 _atom_site_type_symbol
 _atom_site_label
 _atom_site_symmetry_multiplicity
 _atom_site_fract_x
 _atom_site_fract_y
 _atom_site_fract_z
 _atom_site_occupancy
  Ce  Ce0  1  0.318901  0.681099  0.240873  1
  Ce  Ce1  1  0.985618  0.014382  0.504121  1
  Ce  Ce2  1  0.997085  0.002915  0.995807  1
  Ce  Ce3  1  0.319845  0.680155  0.757522  1
  As  As4  1  0.634283  0.365717  0.694508  1
  As  As5  1  0.635970  0.364030  0.308082  1
  As  As6  1  0.688055  0.311945  0.000670  1
  N  N7  1  0.413084  0.586916  0.002441  1
  N  N8  1  0.908313  0.091687  0.752724  1
  N  N9  1  0.391037  0.608963  0.496706  1
  O  O10  1  0.905702  0.094298  0.246544  1
