# generated using pymatgen
data_DyHo2Mg(AlPt)4
_symmetry_space_group_name_H-M   'P 1'
_cell_length_a   4.33958200
_cell_length_b   6.83595933
_cell_length_c   7.72828602
_cell_angle_alpha   92.55997821
_cell_angle_beta   90.00000000
_cell_angle_gamma   90.00000000
_symmetry_Int_Tables_number   1
_chemical_formula_structural   DyHo2Mg(AlPt)4
_chemical_formula_sum   'Dy1 Ho2 Mg1 Al4 Pt4'
_cell_volume   229.03239758
_cell_formula_units_Z   1
loop_
 _symmetry_equiv_pos_site_id
 _symmetry_equiv_pos_as_xyz
  1  'x, y, z'
loop_
 _atom_site_type_symbol
 _atom_site_label
 _atom_site_symmetry_multiplicity
 _atom_site_fract_x
 _atom_site_fract_y
 _atom_site_fract_z
 _atom_site_occupancy
  Dy  Dy0  1  0.250000  0.528292  0.817409  1
  Ho  Ho1  1  0.750000  0.974217  0.330142  1
  Ho  Ho2  1  0.750000  0.469207  0.179636  1
  Mg  Mg3  1  0.250000  0.028051  0.676961  1
  Al  Al4  1  0.250000  0.138153  0.054636  1
  Al  Al5  1  0.250000  0.649075  0.440323  1
  Al  Al6  1  0.750000  0.859637  0.936926  1
  Al  Al7  1  0.750000  0.355528  0.563443  1
  Pt  Pt8  1  0.250000  0.272494  0.382387  1
  Pt  Pt9  1  0.250000  0.773472  0.125834  1
  Pt  Pt10  1  0.750000  0.730604  0.620144  1
  Pt  Pt11  1  0.750000  0.221268  0.872162  1
