# generated using pymatgen
data_Ta12B12Os11Ru
_symmetry_space_group_name_H-M   'P 1'
_cell_length_a   3.10645400
_cell_length_b   9.09337884
_cell_length_c   15.83811920
_cell_angle_alpha   89.92712436
_cell_angle_beta   90.00000000
_cell_angle_gamma   90.00000000
_symmetry_Int_Tables_number   1
_chemical_formula_structural   Ta12B12Os11Ru
_chemical_formula_sum   'Ta12 B12 Os11 Ru1'
_cell_volume   447.39741203
_cell_formula_units_Z   1
loop_
 _symmetry_equiv_pos_site_id
 _symmetry_equiv_pos_as_xyz
  1  'x, y, z'
loop_
 _atom_site_type_symbol
 _atom_site_label
 _atom_site_symmetry_multiplicity
 _atom_site_fract_x
 _atom_site_fract_y
 _atom_site_fract_z
 _atom_site_occupancy
  Ta  Ta0  1  0.000000  0.799527  0.495190  1
  Ta  Ta1  1  0.000000  0.201108  0.504267  1
  Ta  Ta2  1  0.000000  0.298841  0.004844  1
  Ta  Ta3  1  0.000000  0.700738  0.995307  1
  Ta  Ta4  1  0.000000  0.516239  0.593350  1
  Ta  Ta5  1  0.000000  0.484305  0.406356  1
  Ta  Ta6  1  0.000000  0.015903  0.906894  1
  Ta  Ta7  1  0.000000  0.983256  0.094234  1
  Ta  Ta8  1  0.000000  0.688757  0.202032  1
  Ta  Ta9  1  0.000000  0.311494  0.798010  1
  Ta  Ta10  1  0.000000  0.188502  0.297622  1
  Ta  Ta11  1  0.000000  0.811933  0.702144  1
  B  B12  1  0.500000  0.604857  0.496806  1
  B  B13  1  0.500000  0.395669  0.502927  1
  B  B14  1  0.500000  0.103995  0.003622  1
  B  B15  1  0.500000  0.895276  0.997577  1
  B  B16  1  0.000000  0.608979  0.832403  1
  B  B17  1  0.000000  0.390723  0.167543  1
  B  B18  1  0.000000  0.108985  0.667800  1
  B  B19  1  0.000000  0.891005  0.332029  1
  B  B20  1  0.500000  0.715619  0.597838  1
  B  B21  1  0.500000  0.284805  0.401709  1
  B  B22  1  0.500000  0.215200  0.902354  1
  B  B23  1  0.500000  0.783652  0.097843  1
  Os  Os24  1  0.500000  0.720097  0.354839  1
  Os  Os25  1  0.500000  0.280495  0.644552  1
  Os  Os26  1  0.500000  0.219047  0.144977  1
  Os  Os27  1  0.500000  0.780577  0.855307  1
  Os  Os28  1  0.500000  0.515795  0.093473  1
  Os  Os29  1  0.500000  0.483750  0.906458  1
  Os  Os30  1  0.500000  0.016183  0.406018  1
  Os  Os31  1  0.500000  0.984141  0.593418  1
  Os  Os32  1  0.500000  0.560089  0.734546  1
  Os  Os33  1  0.500000  0.440241  0.265387  1
  Os  Os34  1  0.500000  0.059421  0.765336  1
  Ru  Ru35  1  0.500000  0.940795  0.234989  1
