# generated using pymatgen
data_Dy6Y14Si15Ag
_symmetry_space_group_name_H-M   'P 1'
_cell_length_a   7.47032488
_cell_length_b   7.70624381
_cell_length_c   14.67748283
_cell_angle_alpha   89.82816465
_cell_angle_beta   89.45989751
_cell_angle_gamma   90.15706573
_symmetry_Int_Tables_number   1
_chemical_formula_structural   Dy6Y14Si15Ag
_chemical_formula_sum   'Dy6 Y14 Si15 Ag1'
_cell_volume   844.91087621
_cell_formula_units_Z   1
loop_
 _symmetry_equiv_pos_site_id
 _symmetry_equiv_pos_as_xyz
  1  'x, y, z'
loop_
 _atom_site_type_symbol
 _atom_site_label
 _atom_site_symmetry_multiplicity
 _atom_site_fract_x
 _atom_site_fract_y
 _atom_site_fract_z
 _atom_site_occupancy
  Dy  Dy0  1  0.820406  0.323815  0.124099  1
  Dy  Dy1  1  0.318015  0.178355  0.377242  1
  Dy  Dy2  1  0.322674  0.178688  0.123540  1
  Dy  Dy3  1  0.819250  0.320443  0.377300  1
  Dy  Dy4  1  0.182243  0.676088  0.877834  1
  Dy  Dy5  1  0.681717  0.821030  0.622318  1
  Y  Y6  1  0.648302  0.991078  0.250007  1
  Y  Y7  1  0.149981  0.511050  0.248308  1
  Y  Y8  1  0.848620  0.488858  0.749475  1
  Y  Y9  1  0.349702  0.011747  0.749927  1
  Y  Y10  1  0.975505  0.822964  0.101240  1
  Y  Y11  1  0.471539  0.683606  0.401286  1
  Y  Y12  1  0.520805  0.315264  0.898996  1
  Y  Y13  1  0.029813  0.182239  0.598434  1
  Y  Y14  1  0.030087  0.176195  0.899970  1
  Y  Y15  1  0.529328  0.316463  0.598290  1
  Y  Y16  1  0.473365  0.682671  0.100626  1
  Y  Y17  1  0.969658  0.817027  0.400221  1
  Y  Y18  1  0.675639  0.825571  0.876221  1
  Y  Y19  1  0.181721  0.680038  0.621689  1
  Si  Si20  1  0.765921  0.628298  0.251495  1
  Si  Si21  1  0.266559  0.873271  0.251149  1
  Si  Si22  1  0.734066  0.125713  0.748802  1
  Si  Si23  1  0.231409  0.373590  0.747750  1
  Si  Si24  1  0.022100  0.104757  0.250397  1
  Si  Si25  1  0.523479  0.396009  0.252043  1
  Si  Si26  1  0.475686  0.604138  0.748198  1
  Si  Si27  1  0.977032  0.892979  0.748709  1
  Si  Si28  1  0.354665  0.971576  0.540076  1
  Si  Si29  1  0.649791  0.028657  0.041435  1
  Si  Si30  1  0.146350  0.470283  0.459993  1
  Si  Si31  1  0.158014  0.470911  0.042350  1
  Si  Si32  1  0.645457  0.028796  0.459384  1
  Si  Si33  1  0.351597  0.969388  0.961109  1
  Si  Si34  1  0.855285  0.529644  0.538992  1
  Ag  Ag35  1  0.844216  0.528800  0.961095  1
