# generated using pymatgen
data_Tb7ErSc12Ga7Si9
_symmetry_space_group_name_H-M   'P 1'
_cell_length_a   7.18609923
_cell_length_b   7.42724626
_cell_length_c   14.29789714
_cell_angle_alpha   89.97521658
_cell_angle_beta   89.94075113
_cell_angle_gamma   90.06226615
_symmetry_Int_Tables_number   1
_chemical_formula_structural   Tb7ErSc12Ga7Si9
_chemical_formula_sum   'Tb7 Er1 Sc12 Ga7 Si9'
_cell_volume   763.11971379
_cell_formula_units_Z   1
loop_
 _symmetry_equiv_pos_site_id
 _symmetry_equiv_pos_as_xyz
  1  'x, y, z'
loop_
 _atom_site_type_symbol
 _atom_site_label
 _atom_site_symmetry_multiplicity
 _atom_site_fract_x
 _atom_site_fract_y
 _atom_site_fract_z
 _atom_site_occupancy
  Tb  Tb0  1  0.012545  0.173305  0.098840  1
  Tb  Tb1  1  0.989826  0.823709  0.901177  1
  Tb  Tb2  1  0.488314  0.676319  0.901677  1
  Tb  Tb3  1  0.989363  0.823728  0.599982  1
  Tb  Tb4  1  0.510349  0.323105  0.099189  1
  Tb  Tb5  1  0.010486  0.175565  0.400011  1
  Tb  Tb6  1  0.510640  0.323734  0.400035  1
  Er  Er7  1  0.489615  0.676544  0.600350  1
  Sc  Sc8  1  0.164644  0.501616  0.749780  1
  Sc  Sc9  1  0.836556  0.499515  0.249649  1
  Sc  Sc10  1  0.335500  0.000999  0.248861  1
  Sc  Sc11  1  0.663596  0.999471  0.749596  1
  Sc  Sc12  1  0.330628  0.173787  0.626147  1
  Sc  Sc13  1  0.669022  0.826735  0.373848  1
  Sc  Sc14  1  0.169352  0.673557  0.373666  1
  Sc  Sc15  1  0.667672  0.825474  0.126270  1
  Sc  Sc16  1  0.829970  0.326694  0.626348  1
  Sc  Sc17  1  0.329895  0.174170  0.874809  1
  Sc  Sc18  1  0.829417  0.326593  0.874113  1
  Sc  Sc19  1  0.172041  0.675724  0.125071  1
  Ga  Ga20  1  0.161031  0.463748  0.539772  1
  Ga  Ga21  1  0.839205  0.536936  0.460417  1
  Ga  Ga22  1  0.339468  0.961927  0.460684  1
  Ga  Ga23  1  0.839893  0.538385  0.040243  1
  Ga  Ga24  1  0.660357  0.036293  0.539694  1
  Ga  Ga25  1  0.159522  0.461984  0.960656  1
  Ga  Ga26  1  0.659143  0.037929  0.960962  1
  Si  Si27  1  0.032434  0.114433  0.750869  1
  Si  Si28  1  0.967056  0.884173  0.249457  1
  Si  Si29  1  0.466667  0.614201  0.249446  1
  Si  Si30  1  0.532527  0.386138  0.749969  1
  Si  Si31  1  0.285506  0.874601  0.750264  1
  Si  Si32  1  0.715440  0.125102  0.249098  1
  Si  Si33  1  0.214381  0.374505  0.249405  1
  Si  Si34  1  0.783990  0.625759  0.750170  1
  Si  Si35  1  0.343949  0.963537  0.039473  1
