# generated using pymatgen
data_LiS4BrO14
_symmetry_space_group_name_H-M   'P 1'
_cell_length_a   5.51266692
_cell_length_b   6.79405007
_cell_length_c   8.82748437
_cell_angle_alpha   105.87801516
_cell_angle_beta   92.61501043
_cell_angle_gamma   103.24725216
_symmetry_Int_Tables_number   1
_chemical_formula_structural   LiS4BrO14
_chemical_formula_sum   'Li1 S4 Br1 O14'
_cell_volume   307.46378954
_cell_formula_units_Z   1
loop_
 _symmetry_equiv_pos_site_id
 _symmetry_equiv_pos_as_xyz
  1  'x, y, z'
loop_
 _atom_site_type_symbol
 _atom_site_label
 _atom_site_symmetry_multiplicity
 _atom_site_fract_x
 _atom_site_fract_y
 _atom_site_fract_z
 _atom_site_occupancy
  Li  Li0  1  0.500000  0.000000  0.000000  1
  S  S1  1  0.924774  0.740916  0.778563  1
  S  S2  1  0.075226  0.259084  0.221437  1
  S  S3  1  0.657857  0.306362  0.756402  1
  S  S4  1  0.342143  0.693638  0.243598  1
  Br  Br5  1  0.500000  0.500000  0.500000  1
  O  O6  1  0.864842  0.665078  0.596772  1
  O  O7  1  0.135158  0.334922  0.403228  1
  O  O8  1  0.450014  0.397437  0.698480  1
  O  O9  1  0.549986  0.602563  0.301520  1
  O  O10  1  0.188387  0.839144  0.813684  1
  O  O11  1  0.811613  0.160856  0.186316  1
  O  O12  1  0.748283  0.847034  0.856468  1
  O  O13  1  0.251717  0.152966  0.143532  1
  O  O14  1  0.584813  0.250272  0.895878  1
  O  O15  1  0.415187  0.749728  0.104122  1
  O  O16  1  0.897238  0.521345  0.827795  1
  O  O17  1  0.102762  0.478655  0.172205  1
  O  O18  1  0.745367  0.166126  0.632023  1
  O  O19  1  0.254633  0.833874  0.367977  1
