# generated using pymatgen
data_Ce8MgTiSn6
_symmetry_space_group_name_H-M   'P 1'
_cell_length_a   8.98802426
_cell_length_b   8.98802333
_cell_length_c   8.98802502
_cell_angle_alpha   96.57349096
_cell_angle_beta   96.57348456
_cell_angle_gamma   140.44784441
_symmetry_Int_Tables_number   1
_chemical_formula_structural   Ce8MgTiSn6
_chemical_formula_sum   'Ce8 Mg1 Ti1 Sn6'
_cell_volume   435.09304102
_cell_formula_units_Z   1
loop_
 _symmetry_equiv_pos_site_id
 _symmetry_equiv_pos_as_xyz
  1  'x, y, z'
loop_
 _atom_site_type_symbol
 _atom_site_label
 _atom_site_symmetry_multiplicity
 _atom_site_fract_x
 _atom_site_fract_y
 _atom_site_fract_z
 _atom_site_occupancy
  Ce  Ce0  1  0.101087  0.238371  0.332988  1
  Ce  Ce1  1  0.905381  0.768098  0.667012  1
  Ce  Ce2  1  0.761629  0.094619  0.862716  1
  Ce  Ce3  1  0.398913  0.731902  0.137284  1
  Ce  Ce4  1  0.231902  0.898913  0.137284  1
  Ce  Ce5  1  0.594619  0.261629  0.862716  1
  Ce  Ce6  1  0.738371  0.601087  0.332988  1
  Ce  Ce7  1  0.268098  0.405381  0.667012  1
  Mg  Mg8  1  0.750000  0.250000  0.500000  1
  Ti  Ti9  1  0.250000  0.750000  0.500000  1
  Sn  Sn10  1  0.156836  0.656836  0.794306  1
  Sn  Sn11  1  0.862531  0.362531  0.205694  1
  Sn  Sn12  1  0.343164  0.137469  0.500000  1
  Sn  Sn13  1  0.637469  0.843164  0.500000  1
  Sn  Sn14  1  0.250000  0.250000  0.000000  1
  Sn  Sn15  1  0.750000  0.750000  0.000000  1
