# generated using pymatgen
data_Tb5VReO12
_symmetry_space_group_name_H-M   'P 1'
_cell_length_a   6.83940837
_cell_length_b   6.83940862
_cell_length_c   7.50833910
_cell_angle_alpha   73.92515896
_cell_angle_beta   73.92516159
_cell_angle_gamma   50.10358837
_symmetry_Int_Tables_number   1
_chemical_formula_structural   Tb5VReO12
_chemical_formula_sum   'Tb5 V1 Re1 O12'
_cell_volume   256.56400388
_cell_formula_units_Z   1
loop_
 _symmetry_equiv_pos_site_id
 _symmetry_equiv_pos_as_xyz
  1  'x, y, z'
loop_
 _atom_site_type_symbol
 _atom_site_label
 _atom_site_symmetry_multiplicity
 _atom_site_fract_x
 _atom_site_fract_y
 _atom_site_fract_z
 _atom_site_occupancy
  Tb  Tb0  1  0.709321  0.680251  0.640804  1
  Tb  Tb1  1  0.319749  0.290679  0.359196  1
  Tb  Tb2  1  0.687981  0.685636  0.174442  1
  Tb  Tb3  1  0.314364  0.312019  0.825558  1
  Tb  Tb4  1  0.008128  0.991872  0.500000  1
  V  V5  1  0.765347  0.234653  0.000000  1
  Re  Re6  1  0.217790  0.782210  0.000000  1
  O  O7  1  0.997771  0.003246  0.196070  1
  O  O8  1  0.996754  0.002229  0.803930  1
  O  O9  1  0.571398  0.092972  0.082523  1
  O  O10  1  0.408485  0.905412  0.918665  1
  O  O11  1  0.907028  0.428602  0.917477  1
  O  O12  1  0.094588  0.591515  0.081335  1
  O  O13  1  0.487184  0.512695  0.179536  1
  O  O14  1  0.487305  0.512816  0.820464  1
  O  O15  1  0.409899  0.893895  0.429125  1
  O  O16  1  0.598052  0.087249  0.579747  1
  O  O17  1  0.106105  0.590101  0.570875  1
  O  O18  1  0.912751  0.401948  0.420253  1
