# generated using pymatgen
data_YbTm(B4Ru)2
_symmetry_space_group_name_H-M   'P 1'
_cell_length_a   3.52933800
_cell_length_b   5.93835158
_cell_length_c   11.48301102
_cell_angle_alpha   89.89305172
_cell_angle_beta   90.00000000
_cell_angle_gamma   90.00000000
_symmetry_Int_Tables_number   1
_chemical_formula_structural   YbTm(B4Ru)2
_chemical_formula_sum   'Yb2 Tm2 B16 Ru4'
_cell_volume   240.66569163
_cell_formula_units_Z   2
loop_
 _symmetry_equiv_pos_site_id
 _symmetry_equiv_pos_as_xyz
  1  'x, y, z'
loop_
 _atom_site_type_symbol
 _atom_site_label
 _atom_site_symmetry_multiplicity
 _atom_site_fract_x
 _atom_site_fract_y
 _atom_site_fract_z
 _atom_site_occupancy
  Yb  Yb0  1  0.500000  0.129026  0.350238  1
  Yb  Yb1  1  0.500000  0.870974  0.649762  1
  Tm  Tm2  1  0.500000  0.629669  0.150500  1
  Tm  Tm3  1  0.500000  0.370331  0.849500  1
  B  B4  1  0.000000  0.974646  0.192227  1
  B  B5  1  0.000000  0.025354  0.807773  1
  B  B6  1  0.000000  0.476791  0.307799  1
  B  B7  1  0.000000  0.523209  0.692201  1
  B  B8  1  0.000000  0.788463  0.314940  1
  B  B9  1  0.000000  0.211537  0.685060  1
  B  B10  1  0.000000  0.288526  0.185823  1
  B  B11  1  0.000000  0.711474  0.814177  1
  B  B12  1  0.000000  0.864744  0.469004  1
  B  B13  1  0.000000  0.135256  0.530996  1
  B  B14  1  0.000000  0.364809  0.030332  1
  B  B15  1  0.000000  0.635191  0.969668  1
  B  B16  1  0.000000  0.887465  0.047530  1
  B  B17  1  0.000000  0.112535  0.952470  1
  B  B18  1  0.000000  0.386571  0.453099  1
  B  B19  1  0.000000  0.613429  0.546901  1
  Ru  Ru20  1  0.500000  0.636022  0.409986  1
  Ru  Ru21  1  0.500000  0.363978  0.590014  1
  Ru  Ru22  1  0.500000  0.141054  0.090884  1
  Ru  Ru23  1  0.500000  0.858946  0.909116  1
