# generated using pymatgen
data_LiPr3Nd2(P2Ru3)6
_symmetry_space_group_name_H-M   'P 1'
_cell_length_a   12.73588750
_cell_length_b   12.56267611
_cell_length_c   4.01672500
_cell_angle_alpha   90.00000000
_cell_angle_beta   90.00000000
_cell_angle_gamma   119.55111951
_symmetry_Int_Tables_number   1
_chemical_formula_structural   LiPr3Nd2(P2Ru3)6
_chemical_formula_sum   'Li1 Pr3 Nd2 P12 Ru18'
_cell_volume   559.06306239
_cell_formula_units_Z   1
loop_
 _symmetry_equiv_pos_site_id
 _symmetry_equiv_pos_as_xyz
  1  'x, y, z'
loop_
 _atom_site_type_symbol
 _atom_site_label
 _atom_site_symmetry_multiplicity
 _atom_site_fract_x
 _atom_site_fract_y
 _atom_site_fract_z
 _atom_site_occupancy
  Li  Li0  1  0.000000  0.562044  0.000000  1
  Pr  Pr1  1  0.000000  0.182646  0.500000  1
  Pr  Pr2  1  0.817484  0.814840  0.500000  1
  Pr  Pr3  1  0.182516  0.997357  0.500000  1
  Nd  Nd4  1  0.658919  0.328933  0.000000  1
  Nd  Nd5  1  0.341081  0.670015  0.000000  1
  P  P6  1  0.000000  0.803494  0.000000  1
  P  P7  1  0.184314  0.186327  0.000000  1
  P  P8  1  0.815686  0.002013  0.000000  1
  P  P9  1  0.692425  0.171904  0.500000  1
  P  P10  1  0.818718  0.519993  0.500000  1
  P  P11  1  0.471510  0.305059  0.500000  1
  P  P12  1  0.181282  0.701275  0.500000  1
  P  P13  1  0.528490  0.833550  0.500000  1
  P  P14  1  0.307575  0.479478  0.500000  1
  P  P15  1  0.000000  0.370575  0.000000  1
  P  P16  1  0.622963  0.623217  0.000000  1
  P  P17  1  0.377037  0.000253  0.000000  1
  Ru  Ru18  1  0.442915  0.444814  0.000000  1
  Ru  Ru19  1  0.557085  0.001900  0.000000  1
  Ru  Ru20  1  0.000000  0.707580  0.500000  1
  Ru  Ru21  1  0.281984  0.285210  0.500000  1
  Ru  Ru22  1  0.718016  0.003226  0.500000  1
  Ru  Ru23  1  0.804823  0.186982  0.000000  1
  Ru  Ru24  1  0.812549  0.616678  0.000000  1
  Ru  Ru25  1  0.373700  0.191238  0.000000  1
  Ru  Ru26  1  0.187451  0.804129  0.000000  1
  Ru  Ru27  1  0.626300  0.817538  0.000000  1
  Ru  Ru28  1  0.195177  0.382159  0.000000  1
  Ru  Ru29  1  0.877518  0.368862  0.500000  1
  Ru  Ru30  1  0.629071  0.508557  0.500000  1
  Ru  Ru31  1  0.490576  0.126425  0.500000  1
  Ru  Ru32  1  0.370929  0.879486  0.500000  1
  Ru  Ru33  1  0.509424  0.635849  0.500000  1
  Ru  Ru34  1  0.122482  0.491344  0.500000  1
  Ru  Ru35  1  0.000000  0.995051  0.000000  1
