# generated using pymatgen
data_AcNiAs2Ru
_symmetry_space_group_name_H-M   'P 1'
_cell_length_a   4.33940800
_cell_length_b   4.33940800
_cell_length_c   9.96008500
_cell_angle_alpha   90.00000000
_cell_angle_beta   90.00000000
_cell_angle_gamma   90.00000000
_symmetry_Int_Tables_number   1
_chemical_formula_structural   AcNiAs2Ru
_chemical_formula_sum   'Ac2 Ni2 As4 Ru2'
_cell_volume   187.55300002
_cell_formula_units_Z   2
loop_
 _symmetry_equiv_pos_site_id
 _symmetry_equiv_pos_as_xyz
  1  'x, y, z'
loop_
 _atom_site_type_symbol
 _atom_site_label
 _atom_site_symmetry_multiplicity
 _atom_site_fract_x
 _atom_site_fract_y
 _atom_site_fract_z
 _atom_site_occupancy
  Ac  Ac0  1  0.000000  0.500000  0.256241  1
  Ac  Ac1  1  0.500000  0.000000  0.743759  1
  Ni  Ni2  1  0.000000  0.500000  0.612691  1
  Ni  Ni3  1  0.500000  0.000000  0.387309  1
  As  As4  1  0.000000  0.000000  0.500000  1
  As  As5  1  0.500000  0.500000  0.500000  1
  As  As6  1  0.000000  0.500000  0.870429  1
  As  As7  1  0.500000  0.000000  0.129571  1
  Ru  Ru8  1  0.000000  0.000000  0.000000  1
  Ru  Ru9  1  0.500000  0.500000  0.000000  1
