# generated using pymatgen
data_EuHo6PtI12
_symmetry_space_group_name_H-M   'P 1'
_cell_length_a   9.79398472
_cell_length_b   9.79398541
_cell_length_c   9.79398576
_cell_angle_alpha   106.68922565
_cell_angle_beta   106.68922252
_cell_angle_gamma   106.68922575
_symmetry_Int_Tables_number   1
_chemical_formula_structural   EuHo6PtI12
_chemical_formula_sum   'Eu1 Ho6 Pt1 I12'
_cell_volume   788.93020353
_cell_formula_units_Z   1
loop_
 _symmetry_equiv_pos_site_id
 _symmetry_equiv_pos_as_xyz
  1  'x, y, z'
loop_
 _atom_site_type_symbol
 _atom_site_label
 _atom_site_symmetry_multiplicity
 _atom_site_fract_x
 _atom_site_fract_y
 _atom_site_fract_z
 _atom_site_occupancy
  Eu  Eu0  1  0.000000  0.000000  0.000000  1
  Ho  Ho1  1  0.403153  0.474505  0.200886  1
  Ho  Ho2  1  0.200886  0.403153  0.474505  1
  Ho  Ho3  1  0.474505  0.200886  0.403153  1
  Ho  Ho4  1  0.596847  0.525495  0.799114  1
  Ho  Ho5  1  0.799114  0.596847  0.525495  1
  Ho  Ho6  1  0.525495  0.799114  0.596847  1
  Pt  Pt7  1  0.500000  0.500000  0.500000  1
  I  I8  1  0.045211  0.360000  0.124466  1
  I  I9  1  0.124466  0.045211  0.360000  1
  I  I10  1  0.360000  0.124466  0.045211  1
  I  I11  1  0.954789  0.640000  0.875534  1
  I  I12  1  0.875534  0.954789  0.640000  1
  I  I13  1  0.640000  0.875534  0.954789  1
  I  I14  1  0.722048  0.573507  0.177639  1
  I  I15  1  0.177639  0.722048  0.573507  1
  I  I16  1  0.573507  0.177639  0.722048  1
  I  I17  1  0.277952  0.426493  0.822361  1
  I  I18  1  0.822361  0.277952  0.426493  1
  I  I19  1  0.426493  0.822361  0.277952  1
