# generated using pymatgen
data_Ce3Ho2P12Ru11Rh8
_symmetry_space_group_name_H-M   'P 1'
_cell_length_a   12.62773709
_cell_length_b   12.66390376
_cell_length_c   3.95087200
_cell_angle_alpha   90.00000000
_cell_angle_beta   90.00000000
_cell_angle_gamma   119.81799993
_symmetry_Int_Tables_number   1
_chemical_formula_structural   Ce3Ho2P12Ru11Rh8
_chemical_formula_sum   'Ce3 Ho2 P12 Ru11 Rh8'
_cell_volume   548.16371161
_cell_formula_units_Z   1
loop_
 _symmetry_equiv_pos_site_id
 _symmetry_equiv_pos_as_xyz
  1  'x, y, z'
loop_
 _atom_site_type_symbol
 _atom_site_label
 _atom_site_symmetry_multiplicity
 _atom_site_fract_x
 _atom_site_fract_y
 _atom_site_fract_z
 _atom_site_occupancy
  Ce  Ce0  1  0.819794  0.001687  0.500000  1
  Ce  Ce1  1  0.002085  0.820469  0.500000  1
  Ce  Ce2  1  0.664824  0.332599  0.000000  1
  Ho  Ho3  1  0.187908  0.186082  0.500000  1
  Ho  Ho4  1  0.333359  0.666414  0.000000  1
  P  P5  1  0.815482  0.815939  0.000000  1
  P  P6  1  0.186001  0.004027  0.000000  1
  P  P7  1  0.004226  0.184403  0.000000  1
  P  P8  1  0.173842  0.484496  0.500000  1
  P  P9  1  0.514681  0.688850  0.500000  1
  P  P10  1  0.309558  0.824916  0.500000  1
  P  P11  1  0.689090  0.519240  0.500000  1
  P  P12  1  0.829269  0.309928  0.500000  1
  P  P13  1  0.478338  0.172437  0.500000  1
  P  P14  1  0.369503  0.366198  0.000000  1
  P  P15  1  0.629084  0.999662  0.000000  1
  P  P16  1  0.000148  0.629638  0.000000  1
  Ru  Ru17  1  0.712172  0.713723  0.500000  1
  Ru  Ru18  1  0.285808  0.997113  0.500000  1
  Ru  Ru19  1  0.001892  0.287419  0.500000  1
  Ru  Ru20  1  0.377638  0.181523  0.000000  1
  Ru  Ru21  1  0.361586  0.489444  0.500000  1
  Ru  Ru22  1  0.510578  0.873149  0.500000  1
  Ru  Ru23  1  0.125245  0.636512  0.500000  1
  Ru  Ru24  1  0.873028  0.510736  0.500000  1
  Ru  Ru25  1  0.636534  0.125828  0.500000  1
  Ru  Ru26  1  0.488855  0.364650  0.500000  1
  Ru  Ru27  1  0.999031  0.998960  0.000000  1
  Rh  Rh28  1  0.549036  0.550382  0.000000  1
  Rh  Rh29  1  0.447557  0.997974  0.000000  1
  Rh  Rh30  1  0.998326  0.448089  0.000000  1
  Rh  Rh31  1  0.184019  0.376262  0.000000  1
  Rh  Rh32  1  0.623416  0.806450  0.000000  1
  Rh  Rh33  1  0.193381  0.816336  0.000000  1
  Rh  Rh34  1  0.806120  0.623911  0.000000  1
  Rh  Rh35  1  0.818587  0.194555  0.000000  1
