# generated using pymatgen
data_Sc8V8Re3Si16W
_symmetry_space_group_name_H-M   'P 1'
_cell_length_a   6.47553117
_cell_length_b   6.64488020
_cell_length_c   12.56171300
_cell_angle_alpha   90.00000000
_cell_angle_beta   90.00000000
_cell_angle_gamma   90.03363295
_symmetry_Int_Tables_number   1
_chemical_formula_structural   Sc8V8Re3Si16W
_chemical_formula_sum   'Sc8 V8 Re3 Si16 W1'
_cell_volume   540.51947398
_cell_formula_units_Z   1
loop_
 _symmetry_equiv_pos_site_id
 _symmetry_equiv_pos_as_xyz
  1  'x, y, z'
loop_
 _atom_site_type_symbol
 _atom_site_label
 _atom_site_symmetry_multiplicity
 _atom_site_fract_x
 _atom_site_fract_y
 _atom_site_fract_z
 _atom_site_occupancy
  Sc  Sc0  1  0.493967  0.668590  0.591938  1
  Sc  Sc1  1  0.994580  0.830134  0.907841  1
  Sc  Sc2  1  0.505620  0.329254  0.092157  1
  Sc  Sc3  1  0.003753  0.169490  0.407888  1
  Sc  Sc4  1  0.505620  0.329254  0.407843  1
  Sc  Sc5  1  0.003753  0.169490  0.092112  1
  Sc  Sc6  1  0.493967  0.668590  0.908062  1
  Sc  Sc7  1  0.994580  0.830134  0.592159  1
  V  V8  1  0.667089  0.163868  0.625401  1
  V  V9  1  0.167557  0.336604  0.875508  1
  V  V10  1  0.335350  0.836400  0.124861  1
  V  V11  1  0.832281  0.666082  0.375356  1
  V  V12  1  0.335350  0.836400  0.375139  1
  V  V13  1  0.832281  0.666082  0.124644  1
  V  V14  1  0.667089  0.163868  0.874599  1
  V  V15  1  0.167557  0.336604  0.624492  1
  Re  Re16  1  0.835124  0.498535  0.750000  1
  Re  Re17  1  0.335002  0.001141  0.750000  1
  Re  Re18  1  0.164522  0.504886  0.250000  1
  Si  Si19  1  0.667688  0.957038  0.460118  1
  Si  Si20  1  0.168014  0.543802  0.041862  1
  Si  Si21  1  0.332525  0.042579  0.957298  1
  Si  Si22  1  0.832903  0.457635  0.542155  1
  Si  Si23  1  0.332525  0.042579  0.542702  1
  Si  Si24  1  0.832903  0.457635  0.957845  1
  Si  Si25  1  0.667688  0.957038  0.039882  1
  Si  Si26  1  0.168014  0.543802  0.458138  1
  Si  Si27  1  0.464423  0.373663  0.750000  1
  Si  Si28  1  0.964588  0.126816  0.750000  1
  Si  Si29  1  0.534359  0.621709  0.250000  1
  Si  Si30  1  0.039021  0.873957  0.250000  1
  Si  Si31  1  0.698352  0.862014  0.750000  1
  Si  Si32  1  0.198367  0.637598  0.750000  1
  Si  Si33  1  0.298395  0.139227  0.250000  1
  Si  Si34  1  0.801847  0.364340  0.250000  1
  W  W35  1  0.663347  0.993164  0.250000  1
