# generated using pymatgen
data_Dy7ErTi3Si16W9
_symmetry_space_group_name_H-M   'P 1'
_cell_length_a   6.90112720
_cell_length_b   6.90082313
_cell_length_c   12.81077292
_cell_angle_alpha   90.00389193
_cell_angle_beta   90.00935730
_cell_angle_gamma   89.89950759
_symmetry_Int_Tables_number   1
_chemical_formula_structural   Dy7ErTi3Si16W9
_chemical_formula_sum   'Dy7 Er1 Ti3 Si16 W9'
_cell_volume   610.09236058
_cell_formula_units_Z   1
loop_
 _symmetry_equiv_pos_site_id
 _symmetry_equiv_pos_as_xyz
  1  'x, y, z'
loop_
 _atom_site_type_symbol
 _atom_site_label
 _atom_site_symmetry_multiplicity
 _atom_site_fract_x
 _atom_site_fract_y
 _atom_site_fract_z
 _atom_site_occupancy
  Dy  Dy0  1  0.339138  0.001947  0.468519  1
  Dy  Dy1  1  0.497189  0.837854  0.719140  1
  Dy  Dy2  1  0.499513  0.162235  0.217477  1
  Dy  Dy3  1  0.837891  0.497202  0.280799  1
  Dy  Dy4  1  0.162133  0.499546  0.782568  1
  Dy  Dy5  1  0.660472  0.999121  0.968725  1
  Dy  Dy6  1  0.001933  0.339129  0.531477  1
  Er  Er7  1  0.000069  0.660040  0.031243  1
  Ti  Ti8  1  0.170176  0.831407  0.248451  1
  Ti  Ti9  1  0.831496  0.170311  0.751439  1
  Ti  Ti10  1  0.668876  0.668893  0.499992  1
  Si  Si11  1  0.200678  0.128843  0.683233  1
  Si  Si12  1  0.372750  0.698647  0.933652  1
  Si  Si13  1  0.628557  0.298820  0.433512  1
  Si  Si14  1  0.699201  0.373899  0.066532  1
  Si  Si15  1  0.298808  0.628544  0.566465  1
  Si  Si16  1  0.797612  0.871494  0.183528  1
  Si  Si17  1  0.128843  0.200779  0.316768  1
  Si  Si18  1  0.872222  0.796941  0.816348  1
  Si  Si19  1  0.288354  0.962094  0.062318  1
  Si  Si20  1  0.539573  0.791325  0.313713  1
  Si  Si21  1  0.459173  0.209593  0.814113  1
  Si  Si22  1  0.791317  0.539493  0.686276  1
  Si  Si23  1  0.209007  0.459562  0.185596  1
  Si  Si24  1  0.709782  0.040770  0.563881  1
  Si  Si25  1  0.962653  0.289569  0.937872  1
  Si  Si26  1  0.040786  0.709761  0.436123  1
  W  W27  1  0.331365  0.331729  0.000046  1
  W  W28  1  0.158000  0.003148  0.873886  1
  W  W29  1  0.494369  0.664880  0.124444  1
  W  W30  1  0.505812  0.340168  0.624702  1
  W  W31  1  0.665303  0.494756  0.875744  1
  W  W32  1  0.340097  0.505846  0.375180  1
  W  W33  1  0.839979  0.993515  0.374246  1
  W  W34  1  0.003274  0.158185  0.126291  1
  W  W35  1  0.993597  0.839956  0.625702  1
