# generated using pymatgen
data_TbNd(CoB)8
_symmetry_space_group_name_H-M   'P 1'
_cell_length_a   7.01251000
_cell_length_b   7.01251000
_cell_length_c   3.80087000
_cell_angle_alpha   90.00000000
_cell_angle_beta   90.00000000
_cell_angle_gamma   90.00000000
_symmetry_Int_Tables_number   1
_chemical_formula_structural   TbNd(CoB)8
_chemical_formula_sum   'Tb1 Nd1 Co8 B8'
_cell_volume   186.90890921
_cell_formula_units_Z   1
loop_
 _symmetry_equiv_pos_site_id
 _symmetry_equiv_pos_as_xyz
  1  'x, y, z'
loop_
 _atom_site_type_symbol
 _atom_site_label
 _atom_site_symmetry_multiplicity
 _atom_site_fract_x
 _atom_site_fract_y
 _atom_site_fract_z
 _atom_site_occupancy
  Tb  Tb0  1  0.000000  0.000000  0.000000  1
  Nd  Nd1  1  0.500000  0.500000  0.500000  1
  Co  Co2  1  0.355448  0.884711  0.392680  1
  Co  Co3  1  0.617885  0.859813  0.892099  1
  Co  Co4  1  0.644552  0.115289  0.392680  1
  Co  Co5  1  0.140187  0.617885  0.107901  1
  Co  Co6  1  0.884711  0.644552  0.607320  1
  Co  Co7  1  0.859813  0.382115  0.107901  1
  Co  Co8  1  0.382115  0.140187  0.892099  1
  Co  Co9  1  0.115289  0.355448  0.607320  1
  B  B10  1  0.839370  0.293358  0.605609  1
  B  B11  1  0.160630  0.706642  0.605609  1
  B  B12  1  0.800331  0.663449  0.103354  1
  B  B13  1  0.336551  0.800331  0.896646  1
  B  B14  1  0.663449  0.199669  0.896646  1
  B  B15  1  0.293358  0.160630  0.394391  1
  B  B16  1  0.706642  0.839370  0.394391  1
  B  B17  1  0.199669  0.336551  0.103354  1
