# generated using pymatgen
data_Sc3GaSi2Tc3
_symmetry_space_group_name_H-M   'P 1'
_cell_length_a   7.04696600
_cell_length_b   7.04696723
_cell_length_c   3.41240200
_cell_angle_alpha   90.00000000
_cell_angle_beta   90.00000000
_cell_angle_gamma   119.99999421
_symmetry_Int_Tables_number   1
_chemical_formula_structural   Sc3GaSi2Tc3
_chemical_formula_sum   'Sc3 Ga1 Si2 Tc3'
_cell_volume   146.75579964
_cell_formula_units_Z   1
loop_
 _symmetry_equiv_pos_site_id
 _symmetry_equiv_pos_as_xyz
  1  'x, y, z'
loop_
 _atom_site_type_symbol
 _atom_site_label
 _atom_site_symmetry_multiplicity
 _atom_site_fract_x
 _atom_site_fract_y
 _atom_site_fract_z
 _atom_site_occupancy
  Sc  Sc0  1  0.381713  0.390075  0.500000  1
  Sc  Sc1  1  0.609925  0.991638  0.500000  1
  Sc  Sc2  1  0.008362  0.618287  0.500000  1
  Ga  Ga3  1  0.666667  0.333333  0.000000  1
  Si  Si4  1  0.333333  0.666667  0.000000  1
  Si  Si5  1  0.000000  0.000000  0.500000  1
  Tc  Tc6  1  0.738757  0.744292  0.000000  1
  Tc  Tc7  1  0.255708  0.994464  0.000000  1
  Tc  Tc8  1  0.005536  0.261243  0.000000  1
