# generated using pymatgen
data_Ca3Tl2Pd2RhPb
_symmetry_space_group_name_H-M   'P 1'
_cell_length_a   7.84111539
_cell_length_b   7.81089469
_cell_length_c   3.98479800
_cell_angle_alpha   90.00000000
_cell_angle_beta   90.00000000
_cell_angle_gamma   119.87258200
_symmetry_Int_Tables_number   1
_chemical_formula_structural   Ca3Tl2Pd2RhPb
_chemical_formula_sum   'Ca3 Tl2 Pd2 Rh1 Pb1'
_cell_volume   211.62732892
_cell_formula_units_Z   1
loop_
 _symmetry_equiv_pos_site_id
 _symmetry_equiv_pos_as_xyz
  1  'x, y, z'
loop_
 _atom_site_type_symbol
 _atom_site_label
 _atom_site_symmetry_multiplicity
 _atom_site_fract_x
 _atom_site_fract_y
 _atom_site_fract_z
 _atom_site_occupancy
  Ca  Ca0  1  0.401322  0.400153  0.500000  1
  Ca  Ca1  1  0.000000  0.603241  0.500000  1
  Ca  Ca2  1  0.598678  0.998831  0.500000  1
  Tl  Tl3  1  0.263153  0.998860  0.000000  1
  Tl  Tl4  1  0.736847  0.735707  0.000000  1
  Pd  Pd5  1  0.669383  0.332700  0.000000  1
  Pd  Pd6  1  0.330617  0.663319  0.000000  1
  Rh  Rh7  1  0.000000  0.006437  0.500000  1
  Pb  Pb8  1  0.000000  0.260753  0.000000  1
