# generated using pymatgen
data_Na2Pa4Se4O19
_symmetry_space_group_name_H-M   'P 1'
_cell_length_a   4.22910556
_cell_length_b   11.17590479
_cell_length_c   12.00299141
_cell_angle_alpha   107.21160994
_cell_angle_beta   90.52918465
_cell_angle_gamma   96.38530569
_symmetry_Int_Tables_number   1
_chemical_formula_structural   Na2Pa4Se4O19
_chemical_formula_sum   'Na2 Pa4 Se4 O19'
_cell_volume   538.01259788
_cell_formula_units_Z   1
loop_
 _symmetry_equiv_pos_site_id
 _symmetry_equiv_pos_as_xyz
  1  'x, y, z'
loop_
 _atom_site_type_symbol
 _atom_site_label
 _atom_site_symmetry_multiplicity
 _atom_site_fract_x
 _atom_site_fract_y
 _atom_site_fract_z
 _atom_site_occupancy
  Na  Na0  1  0.750777  0.924769  0.873715  1
  Na  Na1  1  0.249223  0.075231  0.126285  1
  Pa  Pa2  1  0.392421  0.183761  0.700618  1
  Pa  Pa3  1  0.607579  0.816239  0.299382  1
  Pa  Pa4  1  0.527899  0.559669  0.686047  1
  Pa  Pa5  1  0.472101  0.440331  0.313953  1
  Se  Se6  1  0.355578  0.828902  0.594673  1
  Se  Se7  1  0.644422  0.171098  0.405327  1
  Se  Se8  1  0.293265  0.735302  0.988214  1
  Se  Se9  1  0.706735  0.264698  0.011786  1
  O  O10  1  0.622057  0.870171  0.499341  1
  O  O11  1  0.377943  0.129829  0.500659  1
  O  O12  1  0.324397  0.973493  0.696122  1
  O  O13  1  0.675603  0.026507  0.303878  1
  O  O14  1  0.601908  0.770255  0.676873  1
  O  O15  1  0.398092  0.229745  0.323127  1
  O  O16  1  0.552612  0.669795  0.879901  1
  O  O17  1  0.447388  0.330205  0.120099  1
  O  O18  1  0.575914  0.781274  0.106499  1
  O  O19  1  0.424086  0.218726  0.893501  1
  O  O20  1  0.251355  0.875502  0.965308  1
  O  O21  1  0.748645  0.124498  0.034692  1
  O  O22  1  0.888352  0.178665  0.701499  1
  O  O23  1  0.111648  0.821335  0.298501  1
  O  O24  1  0.463194  0.373704  0.707554  1
  O  O25  1  0.536806  0.626296  0.292446  1
  O  O26  1  0.500000  0.500000  0.500000  1
  O  O27  1  0.033937  0.571839  0.692368  1
  O  O28  1  0.966063  0.428161  0.307632  1
