# generated using pymatgen
data_Pu2(AlSi)3
_symmetry_space_group_name_H-M   'P 1'
_cell_length_a   6.02643920
_cell_length_b   6.02911410
_cell_length_c   4.44477300
_cell_angle_alpha   90.00000000
_cell_angle_beta   90.00000000
_cell_angle_gamma   120.01468840
_symmetry_Int_Tables_number   1
_chemical_formula_structural   Pu2(AlSi)3
_chemical_formula_sum   'Pu2 Al3 Si3'
_cell_volume   139.83960890
_cell_formula_units_Z   1
loop_
 _symmetry_equiv_pos_site_id
 _symmetry_equiv_pos_as_xyz
  1  'x, y, z'
loop_
 _atom_site_type_symbol
 _atom_site_label
 _atom_site_symmetry_multiplicity
 _atom_site_fract_x
 _atom_site_fract_y
 _atom_site_fract_z
 _atom_site_occupancy
  Pu  Pu0  1  0.333357  0.666679  0.750000  1
  Pu  Pu1  1  0.666701  0.333350  0.250002  1
  Al  Al2  1  0.151976  0.303995  0.250002  1
  Al  Al3  1  0.696045  0.848023  0.250002  1
  Al  Al4  1  0.151977  0.847980  0.250002  1
  Si  Si5  1  0.854485  0.708944  0.750000  1
  Si  Si6  1  0.290973  0.145489  0.750000  1
  Si  Si7  1  0.854486  0.145541  0.750000  1
