# generated using pymatgen
data_LiTb3Dy5InRh2
_symmetry_space_group_name_H-M   'P 1'
_cell_length_a   9.66609256
_cell_length_b   9.66496819
_cell_length_c   9.68516452
_cell_angle_alpha   59.87402664
_cell_angle_beta   59.88765356
_cell_angle_gamma   59.88579139
_symmetry_Int_Tables_number   1
_chemical_formula_structural   LiTb3Dy5InRh2
_chemical_formula_sum   'Li2 Tb6 Dy10 In2 Rh4'
_cell_volume   638.09289343
_cell_formula_units_Z   2
loop_
 _symmetry_equiv_pos_site_id
 _symmetry_equiv_pos_as_xyz
  1  'x, y, z'
loop_
 _atom_site_type_symbol
 _atom_site_label
 _atom_site_symmetry_multiplicity
 _atom_site_fract_x
 _atom_site_fract_y
 _atom_site_fract_z
 _atom_site_occupancy
  Li  Li0  1  0.428054  0.427907  0.424895  1
  Li  Li1  1  0.427588  0.427614  0.721144  1
  Tb  Tb2  1  0.436908  0.064277  0.062049  1
  Tb  Tb3  1  0.435312  0.063692  0.436185  1
  Tb  Tb4  1  0.064142  0.436750  0.062303  1
  Tb  Tb5  1  0.650794  0.650339  0.050180  1
  Tb  Tb6  1  0.186882  0.811915  0.189833  1
  Tb  Tb7  1  0.063609  0.435080  0.436316  1
  Dy  Dy8  1  0.807941  0.808377  0.192459  1
  Dy  Dy9  1  0.811367  0.188489  0.811216  1
  Dy  Dy10  1  0.183127  0.183314  0.818418  1
  Dy  Dy11  1  0.652712  0.042241  0.650691  1
  Dy  Dy12  1  0.063569  0.063803  0.437208  1
  Dy  Dy13  1  0.438962  0.438642  0.061418  1
  Dy  Dy14  1  0.651490  0.651386  0.649092  1
  Dy  Dy15  1  0.811917  0.187076  0.189638  1
  Dy  Dy16  1  0.188536  0.811348  0.810948  1
  Dy  Dy17  1  0.041982  0.652698  0.651088  1
  In  In18  1  0.415853  0.744369  0.421184  1
  In  In19  1  0.744326  0.415717  0.421171  1
  Rh  Rh20  1  0.855568  0.426243  0.858254  1
  Rh  Rh21  1  0.856719  0.856659  0.859357  1
  Rh  Rh22  1  0.856081  0.856518  0.427090  1
  Rh  Rh23  1  0.426564  0.855546  0.857867  1
