# generated using pymatgen
data_Ce3Dy2Os3
_symmetry_space_group_name_H-M   'P 1'
_cell_length_a   6.65600700
_cell_length_b   8.05748688
_cell_length_c   8.05748500
_cell_angle_alpha   120.00000462
_cell_angle_beta   90.00000000
_cell_angle_gamma   90.00000000
_symmetry_Int_Tables_number   1
_chemical_formula_structural   Ce3Dy2Os3
_chemical_formula_sum   'Ce6 Dy4 Os6'
_cell_volume   374.23421748
_cell_formula_units_Z   2
loop_
 _symmetry_equiv_pos_site_id
 _symmetry_equiv_pos_as_xyz
  1  'x, y, z'
loop_
 _atom_site_type_symbol
 _atom_site_label
 _atom_site_symmetry_multiplicity
 _atom_site_fract_x
 _atom_site_fract_y
 _atom_site_fract_z
 _atom_site_occupancy
  Ce  Ce0  1  0.750000  0.750879  0.750879  1
  Ce  Ce1  1  0.250000  0.249121  0.249121  1
  Ce  Ce2  1  0.750000  0.000000  0.249121  1
  Ce  Ce3  1  0.250000  0.000000  0.750879  1
  Ce  Ce4  1  0.750000  0.249121  0.000000  1
  Ce  Ce5  1  0.250000  0.750879  0.000000  1
  Dy  Dy6  1  0.000000  0.666667  0.333333  1
  Dy  Dy7  1  0.000000  0.333333  0.666667  1
  Dy  Dy8  1  0.500000  0.333333  0.666667  1
  Dy  Dy9  1  0.500000  0.666667  0.333333  1
  Os  Os10  1  0.750000  0.372988  0.372988  1
  Os  Os11  1  0.250000  0.627012  0.627012  1
  Os  Os12  1  0.750000  0.000000  0.627012  1
  Os  Os13  1  0.250000  0.000000  0.372988  1
  Os  Os14  1  0.750000  0.627012  0.000000  1
  Os  Os15  1  0.250000  0.372988  0.000000  1
