# generated using pymatgen
data_Ba4Cd(RuO6)2
_symmetry_space_group_name_H-M   'P 1'
_cell_length_a   10.01370885
_cell_length_b   10.01370892
_cell_length_c   10.01370900
_cell_angle_alpha   33.81707605
_cell_angle_beta   33.81707547
_cell_angle_gamma   33.81707412
_symmetry_Int_Tables_number   1
_chemical_formula_structural   Ba4Cd(RuO6)2
_chemical_formula_sum   'Ba4 Cd1 Ru2 O12'
_cell_volume   277.14804692
_cell_formula_units_Z   1
loop_
 _symmetry_equiv_pos_site_id
 _symmetry_equiv_pos_as_xyz
  1  'x, y, z'
loop_
 _atom_site_type_symbol
 _atom_site_label
 _atom_site_symmetry_multiplicity
 _atom_site_fract_x
 _atom_site_fract_y
 _atom_site_fract_z
 _atom_site_occupancy
  Ba  Ba0  1  0.709087  0.709087  0.709087  1
  Ba  Ba1  1  0.290913  0.290913  0.290913  1
  Ba  Ba2  1  0.870374  0.870374  0.870374  1
  Ba  Ba3  1  0.129626  0.129626  0.129626  1
  Cd  Cd4  1  0.000000  0.000000  0.000000  1
  Ru  Ru5  1  0.576642  0.576642  0.576642  1
  Ru  Ru6  1  0.423358  0.423358  0.423358  1
  O  O7  1  0.226910  0.688089  0.226910  1
  O  O8  1  0.226910  0.226910  0.688089  1
  O  O9  1  0.688089  0.226910  0.226910  1
  O  O10  1  0.773090  0.311911  0.773090  1
  O  O11  1  0.773090  0.773090  0.311911  1
  O  O12  1  0.311911  0.773090  0.773090  1
  O  O13  1  0.385174  0.855751  0.385174  1
  O  O14  1  0.385174  0.385174  0.855751  1
  O  O15  1  0.855751  0.385174  0.385174  1
  O  O16  1  0.614826  0.144249  0.614826  1
  O  O17  1  0.614826  0.614826  0.144249  1
  O  O18  1  0.144249  0.614826  0.614826  1
