# generated using pymatgen
data_Zr2UZnPt12
_symmetry_space_group_name_H-M   'P 1'
_cell_length_a   5.74034200
_cell_length_b   5.74034205
_cell_length_c   9.34921900
_cell_angle_alpha   90.00020659
_cell_angle_beta   89.99979215
_cell_angle_gamma   120.00076934
_symmetry_Int_Tables_number   1
_chemical_formula_structural   Zr2UZnPt12
_chemical_formula_sum   'Zr2 U1 Zn1 Pt12'
_cell_volume   266.79527682
_cell_formula_units_Z   1
loop_
 _symmetry_equiv_pos_site_id
 _symmetry_equiv_pos_as_xyz
  1  'x, y, z'
loop_
 _atom_site_type_symbol
 _atom_site_label
 _atom_site_symmetry_multiplicity
 _atom_site_fract_x
 _atom_site_fract_y
 _atom_site_fract_z
 _atom_site_occupancy
  Zr  Zr0  1  0.000000  0.000000  0.000583  1
  Zr  Zr1  1  0.666668  0.333332  0.754437  1
  U  U2  1  0.000000  0.000000  0.495754  1
  Zn  Zn3  1  0.333332  0.666668  0.247868  1
  Pt  Pt4  1  0.500139  0.499861  0.499718  1
  Pt  Pt5  1  0.500139  0.000278  0.499719  1
  Pt  Pt6  1  0.999722  0.499861  0.499719  1
  Pt  Pt7  1  0.499908  0.500092  0.001388  1
  Pt  Pt8  1  0.499908  0.999816  0.001389  1
  Pt  Pt9  1  0.000184  0.500092  0.001389  1
  Pt  Pt10  1  0.831332  0.662666  0.249337  1
  Pt  Pt11  1  0.337334  0.168668  0.249337  1
  Pt  Pt12  1  0.831334  0.168666  0.249338  1
  Pt  Pt13  1  0.169028  0.338059  0.750008  1
  Pt  Pt14  1  0.661941  0.830972  0.750008  1
  Pt  Pt15  1  0.169030  0.830970  0.750009  1
