# generated using pymatgen
data_Hf3V9Si9Ge
_symmetry_space_group_name_H-M   'P 1'
_cell_length_a   4.96808075
_cell_length_b   7.69212992
_cell_length_c   9.34156566
_cell_angle_alpha   65.80806820
_cell_angle_beta   74.57881111
_cell_angle_gamma   89.99999479
_symmetry_Int_Tables_number   1
_chemical_formula_structural   Hf3V9Si9Ge
_chemical_formula_sum   'Hf3 V9 Si9 Ge1'
_cell_volume   311.49396583
_cell_formula_units_Z   1
loop_
 _symmetry_equiv_pos_site_id
 _symmetry_equiv_pos_as_xyz
  1  'x, y, z'
loop_
 _atom_site_type_symbol
 _atom_site_label
 _atom_site_symmetry_multiplicity
 _atom_site_fract_x
 _atom_site_fract_y
 _atom_site_fract_z
 _atom_site_occupancy
  Hf  Hf0  1  0.858718  0.737153  0.282565  1
  Hf  Hf1  1  0.641130  0.027677  0.717739  1
  Hf  Hf2  1  0.358705  0.974973  0.282589  1
  V  V3  1  0.440266  0.688158  0.622594  1
  V  V4  1  0.057437  0.313042  0.377401  1
  V  V5  1  0.565162  0.313042  0.377401  1
  V  V6  1  0.937140  0.688158  0.622594  1
  V  V7  1  0.436679  0.682802  0.126643  1
  V  V8  1  0.563915  0.317823  0.872173  1
  V  V9  1  0.937538  0.191439  0.124927  1
  V  V10  1  0.060637  0.804511  0.878725  1
  V  V11  1  0.141712  0.265906  0.716576  1
  Si  Si12  1  0.064934  0.476053  0.870130  1
  Si  Si13  1  0.937982  0.514940  0.124037  1
  Si  Si14  1  0.562697  0.643404  0.874605  1
  Si  Si15  1  0.436951  0.356735  0.126098  1
  Si  Si16  1  0.755133  0.003736  0.995729  1
  Si  Si17  1  0.249139  0.003736  0.995729  1
  Si  Si18  1  0.283571  0.574409  0.432861  1
  Si  Si19  1  0.711877  0.417400  0.576247  1
  Si  Si20  1  0.788133  0.991334  0.423733  1
  Ge  Ge21  1  0.210548  0.013567  0.578904  1
