# generated using pymatgen
data_Rb8Th6BI20
_symmetry_space_group_name_H-M   'P 1'
_cell_length_a   13.26797043
_cell_length_b   13.26797119
_cell_length_c   13.26797000
_cell_angle_alpha   59.99999799
_cell_angle_beta   59.99999609
_cell_angle_gamma   59.99999929
_symmetry_Int_Tables_number   1
_chemical_formula_structural   Rb8Th6BI20
_chemical_formula_sum   'Rb8 Th6 B1 I20'
_cell_volume   1651.57566939
_cell_formula_units_Z   1
loop_
 _symmetry_equiv_pos_site_id
 _symmetry_equiv_pos_as_xyz
  1  'x, y, z'
loop_
 _atom_site_type_symbol
 _atom_site_label
 _atom_site_symmetry_multiplicity
 _atom_site_fract_x
 _atom_site_fract_y
 _atom_site_fract_z
 _atom_site_occupancy
  Rb  Rb0  1  0.360732  0.360732  0.360732  1
  Rb  Rb1  1  0.639268  0.639268  0.639268  1
  Rb  Rb2  1  0.360732  0.360732  0.917804  1
  Rb  Rb3  1  0.360732  0.917804  0.360732  1
  Rb  Rb4  1  0.639268  0.639268  0.082196  1
  Rb  Rb5  1  0.639268  0.082196  0.639268  1
  Rb  Rb6  1  0.917804  0.360732  0.360732  1
  Rb  Rb7  1  0.082196  0.639268  0.639268  1
  Th  Th8  1  0.859176  0.140824  0.140824  1
  Th  Th9  1  0.140824  0.859176  0.859176  1
  Th  Th10  1  0.140824  0.859176  0.140824  1
  Th  Th11  1  0.859176  0.140824  0.859176  1
  Th  Th12  1  0.140824  0.140824  0.859176  1
  Th  Th13  1  0.859176  0.859176  0.140824  1
  B  B14  1  0.000000  0.000000  0.000000  1
  I  I15  1  0.335529  0.000000  0.000000  1
  I  I16  1  0.664471  0.000000  0.000000  1
  I  I17  1  0.000000  0.335529  0.664471  1
  I  I18  1  0.000000  0.664471  0.335529  1
  I  I19  1  0.000000  0.335529  0.000000  1
  I  I20  1  0.664471  0.000000  0.335529  1
  I  I21  1  0.000000  0.664471  0.000000  1
  I  I22  1  0.335529  0.000000  0.664471  1
  I  I23  1  0.000000  0.000000  0.335529  1
  I  I24  1  0.000000  0.000000  0.664471  1
  I  I25  1  0.664471  0.335529  0.000000  1
  I  I26  1  0.335529  0.664471  0.000000  1
  I  I27  1  0.680802  0.319198  0.319198  1
  I  I28  1  0.319198  0.680802  0.680802  1
  I  I29  1  0.319198  0.680802  0.319198  1
  I  I30  1  0.680802  0.319198  0.680802  1
  I  I31  1  0.319198  0.319198  0.680802  1
  I  I32  1  0.680802  0.680802  0.319198  1
  I  I33  1  0.250000  0.250000  0.250000  1
  I  I34  1  0.750000  0.750000  0.750000  1
