# generated using pymatgen
data_Tb7YSc12(Ga3Si)4
_symmetry_space_group_name_H-M   'P 1'
_cell_length_a   7.25770501
_cell_length_b   7.49851101
_cell_length_c   14.46272500
_cell_angle_alpha   89.99880581
_cell_angle_beta   89.99969949
_cell_angle_gamma   90.00435655
_symmetry_Int_Tables_number   1
_chemical_formula_structural   Tb7YSc12(Ga3Si)4
_chemical_formula_sum   'Tb7 Y1 Sc12 Ga12 Si4'
_cell_volume   787.09014071
_cell_formula_units_Z   1
loop_
 _symmetry_equiv_pos_site_id
 _symmetry_equiv_pos_as_xyz
  1  'x, y, z'
loop_
 _atom_site_type_symbol
 _atom_site_label
 _atom_site_symmetry_multiplicity
 _atom_site_fract_x
 _atom_site_fract_y
 _atom_site_fract_z
 _atom_site_occupancy
  Tb  Tb0  1  0.988491  0.822506  0.902944  1
  Tb  Tb1  1  0.488471  0.677508  0.902943  1
  Tb  Tb2  1  0.988489  0.822490  0.597063  1
  Tb  Tb3  1  0.511494  0.322489  0.097069  1
  Tb  Tb4  1  0.011499  0.177499  0.402941  1
  Tb  Tb5  1  0.511514  0.322484  0.402935  1
  Tb  Tb6  1  0.488505  0.677495  0.597070  1
  Y  Y7  1  0.011493  0.177517  0.097061  1
  Sc  Sc8  1  0.161763  0.506356  0.749996  1
  Sc  Sc9  1  0.838238  0.493628  0.249992  1
  Sc  Sc10  1  0.338244  0.006371  0.250000  1
  Sc  Sc11  1  0.661770  0.993638  0.750000  1
  Sc  Sc12  1  0.329539  0.173029  0.622914  1
  Sc  Sc13  1  0.670448  0.826968  0.377078  1
  Sc  Sc14  1  0.170461  0.673024  0.377082  1
  Sc  Sc15  1  0.670473  0.826967  0.122914  1
  Sc  Sc16  1  0.829558  0.326959  0.622920  1
  Sc  Sc17  1  0.329553  0.173048  0.877088  1
  Sc  Sc18  1  0.829541  0.326979  0.877086  1
  Sc  Sc19  1  0.170427  0.673056  0.122921  1
  Ga  Ga20  1  0.033270  0.115667  0.749989  1
  Ga  Ga21  1  0.966722  0.884336  0.249986  1
  Ga  Ga22  1  0.466707  0.615649  0.250001  1
  Ga  Ga23  1  0.533276  0.384339  0.750001  1
  Ga  Ga24  1  0.159468  0.464506  0.540838  1
  Ga  Ga25  1  0.840537  0.535518  0.459166  1
  Ga  Ga26  1  0.340530  0.964507  0.459160  1
  Ga  Ga27  1  0.840536  0.535480  0.040843  1
  Ga  Ga28  1  0.659465  0.035510  0.540832  1
  Ga  Ga29  1  0.159463  0.464479  0.959169  1
  Ga  Ga30  1  0.659500  0.035496  0.959165  1
  Ga  Ga31  1  0.340529  0.964496  0.040838  1
  Si  Si32  1  0.285160  0.875952  0.750003  1
  Si  Si33  1  0.714858  0.124063  0.249995  1
  Si  Si34  1  0.214857  0.375959  0.249998  1
  Si  Si35  1  0.785151  0.624033  0.749997  1
