# generated using pymatgen
data_KDySiSe4
_symmetry_space_group_name_H-M   'P 1'
_cell_length_a   6.99882800
_cell_length_b   6.72031523
_cell_length_c   9.12723146
_cell_angle_alpha   72.38971126
_cell_angle_beta   90.00000000
_cell_angle_gamma   90.00000000
_symmetry_Int_Tables_number   1
_chemical_formula_structural   KDySiSe4
_chemical_formula_sum   'K2 Dy2 Si2 Se8'
_cell_volume   409.17497502
_cell_formula_units_Z   2
loop_
 _symmetry_equiv_pos_site_id
 _symmetry_equiv_pos_as_xyz
  1  'x, y, z'
loop_
 _atom_site_type_symbol
 _atom_site_label
 _atom_site_symmetry_multiplicity
 _atom_site_fract_x
 _atom_site_fract_y
 _atom_site_fract_z
 _atom_site_occupancy
  K  K0  1  0.980209  0.734448  0.064490  1
  K  K1  1  0.480209  0.265552  0.935510  1
  Dy  Dy2  1  0.499794  0.230364  0.450532  1
  Dy  Dy3  1  0.999794  0.769636  0.549468  1
  Si  Si4  1  0.463045  0.780440  0.327982  1
  Si  Si5  1  0.963045  0.219560  0.672018  1
  Se  Se6  1  0.462935  0.578731  0.168530  1
  Se  Se7  1  0.227827  0.029870  0.279219  1
  Se  Se8  1  0.733416  0.983047  0.298192  1
  Se  Se9  1  0.899777  0.426599  0.427500  1
  Se  Se10  1  0.399777  0.573401  0.572500  1
  Se  Se11  1  0.233416  0.016953  0.701808  1
  Se  Se12  1  0.727827  0.970130  0.720781  1
  Se  Se13  1  0.962935  0.421269  0.831470  1
