# generated using pymatgen
data_Ta16Cu3Ni5N4
_symmetry_space_group_name_H-M   'P 1'
_cell_length_a   8.24651968
_cell_length_b   8.24651937
_cell_length_c   8.24652001
_cell_angle_alpha   60.00540332
_cell_angle_beta   60.00540502
_cell_angle_gamma   60.00540808
_symmetry_Int_Tables_number   1
_chemical_formula_structural   Ta16Cu3Ni5N4
_chemical_formula_sum   'Ta16 Cu3 Ni5 N4'
_cell_volume   396.59782017
_cell_formula_units_Z   1
loop_
 _symmetry_equiv_pos_site_id
 _symmetry_equiv_pos_as_xyz
  1  'x, y, z'
loop_
 _atom_site_type_symbol
 _atom_site_label
 _atom_site_symmetry_multiplicity
 _atom_site_fract_x
 _atom_site_fract_y
 _atom_site_fract_z
 _atom_site_occupancy
  Ta  Ta0  1  0.121198  0.624498  0.624498  1
  Ta  Ta1  1  0.624498  0.121198  0.624498  1
  Ta  Ta2  1  0.624498  0.624498  0.121198  1
  Ta  Ta3  1  0.627137  0.627137  0.627137  1
  Ta  Ta4  1  0.815556  0.815556  0.184172  1
  Ta  Ta5  1  0.183487  0.183487  0.816676  1
  Ta  Ta6  1  0.815556  0.184172  0.815556  1
  Ta  Ta7  1  0.183487  0.816676  0.183487  1
  Ta  Ta8  1  0.184172  0.815556  0.815556  1
  Ta  Ta9  1  0.816676  0.183487  0.183487  1
  Ta  Ta10  1  0.434345  0.434345  0.067411  1
  Ta  Ta11  1  0.064138  0.064138  0.435718  1
  Ta  Ta12  1  0.434345  0.067411  0.434345  1
  Ta  Ta13  1  0.064138  0.435718  0.064138  1
  Ta  Ta14  1  0.067411  0.434345  0.434345  1
  Ta  Ta15  1  0.435718  0.064138  0.064138  1
  Cu  Cu16  1  0.750266  0.416900  0.416900  1
  Cu  Cu17  1  0.416900  0.750266  0.416900  1
  Cu  Cu18  1  0.416900  0.416900  0.750266  1
  Ni  Ni19  1  0.420200  0.420200  0.420200  1
  Ni  Ni20  1  0.509794  0.830023  0.830023  1
  Ni  Ni21  1  0.830023  0.509794  0.830023  1
  Ni  Ni22  1  0.830023  0.830023  0.509794  1
  Ni  Ni23  1  0.829769  0.829769  0.829769  1
  N  N24  1  0.623535  0.125272  0.125272  1
  N  N25  1  0.125272  0.623535  0.125272  1
  N  N26  1  0.125272  0.125272  0.623535  1
  N  N27  1  0.125683  0.125683  0.125683  1
