# generated using pymatgen
data_TmLu3U4(Nb3Si4)4
_symmetry_space_group_name_H-M   'P 1'
_cell_length_a   7.03600789
_cell_length_b   7.05174866
_cell_length_c   12.97972092
_cell_angle_alpha   90.10110067
_cell_angle_beta   89.98149599
_cell_angle_gamma   89.86734859
_symmetry_Int_Tables_number   1
_chemical_formula_structural   TmLu3U4(Nb3Si4)4
_chemical_formula_sum   'Tm1 Lu3 U4 Nb12 Si16'
_cell_volume   644.00113658
_cell_formula_units_Z   1
loop_
 _symmetry_equiv_pos_site_id
 _symmetry_equiv_pos_as_xyz
  1  'x, y, z'
loop_
 _atom_site_type_symbol
 _atom_site_label
 _atom_site_symmetry_multiplicity
 _atom_site_fract_x
 _atom_site_fract_y
 _atom_site_fract_z
 _atom_site_occupancy
  Tm  Tm0  1  0.501853  0.839958  0.032879  1
  Lu  Lu1  1  0.999005  0.340531  0.217336  1
  Lu  Lu2  1  0.999996  0.660084  0.716978  1
  Lu  Lu3  1  0.160181  0.499846  0.467492  1
  U  U4  1  0.838447  0.500837  0.967333  1
  U  U5  1  0.499487  0.158622  0.530821  1
  U  U6  1  0.338576  0.998477  0.781010  1
  U  U7  1  0.658511  0.000990  0.285357  1
  Nb  Nb8  1  0.167437  0.172129  0.997675  1
  Nb  Nb9  1  0.826155  0.833666  0.498542  1
  Nb  Nb10  1  0.332011  0.672367  0.250509  1
  Nb  Nb11  1  0.668676  0.328200  0.749845  1
  Nb  Nb12  1  0.154882  0.994225  0.376237  1
  Nb  Nb13  1  0.849697  0.004174  0.875616  1
  Nb  Nb14  1  0.504740  0.656225  0.626419  1
  Nb  Nb15  1  0.348086  0.497493  0.874748  1
  Nb  Nb16  1  0.497460  0.346130  0.125256  1
  Nb  Nb17  1  0.650999  0.500501  0.375335  1
  Nb  Nb18  1  0.999756  0.153327  0.625507  1
  Nb  Nb19  1  0.001746  0.844335  0.125343  1
  Si  Si20  1  0.292322  0.044901  0.185272  1
  Si  Si21  1  0.707965  0.957342  0.685950  1
  Si  Si22  1  0.454833  0.791296  0.436551  1
  Si  Si23  1  0.204925  0.542877  0.064413  1
  Si  Si24  1  0.543591  0.203653  0.936074  1
  Si  Si25  1  0.796269  0.457377  0.563301  1
  Si  Si26  1  0.043269  0.298286  0.812860  1
  Si  Si27  1  0.955912  0.703188  0.313992  1
  Si  Si28  1  0.364725  0.294507  0.318043  1
  Si  Si29  1  0.634066  0.706818  0.817298  1
  Si  Si30  1  0.204340  0.864955  0.567855  1
  Si  Si31  1  0.132906  0.792258  0.932470  1
  Si  Si32  1  0.795508  0.132845  0.069119  1
  Si  Si33  1  0.870949  0.206387  0.432318  1
  Si  Si34  1  0.295466  0.369467  0.682178  1
  Si  Si35  1  0.705255  0.631726  0.182069  1
