# generated using pymatgen
data_PrTh(TcB2)3
_symmetry_space_group_name_H-M   'P 1'
_cell_length_a   6.32658105
_cell_length_b   6.32658134
_cell_length_c   7.66146000
_cell_angle_alpha   89.26960471
_cell_angle_beta   89.26959984
_cell_angle_gamma   114.86652127
_symmetry_Int_Tables_number   1
_chemical_formula_structural   PrTh(TcB2)3
_chemical_formula_sum   'Pr2 Th2 Tc6 B12'
_cell_volume   278.14673070
_cell_formula_units_Z   2
loop_
 _symmetry_equiv_pos_site_id
 _symmetry_equiv_pos_as_xyz
  1  'x, y, z'
loop_
 _atom_site_type_symbol
 _atom_site_label
 _atom_site_symmetry_multiplicity
 _atom_site_fract_x
 _atom_site_fract_y
 _atom_site_fract_z
 _atom_site_occupancy
  Pr  Pr0  1  0.093254  0.437001  0.677166  1
  Pr  Pr1  1  0.562999  0.906746  0.822834  1
  Th  Th2  1  0.906811  0.562079  0.328006  1
  Th  Th3  1  0.437921  0.093189  0.171994  1
  Tc  Tc4  1  0.413698  0.586302  0.250000  1
  Tc  Tc5  1  0.584874  0.415126  0.750000  1
  Tc  Tc6  1  0.011081  0.197163  0.089622  1
  Tc  Tc7  1  0.802837  0.988919  0.410378  1
  Tc  Tc8  1  0.990394  0.803596  0.913704  1
  Tc  Tc9  1  0.196404  0.009606  0.586296  1
  B  B10  1  0.756251  0.848708  0.129825  1
  B  B11  1  0.151292  0.243749  0.370175  1
  B  B12  1  0.242359  0.151713  0.866832  1
  B  B13  1  0.848287  0.757641  0.633168  1
  B  B14  1  0.417588  0.841376  0.480473  1
  B  B15  1  0.158624  0.582412  0.019527  1
  B  B16  1  0.580929  0.159656  0.516155  1
  B  B17  1  0.840344  0.419071  0.983845  1
  B  B18  1  0.559193  0.649551  0.531894  1
  B  B19  1  0.350449  0.440807  0.968106  1
  B  B20  1  0.443891  0.349477  0.466993  1
  B  B21  1  0.650523  0.556109  0.033007  1
