# generated using pymatgen
data_Ho2ErMg3Ag2Os
_symmetry_space_group_name_H-M   'P 1'
_cell_length_a   7.71020797
_cell_length_b   7.71142179
_cell_length_c   3.97077600
_cell_angle_alpha   90.00000000
_cell_angle_beta   90.00000000
_cell_angle_gamma   120.05221668
_symmetry_Int_Tables_number   1
_chemical_formula_structural   Ho2ErMg3Ag2Os
_chemical_formula_sum   'Ho2 Er1 Mg3 Ag2 Os1'
_cell_volume   204.35149421
_cell_formula_units_Z   1
loop_
 _symmetry_equiv_pos_site_id
 _symmetry_equiv_pos_as_xyz
  1  'x, y, z'
loop_
 _atom_site_type_symbol
 _atom_site_label
 _atom_site_symmetry_multiplicity
 _atom_site_fract_x
 _atom_site_fract_y
 _atom_site_fract_z
 _atom_site_occupancy
  Ho  Ho0  1  0.433213  0.395464  0.500000  1
  Ho  Ho1  1  0.604695  0.037824  0.500000  1
  Er  Er2  1  0.961865  0.567001  0.500000  1
  Mg  Mg3  1  0.743714  0.742105  0.000000  1
  Mg  Mg4  1  0.257594  0.001295  0.000000  1
  Mg  Mg5  1  0.998547  0.256005  0.000000  1
  Ag  Ag6  1  0.332646  0.666418  0.000000  1
  Ag  Ag7  1  0.999955  0.999706  0.500000  1
  Os  Os8  1  0.667770  0.334183  0.000000  1
