# generated using pymatgen
data_BaNaFeCo3P4
_symmetry_space_group_name_H-M   'P 1'
_cell_length_a   6.80171958
_cell_length_b   6.81718269
_cell_length_c   5.25158400
_cell_angle_alpha   90.00000000
_cell_angle_beta   90.00000000
_cell_angle_gamma   134.68194654
_symmetry_Int_Tables_number   1
_chemical_formula_structural   BaNaFeCo3P4
_chemical_formula_sum   'Ba1 Na1 Fe1 Co3 P4'
_cell_volume   173.13961377
_cell_formula_units_Z   1
loop_
 _symmetry_equiv_pos_site_id
 _symmetry_equiv_pos_as_xyz
  1  'x, y, z'
loop_
 _atom_site_type_symbol
 _atom_site_label
 _atom_site_symmetry_multiplicity
 _atom_site_fract_x
 _atom_site_fract_y
 _atom_site_fract_z
 _atom_site_occupancy
  Ba  Ba0  1  0.500000  0.500000  0.498749  1
  Na  Na1  1  0.000000  0.000000  0.999954  1
  Fe  Fe2  1  0.500000  0.000000  0.751630  1
  Co  Co3  1  0.000000  0.500000  0.249211  1
  Co  Co4  1  0.000000  0.500000  0.750742  1
  Co  Co5  1  0.500000  0.000000  0.248751  1
  P  P6  1  0.348231  0.657411  0.997538  1
  P  P7  1  0.841542  0.153921  0.502943  1
  P  P8  1  0.158458  0.846079  0.502943  1
  P  P9  1  0.651769  0.342589  0.997538  1
