# generated using pymatgen
data_Er3Tm5B24Ir3Ru
_symmetry_space_group_name_H-M   'P 1'
_cell_length_a   3.61281800
_cell_length_b   9.12746967
_cell_length_c   11.44083102
_cell_angle_alpha   90.02542738
_cell_angle_beta   90.00000000
_cell_angle_gamma   90.00000000
_symmetry_Int_Tables_number   1
_chemical_formula_structural   Er3Tm5B24Ir3Ru
_chemical_formula_sum   'Er3 Tm5 B24 Ir3 Ru1'
_cell_volume   377.27151066
_cell_formula_units_Z   1
loop_
 _symmetry_equiv_pos_site_id
 _symmetry_equiv_pos_as_xyz
  1  'x, y, z'
loop_
 _atom_site_type_symbol
 _atom_site_label
 _atom_site_symmetry_multiplicity
 _atom_site_fract_x
 _atom_site_fract_y
 _atom_site_fract_z
 _atom_site_occupancy
  Er  Er0  1  0.000000  0.320353  0.413571  1
  Er  Er1  1  0.000000  0.680742  0.588172  1
  Er  Er2  1  0.000000  0.820469  0.084800  1
  Tm  Tm3  1  0.000000  0.177699  0.912977  1
  Tm  Tm4  1  0.000000  0.944217  0.374022  1
  Tm  Tm5  1  0.000000  0.054272  0.627003  1
  Tm  Tm6  1  0.000000  0.444079  0.125676  1
  Tm  Tm7  1  0.000000  0.557656  0.874223  1
  B  B8  1  0.500000  0.553648  0.434698  1
  B  B9  1  0.500000  0.446448  0.565518  1
  B  B10  1  0.500000  0.053361  0.065334  1
  B  B11  1  0.500000  0.946080  0.933683  1
  B  B12  1  0.500000  0.750264  0.421070  1
  B  B13  1  0.500000  0.249856  0.579158  1
  B  B14  1  0.500000  0.249770  0.078847  1
  B  B15  1  0.500000  0.751428  0.919943  1
  B  B16  1  0.500000  0.793514  0.264830  1
  B  B17  1  0.500000  0.206524  0.734680  1
  B  B18  1  0.500000  0.293854  0.235069  1
  B  B19  1  0.500000  0.707491  0.765819  1
  B  B20  1  0.500000  0.631683  0.183713  1
  B  B21  1  0.500000  0.368206  0.816287  1
  B  B22  1  0.500000  0.132080  0.316163  1
  B  B23  1  0.500000  0.868515  0.685026  1
  B  B24  1  0.500000  0.981401  0.213285  1
  B  B25  1  0.500000  0.017356  0.786545  1
  B  B26  1  0.500000  0.481518  0.286377  1
  B  B27  1  0.500000  0.518496  0.713967  1
  B  B28  1  0.500000  0.608937  0.030208  1
  B  B29  1  0.500000  0.390327  0.970006  1
  B  B30  1  0.500000  0.109005  0.469999  1
  B  B31  1  0.500000  0.891016  0.529616  1
  Ir  Ir32  1  0.000000  0.638173  0.321482  1
  Ir  Ir33  1  0.000000  0.361893  0.679040  1
  Ir  Ir34  1  0.000000  0.137804  0.178262  1
  Ru  Ru35  1  0.000000  0.861864  0.820933  1
