# generated using pymatgen
data_TbTm7Re2(TcC4)2
_symmetry_space_group_name_H-M   'P 1'
_cell_length_a   5.03325800
_cell_length_b   6.52733223
_cell_length_c   9.76726616
_cell_angle_alpha   90.19388413
_cell_angle_beta   90.00000000
_cell_angle_gamma   90.00000000
_symmetry_Int_Tables_number   1
_chemical_formula_structural   TbTm7Re2(TcC4)2
_chemical_formula_sum   'Tb1 Tm7 Re2 Tc2 C8'
_cell_volume   320.88945536
_cell_formula_units_Z   1
loop_
 _symmetry_equiv_pos_site_id
 _symmetry_equiv_pos_as_xyz
  1  'x, y, z'
loop_
 _atom_site_type_symbol
 _atom_site_label
 _atom_site_symmetry_multiplicity
 _atom_site_fract_x
 _atom_site_fract_y
 _atom_site_fract_z
 _atom_site_occupancy
  Tb  Tb0  1  0.250000  0.533734  0.214876  1
  Tm  Tm1  1  0.750000  0.825835  0.057635  1
  Tm  Tm2  1  0.250000  0.674463  0.558011  1
  Tm  Tm3  1  0.750000  0.323408  0.441425  1
  Tm  Tm4  1  0.250000  0.176651  0.940569  1
  Tm  Tm5  1  0.750000  0.464753  0.783143  1
  Tm  Tm6  1  0.250000  0.034617  0.283001  1
  Tm  Tm7  1  0.750000  0.965294  0.716928  1
  Re  Re8  1  0.750000  0.783847  0.368861  1
  Re  Re9  1  0.250000  0.717312  0.867871  1
  Tc  Tc10  1  0.750000  0.282077  0.131460  1
  Tc  Tc11  1  0.250000  0.216457  0.631811  1
  C  C12  1  0.750000  0.174219  0.947746  1
  C  C13  1  0.250000  0.829017  0.051614  1
  C  C14  1  0.750000  0.675037  0.553217  1
  C  C15  1  0.250000  0.323658  0.448857  1
  C  C16  1  0.750000  0.049660  0.259898  1
  C  C17  1  0.250000  0.450035  0.759703  1
  C  C18  1  0.750000  0.551655  0.242266  1
  C  C19  1  0.250000  0.948270  0.741108  1
