# generated using pymatgen
data_CaCoB2Ru
_symmetry_space_group_name_H-M   'P 1'
_cell_length_a   6.68825746
_cell_length_b   5.82023535
_cell_length_c   5.40170407
_cell_angle_alpha   73.06010759
_cell_angle_beta   56.35219431
_cell_angle_gamma   50.58769456
_symmetry_Int_Tables_number   1
_chemical_formula_structural   CaCoB2Ru
_chemical_formula_sum   'Ca2 Co2 B4 Ru2'
_cell_volume   134.64046224
_cell_formula_units_Z   2
loop_
 _symmetry_equiv_pos_site_id
 _symmetry_equiv_pos_as_xyz
  1  'x, y, z'
loop_
 _atom_site_type_symbol
 _atom_site_label
 _atom_site_symmetry_multiplicity
 _atom_site_fract_x
 _atom_site_fract_y
 _atom_site_fract_z
 _atom_site_occupancy
  Ca  Ca0  1  0.003412  0.003412  0.996588  1
  Ca  Ca1  1  0.253412  0.253412  0.246588  1
  Co  Co2  1  0.619336  0.619336  0.880664  1
  Co  Co3  1  0.369336  0.369336  0.630664  1
  B  B4  1  0.335246  0.660397  0.305466  1
  B  B5  1  0.551110  0.944534  0.589603  1
  B  B6  1  0.660397  0.335246  0.698890  1
  B  B7  1  0.944534  0.551110  0.914754  1
  Ru  Ru8  1  0.631609  0.631609  0.368391  1
  Ru  Ru9  1  0.881609  0.881609  0.618391  1
