# generated using pymatgen
data_Nd20Rh15Au
_symmetry_space_group_name_H-M   'P 1'
_cell_length_a   7.58900756
_cell_length_b   7.72774093
_cell_length_c   15.04971258
_cell_angle_alpha   89.79392628
_cell_angle_beta   90.21271810
_cell_angle_gamma   89.95746392
_symmetry_Int_Tables_number   1
_chemical_formula_structural   Nd20Rh15Au
_chemical_formula_sum   'Nd20 Rh15 Au1'
_cell_volume   882.59166047
_cell_formula_units_Z   1
loop_
 _symmetry_equiv_pos_site_id
 _symmetry_equiv_pos_as_xyz
  1  'x, y, z'
loop_
 _atom_site_type_symbol
 _atom_site_label
 _atom_site_symmetry_multiplicity
 _atom_site_fract_x
 _atom_site_fract_y
 _atom_site_fract_z
 _atom_site_occupancy
  Nd  Nd0  1  0.659154  0.177146  0.627942  1
  Nd  Nd1  1  0.160879  0.331178  0.878166  1
  Nd  Nd2  1  0.338663  0.832150  0.121508  1
  Nd  Nd3  1  0.844561  0.657961  0.375060  1
  Nd  Nd4  1  0.329287  0.829112  0.375975  1
  Nd  Nd5  1  0.838563  0.668074  0.121263  1
  Nd  Nd6  1  0.661708  0.167867  0.878890  1
  Nd  Nd7  1  0.159068  0.330190  0.622073  1
  Nd  Nd8  1  0.508808  0.677007  0.596714  1
  Nd  Nd9  1  0.013763  0.818878  0.907275  1
  Nd  Nd10  1  0.486612  0.318547  0.091584  1
  Nd  Nd11  1  0.997350  0.186859  0.403598  1
  Nd  Nd12  1  0.485038  0.325813  0.406367  1
  Nd  Nd13  1  0.987311  0.182362  0.091511  1
  Nd  Nd14  1  0.513390  0.681915  0.907488  1
  Nd  Nd15  1  0.014817  0.816663  0.595392  1
  Nd  Nd16  1  0.824749  0.514318  0.751288  1
  Nd  Nd17  1  0.323833  0.987759  0.750338  1
  Nd  Nd18  1  0.178989  0.486878  0.246637  1
  Nd  Nd19  1  0.676956  0.011983  0.246782  1
  Rh  Rh20  1  0.177053  0.530756  0.040975  1
  Rh  Rh21  1  0.322535  0.030474  0.958950  1
  Rh  Rh22  1  0.821227  0.470498  0.540197  1
  Rh  Rh23  1  0.323268  0.029054  0.539850  1
  Rh  Rh24  1  0.822311  0.469494  0.959274  1
  Rh  Rh25  1  0.676749  0.970570  0.041735  1
  Rh  Rh26  1  0.176460  0.528588  0.458992  1
  Rh  Rh27  1  0.456422  0.398309  0.750419  1
  Rh  Rh28  1  0.956796  0.101827  0.749797  1
  Rh  Rh29  1  0.544005  0.602986  0.251213  1
  Rh  Rh30  1  0.041947  0.898188  0.250848  1
  Rh  Rh31  1  0.698400  0.857277  0.749859  1
  Rh  Rh32  1  0.199391  0.642482  0.749759  1
  Rh  Rh33  1  0.302861  0.143065  0.250555  1
  Rh  Rh34  1  0.802087  0.355776  0.250641  1
  Au  Au35  1  0.674990  0.967994  0.461084  1
