# generated using pymatgen
data_Cs2Hf(IO3)6
_symmetry_space_group_name_H-M   'P 1'
_cell_length_a   8.00644007
_cell_length_b   8.00644063
_cell_length_c   8.00643949
_cell_angle_alpha   97.25230149
_cell_angle_beta   97.25229634
_cell_angle_gamma   97.25229462
_symmetry_Int_Tables_number   1
_chemical_formula_structural   Cs2Hf(IO3)6
_chemical_formula_sum   'Cs2 Hf1 I6 O18'
_cell_volume   499.75939967
_cell_formula_units_Z   1
loop_
 _symmetry_equiv_pos_site_id
 _symmetry_equiv_pos_as_xyz
  1  'x, y, z'
loop_
 _atom_site_type_symbol
 _atom_site_label
 _atom_site_symmetry_multiplicity
 _atom_site_fract_x
 _atom_site_fract_y
 _atom_site_fract_z
 _atom_site_occupancy
  Cs  Cs0  1  0.163678  0.163678  0.163678  1
  Cs  Cs1  1  0.836322  0.836322  0.836322  1
  Hf  Hf2  1  0.500000  0.500000  0.500000  1
  I  I3  1  0.700888  0.339401  0.123112  1
  I  I4  1  0.660599  0.876888  0.299112  1
  I  I5  1  0.123112  0.700888  0.339401  1
  I  I6  1  0.876888  0.299112  0.660599  1
  I  I7  1  0.299112  0.660599  0.876888  1
  I  I8  1  0.339401  0.123112  0.700888  1
  O  O9  1  0.893382  0.401983  0.278451  1
  O  O10  1  0.598017  0.721549  0.106618  1
  O  O11  1  0.721549  0.106618  0.598017  1
  O  O12  1  0.642347  0.721018  0.455424  1
  O  O13  1  0.689001  0.109243  0.095762  1
  O  O14  1  0.455424  0.642347  0.721018  1
  O  O15  1  0.278982  0.544576  0.357653  1
  O  O16  1  0.357653  0.278982  0.544576  1
  O  O17  1  0.109243  0.095762  0.689001  1
  O  O18  1  0.904238  0.310999  0.890757  1
  O  O19  1  0.721018  0.455424  0.642347  1
  O  O20  1  0.106618  0.598017  0.721549  1
  O  O21  1  0.544576  0.357653  0.278982  1
  O  O22  1  0.310999  0.890757  0.904238  1
  O  O23  1  0.890757  0.904238  0.310999  1
  O  O24  1  0.401983  0.278451  0.893382  1
  O  O25  1  0.278451  0.893382  0.401983  1
  O  O26  1  0.095762  0.689001  0.109243  1
