# generated using pymatgen
data_TbDy3HoIr3
_symmetry_space_group_name_H-M   'P 1'
_cell_length_a   10.89741800
_cell_length_b   10.89690300
_cell_length_c   6.37143700
_cell_angle_alpha   90.00000000
_cell_angle_beta   90.00000000
_cell_angle_gamma   90.00000000
_symmetry_Int_Tables_number   1
_chemical_formula_structural   TbDy3HoIr3
_chemical_formula_sum   'Tb4 Dy12 Ho4 Ir12'
_cell_volume   756.59608196
_cell_formula_units_Z   4
loop_
 _symmetry_equiv_pos_site_id
 _symmetry_equiv_pos_as_xyz
  1  'x, y, z'
loop_
 _atom_site_type_symbol
 _atom_site_label
 _atom_site_symmetry_multiplicity
 _atom_site_fract_x
 _atom_site_fract_y
 _atom_site_fract_z
 _atom_site_occupancy
  Tb  Tb0  1  0.290947  0.087981  0.377917  1
  Tb  Tb1  1  0.290947  0.912019  0.877917  1
  Tb  Tb2  1  0.709053  0.087981  0.877917  1
  Tb  Tb3  1  0.709053  0.912019  0.377917  1
  Dy  Dy4  1  0.587943  0.790945  0.877963  1
  Dy  Dy5  1  0.587943  0.209055  0.377963  1
  Dy  Dy6  1  0.412057  0.790945  0.377963  1
  Dy  Dy7  1  0.412057  0.209055  0.877963  1
  Dy  Dy8  1  0.208991  0.412079  0.622031  1
  Dy  Dy9  1  0.208991  0.587921  0.122031  1
  Dy  Dy10  1  0.791009  0.412079  0.122031  1
  Dy  Dy11  1  0.791009  0.587921  0.622031  1
  Dy  Dy12  1  0.912090  0.708980  0.121993  1
  Dy  Dy13  1  0.912090  0.291020  0.621993  1
  Dy  Dy14  1  0.087910  0.708980  0.621993  1
  Dy  Dy15  1  0.087910  0.291020  0.121993  1
  Ho  Ho16  1  0.000000  0.000000  0.500030  1
  Ho  Ho17  1  0.000000  0.000000  0.000030  1
  Ho  Ho18  1  0.500000  0.500000  0.000024  1
  Ho  Ho19  1  0.500000  0.500000  0.500024  1
  Ir  Ir20  1  0.847059  0.153049  0.250079  1
  Ir  Ir21  1  0.847059  0.846951  0.750079  1
  Ir  Ir22  1  0.152941  0.153049  0.750079  1
  Ir  Ir23  1  0.152941  0.846951  0.250079  1
  Ir  Ir24  1  0.652970  0.347060  0.749969  1
  Ir  Ir25  1  0.652970  0.652940  0.249969  1
  Ir  Ir26  1  0.347030  0.347060  0.249969  1
  Ir  Ir27  1  0.347030  0.652940  0.749969  1
  Ir  Ir28  1  0.500000  0.000000  0.121866  1
  Ir  Ir29  1  0.500000  0.000000  0.621866  1
  Ir  Ir30  1  0.000000  0.500000  0.878175  1
  Ir  Ir31  1  0.000000  0.500000  0.378175  1
