# generated using pymatgen
data_Ta5InRu4
_symmetry_space_group_name_H-M   'P 1'
_cell_length_a   3.20640000
_cell_length_b   3.20640000
_cell_length_c   16.22510200
_cell_angle_alpha   90.00000000
_cell_angle_beta   90.00000000
_cell_angle_gamma   90.00000000
_symmetry_Int_Tables_number   1
_chemical_formula_structural   Ta5InRu4
_chemical_formula_sum   'Ta5 In1 Ru4'
_cell_volume   166.81028924
_cell_formula_units_Z   1
loop_
 _symmetry_equiv_pos_site_id
 _symmetry_equiv_pos_as_xyz
  1  'x, y, z'
loop_
 _atom_site_type_symbol
 _atom_site_label
 _atom_site_symmetry_multiplicity
 _atom_site_fract_x
 _atom_site_fract_y
 _atom_site_fract_z
 _atom_site_occupancy
  Ta  Ta0  1  0.000000  0.000000  0.897330  1
  Ta  Ta1  1  0.000000  0.000000  0.102670  1
  Ta  Ta2  1  0.000000  0.000000  0.302084  1
  Ta  Ta3  1  0.000000  0.000000  0.697916  1
  Ta  Ta4  1  0.500000  0.500000  0.000000  1
  In  In5  1  0.000000  0.000000  0.500000  1
  Ru  Ru6  1  0.500000  0.500000  0.205637  1
  Ru  Ru7  1  0.500000  0.500000  0.391837  1
  Ru  Ru8  1  0.500000  0.500000  0.608163  1
  Ru  Ru9  1  0.500000  0.500000  0.794363  1
