# generated using pymatgen
data_Ba6Ca(RuO6)2
_symmetry_space_group_name_H-M   'P 1'
_cell_length_a   9.22539030
_cell_length_b   9.22538985
_cell_length_c   7.25503100
_cell_angle_alpha   67.69733506
_cell_angle_beta   67.69733619
_cell_angle_gamma   36.90922805
_symmetry_Int_Tables_number   1
_chemical_formula_structural   Ba6Ca(RuO6)2
_chemical_formula_sum   'Ba6 Ca1 Ru2 O12'
_cell_volume   339.84566956
_cell_formula_units_Z   1
loop_
 _symmetry_equiv_pos_site_id
 _symmetry_equiv_pos_as_xyz
  1  'x, y, z'
loop_
 _atom_site_type_symbol
 _atom_site_label
 _atom_site_symmetry_multiplicity
 _atom_site_fract_x
 _atom_site_fract_y
 _atom_site_fract_z
 _atom_site_occupancy
  Ba  Ba0  1  0.212697  0.212697  0.708150  1
  Ba  Ba1  1  0.882372  0.882372  0.715287  1
  Ba  Ba2  1  0.549353  0.549353  0.706753  1
  Ba  Ba3  1  0.787303  0.787303  0.291850  1
  Ba  Ba4  1  0.450647  0.450647  0.293247  1
  Ba  Ba5  1  0.117628  0.117628  0.284713  1
  Ca  Ca6  1  0.000000  0.000000  0.000000  1
  Ru  Ru7  1  0.668022  0.668022  0.999893  1
  Ru  Ru8  1  0.331978  0.331978  0.000107  1
  O  O9  1  0.280415  0.280415  0.303023  1
  O  O10  1  0.938960  0.938960  0.341626  1
  O  O11  1  0.619747  0.619747  0.301842  1
  O  O12  1  0.719585  0.719585  0.696977  1
  O  O13  1  0.380253  0.380253  0.698158  1
  O  O14  1  0.061040  0.061040  0.658374  1
  O  O15  1  0.000000  0.500000  0.000000  1
  O  O16  1  0.638760  0.179753  0.001533  1
  O  O17  1  0.361240  0.820247  0.998467  1
  O  O18  1  0.500000  0.000000  0.000000  1
  O  O19  1  0.179753  0.638760  0.001533  1
  O  O20  1  0.820247  0.361240  0.998467  1
