# generated using pymatgen
data_MgNp5Cl30
_symmetry_space_group_name_H-M   'P 1'
_cell_length_a   14.22878550
_cell_length_b   14.22878579
_cell_length_c   6.91255251
_cell_angle_alpha   86.43729330
_cell_angle_beta   86.43729919
_cell_angle_gamma   87.49799283
_symmetry_Int_Tables_number   1
_chemical_formula_structural   MgNp5Cl30
_chemical_formula_sum   'Mg1 Np5 Cl30'
_cell_volume   1392.98697057
_cell_formula_units_Z   1
loop_
 _symmetry_equiv_pos_site_id
 _symmetry_equiv_pos_as_xyz
  1  'x, y, z'
loop_
 _atom_site_type_symbol
 _atom_site_label
 _atom_site_symmetry_multiplicity
 _atom_site_fract_x
 _atom_site_fract_y
 _atom_site_fract_z
 _atom_site_occupancy
  Mg  Mg0  1  0.109209  0.890791  0.000000  1
  Np  Np1  1  0.901506  0.098494  0.000000  1
  Np  Np2  1  0.771397  0.563475  0.432885  1
  Np  Np3  1  0.228155  0.437975  0.567585  1
  Np  Np4  1  0.436525  0.228603  0.567115  1
  Np  Np5  1  0.562025  0.771845  0.432415  1
  Cl  Cl6  1  0.511260  0.307906  0.820842  1
  Cl  Cl7  1  0.267282  0.268455  0.743377  1
  Cl  Cl8  1  0.193037  0.970139  0.730887  1
  Cl  Cl9  1  0.601816  0.602409  0.609862  1
  Cl  Cl10  1  0.216119  0.589720  0.380019  1
  Cl  Cl11  1  0.731545  0.732718  0.256623  1
  Cl  Cl12  1  0.153449  0.359436  0.312762  1
  Cl  Cl13  1  0.060821  0.071970  0.136859  1
  Cl  Cl14  1  0.640564  0.846551  0.687238  1
  Cl  Cl15  1  0.588884  0.216123  0.378397  1
  Cl  Cl16  1  0.083163  0.730951  0.931153  1
  Cl  Cl17  1  0.029861  0.806963  0.269113  1
  Cl  Cl18  1  0.922813  0.549693  0.244070  1
  Cl  Cl19  1  0.830385  0.026243  0.302664  1
  Cl  Cl20  1  0.410280  0.783881  0.619981  1
  Cl  Cl21  1  0.783877  0.411116  0.621603  1
  Cl  Cl22  1  0.550586  0.923671  0.242695  1
  Cl  Cl23  1  0.973757  0.169615  0.697336  1
  Cl  Cl24  1  0.846148  0.642192  0.685598  1
  Cl  Cl25  1  0.884056  0.254605  0.133285  1
  Cl  Cl26  1  0.487381  0.692503  0.178749  1
  Cl  Cl27  1  0.357808  0.153852  0.314402  1
  Cl  Cl28  1  0.076329  0.449414  0.757305  1
  Cl  Cl29  1  0.745395  0.115944  0.866715  1
  Cl  Cl30  1  0.450307  0.077187  0.755930  1
  Cl  Cl31  1  0.397591  0.398184  0.390138  1
  Cl  Cl32  1  0.307497  0.512619  0.821251  1
  Cl  Cl33  1  0.269049  0.916837  0.068847  1
  Cl  Cl34  1  0.928030  0.939179  0.863141  1
  Cl  Cl35  1  0.692094  0.488740  0.179158  1
