# generated using pymatgen
data_ErTmSc3(In2Pt)2
_symmetry_space_group_name_H-M   'P 1'
_cell_length_a   3.54450700
_cell_length_b   7.85762458
_cell_length_c   17.70797156
_cell_angle_alpha   89.92729066
_cell_angle_beta   90.00000000
_cell_angle_gamma   90.00000000
_symmetry_Int_Tables_number   1
_chemical_formula_structural   ErTmSc3(In2Pt)2
_chemical_formula_sum   'Er2 Tm2 Sc6 In8 Pt4'
_cell_volume   493.19149656
_cell_formula_units_Z   2
loop_
 _symmetry_equiv_pos_site_id
 _symmetry_equiv_pos_as_xyz
  1  'x, y, z'
loop_
 _atom_site_type_symbol
 _atom_site_label
 _atom_site_symmetry_multiplicity
 _atom_site_fract_x
 _atom_site_fract_y
 _atom_site_fract_z
 _atom_site_occupancy
  Er  Er0  1  0.000000  0.256611  0.719781  1
  Er  Er1  1  0.000000  0.743389  0.280219  1
  Tm  Tm2  1  0.000000  0.243398  0.219835  1
  Tm  Tm3  1  0.000000  0.756602  0.780165  1
  Sc  Sc4  1  0.000000  0.116619  0.415966  1
  Sc  Sc5  1  0.000000  0.883381  0.584034  1
  Sc  Sc6  1  0.000000  0.383455  0.915976  1
  Sc  Sc7  1  0.000000  0.616545  0.084024  1
  Sc  Sc8  1  0.000000  0.000000  0.000000  1
  Sc  Sc9  1  0.000000  0.500000  0.500000  1
  In  In10  1  0.500000  0.419122  0.355392  1
  In  In11  1  0.500000  0.580878  0.644608  1
  In  In12  1  0.500000  0.080542  0.855425  1
  In  In13  1  0.500000  0.919458  0.144575  1
  In  In14  1  0.500000  0.294177  0.061331  1
  In  In15  1  0.500000  0.705823  0.938669  1
  In  In16  1  0.500000  0.205731  0.561228  1
  In  In17  1  0.500000  0.794269  0.438772  1
  Pt  Pt18  1  0.500000  0.030256  0.307810  1
  Pt  Pt19  1  0.500000  0.969744  0.692190  1
  Pt  Pt20  1  0.500000  0.470691  0.807932  1
  Pt  Pt21  1  0.500000  0.529309  0.192068  1
