# generated using pymatgen
data_Hf5ZnSn2Bi
_symmetry_space_group_name_H-M   'P 1'
_cell_length_a   8.70150603
_cell_length_b   8.68939993
_cell_length_c   5.84353200
_cell_angle_alpha   90.00000000
_cell_angle_beta   90.00000000
_cell_angle_gamma   119.95398344
_symmetry_Int_Tables_number   1
_chemical_formula_structural   Hf5ZnSn2Bi
_chemical_formula_sum   'Hf10 Zn2 Sn4 Bi2'
_cell_volume   382.81721805
_cell_formula_units_Z   2
loop_
 _symmetry_equiv_pos_site_id
 _symmetry_equiv_pos_as_xyz
  1  'x, y, z'
loop_
 _atom_site_type_symbol
 _atom_site_label
 _atom_site_symmetry_multiplicity
 _atom_site_fract_x
 _atom_site_fract_y
 _atom_site_fract_z
 _atom_site_occupancy
  Hf  Hf0  1  0.735651  0.729778  0.250000  1
  Hf  Hf1  1  0.735651  0.005873  0.750000  1
  Hf  Hf2  1  0.005200  0.271350  0.250000  1
  Hf  Hf3  1  0.005200  0.733849  0.750000  1
  Hf  Hf4  1  0.264456  0.265106  0.750000  1
  Hf  Hf5  1  0.264456  0.999350  0.250000  1
  Hf  Hf6  1  0.327475  0.663739  0.500000  1
  Hf  Hf7  1  0.667898  0.333949  0.000000  1
  Hf  Hf8  1  0.667898  0.333949  0.500000  1
  Hf  Hf9  1  0.327475  0.663739  0.000000  1
  Zn  Zn10  1  0.000301  0.000151  0.000000  1
  Zn  Zn11  1  0.000301  0.000151  0.500000  1
  Sn  Sn12  1  0.385522  0.000659  0.750000  1
  Sn  Sn13  1  0.385522  0.384862  0.250000  1
  Sn  Sn14  1  0.999552  0.613758  0.250000  1
  Sn  Sn15  1  0.999552  0.385794  0.750000  1
  Bi  Bi16  1  0.613947  0.615188  0.750000  1
  Bi  Bi17  1  0.613947  0.998758  0.250000  1
