# generated using pymatgen
data_Sc2Ni2P3Rh
_symmetry_space_group_name_H-M   'P 1'
_cell_length_a   3.68779100
_cell_length_b   10.16385900
_cell_length_c   12.42923500
_cell_angle_alpha   90.00000000
_cell_angle_beta   90.00000000
_cell_angle_gamma   90.00000000
_symmetry_Int_Tables_number   1
_chemical_formula_structural   Sc2Ni2P3Rh
_chemical_formula_sum   'Sc8 Ni8 P12 Rh4'
_cell_volume   465.87491980
_cell_formula_units_Z   4
loop_
 _symmetry_equiv_pos_site_id
 _symmetry_equiv_pos_as_xyz
  1  'x, y, z'
loop_
 _atom_site_type_symbol
 _atom_site_label
 _atom_site_symmetry_multiplicity
 _atom_site_fract_x
 _atom_site_fract_y
 _atom_site_fract_z
 _atom_site_occupancy
  Sc  Sc0  1  0.250000  0.343767  0.995915  1
  Sc  Sc1  1  0.250000  0.156233  0.495915  1
  Sc  Sc2  1  0.750000  0.656233  0.004085  1
  Sc  Sc3  1  0.750000  0.843767  0.504085  1
  Sc  Sc4  1  0.250000  0.428021  0.714273  1
  Sc  Sc5  1  0.250000  0.071979  0.214273  1
  Sc  Sc6  1  0.750000  0.571979  0.285727  1
  Sc  Sc7  1  0.750000  0.928021  0.785727  1
  Ni  Ni8  1  0.250000  0.132656  0.716314  1
  Ni  Ni9  1  0.250000  0.367344  0.216314  1
  Ni  Ni10  1  0.750000  0.867344  0.283686  1
  Ni  Ni11  1  0.750000  0.632656  0.783686  1
  Ni  Ni12  1  0.250000  0.770114  0.168402  1
  Ni  Ni13  1  0.250000  0.729886  0.668402  1
  Ni  Ni14  1  0.750000  0.229886  0.831598  1
  Ni  Ni15  1  0.750000  0.270114  0.331598  1
  P  P16  1  0.250000  0.106457  0.893316  1
  P  P17  1  0.250000  0.393543  0.393316  1
  P  P18  1  0.750000  0.893543  0.106684  1
  P  P19  1  0.750000  0.606457  0.606684  1
  P  P20  1  0.250000  0.732540  0.849741  1
  P  P21  1  0.250000  0.767460  0.349741  1
  P  P22  1  0.750000  0.267460  0.150259  1
  P  P23  1  0.750000  0.232540  0.650259  1
  P  P24  1  0.250000  0.555603  0.126222  1
  P  P25  1  0.250000  0.944397  0.626222  1
  P  P26  1  0.750000  0.444397  0.873778  1
  P  P27  1  0.750000  0.055603  0.373778  1
  Rh  Rh28  1  0.250000  0.898987  0.979543  1
  Rh  Rh29  1  0.250000  0.601013  0.479543  1
  Rh  Rh30  1  0.750000  0.101013  0.020457  1
  Rh  Rh31  1  0.750000  0.398987  0.520457  1
