# generated using pymatgen
data_NdScP7Ru11Pt
_symmetry_space_group_name_H-M   'P 1'
_cell_length_a   9.36011804
_cell_length_b   9.47456265
_cell_length_c   3.94554600
_cell_angle_alpha   90.00000000
_cell_angle_beta   90.00000000
_cell_angle_gamma   119.33420666
_symmetry_Int_Tables_number   1
_chemical_formula_structural   NdScP7Ru11Pt
_chemical_formula_sum   'Nd1 Sc1 P7 Ru11 Pt1'
_cell_volume   305.03732869
_cell_formula_units_Z   1
loop_
 _symmetry_equiv_pos_site_id
 _symmetry_equiv_pos_as_xyz
  1  'x, y, z'
loop_
 _atom_site_type_symbol
 _atom_site_label
 _atom_site_symmetry_multiplicity
 _atom_site_fract_x
 _atom_site_fract_y
 _atom_site_fract_z
 _atom_site_occupancy
  Nd  Nd0  1  0.329962  0.659930  0.000000  1
  Sc  Sc1  1  0.671010  0.337935  0.500000  1
  P  P2  1  0.602363  0.706105  0.500000  1
  P  P3  1  0.997942  0.000565  0.000000  1
  P  P4  1  0.269478  0.878141  0.500000  1
  P  P5  1  0.115389  0.396768  0.500000  1
  P  P6  1  0.886569  0.574510  0.000000  1
  P  P7  1  0.432686  0.313466  0.000000  1
  P  P8  1  0.699034  0.127516  0.000000  1
  Ru  Ru9  1  0.394633  0.434973  0.500000  1
  Ru  Ru10  1  0.910700  0.125668  0.500000  1
  Ru  Ru11  1  0.207889  0.085307  0.500000  1
  Ru  Ru12  1  0.878739  0.797395  0.500000  1
  Ru  Ru13  1  0.724012  0.894925  0.000000  1
  Ru  Ru14  1  0.110835  0.838290  0.000000  1
  Ru  Ru15  1  0.164110  0.269092  0.000000  1
  Ru  Ru16  1  0.432630  0.073955  0.000000  1
  Ru  Ru17  1  0.933755  0.360343  0.000000  1
  Ru  Ru18  1  0.646065  0.575790  0.000000  1
  Ru  Ru19  1  0.043955  0.604666  0.500000  1
  Pt  Pt20  1  0.548248  0.944661  0.500000  1
