# generated using pymatgen
data_Sr5Ho(Sn4Sb)2
_symmetry_space_group_name_H-M   'P 1'
_cell_length_a   8.91164746
_cell_length_b   8.91117920
_cell_length_c   8.91164800
_cell_angle_alpha   119.97777705
_cell_angle_beta   119.98016723
_cell_angle_gamma   90.03792783
_symmetry_Int_Tables_number   1
_chemical_formula_structural   Sr5Ho(Sn4Sb)2
_chemical_formula_sum   'Sr5 Ho1 Sn8 Sb2'
_cell_volume   500.57415091
_cell_formula_units_Z   1
loop_
 _symmetry_equiv_pos_site_id
 _symmetry_equiv_pos_as_xyz
  1  'x, y, z'
loop_
 _atom_site_type_symbol
 _atom_site_label
 _atom_site_symmetry_multiplicity
 _atom_site_fract_x
 _atom_site_fract_y
 _atom_site_fract_z
 _atom_site_occupancy
  Sr  Sr0  1  0.750001  0.750000  0.000001  1
  Sr  Sr1  1  0.162777  0.662804  0.825583  1
  Sr  Sr2  1  0.837206  0.337217  0.174414  1
  Sr  Sr3  1  0.662779  0.837196  0.499975  1
  Sr  Sr4  1  0.337197  0.162783  0.499988  1
  Ho  Ho5  1  0.250016  0.250000  0.000016  1
  Sn  Sn6  1  0.834552  0.328431  0.788507  1
  Sn  Sn7  1  0.171587  0.665467  0.211495  1
  Sn  Sn8  1  0.539881  0.046000  0.211469  1
  Sn  Sn9  1  0.328429  0.539893  0.493885  1
  Sn  Sn10  1  0.960076  0.171569  0.506122  1
  Sn  Sn11  1  0.453991  0.960107  0.788535  1
  Sn  Sn12  1  0.665468  0.454000  0.493880  1
  Sn  Sn13  1  0.046027  0.834533  0.506121  1
  Sb  Sb14  1  0.010042  0.010054  0.000021  1
  Sb  Sb15  1  0.489967  0.489946  0.999989  1
