# generated using pymatgen
data_Li4CaYb3Ag4
_symmetry_space_group_name_H-M   'P 1'
_cell_length_a   4.28080700
_cell_length_b   7.57083065
_cell_length_c   8.80463787
_cell_angle_alpha   90.37436731
_cell_angle_beta   90.00000000
_cell_angle_gamma   90.00000000
_symmetry_Int_Tables_number   1
_chemical_formula_structural   Li4CaYb3Ag4
_chemical_formula_sum   'Li4 Ca1 Yb3 Ag4'
_cell_volume   285.34574939
_cell_formula_units_Z   1
loop_
 _symmetry_equiv_pos_site_id
 _symmetry_equiv_pos_as_xyz
  1  'x, y, z'
loop_
 _atom_site_type_symbol
 _atom_site_label
 _atom_site_symmetry_multiplicity
 _atom_site_fract_x
 _atom_site_fract_y
 _atom_site_fract_z
 _atom_site_occupancy
  Li  Li0  1  0.250000  0.630343  0.559035  1
  Li  Li1  1  0.750000  0.365491  0.440903  1
  Li  Li2  1  0.750000  0.870020  0.059418  1
  Li  Li3  1  0.250000  0.132061  0.940984  1
  Ca  Ca4  1  0.250000  0.033586  0.318241  1
  Yb  Yb5  1  0.250000  0.534409  0.180643  1
  Yb  Yb6  1  0.750000  0.467684  0.818450  1
  Yb  Yb7  1  0.750000  0.965869  0.681130  1
  Ag  Ag8  1  0.250000  0.762455  0.877462  1
  Ag  Ag9  1  0.750000  0.242088  0.118586  1
  Ag  Ag10  1  0.750000  0.733950  0.379836  1
  Ag  Ag11  1  0.250000  0.262044  0.625313  1
