# generated using pymatgen
data_ThCr4Re7Os
_symmetry_space_group_name_H-M   'P 1'
_cell_length_a   6.86328276
_cell_length_b   6.86372524
_cell_length_c   6.86328256
_cell_angle_alpha   97.22470604
_cell_angle_beta   96.89436184
_cell_angle_gamma   138.95055727
_symmetry_Int_Tables_number   1
_chemical_formula_structural   ThCr4Re7Os
_chemical_formula_sum   'Th1 Cr4 Re7 Os1'
_cell_volume   198.85044285
_cell_formula_units_Z   1
loop_
 _symmetry_equiv_pos_site_id
 _symmetry_equiv_pos_as_xyz
  1  'x, y, z'
loop_
 _atom_site_type_symbol
 _atom_site_label
 _atom_site_symmetry_multiplicity
 _atom_site_fract_x
 _atom_site_fract_y
 _atom_site_fract_z
 _atom_site_occupancy
  Th  Th0  1  0.000012  0.998562  0.998550  1
  Cr  Cr1  1  0.000146  0.998744  0.500085  1
  Cr  Cr2  1  0.999860  0.499950  0.998602  1
  Cr  Cr3  1  0.498658  0.998744  0.998597  1
  Cr  Cr4  1  0.501347  0.499950  0.500090  1
  Re  Re5  1  0.278421  0.500208  0.778639  1
  Re  Re6  1  0.721569  0.500208  0.221787  1
  Re  Re7  1  0.500062  0.723484  0.223421  1
  Re  Re8  1  0.999957  0.357878  0.357921  1
  Re  Re9  1  0.000004  0.643286  0.643282  1
  Re  Re10  1  0.642779  0.000155  0.642889  1
  Re  Re11  1  0.357267  0.000155  0.357377  1
  Os  Os12  1  0.499917  0.278678  0.778760  1
