# generated using pymatgen
data_La6Pr2Cd2OsAu
_symmetry_space_group_name_H-M   'P 1'
_cell_length_a   10.20190935
_cell_length_b   10.18974468
_cell_length_c   10.31298204
_cell_angle_alpha   59.85279551
_cell_angle_beta   59.93755895
_cell_angle_gamma   59.50136505
_symmetry_Int_Tables_number   1
_chemical_formula_structural   La6Pr2Cd2OsAu
_chemical_formula_sum   'La12 Pr4 Cd4 Os2 Au2'
_cell_volume   753.98969164
_cell_formula_units_Z   2
loop_
 _symmetry_equiv_pos_site_id
 _symmetry_equiv_pos_as_xyz
  1  'x, y, z'
loop_
 _atom_site_type_symbol
 _atom_site_label
 _atom_site_symmetry_multiplicity
 _atom_site_fract_x
 _atom_site_fract_y
 _atom_site_fract_z
 _atom_site_occupancy
  La  La0  1  0.343722  0.345892  0.365214  1
  La  La1  1  0.346602  0.346477  0.943000  1
  La  La2  1  0.339528  0.961933  0.349978  1
  La  La3  1  0.960538  0.339718  0.350672  1
  La  La4  1  0.820688  0.191419  0.192027  1
  La  La5  1  0.190089  0.818459  0.793623  1
  La  La6  1  0.188900  0.822126  0.191676  1
  La  La7  1  0.820489  0.186135  0.794898  1
  La  La8  1  0.189013  0.187557  0.810975  1
  La  La9  1  0.799700  0.800031  0.201852  1
  La  La10  1  0.935817  0.560668  0.570309  1
  La  La11  1  0.555126  0.933291  0.940207  1
  Pr  Pr12  1  0.560933  0.935694  0.568871  1
  Pr  Pr13  1  0.935134  0.557746  0.938856  1
  Pr  Pr14  1  0.561273  0.561825  0.941228  1
  Pr  Pr15  1  0.936431  0.934822  0.560063  1
  Cd  Cd16  1  0.579703  0.579771  0.579309  1
  Cd  Cd17  1  0.580309  0.579596  0.259298  1
  Cd  Cd18  1  0.582671  0.257737  0.578547  1
  Cd  Cd19  1  0.257679  0.582603  0.580098  1
  Os  Os20  1  0.145360  0.141800  0.138987  1
  Os  Os21  1  0.143932  0.146494  0.576609  1
  Au  Au22  1  0.151396  0.575372  0.136317  1
  Au  Au23  1  0.574966  0.152833  0.137384  1
