# generated using pymatgen
data_La5(SnSb)2
_symmetry_space_group_name_H-M   'P 1'
_cell_length_a   8.52535000
_cell_length_b   8.56249300
_cell_length_c   16.33830500
_cell_angle_alpha   90.00000000
_cell_angle_beta   90.00000000
_cell_angle_gamma   90.00000000
_symmetry_Int_Tables_number   1
_chemical_formula_structural   La5(SnSb)2
_chemical_formula_sum   'La20 Sn8 Sb8'
_cell_volume   1192.66766802
_cell_formula_units_Z   4
loop_
 _symmetry_equiv_pos_site_id
 _symmetry_equiv_pos_as_xyz
  1  'x, y, z'
loop_
 _atom_site_type_symbol
 _atom_site_label
 _atom_site_symmetry_multiplicity
 _atom_site_fract_x
 _atom_site_fract_y
 _atom_site_fract_z
 _atom_site_occupancy
  La  La0  1  0.233402  0.497504  0.750000  1
  La  La1  1  0.733402  0.002496  0.750000  1
  La  La2  1  0.766598  0.502496  0.250000  1
  La  La3  1  0.266598  0.997504  0.250000  1
  La  La4  1  0.404472  0.835266  0.885539  1
  La  La5  1  0.904472  0.664734  0.614461  1
  La  La6  1  0.595528  0.164734  0.385539  1
  La  La7  1  0.095528  0.335266  0.114461  1
  La  La8  1  0.595528  0.164734  0.114461  1
  La  La9  1  0.095528  0.335266  0.385539  1
  La  La10  1  0.404472  0.835266  0.614461  1
  La  La11  1  0.904472  0.664734  0.885539  1
  La  La12  1  0.563425  0.329687  0.891481  1
  La  La13  1  0.063425  0.170313  0.608519  1
  La  La14  1  0.436575  0.670313  0.391481  1
  La  La15  1  0.936575  0.829687  0.108519  1
  La  La16  1  0.436575  0.670313  0.108519  1
  La  La17  1  0.936575  0.829687  0.391481  1
  La  La18  1  0.563425  0.329687  0.608519  1
  La  La19  1  0.063425  0.170313  0.891481  1
  Sn  Sn20  1  0.604824  0.625491  0.750000  1
  Sn  Sn21  1  0.104824  0.874509  0.750000  1
  Sn  Sn22  1  0.395176  0.374509  0.250000  1
  Sn  Sn23  1  0.895176  0.125491  0.250000  1
  Sn  Sn24  1  0.363702  0.132533  0.750000  1
  Sn  Sn25  1  0.863702  0.367467  0.750000  1
  Sn  Sn26  1  0.636298  0.867467  0.250000  1
  Sn  Sn27  1  0.136298  0.632533  0.250000  1
  Sb  Sb28  1  0.258975  0.010077  0.048036  1
  Sb  Sb29  1  0.758975  0.489923  0.451964  1
  Sb  Sb30  1  0.741025  0.989923  0.548036  1
  Sb  Sb31  1  0.241025  0.510077  0.951964  1
  Sb  Sb32  1  0.741025  0.989923  0.951964  1
  Sb  Sb33  1  0.241025  0.510077  0.548036  1
  Sb  Sb34  1  0.258975  0.010077  0.451964  1
  Sb  Sb35  1  0.758975  0.489923  0.048036  1
