# generated using pymatgen
data_Sm2Be23Cu3
_symmetry_space_group_name_H-M   'P 1'
_cell_length_a   7.35726271
_cell_length_b   7.36485498
_cell_length_c   7.33119787
_cell_angle_alpha   60.48985362
_cell_angle_beta   60.18557331
_cell_angle_gamma   59.73176556
_symmetry_Int_Tables_number   1
_chemical_formula_structural   Sm2Be23Cu3
_chemical_formula_sum   'Sm2 Be23 Cu3'
_cell_volume   281.73149040
_cell_formula_units_Z   1
loop_
 _symmetry_equiv_pos_site_id
 _symmetry_equiv_pos_as_xyz
  1  'x, y, z'
loop_
 _atom_site_type_symbol
 _atom_site_label
 _atom_site_symmetry_multiplicity
 _atom_site_fract_x
 _atom_site_fract_y
 _atom_site_fract_z
 _atom_site_occupancy
  Sm  Sm0  1  0.248855  0.251856  0.251313  1
  Sm  Sm1  1  0.752024  0.748687  0.748144  1
  Be  Be2  1  0.000263  0.000193  0.999807  1
  Be  Be3  1  0.499823  0.500029  0.499971  1
  Be  Be4  1  0.936422  0.705971  0.294029  1
  Be  Be5  1  0.932456  0.292736  0.068319  1
  Be  Be6  1  0.213556  0.439277  0.786581  1
  Be  Be7  1  0.066718  0.706237  0.936177  1
  Be  Be8  1  0.788019  0.561343  0.214778  1
  Be  Be9  1  0.709131  0.063823  0.293763  1
  Be  Be10  1  0.439415  0.213419  0.560723  1
  Be  Be11  1  0.293511  0.931681  0.707264  1
  Be  Be12  1  0.564140  0.785222  0.438657  1
  Be  Be13  1  0.059223  0.935388  0.298238  1
  Be  Be14  1  0.569209  0.221393  0.778607  1
  Be  Be15  1  0.938701  0.062513  0.702559  1
  Be  Be16  1  0.432285  0.778206  0.221794  1
  Be  Be17  1  0.703773  0.297441  0.937487  1
  Be  Be18  1  0.216087  0.569697  0.430303  1
  Be  Be19  1  0.292849  0.701762  0.064612  1
  Be  Be20  1  0.783072  0.436479  0.563521  1
  Be  Be21  1  0.786144  0.214798  0.433463  1
  Be  Be22  1  0.212887  0.784980  0.566720  1
  Be  Be23  1  0.564586  0.433280  0.215020  1
  Be  Be24  1  0.434405  0.566537  0.785202  1
  Cu  Cu25  1  0.304541  0.055652  0.944348  1
  Cu  Cu26  1  0.698568  0.940240  0.059760  1
  Cu  Cu27  1  0.059340  0.301158  0.698842  1
