# generated using pymatgen
data_Na3SmSn12
_symmetry_space_group_name_H-M   'P 1'
_cell_length_a   11.82109778
_cell_length_b   11.82109792
_cell_length_c   11.82109734
_cell_angle_alpha   32.88162854
_cell_angle_beta   32.88162735
_cell_angle_gamma   32.88163008
_symmetry_Int_Tables_number   1
_chemical_formula_structural   Na3SmSn12
_chemical_formula_sum   'Na3 Sm1 Sn12'
_cell_volume   433.19780262
_cell_formula_units_Z   1
loop_
 _symmetry_equiv_pos_site_id
 _symmetry_equiv_pos_as_xyz
  1  'x, y, z'
loop_
 _atom_site_type_symbol
 _atom_site_label
 _atom_site_symmetry_multiplicity
 _atom_site_fract_x
 _atom_site_fract_y
 _atom_site_fract_z
 _atom_site_occupancy
  Na  Na0  1  0.875444  0.875444  0.875444  1
  Na  Na1  1  0.123904  0.123904  0.123904  1
  Na  Na2  1  0.708117  0.708117  0.708117  1
  Sm  Sm3  1  0.291509  0.291509  0.291509  1
  Sn  Sn4  1  0.291339  0.792461  0.792461  1
  Sn  Sn5  1  0.792461  0.792461  0.291339  1
  Sn  Sn6  1  0.860645  0.382546  0.382546  1
  Sn  Sn7  1  0.382546  0.382546  0.860645  1
  Sn  Sn8  1  0.382546  0.860645  0.382546  1
  Sn  Sn9  1  0.620842  0.133172  0.620842  1
  Sn  Sn10  1  0.133172  0.620842  0.620842  1
  Sn  Sn11  1  0.620842  0.620842  0.133172  1
  Sn  Sn12  1  0.792461  0.291339  0.792461  1
  Sn  Sn13  1  0.206778  0.710618  0.206778  1
  Sn  Sn14  1  0.206778  0.206778  0.710618  1
  Sn  Sn15  1  0.710618  0.206778  0.206778  1
