# generated using pymatgen
data_Nb10Si6C
_symmetry_space_group_name_H-M   'P 1'
_cell_length_a   7.60195100
_cell_length_b   7.60195102
_cell_length_c   5.27923800
_cell_angle_alpha   90.00000000
_cell_angle_beta   90.00000000
_cell_angle_gamma   119.99999555
_symmetry_Int_Tables_number   1
_chemical_formula_structural   Nb10Si6C
_chemical_formula_sum   'Nb10 Si6 C1'
_cell_volume   264.21168807
_cell_formula_units_Z   1
loop_
 _symmetry_equiv_pos_site_id
 _symmetry_equiv_pos_as_xyz
  1  'x, y, z'
loop_
 _atom_site_type_symbol
 _atom_site_label
 _atom_site_symmetry_multiplicity
 _atom_site_fract_x
 _atom_site_fract_y
 _atom_site_fract_z
 _atom_site_occupancy
  Nb  Nb0  1  0.000000  0.758748  0.255480  1
  Nb  Nb1  1  0.241252  0.241252  0.255480  1
  Nb  Nb2  1  0.758748  0.000000  0.255480  1
  Nb  Nb3  1  0.000000  0.241252  0.744520  1
  Nb  Nb4  1  0.758748  0.758748  0.744520  1
  Nb  Nb5  1  0.241252  0.000000  0.744520  1
  Nb  Nb6  1  0.333333  0.666667  0.000000  1
  Nb  Nb7  1  0.666667  0.333333  0.000000  1
  Nb  Nb8  1  0.666667  0.333333  0.500000  1
  Nb  Nb9  1  0.333333  0.666667  0.500000  1
  Si  Si10  1  0.000000  0.399201  0.242746  1
  Si  Si11  1  0.600799  0.600799  0.242746  1
  Si  Si12  1  0.399201  0.000000  0.242746  1
  Si  Si13  1  0.000000  0.600799  0.757254  1
  Si  Si14  1  0.399201  0.399201  0.757254  1
  Si  Si15  1  0.600799  0.000000  0.757254  1
  C  C16  1  0.000000  0.000000  0.500000  1
