# generated using pymatgen
data_Zr4In2Cu2PtAu
_symmetry_space_group_name_H-M   'P 1'
_cell_length_a   7.43622146
_cell_length_b   7.43622145
_cell_length_c   6.98870624
_cell_angle_alpha   90.14556273
_cell_angle_beta   90.14556393
_cell_angle_gamma   90.43832682
_symmetry_Int_Tables_number   1
_chemical_formula_structural   Zr4In2Cu2PtAu
_chemical_formula_sum   'Zr8 In4 Cu4 Pt2 Au2'
_cell_volume   386.44338884
_cell_formula_units_Z   2
loop_
 _symmetry_equiv_pos_site_id
 _symmetry_equiv_pos_as_xyz
  1  'x, y, z'
loop_
 _atom_site_type_symbol
 _atom_site_label
 _atom_site_symmetry_multiplicity
 _atom_site_fract_x
 _atom_site_fract_y
 _atom_site_fract_z
 _atom_site_occupancy
  Zr  Zr0  1  0.147290  0.158696  0.003229  1
  Zr  Zr1  1  0.841304  0.852710  0.996771  1
  Zr  Zr2  1  0.653371  0.346629  0.500000  1
  Zr  Zr3  1  0.355907  0.644093  0.500000  1
  Zr  Zr4  1  0.692692  0.307308  0.000000  1
  Zr  Zr5  1  0.313665  0.686335  0.000000  1
  Zr  Zr6  1  0.796581  0.805030  0.500293  1
  Zr  Zr7  1  0.194970  0.203419  0.499707  1
  In  In8  1  0.507987  0.998859  0.248849  1
  In  In9  1  0.503764  0.007317  0.750886  1
  In  In10  1  0.992683  0.496236  0.249114  1
  In  In11  1  0.001141  0.492013  0.751151  1
  Cu  Cu12  1  0.630576  0.626995  0.201006  1
  Cu  Cu13  1  0.872536  0.127262  0.701122  1
  Cu  Cu14  1  0.872738  0.127464  0.298878  1
  Cu  Cu15  1  0.373005  0.369424  0.798994  1
  Pt  Pt16  1  0.379390  0.376507  0.212002  1
  Pt  Pt17  1  0.623493  0.620610  0.787998  1
  Au  Au18  1  0.123563  0.876656  0.291239  1
  Au  Au19  1  0.123344  0.876437  0.708761  1
