# generated using pymatgen
data_Ho2Lu(AgGe)3
_symmetry_space_group_name_H-M   'P 1'
_cell_length_a   7.14727731
_cell_length_b   7.14727831
_cell_length_c   4.16328800
_cell_angle_alpha   90.00000000
_cell_angle_beta   90.00000000
_cell_angle_gamma   119.82525564
_symmetry_Int_Tables_number   1
_chemical_formula_structural   Ho2Lu(AgGe)3
_chemical_formula_sum   'Ho2 Lu1 Ag3 Ge3'
_cell_volume   184.50597980
_cell_formula_units_Z   1
loop_
 _symmetry_equiv_pos_site_id
 _symmetry_equiv_pos_as_xyz
  1  'x, y, z'
loop_
 _atom_site_type_symbol
 _atom_site_label
 _atom_site_symmetry_multiplicity
 _atom_site_fract_x
 _atom_site_fract_y
 _atom_site_fract_z
 _atom_site_occupancy
  Ho  Ho0  1  0.584992  0.999598  0.000000  1
  Ho  Ho1  1  0.999598  0.584992  0.000000  1
  Lu  Lu2  1  0.414133  0.414133  0.000000  1
  Ag  Ag3  1  0.253300  0.000835  0.500000  1
  Ag  Ag4  1  0.000835  0.253300  0.500000  1
  Ag  Ag5  1  0.745895  0.745895  0.500000  1
  Ge  Ge6  1  0.334167  0.665145  0.500000  1
  Ge  Ge7  1  0.665145  0.334167  0.500000  1
  Ge  Ge8  1  0.001935  0.001935  0.000000  1
