# generated using pymatgen
data_DyHo3(Tm3Ru2)2
_symmetry_space_group_name_H-M   'P 1'
_cell_length_a   6.26899467
_cell_length_b   7.24407002
_cell_length_c   8.38038263
_cell_angle_alpha   96.85775627
_cell_angle_beta   112.04293029
_cell_angle_gamma   89.98515512
_symmetry_Int_Tables_number   1
_chemical_formula_structural   DyHo3(Tm3Ru2)2
_chemical_formula_sum   'Dy1 Ho3 Tm6 Ru4'
_cell_volume   349.82497047
_cell_formula_units_Z   1
loop_
 _symmetry_equiv_pos_site_id
 _symmetry_equiv_pos_as_xyz
  1  'x, y, z'
loop_
 _atom_site_type_symbol
 _atom_site_label
 _atom_site_symmetry_multiplicity
 _atom_site_fract_x
 _atom_site_fract_y
 _atom_site_fract_z
 _atom_site_occupancy
  Dy  Dy0  1  0.789987  0.083780  0.812424  1
  Ho  Ho1  1  0.977731  0.416165  0.187363  1
  Ho  Ho2  1  0.209833  0.916132  0.187592  1
  Ho  Ho3  1  0.022587  0.583868  0.812825  1
  Tm  Tm4  1  0.205303  0.184325  0.565533  1
  Tm  Tm5  1  0.639929  0.315642  0.434456  1
  Tm  Tm6  1  0.794405  0.815528  0.434154  1
  Tm  Tm7  1  0.359942  0.684430  0.565385  1
  Tm  Tm8  1  0.419677  0.249838  0.999985  1
  Tm  Tm9  1  0.580296  0.750150  0.000204  1
  Ru  Ru10  1  0.600854  0.424466  0.778884  1
  Ru  Ru11  1  0.822124  0.076456  0.221056  1
  Ru  Ru12  1  0.398958  0.575750  0.221021  1
  Ru  Ru13  1  0.178373  0.923471  0.779117  1
