# generated using pymatgen
data_Y6NbCo17P12
_symmetry_space_group_name_H-M   'P 1'
_cell_length_a   3.71164700
_cell_length_b   10.59722400
_cell_length_c   12.30132600
_cell_angle_alpha   90.00000000
_cell_angle_beta   90.00000000
_cell_angle_gamma   90.00000000
_symmetry_Int_Tables_number   1
_chemical_formula_structural   Y6NbCo17P12
_chemical_formula_sum   'Y6 Nb1 Co17 P12'
_cell_volume   483.84995818
_cell_formula_units_Z   1
loop_
 _symmetry_equiv_pos_site_id
 _symmetry_equiv_pos_as_xyz
  1  'x, y, z'
loop_
 _atom_site_type_symbol
 _atom_site_label
 _atom_site_symmetry_multiplicity
 _atom_site_fract_x
 _atom_site_fract_y
 _atom_site_fract_z
 _atom_site_occupancy
  Y  Y0  1  0.000000  0.500000  0.526641  1
  Y  Y1  1  0.500000  0.000000  0.477831  1
  Y  Y2  1  0.500000  0.819305  0.206985  1
  Y  Y3  1  0.500000  0.180695  0.206985  1
  Y  Y4  1  0.000000  0.682854  0.795904  1
  Y  Y5  1  0.000000  0.317146  0.795904  1
  Nb  Nb6  1  0.500000  0.500000  0.154879  1
  Co  Co7  1  0.000000  0.000000  0.838687  1
  Co  Co8  1  0.500000  0.500000  0.702089  1
  Co  Co9  1  0.000000  0.000000  0.296422  1
  Co  Co10  1  0.000000  0.500000  0.984420  1
  Co  Co11  1  0.500000  0.000000  0.014157  1
  Co  Co12  1  0.500000  0.329768  0.989228  1
  Co  Co13  1  0.500000  0.670232  0.989228  1
  Co  Co14  1  0.000000  0.163766  0.004080  1
  Co  Co15  1  0.000000  0.836234  0.004080  1
  Co  Co16  1  0.500000  0.295187  0.433109  1
  Co  Co17  1  0.500000  0.704813  0.433109  1
  Co  Co18  1  0.000000  0.202495  0.569769  1
  Co  Co19  1  0.000000  0.797505  0.569769  1
  Co  Co20  1  0.500000  0.879792  0.708158  1
  Co  Co21  1  0.500000  0.120208  0.708158  1
  Co  Co22  1  0.000000  0.622674  0.294842  1
  Co  Co23  1  0.000000  0.377326  0.294842  1
  P  P24  1  0.500000  0.500000  0.881011  1
  P  P25  1  0.000000  0.000000  0.116866  1
  P  P26  1  0.500000  0.500000  0.355482  1
  P  P27  1  0.000000  0.000000  0.656068  1
  P  P28  1  0.500000  0.309624  0.617245  1
  P  P29  1  0.500000  0.690376  0.617245  1
  P  P30  1  0.000000  0.188404  0.385837  1
  P  P31  1  0.000000  0.811596  0.385837  1
  P  P32  1  0.500000  0.851626  0.890138  1
  P  P33  1  0.500000  0.148374  0.890138  1
  P  P34  1  0.000000  0.660596  0.102431  1
  P  P35  1  0.000000  0.339404  0.102431  1
