# generated using pymatgen
data_Sm4SCl6
_symmetry_space_group_name_H-M   'P 1'
_cell_length_a   3.91800900
_cell_length_b   12.75527300
_cell_length_c   13.50711500
_cell_angle_alpha   90.00000000
_cell_angle_beta   90.00000000
_cell_angle_gamma   90.00000000
_symmetry_Int_Tables_number   1
_chemical_formula_structural   Sm4SCl6
_chemical_formula_sum   'Sm8 S2 Cl12'
_cell_volume   675.02177863
_cell_formula_units_Z   2
loop_
 _symmetry_equiv_pos_site_id
 _symmetry_equiv_pos_as_xyz
  1  'x, y, z'
loop_
 _atom_site_type_symbol
 _atom_site_label
 _atom_site_symmetry_multiplicity
 _atom_site_fract_x
 _atom_site_fract_y
 _atom_site_fract_z
 _atom_site_occupancy
  Sm  Sm0  1  0.500000  0.120318  0.338936  1
  Sm  Sm1  1  0.500000  0.879682  0.661064  1
  Sm  Sm2  1  0.500000  0.620318  0.161064  1
  Sm  Sm3  1  0.500000  0.379682  0.838936  1
  Sm  Sm4  1  0.000000  0.118469  0.578792  1
  Sm  Sm5  1  0.000000  0.881531  0.421208  1
  Sm  Sm6  1  0.000000  0.618469  0.921208  1
  Sm  Sm7  1  0.000000  0.381531  0.078792  1
  S  S8  1  0.500000  0.000000  0.500000  1
  S  S9  1  0.500000  0.500000  0.000000  1
  Cl  Cl10  1  0.500000  0.244733  0.162601  1
  Cl  Cl11  1  0.500000  0.755267  0.837399  1
  Cl  Cl12  1  0.500000  0.744733  0.337399  1
  Cl  Cl13  1  0.500000  0.255267  0.662601  1
  Cl  Cl14  1  0.000000  0.256263  0.413082  1
  Cl  Cl15  1  0.000000  0.743737  0.586918  1
  Cl  Cl16  1  0.000000  0.756263  0.086918  1
  Cl  Cl17  1  0.000000  0.243737  0.913082  1
  Cl  Cl18  1  0.000000  0.000559  0.242830  1
  Cl  Cl19  1  0.000000  0.999441  0.757170  1
  Cl  Cl20  1  0.000000  0.500559  0.257170  1
  Cl  Cl21  1  0.000000  0.499441  0.742830  1
