# generated using pymatgen
data_Dy2YHo(Al3Rh)6
_symmetry_space_group_name_H-M   'P 1'
_cell_length_a   7.54950026
_cell_length_b   7.54842747
_cell_length_c   9.46459700
_cell_angle_alpha   90.00000000
_cell_angle_beta   90.00000000
_cell_angle_gamma   119.30423938
_symmetry_Int_Tables_number   1
_chemical_formula_structural   Dy2YHo(Al3Rh)6
_chemical_formula_sum   'Dy2 Y1 Ho1 Al18 Rh6'
_cell_volume   470.33767417
_cell_formula_units_Z   1
loop_
 _symmetry_equiv_pos_site_id
 _symmetry_equiv_pos_as_xyz
  1  'x, y, z'
loop_
 _atom_site_type_symbol
 _atom_site_label
 _atom_site_symmetry_multiplicity
 _atom_site_fract_x
 _atom_site_fract_y
 _atom_site_fract_z
 _atom_site_occupancy
  Dy  Dy0  1  0.994397  0.671710  0.250000  1
  Dy  Dy1  1  0.005729  0.328289  0.750000  1
  Y  Y2  1  0.328345  0.005834  0.750000  1
  Ho  Ho3  1  0.671826  0.994571  0.250000  1
  Al  Al4  1  0.127804  0.128051  0.250000  1
  Al  Al5  1  0.871288  0.871675  0.750000  1
  Al  Al6  1  0.000592  0.335549  0.075407  1
  Al  Al7  1  0.998845  0.664170  0.925410  1
  Al  Al8  1  0.998845  0.664170  0.574590  1
  Al  Al9  1  0.335881  0.000762  0.424205  1
  Al  Al10  1  0.000592  0.335549  0.424593  1
  Al  Al11  1  0.664614  0.999060  0.574384  1
  Al  Al12  1  0.664614  0.999060  0.925616  1
  Al  Al13  1  0.335881  0.000762  0.075795  1
  Al  Al14  1  0.332860  0.333029  0.549005  1
  Al  Al15  1  0.667143  0.667289  0.449762  1
  Al  Al16  1  0.667143  0.667289  0.050238  1
  Al  Al17  1  0.332860  0.333029  0.950995  1
  Al  Al18  1  0.339834  0.550633  0.250000  1
  Al  Al19  1  0.661004  0.450212  0.750000  1
  Al  Al20  1  0.550488  0.339746  0.250000  1
  Al  Al21  1  0.449865  0.660044  0.750000  1
  Rh  Rh22  1  0.671962  0.327885  0.000190  1
  Rh  Rh23  1  0.327975  0.672035  0.000169  1
  Rh  Rh24  1  0.327975  0.672035  0.499831  1
  Rh  Rh25  1  0.671962  0.327885  0.499810  1
  Rh  Rh26  1  0.999838  0.999842  0.000275  1
  Rh  Rh27  1  0.999838  0.999842  0.499725  1
