# generated using pymatgen
data_Ca2Zn14Rh3
_symmetry_space_group_name_H-M   'P 1'
_cell_length_a   6.84617115
_cell_length_b   6.84617139
_cell_length_c   6.84617000
_cell_angle_alpha   82.20103959
_cell_angle_beta   82.20103087
_cell_angle_gamma   82.20103893
_symmetry_Int_Tables_number   1
_chemical_formula_structural   Ca2Zn14Rh3
_chemical_formula_sum   'Ca2 Zn14 Rh3'
_cell_volume   312.71534544
_cell_formula_units_Z   1
loop_
 _symmetry_equiv_pos_site_id
 _symmetry_equiv_pos_as_xyz
  1  'x, y, z'
loop_
 _atom_site_type_symbol
 _atom_site_label
 _atom_site_symmetry_multiplicity
 _atom_site_fract_x
 _atom_site_fract_y
 _atom_site_fract_z
 _atom_site_occupancy
  Ca  Ca0  1  0.670806  0.670806  0.670806  1
  Ca  Ca1  1  0.329194  0.329194  0.329194  1
  Zn  Zn2  1  0.350545  0.350545  0.842670  1
  Zn  Zn3  1  0.842670  0.350545  0.350545  1
  Zn  Zn4  1  0.101013  0.101013  0.101013  1
  Zn  Zn5  1  0.898987  0.898987  0.898987  1
  Zn  Zn6  1  0.293882  0.706118  0.000000  1
  Zn  Zn7  1  0.706118  0.000000  0.293882  1
  Zn  Zn8  1  0.000000  0.293882  0.706118  1
  Zn  Zn9  1  0.706118  0.293882  0.000000  1
  Zn  Zn10  1  0.293882  0.000000  0.706118  1
  Zn  Zn11  1  0.000000  0.706118  0.293882  1
  Zn  Zn12  1  0.157330  0.649455  0.649455  1
  Zn  Zn13  1  0.649455  0.649455  0.157330  1
  Zn  Zn14  1  0.649455  0.157330  0.649455  1
  Zn  Zn15  1  0.350545  0.842670  0.350545  1
  Rh  Rh16  1  0.000000  0.000000  0.500000  1
  Rh  Rh17  1  0.000000  0.500000  0.000000  1
  Rh  Rh18  1  0.500000  0.000000  0.000000  1
