# generated using pymatgen
data_LuTh(InRu)2
_symmetry_space_group_name_H-M   'P 1'
_cell_length_a   3.99309400
_cell_length_b   7.24540485
_cell_length_c   9.00961087
_cell_angle_alpha   91.71529846
_cell_angle_beta   90.00000000
_cell_angle_gamma   90.00000000
_symmetry_Int_Tables_number   1
_chemical_formula_structural   LuTh(InRu)2
_chemical_formula_sum   'Lu2 Th2 In4 Ru4'
_cell_volume   260.54549950
_cell_formula_units_Z   2
loop_
 _symmetry_equiv_pos_site_id
 _symmetry_equiv_pos_as_xyz
  1  'x, y, z'
loop_
 _atom_site_type_symbol
 _atom_site_label
 _atom_site_symmetry_multiplicity
 _atom_site_fract_x
 _atom_site_fract_y
 _atom_site_fract_z
 _atom_site_occupancy
  Lu  Lu0  1  0.250000  0.533173  0.327428  1
  Lu  Lu1  1  0.750000  0.466827  0.672572  1
  Th  Th2  1  0.250000  0.030545  0.187310  1
  Th  Th3  1  0.750000  0.969455  0.812690  1
  In  In4  1  0.750000  0.368340  0.061020  1
  In  In5  1  0.250000  0.631660  0.938980  1
  In  In6  1  0.750000  0.844988  0.445697  1
  In  In7  1  0.250000  0.155012  0.554303  1
  Ru  Ru8  1  0.250000  0.752509  0.650093  1
  Ru  Ru9  1  0.750000  0.247491  0.349907  1
  Ru  Ru10  1  0.250000  0.237515  0.858998  1
  Ru  Ru11  1  0.750000  0.762485  0.141002  1
