# generated using pymatgen
data_Sc3Ta8Nb(BOs)12
_symmetry_space_group_name_H-M   'P 1'
_cell_length_a   3.13835700
_cell_length_b   9.08059596
_cell_length_c   15.85609461
_cell_angle_alpha   90.11962704
_cell_angle_beta   90.00000000
_cell_angle_gamma   90.00000000
_symmetry_Int_Tables_number   1
_chemical_formula_structural   Sc3Ta8Nb(BOs)12
_chemical_formula_sum   'Sc3 Ta8 Nb1 B12 Os12'
_cell_volume   451.86840802
_cell_formula_units_Z   1
loop_
 _symmetry_equiv_pos_site_id
 _symmetry_equiv_pos_as_xyz
  1  'x, y, z'
loop_
 _atom_site_type_symbol
 _atom_site_label
 _atom_site_symmetry_multiplicity
 _atom_site_fract_x
 _atom_site_fract_y
 _atom_site_fract_z
 _atom_site_occupancy
  Sc  Sc0  1  0.000000  0.680290  0.208468  1
  Sc  Sc1  1  0.000000  0.316996  0.792926  1
  Sc  Sc2  1  0.000000  0.180141  0.291250  1
  Ta  Ta3  1  0.000000  0.803482  0.494548  1
  Ta  Ta4  1  0.000000  0.199845  0.504593  1
  Ta  Ta5  1  0.000000  0.302345  0.005767  1
  Ta  Ta6  1  0.000000  0.697041  0.994984  1
  Ta  Ta7  1  0.000000  0.515974  0.594419  1
  Ta  Ta8  1  0.000000  0.485427  0.404930  1
  Ta  Ta9  1  0.000000  0.015467  0.906085  1
  Ta  Ta10  1  0.000000  0.984539  0.094733  1
  Nb  Nb11  1  0.000000  0.815636  0.704811  1
  B  B12  1  0.500000  0.606041  0.497148  1
  B  B13  1  0.500000  0.396210  0.503788  1
  B  B14  1  0.500000  0.104525  0.003440  1
  B  B15  1  0.500000  0.894977  0.995883  1
  B  B16  1  0.000000  0.606175  0.832954  1
  B  B17  1  0.000000  0.392368  0.169130  1
  B  B18  1  0.000000  0.110712  0.669208  1
  B  B19  1  0.000000  0.892571  0.330844  1
  B  B20  1  0.500000  0.716347  0.598881  1
  B  B21  1  0.500000  0.285707  0.401531  1
  B  B22  1  0.500000  0.215144  0.902433  1
  B  B23  1  0.500000  0.784333  0.098198  1
  Os  Os24  1  0.500000  0.720871  0.361517  1
  Os  Os25  1  0.500000  0.280336  0.639997  1
  Os  Os26  1  0.500000  0.220424  0.139073  1
  Os  Os27  1  0.500000  0.780801  0.857398  1
  Os  Os28  1  0.500000  0.515691  0.093080  1
  Os  Os29  1  0.500000  0.484275  0.905188  1
  Os  Os30  1  0.500000  0.015719  0.408181  1
  Os  Os31  1  0.500000  0.982608  0.595727  1
  Os  Os32  1  0.500000  0.569737  0.732354  1
  Os  Os33  1  0.500000  0.432954  0.267496  1
  Os  Os34  1  0.500000  0.060998  0.765678  1
  Os  Os35  1  0.500000  0.933292  0.233360  1
