# generated using pymatgen
data_LiY12Tm4Cd3Ni4
_symmetry_space_group_name_H-M   'P 1'
_cell_length_a   9.54973691
_cell_length_b   9.54973729
_cell_length_c   9.54973721
_cell_angle_alpha   59.93981630
_cell_angle_beta   59.93981631
_cell_angle_gamma   59.93982375
_symmetry_Int_Tables_number   1
_chemical_formula_structural   LiY12Tm4Cd3Ni4
_chemical_formula_sum   'Li1 Y12 Tm4 Cd3 Ni4'
_cell_volume   614.98716086
_cell_formula_units_Z   1
loop_
 _symmetry_equiv_pos_site_id
 _symmetry_equiv_pos_as_xyz
  1  'x, y, z'
loop_
 _atom_site_type_symbol
 _atom_site_label
 _atom_site_symmetry_multiplicity
 _atom_site_fract_x
 _atom_site_fract_y
 _atom_site_fract_z
 _atom_site_occupancy
  Li  Li0  1  0.820381  0.820381  0.820381  1
  Y  Y1  1  0.060459  0.442479  0.442479  1
  Y  Y2  1  0.438770  0.062640  0.062640  1
  Y  Y3  1  0.442479  0.060459  0.442479  1
  Y  Y4  1  0.062640  0.438770  0.062640  1
  Y  Y5  1  0.442479  0.442479  0.060459  1
  Y  Y6  1  0.062640  0.062640  0.438770  1
  Y  Y7  1  0.186550  0.813128  0.813128  1
  Y  Y8  1  0.812169  0.187795  0.187795  1
  Y  Y9  1  0.813128  0.186550  0.813128  1
  Y  Y10  1  0.187795  0.812169  0.187795  1
  Y  Y11  1  0.813128  0.813128  0.186550  1
  Y  Y12  1  0.187795  0.187795  0.812169  1
  Tm  Tm13  1  0.595961  0.595961  0.595961  1
  Tm  Tm14  1  0.597519  0.597519  0.207449  1
  Tm  Tm15  1  0.597519  0.207449  0.597519  1
  Tm  Tm16  1  0.207449  0.597519  0.597519  1
  Cd  Cd17  1  0.831367  0.831367  0.507080  1
  Cd  Cd18  1  0.831367  0.507080  0.831367  1
  Cd  Cd19  1  0.507080  0.831367  0.831367  1
  Ni  Ni20  1  0.395376  0.395376  0.395376  1
  Ni  Ni21  1  0.393821  0.393821  0.818305  1
  Ni  Ni22  1  0.393821  0.818305  0.393821  1
  Ni  Ni23  1  0.818305  0.393821  0.393821  1
