# generated using pymatgen
data_Tb5TmMg2(Co4P3)4
_symmetry_space_group_name_H-M   'P 1'
_cell_length_a   3.74161800
_cell_length_b   10.65280600
_cell_length_c   12.31169300
_cell_angle_alpha   89.99947119
_cell_angle_beta   90.00000000
_cell_angle_gamma   90.00000000
_symmetry_Int_Tables_number   1
_chemical_formula_structural   Tb5TmMg2(Co4P3)4
_chemical_formula_sum   'Tb5 Tm1 Mg2 Co16 P12'
_cell_volume   490.72845549
_cell_formula_units_Z   1
loop_
 _symmetry_equiv_pos_site_id
 _symmetry_equiv_pos_as_xyz
  1  'x, y, z'
loop_
 _atom_site_type_symbol
 _atom_site_label
 _atom_site_symmetry_multiplicity
 _atom_site_fract_x
 _atom_site_fract_y
 _atom_site_fract_z
 _atom_site_occupancy
  Tb  Tb0  1  0.000000  0.500053  0.525809  1
  Tb  Tb1  1  0.500000  0.999898  0.473879  1
  Tb  Tb2  1  0.500000  0.177534  0.206346  1
  Tb  Tb3  1  0.000000  0.677892  0.793636  1
  Tb  Tb4  1  0.000000  0.322046  0.793746  1
  Tm  Tm5  1  0.500000  0.822142  0.206301  1
  Mg  Mg6  1  0.500000  0.500220  0.156367  1
  Mg  Mg7  1  0.000000  0.000007  0.843694  1
  Co  Co8  1  0.500000  0.500101  0.705493  1
  Co  Co9  1  0.000000  0.998491  0.293932  1
  Co  Co10  1  0.000000  0.500496  0.989412  1
  Co  Co11  1  0.500000  0.999418  0.011480  1
  Co  Co12  1  0.500000  0.332501  0.996989  1
  Co  Co13  1  0.500000  0.668071  0.997572  1
  Co  Co14  1  0.000000  0.167055  0.003353  1
  Co  Co15  1  0.000000  0.832499  0.003749  1
  Co  Co16  1  0.500000  0.296330  0.431934  1
  Co  Co17  1  0.500000  0.703910  0.431220  1
  Co  Co18  1  0.000000  0.203512  0.567967  1
  Co  Co19  1  0.000000  0.796381  0.567510  1
  Co  Co20  1  0.500000  0.878126  0.705319  1
  Co  Co21  1  0.500000  0.121884  0.705399  1
  Co  Co22  1  0.000000  0.623004  0.293852  1
  Co  Co23  1  0.000000  0.378313  0.294670  1
  P  P24  1  0.500000  0.500200  0.886134  1
  P  P25  1  0.000000  0.998829  0.114751  1
  P  P26  1  0.500000  0.499917  0.354863  1
  P  P27  1  0.000000  0.999998  0.645051  1
  P  P28  1  0.500000  0.308889  0.615079  1
  P  P29  1  0.500000  0.691232  0.614766  1
  P  P30  1  0.000000  0.190884  0.384850  1
  P  P31  1  0.000000  0.809220  0.383530  1
  P  P32  1  0.500000  0.839165  0.893268  1
  P  P33  1  0.500000  0.160680  0.893516  1
  P  P34  1  0.000000  0.661963  0.107866  1
  P  P35  1  0.000000  0.339141  0.106699  1
