# generated using pymatgen
data_Hf2TaC2N
_symmetry_space_group_name_H-M   'P 1'
_cell_length_a   3.22660000
_cell_length_b   3.22659951
_cell_length_c   7.87989100
_cell_angle_alpha   90.00000000
_cell_angle_beta   90.00000000
_cell_angle_gamma   120.00000504
_symmetry_Int_Tables_number   1
_chemical_formula_structural   Hf2TaC2N
_chemical_formula_sum   'Hf2 Ta1 C2 N1'
_cell_volume   71.04622591
_cell_formula_units_Z   1
loop_
 _symmetry_equiv_pos_site_id
 _symmetry_equiv_pos_as_xyz
  1  'x, y, z'
loop_
 _atom_site_type_symbol
 _atom_site_label
 _atom_site_symmetry_multiplicity
 _atom_site_fract_x
 _atom_site_fract_y
 _atom_site_fract_z
 _atom_site_occupancy
  Hf  Hf0  1  0.333333  0.666667  0.674783  1
  Hf  Hf1  1  0.666667  0.333333  0.325217  1
  Ta  Ta2  1  0.000000  0.000000  0.000000  1
  C  C3  1  0.333333  0.666667  0.163440  1
  C  C4  1  0.666667  0.333333  0.836560  1
  N  N5  1  0.000000  0.000000  0.500000  1
