# generated using pymatgen
data_Ca10FeTc3N14
_symmetry_space_group_name_H-M   'P 1'
_cell_length_a   6.08681320
_cell_length_b   8.90135182
_cell_length_c   8.87821527
_cell_angle_alpha   116.16457627
_cell_angle_beta   97.30802954
_cell_angle_gamma   89.00445342
_symmetry_Int_Tables_number   1
_chemical_formula_structural   Ca10FeTc3N14
_chemical_formula_sum   'Ca10 Fe1 Tc3 N14'
_cell_volume   427.82653957
_cell_formula_units_Z   1
loop_
 _symmetry_equiv_pos_site_id
 _symmetry_equiv_pos_as_xyz
  1  'x, y, z'
loop_
 _atom_site_type_symbol
 _atom_site_label
 _atom_site_symmetry_multiplicity
 _atom_site_fract_x
 _atom_site_fract_y
 _atom_site_fract_z
 _atom_site_occupancy
  Ca  Ca0  1  0.838092  0.610898  0.317950  1
  Ca  Ca1  1  0.254172  0.979954  0.547127  1
  Ca  Ca2  1  0.712248  0.436157  0.869066  1
  Ca  Ca3  1  0.290615  0.593758  0.141838  1
  Ca  Ca4  1  0.413568  0.794490  0.932806  1
  Ca  Ca5  1  0.605708  0.205600  0.077514  1
  Ca  Ca6  1  0.157882  0.399265  0.677947  1
  Ca  Ca7  1  0.897563  0.841077  0.768516  1
  Ca  Ca8  1  0.102706  0.124021  0.235169  1
  Ca  Ca9  1  0.725213  0.002157  0.421416  1
  Fe  Fe10  1  0.878555  0.782725  0.080173  1
  Tc  Tc11  1  0.582206  0.352897  0.474537  1
  Tc  Tc12  1  0.419572  0.646199  0.526690  1
  Tc  Tc13  1  0.123612  0.218454  0.919116  1
  N  N14  1  0.515930  0.549569  0.682713  1
  N  N15  1  0.484363  0.451658  0.319130  1
  N  N16  1  0.137611  0.715504  0.551623  1
  N  N17  1  0.858988  0.275628  0.440709  1
  N  N18  1  0.407082  0.180110  0.468370  1
  N  N19  1  0.592168  0.820884  0.538160  1
  N  N20  1  0.953992  0.139487  0.712413  1
  N  N21  1  0.048813  0.855490  0.276045  1
  N  N22  1  0.236005  0.048467  0.965799  1
  N  N23  1  0.769720  0.950389  0.040084  1
  N  N24  1  0.367727  0.330935  0.906697  1
  N  N25  1  0.961347  0.360334  0.085206  1
  N  N26  1  0.028866  0.645249  0.914311  1
  N  N27  1  0.635677  0.688645  0.108875  1
