# generated using pymatgen
data_Ti12Al7Ga(PtN)4
_symmetry_space_group_name_H-M   'P 1'
_cell_length_a   8.19429780
_cell_length_b   8.18800865
_cell_length_c   8.19429700
_cell_angle_alpha   59.97458764
_cell_angle_beta   59.99999918
_cell_angle_gamma   59.97458791
_symmetry_Int_Tables_number   1
_chemical_formula_structural   Ti12Al7Ga(PtN)4
_chemical_formula_sum   'Ti12 Al7 Ga1 Pt4 N4'
_cell_volume   388.61522781
_cell_formula_units_Z   1
loop_
 _symmetry_equiv_pos_site_id
 _symmetry_equiv_pos_as_xyz
  1  'x, y, z'
loop_
 _atom_site_type_symbol
 _atom_site_label
 _atom_site_symmetry_multiplicity
 _atom_site_fract_x
 _atom_site_fract_y
 _atom_site_fract_z
 _atom_site_occupancy
  Ti  Ti0  1  0.817566  0.817416  0.182509  1
  Ti  Ti1  1  0.068182  0.431441  0.432194  1
  Ti  Ti2  1  0.432878  0.067591  0.066652  1
  Ti  Ti3  1  0.066652  0.067591  0.432878  1
  Ti  Ti4  1  0.068182  0.431441  0.068182  1
  Ti  Ti5  1  0.432878  0.067591  0.432878  1
  Ti  Ti6  1  0.182509  0.817416  0.182509  1
  Ti  Ti7  1  0.182509  0.817416  0.817566  1
  Ti  Ti8  1  0.817934  0.181730  0.182402  1
  Ti  Ti9  1  0.817934  0.181730  0.817934  1
  Ti  Ti10  1  0.432194  0.431441  0.068182  1
  Ti  Ti11  1  0.182402  0.181730  0.817934  1
  Al  Al12  1  0.835515  0.835655  0.493317  1
  Al  Al13  1  0.493317  0.835655  0.835515  1
  Al  Al14  1  0.835515  0.835655  0.835515  1
  Al  Al15  1  0.756020  0.415349  0.414314  1
  Al  Al16  1  0.414314  0.415349  0.414314  1
  Al  Al17  1  0.414314  0.415349  0.756020  1
  Al  Al18  1  0.835548  0.493358  0.835548  1
  Ga  Ga19  1  0.411688  0.764935  0.411688  1
  Pt  Pt20  1  0.624762  0.125714  0.624762  1
  Pt  Pt21  1  0.626632  0.623014  0.123721  1
  Pt  Pt22  1  0.123721  0.623014  0.626632  1
  Pt  Pt23  1  0.626632  0.623014  0.626632  1
  N  N24  1  0.124913  0.625262  0.124913  1
  N  N25  1  0.125264  0.124714  0.624758  1
  N  N26  1  0.624758  0.124714  0.125264  1
  N  N27  1  0.125264  0.124714  0.125264  1
