# generated using pymatgen
data_Sc4MnAl3Os4
_symmetry_space_group_name_H-M   'P 1'
_cell_length_a   5.25188271
_cell_length_b   5.20603786
_cell_length_c   8.39577960
_cell_angle_alpha   89.99999785
_cell_angle_beta   90.86097654
_cell_angle_gamma   119.71165527
_symmetry_Int_Tables_number   1
_chemical_formula_structural   Sc4MnAl3Os4
_chemical_formula_sum   'Sc4 Mn1 Al3 Os4'
_cell_volume   199.34417162
_cell_formula_units_Z   1
loop_
 _symmetry_equiv_pos_site_id
 _symmetry_equiv_pos_as_xyz
  1  'x, y, z'
loop_
 _atom_site_type_symbol
 _atom_site_label
 _atom_site_symmetry_multiplicity
 _atom_site_fract_x
 _atom_site_fract_y
 _atom_site_fract_z
 _atom_site_occupancy
  Sc  Sc0  1  0.332766  0.674697  0.065692  1
  Sc  Sc1  1  0.664661  0.338417  0.562919  1
  Sc  Sc2  1  0.667234  0.341931  0.934308  1
  Sc  Sc3  1  0.335339  0.673757  0.437081  1
  Mn  Mn4  1  0.000000  0.981921  0.500000  1
  Al  Al5  1  0.000000  0.978268  0.000000  1
  Al  Al6  1  0.835989  0.170769  0.257542  1
  Al  Al7  1  0.164011  0.334779  0.742458  1
  Os  Os8  1  0.821560  0.656852  0.255971  1
  Os  Os9  1  0.178440  0.835291  0.744029  1
  Os  Os10  1  0.656175  0.834746  0.746883  1
  Os  Os11  1  0.343825  0.178572  0.253117  1
