# generated using pymatgen
data_Li4Ca3TbSi8
_symmetry_space_group_name_H-M   'P 1'
_cell_length_a   3.80620400
_cell_length_b   7.86694600
_cell_length_c   10.51819696
_cell_angle_alpha   89.86949018
_cell_angle_beta   90.00000000
_cell_angle_gamma   90.00000000
_symmetry_Int_Tables_number   1
_chemical_formula_structural   Li4Ca3TbSi8
_chemical_formula_sum   'Li4 Ca3 Tb1 Si8'
_cell_volume   314.94767217
_cell_formula_units_Z   1
loop_
 _symmetry_equiv_pos_site_id
 _symmetry_equiv_pos_as_xyz
  1  'x, y, z'
loop_
 _atom_site_type_symbol
 _atom_site_label
 _atom_site_symmetry_multiplicity
 _atom_site_fract_x
 _atom_site_fract_y
 _atom_site_fract_z
 _atom_site_occupancy
  Li  Li0  1  0.250000  0.997636  0.388472  1
  Li  Li1  1  0.750000  0.000725  0.610078  1
  Li  Li2  1  0.250000  0.497291  0.109305  1
  Li  Li3  1  0.750000  0.508694  0.888404  1
  Ca  Ca4  1  0.750000  0.866581  0.134904  1
  Ca  Ca5  1  0.250000  0.634588  0.637478  1
  Ca  Ca6  1  0.750000  0.363339  0.365241  1
  Tb  Tb7  1  0.250000  0.129437  0.865441  1
  Si  Si8  1  0.750000  0.267736  0.061645  1
  Si  Si9  1  0.250000  0.738614  0.932660  1
  Si  Si10  1  0.750000  0.767164  0.432200  1
  Si  Si11  1  0.250000  0.226988  0.573163  1
  Si  Si12  1  0.750000  0.841944  0.823607  1
  Si  Si13  1  0.250000  0.164450  0.170584  1
  Si  Si14  1  0.750000  0.331039  0.682144  1
  Si  Si15  1  0.250000  0.663773  0.324673  1
