# generated using pymatgen
data_Nb4TcP4Rh3
_symmetry_space_group_name_H-M   'P 1'
_cell_length_a   3.75624700
_cell_length_b   6.39291850
_cell_length_c   7.26171662
_cell_angle_alpha   90.28452464
_cell_angle_beta   90.00000000
_cell_angle_gamma   90.00000000
_symmetry_Int_Tables_number   1
_chemical_formula_structural   Nb4TcP4Rh3
_chemical_formula_sum   'Nb4 Tc1 P4 Rh3'
_cell_volume   174.37621736
_cell_formula_units_Z   1
loop_
 _symmetry_equiv_pos_site_id
 _symmetry_equiv_pos_as_xyz
  1  'x, y, z'
loop_
 _atom_site_type_symbol
 _atom_site_label
 _atom_site_symmetry_multiplicity
 _atom_site_fract_x
 _atom_site_fract_y
 _atom_site_fract_z
 _atom_site_occupancy
  Nb  Nb0  1  0.250000  0.027085  0.826073  1
  Nb  Nb1  1  0.250000  0.529534  0.667191  1
  Nb  Nb2  1  0.750000  0.975884  0.171575  1
  Nb  Nb3  1  0.750000  0.470184  0.333293  1
  Tc  Tc4  1  0.250000  0.141981  0.441204  1
  P  P5  1  0.250000  0.767327  0.374119  1
  P  P6  1  0.250000  0.262607  0.128698  1
  P  P7  1  0.750000  0.237661  0.622741  1
  P  P8  1  0.750000  0.737066  0.874553  1
  Rh  Rh9  1  0.250000  0.646134  0.061742  1
  Rh  Rh10  1  0.750000  0.852897  0.563001  1
  Rh  Rh11  1  0.750000  0.351642  0.935810  1
