# generated using pymatgen
data_YbTh3(Cu5Sn)4
_symmetry_space_group_name_H-M   'P 1'
_cell_length_a   5.07987900
_cell_length_b   8.32931802
_cell_length_c   10.60329503
_cell_angle_alpha   90.00849880
_cell_angle_beta   90.00000000
_cell_angle_gamma   90.00000000
_symmetry_Int_Tables_number   1
_chemical_formula_structural   YbTh3(Cu5Sn)4
_chemical_formula_sum   'Yb1 Th3 Cu20 Sn4'
_cell_volume   448.64584781
_cell_formula_units_Z   1
loop_
 _symmetry_equiv_pos_site_id
 _symmetry_equiv_pos_as_xyz
  1  'x, y, z'
loop_
 _atom_site_type_symbol
 _atom_site_label
 _atom_site_symmetry_multiplicity
 _atom_site_fract_x
 _atom_site_fract_y
 _atom_site_fract_z
 _atom_site_occupancy
  Yb  Yb0  1  0.750000  0.248868  0.941340  1
  Th  Th1  1  0.250000  0.748003  0.056152  1
  Th  Th2  1  0.750000  0.748420  0.560415  1
  Th  Th3  1  0.250000  0.251164  0.440778  1
  Cu  Cu4  1  0.001688  0.427294  0.186696  1
  Cu  Cu5  1  0.500974  0.571077  0.813406  1
  Cu  Cu6  1  0.499453  0.929114  0.311870  1
  Cu  Cu7  1  0.999207  0.073393  0.688834  1
  Cu  Cu8  1  0.999026  0.571077  0.813406  1
  Cu  Cu9  1  0.498312  0.427294  0.186696  1
  Cu  Cu10  1  0.500793  0.073393  0.688834  1
  Cu  Cu11  1  0.000547  0.929114  0.311870  1
  Cu  Cu12  1  0.750000  0.435373  0.396009  1
  Cu  Cu13  1  0.250000  0.566796  0.604682  1
  Cu  Cu14  1  0.750000  0.939200  0.103536  1
  Cu  Cu15  1  0.250000  0.074431  0.896258  1
  Cu  Cu16  1  0.750000  0.181699  0.256848  1
  Cu  Cu17  1  0.250000  0.822235  0.746982  1
  Cu  Cu18  1  0.750000  0.679308  0.242341  1
  Cu  Cu19  1  0.250000  0.322288  0.753713  1
  Cu  Cu20  1  0.750000  0.079466  0.483251  1
  Cu  Cu21  1  0.250000  0.918318  0.518272  1
  Cu  Cu22  1  0.750000  0.570713  0.015860  1
  Cu  Cu23  1  0.250000  0.408365  0.980756  1
  Sn  Sn24  1  0.750000  0.363217  0.643265  1
  Sn  Sn25  1  0.250000  0.637582  0.358484  1
  Sn  Sn26  1  0.750000  0.865904  0.860687  1
  Sn  Sn27  1  0.250000  0.136893  0.138762  1
