# generated using pymatgen
data_Th3Pt3S
_symmetry_space_group_name_H-M   'P 1'
_cell_length_a   7.90361421
_cell_length_b   7.90361537
_cell_length_c   7.90361570
_cell_angle_alpha   113.19042366
_cell_angle_beta   113.19042984
_cell_angle_gamma   113.19040721
_symmetry_Int_Tables_number   1
_chemical_formula_structural   Th3Pt3S
_chemical_formula_sum   'Th6 Pt6 S2'
_cell_volume   317.15785131
_cell_formula_units_Z   2
loop_
 _symmetry_equiv_pos_site_id
 _symmetry_equiv_pos_as_xyz
  1  'x, y, z'
loop_
 _atom_site_type_symbol
 _atom_site_label
 _atom_site_symmetry_multiplicity
 _atom_site_fract_x
 _atom_site_fract_y
 _atom_site_fract_z
 _atom_site_occupancy
  Th  Th0  1  0.044678  0.408607  0.285228  1
  Th  Th1  1  0.408607  0.285228  0.044678  1
  Th  Th2  1  0.714772  0.955322  0.591393  1
  Th  Th3  1  0.285228  0.044678  0.408607  1
  Th  Th4  1  0.591393  0.714772  0.955322  1
  Th  Th5  1  0.955322  0.591393  0.714772  1
  Pt  Pt6  1  0.432647  0.932937  0.763511  1
  Pt  Pt7  1  0.932937  0.763511  0.432647  1
  Pt  Pt8  1  0.236489  0.567353  0.067063  1
  Pt  Pt9  1  0.763511  0.432647  0.932937  1
  Pt  Pt10  1  0.067063  0.236489  0.567353  1
  Pt  Pt11  1  0.567353  0.067063  0.236489  1
  S  S12  1  0.000000  0.000000  0.000000  1
  S  S13  1  0.500000  0.500000  0.500000  1
