# generated using pymatgen
data_Sc4MnGa(B2Ru5)2
_symmetry_space_group_name_H-M   'P 1'
_cell_length_a   9.37430900
_cell_length_b   9.37430900
_cell_length_c   3.01830700
_cell_angle_alpha   90.00000000
_cell_angle_beta   90.00000000
_cell_angle_gamma   90.00000000
_symmetry_Int_Tables_number   1
_chemical_formula_structural   Sc4MnGa(B2Ru5)2
_chemical_formula_sum   'Sc4 Mn1 Ga1 B4 Ru10'
_cell_volume   265.24178417
_cell_formula_units_Z   1
loop_
 _symmetry_equiv_pos_site_id
 _symmetry_equiv_pos_as_xyz
  1  'x, y, z'
loop_
 _atom_site_type_symbol
 _atom_site_label
 _atom_site_symmetry_multiplicity
 _atom_site_fract_x
 _atom_site_fract_y
 _atom_site_fract_z
 _atom_site_occupancy
  Sc  Sc0  1  0.673867  0.174501  0.000000  1
  Sc  Sc1  1  0.326133  0.825499  0.000000  1
  Sc  Sc2  1  0.174501  0.326133  0.000000  1
  Sc  Sc3  1  0.825499  0.673867  0.000000  1
  Mn  Mn4  1  0.000000  0.000000  0.000000  1
  Ga  Ga5  1  0.500000  0.500000  0.000000  1
  B  B6  1  0.125388  0.622978  0.000000  1
  B  B7  1  0.874612  0.377022  0.000000  1
  B  B8  1  0.622978  0.874612  0.000000  1
  B  B9  1  0.377022  0.125388  0.000000  1
  Ru  Ru10  1  0.212059  0.070070  0.500000  1
  Ru  Ru11  1  0.787941  0.929930  0.500000  1
  Ru  Ru12  1  0.070070  0.787941  0.500000  1
  Ru  Ru13  1  0.715345  0.426889  0.500000  1
  Ru  Ru14  1  0.929930  0.212059  0.500000  1
  Ru  Ru15  1  0.284655  0.573111  0.500000  1
  Ru  Ru16  1  0.573111  0.715345  0.500000  1
  Ru  Ru17  1  0.426889  0.284655  0.500000  1
  Ru  Ru18  1  0.500000  0.000000  0.500000  1
  Ru  Ru19  1  0.000000  0.500000  0.500000  1
