# generated using pymatgen
data_NdEr5(Ni2Rh7)2
_symmetry_space_group_name_H-M   'P 1'
_cell_length_a   5.25104600
_cell_length_b   5.25104666
_cell_length_c   16.82185800
_cell_angle_alpha   90.00000000
_cell_angle_beta   90.00000000
_cell_angle_gamma   119.99999581
_symmetry_Int_Tables_number   1
_chemical_formula_structural   NdEr5(Ni2Rh7)2
_chemical_formula_sum   'Nd1 Er5 Ni4 Rh14'
_cell_volume   401.69489566
_cell_formula_units_Z   1
loop_
 _symmetry_equiv_pos_site_id
 _symmetry_equiv_pos_as_xyz
  1  'x, y, z'
loop_
 _atom_site_type_symbol
 _atom_site_label
 _atom_site_symmetry_multiplicity
 _atom_site_fract_x
 _atom_site_fract_y
 _atom_site_fract_z
 _atom_site_occupancy
  Nd  Nd0  1  0.666667  0.333333  0.250000  1
  Er  Er1  1  0.333333  0.666667  0.958931  1
  Er  Er2  1  0.666667  0.333333  0.040043  1
  Er  Er3  1  0.666667  0.333333  0.459957  1
  Er  Er4  1  0.333333  0.666667  0.541069  1
  Er  Er5  1  0.333333  0.666667  0.750000  1
  Ni  Ni6  1  0.333333  0.666667  0.250000  1
  Ni  Ni7  1  0.666667  0.333333  0.750000  1
  Ni  Ni8  1  0.000000  0.000000  0.250000  1
  Ni  Ni9  1  0.000000  0.000000  0.750000  1
  Rh  Rh10  1  0.167908  0.832092  0.371693  1
  Rh  Rh11  1  0.167908  0.335817  0.371693  1
  Rh  Rh12  1  0.664183  0.832092  0.371693  1
  Rh  Rh13  1  0.832030  0.167970  0.629348  1
  Rh  Rh14  1  0.832030  0.664060  0.629348  1
  Rh  Rh15  1  0.335940  0.167970  0.629348  1
  Rh  Rh16  1  0.832030  0.167970  0.870652  1
  Rh  Rh17  1  0.832030  0.664060  0.870652  1
  Rh  Rh18  1  0.335940  0.167970  0.870652  1
  Rh  Rh19  1  0.167908  0.832092  0.128307  1
  Rh  Rh20  1  0.167908  0.335817  0.128307  1
  Rh  Rh21  1  0.664183  0.832092  0.128307  1
  Rh  Rh22  1  0.000000  0.000000  0.500467  1
  Rh  Rh23  1  0.000000  0.000000  0.999533  1
