# generated using pymatgen
data_Ho10Zn3Os
_symmetry_space_group_name_H-M   'P 1'
_cell_length_a   9.38476700
_cell_length_b   9.38476377
_cell_length_c   9.63680800
_cell_angle_alpha   89.99990259
_cell_angle_beta   90.00021851
_cell_angle_gamma   119.99984529
_symmetry_Int_Tables_number   1
_chemical_formula_structural   Ho10Zn3Os
_chemical_formula_sum   'Ho20 Zn6 Os2'
_cell_volume   735.04064523
_cell_formula_units_Z   2
loop_
 _symmetry_equiv_pos_site_id
 _symmetry_equiv_pos_as_xyz
  1  'x, y, z'
loop_
 _atom_site_type_symbol
 _atom_site_label
 _atom_site_symmetry_multiplicity
 _atom_site_fract_x
 _atom_site_fract_y
 _atom_site_fract_z
 _atom_site_occupancy
  Ho  Ho0  1  0.000001  0.000012  0.499998  1
  Ho  Ho1  1  0.000001  0.000013  0.999999  1
  Ho  Ho2  1  0.207543  0.792463  0.442344  1
  Ho  Ho3  1  0.207540  0.415079  0.442350  1
  Ho  Ho4  1  0.584920  0.792463  0.442352  1
  Ho  Ho5  1  0.792495  0.207507  0.557612  1
  Ho  Ho6  1  0.792484  0.584973  0.557619  1
  Ho  Ho7  1  0.415016  0.207512  0.557610  1
  Ho  Ho8  1  0.792492  0.207513  0.942383  1
  Ho  Ho9  1  0.792483  0.584970  0.942376  1
  Ho  Ho10  1  0.415022  0.207514  0.942385  1
  Ho  Ho11  1  0.207542  0.792464  0.057656  1
  Ho  Ho12  1  0.207539  0.415080  0.057654  1
  Ho  Ho13  1  0.584924  0.792465  0.057652  1
  Ho  Ho14  1  0.540019  0.459983  0.250003  1
  Ho  Ho15  1  0.540020  0.080040  0.250001  1
  Ho  Ho16  1  0.919963  0.459981  0.250002  1
  Ho  Ho17  1  0.459954  0.540049  0.749997  1
  Ho  Ho18  1  0.459954  0.919909  0.750000  1
  Ho  Ho19  1  0.080094  0.540048  0.749999  1
  Zn  Zn20  1  0.886016  0.113990  0.250005  1
  Zn  Zn21  1  0.886012  0.772030  0.250005  1
  Zn  Zn22  1  0.227973  0.113991  0.250005  1
  Zn  Zn23  1  0.113989  0.886013  0.749998  1
  Zn  Zn24  1  0.113989  0.227982  0.749997  1
  Zn  Zn25  1  0.772021  0.886013  0.749997  1
  Os  Os26  1  0.333335  0.666640  0.250025  1
  Os  Os27  1  0.666657  0.333304  0.749976  1
