# generated using pymatgen
data_La2Sc3Si7Pt9
_symmetry_space_group_name_H-M   'P 1'
_cell_length_a   10.12271600
_cell_length_b   10.12271668
_cell_length_c   4.04241200
_cell_angle_alpha   90.00000000
_cell_angle_beta   90.00000000
_cell_angle_gamma   119.99999777
_symmetry_Int_Tables_number   1
_chemical_formula_structural   La2Sc3Si7Pt9
_chemical_formula_sum   'La2 Sc3 Si7 Pt9'
_cell_volume   358.72806124
_cell_formula_units_Z   1
loop_
 _symmetry_equiv_pos_site_id
 _symmetry_equiv_pos_as_xyz
  1  'x, y, z'
loop_
 _atom_site_type_symbol
 _atom_site_label
 _atom_site_symmetry_multiplicity
 _atom_site_fract_x
 _atom_site_fract_y
 _atom_site_fract_z
 _atom_site_occupancy
  La  La0  1  0.000000  0.000000  0.000000  1
  La  La1  1  0.333333  0.666667  0.500000  1
  Sc  Sc2  1  0.892195  0.451712  0.500000  1
  Sc  Sc3  1  0.559517  0.107805  0.500000  1
  Sc  Sc4  1  0.548288  0.440483  0.500000  1
  Si  Si5  1  0.251181  0.201991  0.500000  1
  Si  Si6  1  0.798009  0.049191  0.500000  1
  Si  Si7  1  0.950809  0.748819  0.500000  1
  Si  Si8  1  0.560460  0.646497  0.000000  1
  Si  Si9  1  0.353503  0.913961  0.000000  1
  Si  Si10  1  0.086039  0.439540  0.000000  1
  Si  Si11  1  0.666667  0.333333  0.000000  1
  Pt  Pt12  1  0.222589  0.937905  0.500000  1
  Pt  Pt13  1  0.062095  0.284685  0.500000  1
  Pt  Pt14  1  0.715315  0.777411  0.500000  1
  Pt  Pt15  1  0.311951  0.408396  0.000000  1
  Pt  Pt16  1  0.591604  0.903554  0.000000  1
  Pt  Pt17  1  0.096446  0.688049  0.000000  1
  Pt  Pt18  1  0.386621  0.172877  0.000000  1
  Pt  Pt19  1  0.827123  0.213744  0.000000  1
  Pt  Pt20  1  0.786256  0.613379  0.000000  1
