# generated using pymatgen
data_Cs2Pt(WO4)3
_symmetry_space_group_name_H-M   'P 1'
_cell_length_a   7.42070446
_cell_length_b   7.42049025
_cell_length_c   7.36781956
_cell_angle_alpha   89.99999915
_cell_angle_beta   59.76069943
_cell_angle_gamma   119.99904634
_symmetry_Int_Tables_number   1
_chemical_formula_structural   Cs2Pt(WO4)3
_chemical_formula_sum   'Cs2 Pt1 W3 O12'
_cell_volume   285.84306455
_cell_formula_units_Z   1
loop_
 _symmetry_equiv_pos_site_id
 _symmetry_equiv_pos_as_xyz
  1  'x, y, z'
loop_
 _atom_site_type_symbol
 _atom_site_label
 _atom_site_symmetry_multiplicity
 _atom_site_fract_x
 _atom_site_fract_y
 _atom_site_fract_z
 _atom_site_occupancy
  Cs  Cs0  1  0.255054  0.131468  0.117301  1
  Cs  Cs1  1  0.744946  0.876413  0.882699  1
  Pt  Pt2  1  0.000000  0.503701  0.000000  1
  W  W3  1  0.500023  0.003846  0.500057  1
  W  W4  1  0.499977  0.503823  0.499943  1
  W  W5  1  0.000000  0.503897  0.500000  1
  O  O6  1  0.622132  0.814828  0.436383  1
  O  O7  1  0.869757  0.438599  0.808237  1
  O  O8  1  0.256878  0.825686  0.808238  1
  O  O9  1  0.252536  0.445253  0.436377  1
  O  O10  1  0.256904  0.438575  0.808226  1
  O  O11  1  0.252536  0.814857  0.436424  1
  O  O12  1  0.377868  0.192696  0.563617  1
  O  O13  1  0.130243  0.568842  0.191763  1
  O  O14  1  0.743096  0.181670  0.191774  1
  O  O15  1  0.747464  0.562322  0.563576  1
  O  O16  1  0.743122  0.568808  0.191762  1
  O  O17  1  0.747464  0.192715  0.563623  1
