# generated using pymatgen
data_Hf4UMn6Cr
_symmetry_space_group_name_H-M   'P 1'
_cell_length_a   5.10918810
_cell_length_b   4.90215919
_cell_length_c   8.36128900
_cell_angle_alpha   90.00000000
_cell_angle_beta   90.00000000
_cell_angle_gamma   120.93920344
_symmetry_Int_Tables_number   1
_chemical_formula_structural   Hf4UMn6Cr
_chemical_formula_sum   'Hf4 U1 Mn6 Cr1'
_cell_volume   179.62000087
_cell_formula_units_Z   1
loop_
 _symmetry_equiv_pos_site_id
 _symmetry_equiv_pos_as_xyz
  1  'x, y, z'
loop_
 _atom_site_type_symbol
 _atom_site_label
 _atom_site_symmetry_multiplicity
 _atom_site_fract_x
 _atom_site_fract_y
 _atom_site_fract_z
 _atom_site_occupancy
  Hf  Hf0  1  0.337596  0.677844  0.430583  1
  Hf  Hf1  1  0.674498  0.349488  0.949979  1
  Hf  Hf2  1  0.674498  0.349488  0.550021  1
  Hf  Hf3  1  0.337596  0.677844  0.069417  1
  U  U4  1  0.138193  0.277138  0.750000  1
  Mn  Mn5  1  0.348906  0.182308  0.250000  1
  Mn  Mn6  1  0.632444  0.798460  0.750000  1
  Mn  Mn7  1  0.009161  0.020466  0.004102  1
  Mn  Mn8  1  0.009161  0.020466  0.495898  1
  Mn  Mn9  1  0.836228  0.670217  0.250000  1
  Mn  Mn10  1  0.166417  0.795175  0.750000  1
  Cr  Cr11  1  0.835302  0.181107  0.250000  1
