# generated using pymatgen
data_YEr2Si5N9O
_symmetry_space_group_name_H-M   'P 1'
_cell_length_a   4.99172900
_cell_length_b   10.67169800
_cell_length_c   16.23677700
_cell_angle_alpha   90.00000000
_cell_angle_beta   90.00000000
_cell_angle_gamma   90.00000000
_symmetry_Int_Tables_number   1
_chemical_formula_structural   YEr2Si5N9O
_chemical_formula_sum   'Y4 Er8 Si20 N36 O4'
_cell_volume   864.93675409
_cell_formula_units_Z   4
loop_
 _symmetry_equiv_pos_site_id
 _symmetry_equiv_pos_as_xyz
  1  'x, y, z'
loop_
 _atom_site_type_symbol
 _atom_site_label
 _atom_site_symmetry_multiplicity
 _atom_site_fract_x
 _atom_site_fract_y
 _atom_site_fract_z
 _atom_site_occupancy
  Y  Y0  1  0.702943  0.750000  0.795996  1
  Y  Y1  1  0.297057  0.250000  0.204004  1
  Y  Y2  1  0.297057  0.750000  0.295996  1
  Y  Y3  1  0.702943  0.250000  0.704004  1
  Er  Er4  1  0.663300  0.929027  0.600120  1
  Er  Er5  1  0.336700  0.070973  0.399880  1
  Er  Er6  1  0.336700  0.429027  0.399880  1
  Er  Er7  1  0.336700  0.570973  0.100120  1
  Er  Er8  1  0.663300  0.570973  0.600120  1
  Er  Er9  1  0.663300  0.429027  0.899880  1
  Er  Er10  1  0.663300  0.070973  0.899880  1
  Er  Er11  1  0.336700  0.929027  0.100120  1
  Si  Si12  1  0.252183  0.750000  0.669012  1
  Si  Si13  1  0.747817  0.250000  0.330988  1
  Si  Si14  1  0.747817  0.750000  0.169012  1
  Si  Si15  1  0.252183  0.250000  0.830988  1
  Si  Si16  1  0.895259  0.896992  0.423630  1
  Si  Si17  1  0.104741  0.103008  0.576370  1
  Si  Si18  1  0.104741  0.396992  0.576370  1
  Si  Si19  1  0.104741  0.603008  0.923630  1
  Si  Si20  1  0.895259  0.603008  0.423630  1
  Si  Si21  1  0.895259  0.396992  0.076370  1
  Si  Si22  1  0.895259  0.103008  0.076370  1
  Si  Si23  1  0.104741  0.896992  0.923630  1
  Si  Si24  1  0.609544  0.750000  0.972600  1
  Si  Si25  1  0.390456  0.250000  0.027400  1
  Si  Si26  1  0.390456  0.750000  0.472600  1
  Si  Si27  1  0.609544  0.250000  0.527400  1
  Si  Si28  1  0.181837  0.000000  0.750000  1
  Si  Si29  1  0.818163  0.000000  0.250000  1
  Si  Si30  1  0.818163  0.500000  0.250000  1
  Si  Si31  1  0.181837  0.500000  0.750000  1
  N  N32  1  0.974139  0.944816  0.829426  1
  N  N33  1  0.025861  0.055184  0.170574  1
  N  N34  1  0.025861  0.444816  0.170574  1
  N  N35  1  0.025861  0.555184  0.329426  1
  N  N36  1  0.974139  0.555184  0.829426  1
  N  N37  1  0.974139  0.444816  0.670574  1
  N  N38  1  0.974139  0.055184  0.670574  1
  N  N39  1  0.025861  0.944816  0.329426  1
  N  N40  1  0.942284  0.750000  0.937110  1
  N  N41  1  0.057716  0.250000  0.062890  1
  N  N42  1  0.057716  0.750000  0.437110  1
  N  N43  1  0.942284  0.250000  0.562890  1
  N  N44  1  0.409840  0.750000  0.575388  1
  N  N45  1  0.590160  0.250000  0.424612  1
  N  N46  1  0.590160  0.750000  0.075388  1
  N  N47  1  0.409840  0.250000  0.924612  1
  N  N48  1  0.449316  0.881143  0.931361  1
  N  N49  1  0.550684  0.118857  0.068639  1
  N  N50  1  0.550684  0.381143  0.068639  1
  N  N51  1  0.550684  0.618857  0.431361  1
  N  N52  1  0.449316  0.618857  0.931361  1
  N  N53  1  0.449316  0.381143  0.568639  1
  N  N54  1  0.449316  0.118857  0.568639  1
  N  N55  1  0.550684  0.881143  0.431361  1
  N  N56  1  0.000000  0.000000  0.000000  1
  N  N57  1  0.000000  0.500000  0.000000  1
  N  N58  1  0.000000  0.500000  0.500000  1
  N  N59  1  0.000000  0.000000  0.500000  1
  N  N60  1  0.391058  0.879735  0.716542  1
  N  N61  1  0.608942  0.120265  0.283458  1
  N  N62  1  0.608942  0.379735  0.283458  1
  N  N63  1  0.608942  0.620265  0.216542  1
  N  N64  1  0.391058  0.620265  0.716542  1
  N  N65  1  0.391058  0.379735  0.783458  1
  N  N66  1  0.391058  0.120265  0.783458  1
  N  N67  1  0.608942  0.879735  0.216542  1
  O  O68  1  0.917104  0.750000  0.665806  1
  O  O69  1  0.082896  0.250000  0.334194  1
  O  O70  1  0.082896  0.750000  0.165806  1
  O  O71  1  0.917104  0.250000  0.834194  1
