# generated using pymatgen
data_ErTm7Tc(B8Os)3
_symmetry_space_group_name_H-M   'P 1'
_cell_length_a   3.62554600
_cell_length_b   9.08122628
_cell_length_c   11.45740201
_cell_angle_alpha   89.95312698
_cell_angle_beta   90.00000000
_cell_angle_gamma   90.00000000
_symmetry_Int_Tables_number   1
_chemical_formula_structural   ErTm7Tc(B8Os)3
_chemical_formula_sum   'Er1 Tm7 Tc1 B24 Os3'
_cell_volume   377.22800158
_cell_formula_units_Z   1
loop_
 _symmetry_equiv_pos_site_id
 _symmetry_equiv_pos_as_xyz
  1  'x, y, z'
loop_
 _atom_site_type_symbol
 _atom_site_label
 _atom_site_symmetry_multiplicity
 _atom_site_fract_x
 _atom_site_fract_y
 _atom_site_fract_z
 _atom_site_occupancy
  Er  Er0  1  0.000000  0.323439  0.412954  1
  Tm  Tm1  1  0.000000  0.677651  0.583467  1
  Tm  Tm2  1  0.000000  0.819688  0.088225  1
  Tm  Tm3  1  0.000000  0.178225  0.914866  1
  Tm  Tm4  1  0.000000  0.942733  0.372835  1
  Tm  Tm5  1  0.000000  0.056692  0.627246  1
  Tm  Tm6  1  0.000000  0.444707  0.127894  1
  Tm  Tm7  1  0.000000  0.556587  0.872546  1
  Tc  Tc8  1  0.000000  0.637761  0.321155  1
  B  B9  1  0.500000  0.552943  0.433420  1
  B  B10  1  0.500000  0.446768  0.567011  1
  B  B11  1  0.500000  0.053422  0.066661  1
  B  B12  1  0.500000  0.946548  0.933533  1
  B  B13  1  0.500000  0.748671  0.419903  1
  B  B14  1  0.500000  0.251485  0.580213  1
  B  B15  1  0.500000  0.248829  0.079981  1
  B  B16  1  0.500000  0.751301  0.919993  1
  B  B17  1  0.500000  0.791901  0.265957  1
  B  B18  1  0.500000  0.208421  0.733994  1
  B  B19  1  0.500000  0.291510  0.233262  1
  B  B20  1  0.500000  0.708800  0.766018  1
  B  B21  1  0.500000  0.631446  0.185282  1
  B  B22  1  0.500000  0.368459  0.815132  1
  B  B23  1  0.500000  0.131155  0.314429  1
  B  B24  1  0.500000  0.868863  0.685042  1
  B  B25  1  0.500000  0.982029  0.212794  1
  B  B26  1  0.500000  0.017891  0.787487  1
  B  B27  1  0.500000  0.481838  0.287082  1
  B  B28  1  0.500000  0.517689  0.712932  1
  B  B29  1  0.500000  0.606345  0.029039  1
  B  B30  1  0.500000  0.393516  0.970384  1
  B  B31  1  0.500000  0.106461  0.470651  1
  B  B32  1  0.500000  0.894244  0.529718  1
  Os  Os33  1  0.000000  0.361993  0.679495  1
  Os  Os34  1  0.000000  0.137423  0.178035  1
  Os  Os35  1  0.000000  0.862562  0.821364  1
