# generated using pymatgen
data_Nd2Y4TaRuO14
_symmetry_space_group_name_H-M   'P 1'
_cell_length_a   6.50644609
_cell_length_b   6.50644616
_cell_length_c   7.59248402
_cell_angle_alpha   90.00697020
_cell_angle_beta   89.99303057
_cell_angle_gamma   109.43857012
_symmetry_Int_Tables_number   1
_chemical_formula_structural   Nd2Y4TaRuO14
_chemical_formula_sum   'Nd2 Y4 Ta1 Ru1 O14'
_cell_volume   303.09775352
_cell_formula_units_Z   1
loop_
 _symmetry_equiv_pos_site_id
 _symmetry_equiv_pos_as_xyz
  1  'x, y, z'
loop_
 _atom_site_type_symbol
 _atom_site_label
 _atom_site_symmetry_multiplicity
 _atom_site_fract_x
 _atom_site_fract_y
 _atom_site_fract_z
 _atom_site_occupancy
  Nd  Nd0  1  0.500000  0.500000  0.500000  1
  Nd  Nd1  1  0.500000  0.500000  0.000000  1
  Y  Y2  1  0.533989  0.999726  0.750172  1
  Y  Y3  1  0.999726  0.533989  0.249828  1
  Y  Y4  1  0.466011  0.000274  0.249828  1
  Y  Y5  1  0.000274  0.466011  0.750172  1
  Ta  Ta6  1  0.000000  0.000000  0.000000  1
  Ru  Ru7  1  0.000000  0.000000  0.500000  1
  O  O8  1  0.682429  0.930620  0.469669  1
  O  O9  1  0.930620  0.682429  0.530331  1
  O  O10  1  0.679462  0.930662  0.031001  1
  O  O11  1  0.930662  0.679462  0.968999  1
  O  O12  1  0.317571  0.069380  0.530331  1
  O  O13  1  0.069380  0.317571  0.469669  1
  O  O14  1  0.320538  0.069338  0.968999  1
  O  O15  1  0.069338  0.320538  0.031001  1
  O  O16  1  0.936516  0.063484  0.748552  1
  O  O17  1  0.063484  0.936516  0.251448  1
  O  O18  1  0.364529  0.635471  0.750179  1
  O  O19  1  0.635471  0.364529  0.249821  1
  O  O20  1  0.642038  0.357962  0.749326  1
  O  O21  1  0.357962  0.642038  0.250674  1
