# generated using pymatgen
data_Pr7NdPd24Pb
_symmetry_space_group_name_H-M   'P 1'
_cell_length_a   8.59651605
_cell_length_b   8.59651605
_cell_length_c   8.59651605
_cell_angle_alpha   89.99112188
_cell_angle_beta   90.00887812
_cell_angle_gamma   90.00887812
_symmetry_Int_Tables_number   1
_chemical_formula_structural   Pr7NdPd24Pb
_chemical_formula_sum   'Pr7 Nd1 Pd24 Pb1'
_cell_volume   635.28327177
_cell_formula_units_Z   1
loop_
 _symmetry_equiv_pos_site_id
 _symmetry_equiv_pos_as_xyz
  1  'x, y, z'
loop_
 _atom_site_type_symbol
 _atom_site_label
 _atom_site_symmetry_multiplicity
 _atom_site_fract_x
 _atom_site_fract_y
 _atom_site_fract_z
 _atom_site_occupancy
  Pr  Pr0  1  0.251882  0.251885  0.251885  1
  Pr  Pr1  1  0.748123  0.748122  0.748122  1
  Pr  Pr2  1  0.748115  0.748118  0.251885  1
  Pr  Pr3  1  0.748115  0.251885  0.748118  1
  Pr  Pr4  1  0.251878  0.251877  0.748122  1
  Pr  Pr5  1  0.251878  0.748122  0.251877  1
  Pr  Pr6  1  0.251875  0.748125  0.748125  1
  Nd  Nd7  1  0.748000  0.252000  0.252000  1
  Pd  Pd8  1  0.268823  0.499968  0.000010  1
  Pd  Pd9  1  0.731188  0.499726  0.000341  1
  Pd  Pd10  1  0.999659  0.268812  0.499726  1
  Pd  Pd11  1  0.500274  0.268812  0.000341  1
  Pd  Pd12  1  0.999990  0.731177  0.499968  1
  Pd  Pd13  1  0.500032  0.731177  0.000010  1
  Pd  Pd14  1  0.500274  0.000341  0.268812  1
  Pd  Pd15  1  0.268823  0.000010  0.499968  1
  Pd  Pd16  1  0.500032  0.000010  0.731177  1
  Pd  Pd17  1  0.731188  0.000341  0.499726  1
  Pd  Pd18  1  0.999659  0.499726  0.268812  1
  Pd  Pd19  1  0.999990  0.499968  0.731177  1
  Pd  Pd20  1  0.255564  0.499987  0.499987  1
  Pd  Pd21  1  0.744438  0.499669  0.499669  1
  Pd  Pd22  1  0.500331  0.255562  0.499669  1
  Pd  Pd23  1  0.500013  0.744436  0.499987  1
  Pd  Pd24  1  0.500331  0.499669  0.255562  1
  Pd  Pd25  1  0.500013  0.499987  0.744436  1
  Pd  Pd26  1  0.320665  0.000008  0.000008  1
  Pd  Pd27  1  0.679428  0.000268  0.000268  1
  Pd  Pd28  1  0.999732  0.320572  0.000268  1
  Pd  Pd29  1  0.999992  0.679335  0.000008  1
  Pd  Pd30  1  0.999732  0.000268  0.320572  1
  Pd  Pd31  1  0.999992  0.000008  0.679335  1
  Pb  Pb32  1  0.999970  0.000030  0.000030  1
