# generated using pymatgen
data_HoMgCuNi3
_symmetry_space_group_name_H-M   'P 1'
_cell_length_a   4.98510564
_cell_length_b   4.98510616
_cell_length_c   4.93841772
_cell_angle_alpha   59.68677393
_cell_angle_beta   59.68676947
_cell_angle_gamma   60.00000927
_symmetry_Int_Tables_number   1
_chemical_formula_structural   HoMgCuNi3
_chemical_formula_sum   'Ho1 Mg1 Cu1 Ni3'
_cell_volume   86.36726785
_cell_formula_units_Z   1
loop_
 _symmetry_equiv_pos_site_id
 _symmetry_equiv_pos_as_xyz
  1  'x, y, z'
loop_
 _atom_site_type_symbol
 _atom_site_label
 _atom_site_symmetry_multiplicity
 _atom_site_fract_x
 _atom_site_fract_y
 _atom_site_fract_z
 _atom_site_occupancy
  Ho  Ho0  1  0.001217  0.001217  0.996350  1
  Mg  Mg1  1  0.249612  0.249612  0.251164  1
  Cu  Cu2  1  0.624111  0.624111  0.127669  1
  Ni  Ni3  1  0.623569  0.127923  0.624940  1
  Ni  Ni4  1  0.127923  0.623569  0.624940  1
  Ni  Ni5  1  0.623569  0.623569  0.624940  1
