# generated using pymatgen
data_YbErTh2(Al3Re)2
_symmetry_space_group_name_H-M   'P 1'
_cell_length_a   5.56139000
_cell_length_b   5.56138998
_cell_length_c   9.01426800
_cell_angle_alpha   90.00000000
_cell_angle_beta   90.00000000
_cell_angle_gamma   120.00000010
_symmetry_Int_Tables_number   1
_chemical_formula_structural   YbErTh2(Al3Re)2
_chemical_formula_sum   'Yb1 Er1 Th2 Al6 Re2'
_cell_volume   241.45032756
_cell_formula_units_Z   1
loop_
 _symmetry_equiv_pos_site_id
 _symmetry_equiv_pos_as_xyz
  1  'x, y, z'
loop_
 _atom_site_type_symbol
 _atom_site_label
 _atom_site_symmetry_multiplicity
 _atom_site_fract_x
 _atom_site_fract_y
 _atom_site_fract_z
 _atom_site_occupancy
  Yb  Yb0  1  0.666667  0.333333  0.443537  1
  Er  Er1  1  0.333333  0.666667  0.552203  1
  Th  Th2  1  0.333333  0.666667  0.957139  1
  Th  Th3  1  0.666667  0.333333  0.043112  1
  Al  Al4  1  0.677077  0.838539  0.256457  1
  Al  Al5  1  0.161461  0.838539  0.256457  1
  Al  Al6  1  0.161461  0.322923  0.256457  1
  Al  Al7  1  0.321360  0.160680  0.744441  1
  Al  Al8  1  0.839320  0.160680  0.744441  1
  Al  Al9  1  0.839320  0.678640  0.744441  1
  Re  Re10  1  0.000000  0.000000  0.500309  1
  Re  Re11  1  0.000000  0.000000  0.001006  1
