# generated using pymatgen
data_Tb10Dy2Tc3Ni
_symmetry_space_group_name_H-M   'P 1'
_cell_length_a   6.29508926
_cell_length_b   7.33634663
_cell_length_c   9.28576020
_cell_angle_alpha   90.00326399
_cell_angle_beta   89.97634266
_cell_angle_gamma   90.15132494
_symmetry_Int_Tables_number   1
_chemical_formula_structural   Tb10Dy2Tc3Ni
_chemical_formula_sum   'Tb10 Dy2 Tc3 Ni1'
_cell_volume   428.84232983
_cell_formula_units_Z   1
loop_
 _symmetry_equiv_pos_site_id
 _symmetry_equiv_pos_as_xyz
  1  'x, y, z'
loop_
 _atom_site_type_symbol
 _atom_site_label
 _atom_site_symmetry_multiplicity
 _atom_site_fract_x
 _atom_site_fract_y
 _atom_site_fract_z
 _atom_site_occupancy
  Tb  Tb0  1  0.668185  0.324187  0.563137  1
  Tb  Tb1  1  0.833600  0.823347  0.937563  1
  Tb  Tb2  1  0.668074  0.324293  0.936843  1
  Tb  Tb3  1  0.833768  0.823527  0.562487  1
  Tb  Tb4  1  0.327803  0.677068  0.432241  1
  Tb  Tb5  1  0.164454  0.177073  0.063373  1
  Tb  Tb6  1  0.869449  0.542110  0.249968  1
  Tb  Tb7  1  0.626597  0.041671  0.250007  1
  Tb  Tb8  1  0.141958  0.455581  0.750015  1
  Tb  Tb9  1  0.370264  0.956364  0.749989  1
  Dy  Dy10  1  0.327808  0.677103  0.067729  1
  Dy  Dy11  1  0.164394  0.177045  0.436677  1
  Tc  Tc12  1  0.038887  0.887397  0.249963  1
  Tc  Tc13  1  0.458894  0.389079  0.250052  1
  Tc  Tc14  1  0.957283  0.111068  0.749899  1
  Ni  Ni15  1  0.548580  0.613085  0.750057  1
