# generated using pymatgen
data_Mg3MnBe2(B2Rh5)2
_symmetry_space_group_name_H-M   'P 1'
_cell_length_a   9.20724249
_cell_length_b   2.88592700
_cell_length_c   9.20724249
_cell_angle_alpha   90.00000000
_cell_angle_beta   89.96250078
_cell_angle_gamma   90.00000000
_symmetry_Int_Tables_number   1
_chemical_formula_structural   Mg3MnBe2(B2Rh5)2
_chemical_formula_sum   'Mg3 Mn1 Be2 B4 Rh10'
_cell_volume   244.64954429
_cell_formula_units_Z   1
loop_
 _symmetry_equiv_pos_site_id
 _symmetry_equiv_pos_as_xyz
  1  'x, y, z'
loop_
 _atom_site_type_symbol
 _atom_site_label
 _atom_site_symmetry_multiplicity
 _atom_site_fract_x
 _atom_site_fract_y
 _atom_site_fract_z
 _atom_site_occupancy
  Mg  Mg0  1  0.823724  0.000000  0.324914  1
  Mg  Mg1  1  0.175086  0.000000  0.676276  1
  Mg  Mg2  1  0.675257  0.000000  0.824743  1
  Mn  Mn3  1  0.323565  0.000000  0.176435  1
  Be  Be4  1  0.999956  0.000000  0.999574  1
  Be  Be5  1  0.500426  0.000000  0.500044  1
  B  B6  1  0.629524  0.000000  0.129634  1
  B  B7  1  0.131134  0.000000  0.368867  1
  B  B8  1  0.871126  0.000000  0.628874  1
  B  B9  1  0.370367  0.000000  0.870476  1
  Rh  Rh10  1  0.497630  0.500001  0.002370  1
  Rh  Rh11  1  0.793130  0.500001  0.070657  1
  Rh  Rh12  1  0.072727  0.500001  0.204603  1
  Rh  Rh13  1  0.565674  0.500001  0.292279  1
  Rh  Rh14  1  0.295397  0.500001  0.427273  1
  Rh  Rh15  1  0.000748  0.500001  0.499252  1
  Rh  Rh16  1  0.706905  0.500001  0.569438  1
  Rh  Rh17  1  0.429343  0.500001  0.706869  1
  Rh  Rh18  1  0.930561  0.500001  0.793094  1
  Rh  Rh19  1  0.207721  0.500001  0.934325  1
