# generated using pymatgen
data_Dy5Ge6P6Ir5Rh14
_symmetry_space_group_name_H-M   'P 1'
_cell_length_a   12.93852001
_cell_length_b   12.95501436
_cell_length_c   3.95801700
_cell_angle_alpha   90.00000000
_cell_angle_beta   90.00000000
_cell_angle_gamma   119.95289220
_symmetry_Int_Tables_number   1
_chemical_formula_structural   Dy5Ge6P6Ir5Rh14
_chemical_formula_sum   'Dy5 Ge6 P6 Ir5 Rh14'
_cell_volume   574.82645451
_cell_formula_units_Z   1
loop_
 _symmetry_equiv_pos_site_id
 _symmetry_equiv_pos_as_xyz
  1  'x, y, z'
loop_
 _atom_site_type_symbol
 _atom_site_label
 _atom_site_symmetry_multiplicity
 _atom_site_fract_x
 _atom_site_fract_y
 _atom_site_fract_z
 _atom_site_occupancy
  Dy  Dy0  1  0.333256  0.666523  0.500000  1
  Dy  Dy1  1  0.666682  0.333409  0.500000  1
  Dy  Dy2  1  0.001920  0.819421  0.000000  1
  Dy  Dy3  1  0.180957  0.183198  0.000000  1
  Dy  Dy4  1  0.817429  0.997525  0.000000  1
  Ge  Ge5  1  0.999155  0.635732  0.500000  1
  Ge  Ge6  1  0.364820  0.363043  0.500000  1
  Ge  Ge7  1  0.636535  0.001144  0.500000  1
  Ge  Ge8  1  0.520074  0.676844  0.000000  1
  Ge  Ge9  1  0.323396  0.843422  0.000000  1
  Ge  Ge10  1  0.156731  0.480588  0.000000  1
  P  P11  1  0.482879  0.176559  0.000000  1
  P  P12  1  0.693416  0.516765  0.000000  1
  P  P13  1  0.823084  0.306342  0.000000  1
  P  P14  1  0.994751  0.176091  0.500000  1
  P  P15  1  0.823739  0.817577  0.500000  1
  P  P16  1  0.182046  0.006079  0.500000  1
  Ir  Ir17  1  0.170313  0.360811  0.500000  1
  Ir  Ir18  1  0.383767  0.178612  0.500000  1
  Ir  Ir19  1  0.794961  0.616140  0.500000  1
  Ir  Ir20  1  0.821099  0.204974  0.500000  1
  Ir  Ir21  1  0.999373  0.999494  0.500000  1
  Rh  Rh22  1  0.522207  0.869632  0.000000  1
  Rh  Rh23  1  0.130860  0.652680  0.000000  1
  Rh  Rh24  1  0.347904  0.478942  0.000000  1
  Rh  Rh25  1  0.498501  0.366316  0.000000  1
  Rh  Rh26  1  0.868596  0.501794  0.000000  1
  Rh  Rh27  1  0.633020  0.131664  0.000000  1
  Rh  Rh28  1  0.007784  0.450815  0.500000  1
  Rh  Rh29  1  0.548242  0.557116  0.500000  1
  Rh  Rh30  1  0.442725  0.991992  0.500000  1
  Rh  Rh31  1  0.990404  0.270057  0.000000  1
  Rh  Rh32  1  0.729178  0.719552  0.000000  1
  Rh  Rh33  1  0.280178  0.009603  0.000000  1
  Rh  Rh34  1  0.639215  0.809112  0.500000  1
  Rh  Rh35  1  0.190806  0.830429  0.500000  1
