# generated using pymatgen
data_Tb3(GaIr)2
_symmetry_space_group_name_H-M   'P 1'
_cell_length_a   5.60287200
_cell_length_b   7.88378900
_cell_length_c   13.60772800
_cell_angle_alpha   90.00000000
_cell_angle_beta   90.00000000
_cell_angle_gamma   90.00000000
_symmetry_Int_Tables_number   1
_chemical_formula_structural   Tb3(GaIr)2
_chemical_formula_sum   'Tb12 Ga8 Ir8'
_cell_volume   601.07866487
_cell_formula_units_Z   4
loop_
 _symmetry_equiv_pos_site_id
 _symmetry_equiv_pos_as_xyz
  1  'x, y, z'
loop_
 _atom_site_type_symbol
 _atom_site_label
 _atom_site_symmetry_multiplicity
 _atom_site_fract_x
 _atom_site_fract_y
 _atom_site_fract_z
 _atom_site_occupancy
  Tb  Tb0  1  0.624773  0.264935  0.250000  1
  Tb  Tb1  1  0.375227  0.735065  0.750000  1
  Tb  Tb2  1  0.375227  0.764935  0.250000  1
  Tb  Tb3  1  0.624773  0.235065  0.750000  1
  Tb  Tb4  1  0.152036  0.399060  0.097503  1
  Tb  Tb5  1  0.847964  0.600940  0.902497  1
  Tb  Tb6  1  0.847964  0.600940  0.597503  1
  Tb  Tb7  1  0.847964  0.899060  0.402497  1
  Tb  Tb8  1  0.152036  0.399060  0.402497  1
  Tb  Tb9  1  0.152036  0.100940  0.597503  1
  Tb  Tb10  1  0.152036  0.100940  0.902497  1
  Tb  Tb11  1  0.847964  0.899060  0.097503  1
  Ga  Ga12  1  0.121351  0.110108  0.250000  1
  Ga  Ga13  1  0.878649  0.889892  0.750000  1
  Ga  Ga14  1  0.878649  0.610108  0.250000  1
  Ga  Ga15  1  0.121351  0.389892  0.750000  1
  Ga  Ga16  1  0.636919  0.250000  0.000000  1
  Ga  Ga17  1  0.363081  0.750000  0.000000  1
  Ga  Ga18  1  0.363081  0.750000  0.500000  1
  Ga  Ga19  1  0.636919  0.250000  0.500000  1
  Ir  Ir20  1  0.352657  0.036401  0.094177  1
  Ir  Ir21  1  0.647343  0.963599  0.905823  1
  Ir  Ir22  1  0.647343  0.963599  0.594177  1
  Ir  Ir23  1  0.647343  0.536401  0.405823  1
  Ir  Ir24  1  0.352657  0.036401  0.405823  1
  Ir  Ir25  1  0.352657  0.463599  0.594177  1
  Ir  Ir26  1  0.352657  0.463599  0.905823  1
  Ir  Ir27  1  0.647343  0.536401  0.094177  1
