# generated using pymatgen
data_K8Ba4HfSnSb8
_symmetry_space_group_name_H-M   'P 1'
_cell_length_a   11.22147076
_cell_length_b   11.23595320
_cell_length_c   8.55393476
_cell_angle_alpha   88.94589907
_cell_angle_beta   88.84045114
_cell_angle_gamma   119.80331731
_symmetry_Int_Tables_number   1
_chemical_formula_structural   K8Ba4HfSnSb8
_chemical_formula_sum   'K8 Ba4 Hf1 Sn1 Sb8'
_cell_volume   935.17078232
_cell_formula_units_Z   1
loop_
 _symmetry_equiv_pos_site_id
 _symmetry_equiv_pos_as_xyz
  1  'x, y, z'
loop_
 _atom_site_type_symbol
 _atom_site_label
 _atom_site_symmetry_multiplicity
 _atom_site_fract_x
 _atom_site_fract_y
 _atom_site_fract_z
 _atom_site_occupancy
  K  K0  1  0.475956  0.947799  0.381819  1
  K  K1  1  0.949966  0.476896  0.883421  1
  K  K2  1  0.864877  0.723154  0.177654  1
  K  K3  1  0.275465  0.131009  0.222681  1
  K  K4  1  0.853350  0.140031  0.198909  1
  K  K5  1  0.133708  0.283022  0.728323  1
  K  K6  1  0.714268  0.860210  0.682310  1
  K  K7  1  0.142349  0.848457  0.703611  1
  Ba  Ba8  1  0.050918  0.526603  0.389183  1
  Ba  Ba9  1  0.480405  0.526295  0.379425  1
  Ba  Ba10  1  0.529295  0.056873  0.883093  1
  Ba  Ba11  1  0.530353  0.478357  0.877333  1
  Hf  Hf12  1  0.332947  0.664660  0.994491  1
  Sn  Sn13  1  0.662823  0.331138  0.497973  1
  Sb  Sb14  1  0.656114  0.335042  0.159182  1
  Sb  Sb15  1  0.334212  0.655318  0.663992  1
  Sb  Sb16  1  0.202620  0.393757  0.119471  1
  Sb  Sb17  1  0.609071  0.801716  0.084365  1
  Sb  Sb18  1  0.201649  0.805974  0.100008  1
  Sb  Sb19  1  0.805653  0.616342  0.584864  1
  Sb  Sb20  1  0.383945  0.198251  0.622153  1
  Sb  Sb21  1  0.809867  0.198905  0.601075  1
