# generated using pymatgen
data_Sc3(Ga2Co)2
_symmetry_space_group_name_H-M   'P 1'
_cell_length_a   7.07628800
_cell_length_b   7.07628748
_cell_length_c   3.22812500
_cell_angle_alpha   90.00000000
_cell_angle_beta   90.00000000
_cell_angle_gamma   120.00001176
_symmetry_Int_Tables_number   1
_chemical_formula_structural   Sc3(Ga2Co)2
_chemical_formula_sum   'Sc3 Ga4 Co2'
_cell_volume   139.98834913
_cell_formula_units_Z   1
loop_
 _symmetry_equiv_pos_site_id
 _symmetry_equiv_pos_as_xyz
  1  'x, y, z'
loop_
 _atom_site_type_symbol
 _atom_site_label
 _atom_site_symmetry_multiplicity
 _atom_site_fract_x
 _atom_site_fract_y
 _atom_site_fract_z
 _atom_site_occupancy
  Sc  Sc0  1  0.047411  0.304808  0.500000  1
  Sc  Sc1  1  0.695192  0.742602  0.500000  1
  Sc  Sc2  1  0.257398  0.952589  0.500000  1
  Ga  Ga3  1  0.666644  0.068249  0.000000  1
  Ga  Ga4  1  0.931751  0.598395  0.000000  1
  Ga  Ga5  1  0.401605  0.333356  0.000000  1
  Ga  Ga6  1  0.333333  0.666667  0.000000  1
  Co  Co7  1  0.666667  0.333333  0.500000  1
  Co  Co8  1  0.000000  0.000000  0.000000  1
