# generated using pymatgen
data_TbZr2PtF15
_symmetry_space_group_name_H-M   'P 1'
_cell_length_a   8.18006632
_cell_length_b   8.18006524
_cell_length_c   8.14703041
_cell_angle_alpha   79.81755572
_cell_angle_beta   79.81755633
_cell_angle_gamma   99.93253996
_symmetry_Int_Tables_number   1
_chemical_formula_structural   TbZr2PtF15
_chemical_formula_sum   'Tb2 Zr4 Pt2 F30'
_cell_volume   516.29736011
_cell_formula_units_Z   2
loop_
 _symmetry_equiv_pos_site_id
 _symmetry_equiv_pos_as_xyz
  1  'x, y, z'
loop_
 _atom_site_type_symbol
 _atom_site_label
 _atom_site_symmetry_multiplicity
 _atom_site_fract_x
 _atom_site_fract_y
 _atom_site_fract_z
 _atom_site_occupancy
  Tb  Tb0  1  0.677462  0.322538  0.750000  1
  Tb  Tb1  1  0.322538  0.677462  0.250000  1
  Zr  Zr2  1  0.822930  0.754355  0.328034  1
  Zr  Zr3  1  0.245645  0.177070  0.171966  1
  Zr  Zr4  1  0.177070  0.245645  0.671966  1
  Zr  Zr5  1  0.754355  0.822930  0.828034  1
  Pt  Pt6  1  0.249564  0.750436  0.750000  1
  Pt  Pt7  1  0.750436  0.249564  0.250000  1
  F  F8  1  0.150264  0.186780  0.943750  1
  F  F9  1  0.690020  0.567161  0.845035  1
  F  F10  1  0.038864  0.658392  0.313520  1
  F  F11  1  0.658392  0.038864  0.813520  1
  F  F12  1  0.567161  0.690020  0.345035  1
  F  F13  1  0.186780  0.150264  0.443750  1
  F  F14  1  0.849736  0.813220  0.056250  1
  F  F15  1  0.309980  0.432839  0.154965  1
  F  F16  1  0.961136  0.341608  0.686480  1
  F  F17  1  0.341608  0.961136  0.186480  1
  F  F18  1  0.432839  0.309980  0.654965  1
  F  F19  1  0.813220  0.849736  0.556250  1
  F  F20  1  0.971140  0.028860  0.750000  1
  F  F21  1  0.544525  0.753626  0.025655  1
  F  F22  1  0.246374  0.455475  0.474345  1
  F  F23  1  0.455475  0.246374  0.974345  1
  F  F24  1  0.753626  0.544525  0.525655  1
  F  F25  1  0.028860  0.971140  0.250000  1
  F  F26  1  0.213912  0.725447  0.999355  1
  F  F27  1  0.226436  0.501632  0.789897  1
  F  F28  1  0.998375  0.714891  0.776778  1
  F  F29  1  0.714891  0.998375  0.276778  1
  F  F30  1  0.501632  0.226436  0.289897  1
  F  F31  1  0.725447  0.213912  0.499355  1
  F  F32  1  0.786088  0.274553  0.000645  1
  F  F33  1  0.773564  0.498368  0.210103  1
  F  F34  1  0.001625  0.285109  0.223222  1
  F  F35  1  0.285109  0.001625  0.723222  1
  F  F36  1  0.498368  0.773564  0.710103  1
  F  F37  1  0.274553  0.786088  0.500645  1
