# generated using pymatgen
data_Tb4ReRu7
_symmetry_space_group_name_H-M   'P 1'
_cell_length_a   5.25099885
_cell_length_b   5.45502815
_cell_length_c   8.95234500
_cell_angle_alpha   90.00000000
_cell_angle_beta   90.00000000
_cell_angle_gamma   121.29387445
_symmetry_Int_Tables_number   1
_chemical_formula_structural   Tb4ReRu7
_chemical_formula_sum   'Tb4 Re1 Ru7'
_cell_volume   219.12659950
_cell_formula_units_Z   1
loop_
 _symmetry_equiv_pos_site_id
 _symmetry_equiv_pos_as_xyz
  1  'x, y, z'
loop_
 _atom_site_type_symbol
 _atom_site_label
 _atom_site_symmetry_multiplicity
 _atom_site_fract_x
 _atom_site_fract_y
 _atom_site_fract_z
 _atom_site_occupancy
  Tb  Tb0  1  0.325952  0.662976  0.432283  1
  Tb  Tb1  1  0.650179  0.325089  0.565570  1
  Tb  Tb2  1  0.650179  0.325089  0.934430  1
  Tb  Tb3  1  0.325952  0.662976  0.067717  1
  Re  Re4  1  0.697488  0.848744  0.750000  1
  Ru  Ru5  1  0.971227  0.985613  0.499924  1
  Ru  Ru6  1  0.971227  0.985613  0.000076  1
  Ru  Ru7  1  0.838850  0.167027  0.250000  1
  Ru  Ru8  1  0.838850  0.671822  0.250000  1
  Ru  Ru9  1  0.364027  0.182013  0.250000  1
  Ru  Ru10  1  0.183035  0.821524  0.750000  1
  Ru  Ru11  1  0.183035  0.361512  0.750000  1
