# generated using pymatgen
data_Sr2B4Ir3Os
_symmetry_space_group_name_H-M   'P 1'
_cell_length_a   7.09096214
_cell_length_b   6.14911907
_cell_length_c   5.64502007
_cell_angle_alpha   73.77632959
_cell_angle_beta   56.37135704
_cell_angle_gamma   50.04699244
_symmetry_Int_Tables_number   1
_chemical_formula_structural   Sr2B4Ir3Os
_chemical_formula_sum   'Sr2 B4 Ir3 Os1'
_cell_volume   155.98216711
_cell_formula_units_Z   1
loop_
 _symmetry_equiv_pos_site_id
 _symmetry_equiv_pos_as_xyz
  1  'x, y, z'
loop_
 _atom_site_type_symbol
 _atom_site_label
 _atom_site_symmetry_multiplicity
 _atom_site_fract_x
 _atom_site_fract_y
 _atom_site_fract_z
 _atom_site_occupancy
  Sr  Sr0  1  0.498799  0.498799  0.501201  1
  Sr  Sr1  1  0.751568  0.751568  0.748432  1
  B  B2  1  0.823244  0.184684  0.830375  1
  B  B3  1  0.066164  0.428105  0.076238  1
  B  B4  1  0.184684  0.823244  0.161697  1
  B  B5  1  0.428105  0.066164  0.429493  1
  Ir  Ir6  1  0.381059  0.381059  0.118941  1
  Ir  Ir7  1  0.116928  0.116928  0.383072  1
  Ir  Ir8  1  0.867075  0.867075  0.132925  1
  Os  Os9  1  0.132373  0.132373  0.867627  1
