# generated using pymatgen
data_HoIn6IrBr12
_symmetry_space_group_name_H-M   'P 1'
_cell_length_a   9.21472978
_cell_length_b   9.21472888
_cell_length_c   9.21472934
_cell_angle_alpha   105.00864167
_cell_angle_beta   105.00865300
_cell_angle_gamma   105.00865587
_symmetry_Int_Tables_number   1
_chemical_formula_structural   HoIn6IrBr12
_chemical_formula_sum   'Ho1 In6 Ir1 Br12'
_cell_volume   683.93767843
_cell_formula_units_Z   1
loop_
 _symmetry_equiv_pos_site_id
 _symmetry_equiv_pos_as_xyz
  1  'x, y, z'
loop_
 _atom_site_type_symbol
 _atom_site_label
 _atom_site_symmetry_multiplicity
 _atom_site_fract_x
 _atom_site_fract_y
 _atom_site_fract_z
 _atom_site_occupancy
  Ho  Ho0  1  0.500000  0.500000  0.500000  1
  In  In1  1  0.047314  0.064136  0.310266  1
  In  In2  1  0.310266  0.047314  0.064136  1
  In  In3  1  0.064136  0.310266  0.047314  1
  In  In4  1  0.952686  0.935864  0.689734  1
  In  In5  1  0.689734  0.952686  0.935864  1
  In  In6  1  0.935864  0.689734  0.952686  1
  Ir  Ir7  1  0.000000  0.000000  0.000000  1
  Br  Br8  1  0.982707  0.559413  0.193236  1
  Br  Br9  1  0.193236  0.982707  0.559413  1
  Br  Br10  1  0.559413  0.193236  0.982707  1
  Br  Br11  1  0.017293  0.440587  0.806764  1
  Br  Br12  1  0.806764  0.017293  0.440587  1
  Br  Br13  1  0.440587  0.806764  0.017293  1
  Br  Br14  1  0.493995  0.185901  0.387967  1
  Br  Br15  1  0.387967  0.493995  0.185901  1
  Br  Br16  1  0.185901  0.387967  0.493995  1
  Br  Br17  1  0.506005  0.814099  0.612033  1
  Br  Br18  1  0.612033  0.506005  0.814099  1
  Br  Br19  1  0.814099  0.612033  0.506005  1
