# generated using pymatgen
data_LiTb15ThIn3Ir4
_symmetry_space_group_name_H-M   'P 1'
_cell_length_a   9.73180718
_cell_length_b   9.69862909
_cell_length_c   9.73180568
_cell_angle_alpha   59.98495252
_cell_angle_beta   60.04086120
_cell_angle_gamma   59.98495677
_symmetry_Int_Tables_number   1
_chemical_formula_structural   LiTb15ThIn3Ir4
_chemical_formula_sum   'Li1 Tb15 Th1 In3 Ir4'
_cell_volume   649.55712277
_cell_formula_units_Z   1
loop_
 _symmetry_equiv_pos_site_id
 _symmetry_equiv_pos_as_xyz
  1  'x, y, z'
loop_
 _atom_site_type_symbol
 _atom_site_label
 _atom_site_symmetry_multiplicity
 _atom_site_fract_x
 _atom_site_fract_y
 _atom_site_fract_z
 _atom_site_occupancy
  Li  Li0  1  0.321271  0.322782  0.321271  1
  Tb  Tb1  1  0.943875  0.939709  0.558056  1
  Tb  Tb2  1  0.940859  0.558545  0.940859  1
  Tb  Tb3  1  0.314016  0.684984  0.314016  1
  Tb  Tb4  1  0.936124  0.561644  0.564113  1
  Tb  Tb5  1  0.312223  0.309576  0.691263  1
  Tb  Tb6  1  0.098767  0.100721  0.098767  1
  Tb  Tb7  1  0.564113  0.561644  0.936124  1
  Tb  Tb8  1  0.099485  0.101423  0.700925  1
  Tb  Tb9  1  0.690725  0.307071  0.690725  1
  Tb  Tb10  1  0.689136  0.687919  0.312233  1
  Tb  Tb11  1  0.691263  0.309576  0.312223  1
  Tb  Tb12  1  0.312233  0.687919  0.689136  1
  Tb  Tb13  1  0.562252  0.935595  0.562252  1
  Tb  Tb14  1  0.700925  0.101423  0.099485  1
  Tb  Tb15  1  0.558056  0.939709  0.943875  1
  Th  Th16  1  0.096205  0.712152  0.096205  1
  In  In17  1  0.004293  0.332360  0.332996  1
  In  In18  1  0.331925  0.004991  0.331925  1
  In  In19  1  0.332996  0.332360  0.004293  1
  Ir  Ir20  1  0.892097  0.894824  0.892097  1
  Ir  Ir21  1  0.891130  0.894017  0.323671  1
  Ir  Ir22  1  0.323671  0.894017  0.891130  1
  Ir  Ir23  1  0.892363  0.325038  0.892363  1
