# generated using pymatgen
data_Gd12Al2Co3Ni
_symmetry_space_group_name_H-M   'P 1'
_cell_length_a   8.36986185
_cell_length_b   8.36986065
_cell_length_c   8.36986200
_cell_angle_alpha   107.20461371
_cell_angle_beta   109.42984734
_cell_angle_gamma   111.81201979
_symmetry_Int_Tables_number   1
_chemical_formula_structural   Gd12Al2Co3Ni
_chemical_formula_sum   'Gd12 Al2 Co3 Ni1'
_cell_volume   450.63975515
_cell_formula_units_Z   1
loop_
 _symmetry_equiv_pos_site_id
 _symmetry_equiv_pos_as_xyz
  1  'x, y, z'
loop_
 _atom_site_type_symbol
 _atom_site_label
 _atom_site_symmetry_multiplicity
 _atom_site_fract_x
 _atom_site_fract_y
 _atom_site_fract_z
 _atom_site_occupancy
  Gd  Gd0  1  0.697201  0.262136  0.959337  1
  Gd  Gd1  1  0.299970  0.739150  0.039121  1
  Gd  Gd2  1  0.697201  0.737864  0.435064  1
  Gd  Gd3  1  0.299970  0.260850  0.560821  1
  Gd  Gd4  1  0.812888  0.133271  0.323192  1
  Gd  Gd5  1  0.812888  0.489697  0.679618  1
  Gd  Gd6  1  0.189920  0.866729  0.679618  1
  Gd  Gd7  1  0.189920  0.510303  0.323192  1
  Gd  Gd8  1  0.599349  0.782463  0.816885  1
  Gd  Gd9  1  0.964078  0.784412  0.179667  1
  Gd  Gd10  1  0.034421  0.217537  0.816885  1
  Gd  Gd11  1  0.395254  0.215588  0.179667  1
  Al  Al12  1  0.493879  0.500000  0.993879  1
  Al  Al13  1  0.498774  0.000000  0.498774  1
  Co  Co14  1  0.173876  0.500000  0.673876  1
  Co  Co15  1  0.997498  0.114422  0.111919  1
  Co  Co16  1  0.997498  0.885578  0.883076  1
  Ni  Ni17  1  0.845414  0.500000  0.345414  1
