# generated using pymatgen
data_YErSi3Ir
_symmetry_space_group_name_H-M   'P 1'
_cell_length_a   8.15379512
_cell_length_b   8.16068419
_cell_length_c   7.91283300
_cell_angle_alpha   90.00000000
_cell_angle_beta   90.00000000
_cell_angle_gamma   120.02767736
_symmetry_Int_Tables_number   1
_chemical_formula_structural   YErSi3Ir
_chemical_formula_sum   'Y4 Er4 Si12 Ir4'
_cell_volume   455.85613847
_cell_formula_units_Z   4
loop_
 _symmetry_equiv_pos_site_id
 _symmetry_equiv_pos_as_xyz
  1  'x, y, z'
loop_
 _atom_site_type_symbol
 _atom_site_label
 _atom_site_symmetry_multiplicity
 _atom_site_fract_x
 _atom_site_fract_y
 _atom_site_fract_z
 _atom_site_occupancy
  Y  Y0  1  0.000199  0.000101  0.250000  1
  Y  Y1  1  0.000156  0.000075  0.750000  1
  Y  Y2  1  0.490407  0.509512  0.250000  1
  Y  Y3  1  0.490407  0.980889  0.250000  1
  Er  Er4  1  0.017372  0.508691  0.250000  1
  Er  Er5  1  0.509833  0.490127  0.750000  1
  Er  Er6  1  0.980218  0.490111  0.750000  1
  Er  Er7  1  0.509826  0.019702  0.750000  1
  Si  Si8  1  0.833347  0.166872  0.500878  1
  Si  Si9  1  0.833347  0.666474  0.500879  1
  Si  Si10  1  0.334033  0.167016  0.501235  1
  Si  Si11  1  0.833347  0.166872  0.999122  1
  Si  Si12  1  0.833347  0.666474  0.999121  1
  Si  Si13  1  0.334033  0.167016  0.998765  1
  Si  Si14  1  0.167133  0.832607  0.999251  1
  Si  Si15  1  0.665507  0.832753  0.998136  1
  Si  Si16  1  0.167133  0.334528  0.999252  1
  Si  Si17  1  0.167133  0.832607  0.500749  1
  Si  Si18  1  0.665507  0.832753  0.501864  1
  Si  Si19  1  0.167133  0.334528  0.500748  1
  Ir  Ir20  1  0.667663  0.333834  0.469724  1
  Ir  Ir21  1  0.667663  0.333834  0.030276  1
  Ir  Ir22  1  0.332629  0.666314  0.962158  1
  Ir  Ir23  1  0.332629  0.666314  0.537842  1
