# generated using pymatgen
data_HoLu7Ga3Co
_symmetry_space_group_name_H-M   'P 1'
_cell_length_a   9.82163000
_cell_length_b   9.82163079
_cell_length_c   6.77939600
_cell_angle_alpha   90.00000000
_cell_angle_beta   90.00000000
_cell_angle_gamma   119.99999734
_symmetry_Int_Tables_number   1
_chemical_formula_structural   HoLu7Ga3Co
_chemical_formula_sum   'Ho2 Lu14 Ga6 Co2'
_cell_volume   566.35510550
_cell_formula_units_Z   2
loop_
 _symmetry_equiv_pos_site_id
 _symmetry_equiv_pos_as_xyz
  1  'x, y, z'
loop_
 _atom_site_type_symbol
 _atom_site_label
 _atom_site_symmetry_multiplicity
 _atom_site_fract_x
 _atom_site_fract_y
 _atom_site_fract_z
 _atom_site_occupancy
  Ho  Ho0  1  0.000000  0.000000  0.229284  1
  Ho  Ho1  1  0.000000  0.000000  0.729284  1
  Lu  Lu2  1  0.173712  0.826288  0.509150  1
  Lu  Lu3  1  0.652576  0.826288  0.509150  1
  Lu  Lu4  1  0.173712  0.347424  0.509150  1
  Lu  Lu5  1  0.826288  0.173712  0.009150  1
  Lu  Lu6  1  0.347424  0.173712  0.009150  1
  Lu  Lu7  1  0.826288  0.652576  0.009150  1
  Lu  Lu8  1  0.333333  0.666667  0.828827  1
  Lu  Lu9  1  0.666667  0.333333  0.328827  1
  Lu  Lu10  1  0.464327  0.535673  0.207826  1
  Lu  Lu11  1  0.071344  0.535673  0.207826  1
  Lu  Lu12  1  0.464327  0.928656  0.207826  1
  Lu  Lu13  1  0.535673  0.464327  0.707826  1
  Lu  Lu14  1  0.928656  0.464327  0.707826  1
  Lu  Lu15  1  0.535673  0.071344  0.707826  1
  Ga  Ga16  1  0.163787  0.836213  0.961658  1
  Ga  Ga17  1  0.672425  0.836213  0.961658  1
  Ga  Ga18  1  0.163787  0.327575  0.961658  1
  Ga  Ga19  1  0.836213  0.163787  0.461658  1
  Ga  Ga20  1  0.327575  0.163787  0.461658  1
  Ga  Ga21  1  0.836213  0.672425  0.461658  1
  Co  Co22  1  0.333333  0.666667  0.443010  1
  Co  Co23  1  0.666667  0.333333  0.943010  1
