# generated using pymatgen
data_Yb10Zn3Cd2Os
_symmetry_space_group_name_H-M   'P 1'
_cell_length_a   9.22107705
_cell_length_b   9.22107725
_cell_length_c   9.17798860
_cell_angle_alpha   128.97833011
_cell_angle_beta   128.97833046
_cell_angle_gamma   75.39379216
_symmetry_Int_Tables_number   1
_chemical_formula_structural   Yb10Zn3Cd2Os
_chemical_formula_sum   'Yb10 Zn3 Cd2 Os1'
_cell_volume   458.12015796
_cell_formula_units_Z   1
loop_
 _symmetry_equiv_pos_site_id
 _symmetry_equiv_pos_as_xyz
  1  'x, y, z'
loop_
 _atom_site_type_symbol
 _atom_site_label
 _atom_site_symmetry_multiplicity
 _atom_site_fract_x
 _atom_site_fract_y
 _atom_site_fract_z
 _atom_site_occupancy
  Yb  Yb0  1  0.486427  0.503923  0.990350  1
  Yb  Yb1  1  0.003923  0.986427  0.990350  1
  Yb  Yb2  1  0.528232  0.028232  0.836349  1
  Yb  Yb3  1  0.180320  0.680320  0.130531  1
  Yb  Yb4  1  0.032392  0.209266  0.518781  1
  Yb  Yb5  1  0.709266  0.532392  0.518781  1
  Yb  Yb6  1  0.450212  0.950212  0.130531  1
  Yb  Yb7  1  0.808116  0.308116  0.836349  1
  Yb  Yb8  1  0.986389  0.809514  0.518781  1
  Yb  Yb9  1  0.309514  0.486389  0.518781  1
  Zn  Zn10  1  0.884212  0.384212  0.268423  1
  Zn  Zn11  1  0.619188  0.876381  0.495571  1
  Zn  Zn12  1  0.376381  0.119188  0.495571  1
  Cd  Cd13  1  0.255740  0.255740  0.011481  1
  Cd  Cd14  1  0.755740  0.755740  0.011481  1
  Os  Os15  1  0.113945  0.613945  0.727891  1
