# generated using pymatgen
data_RbIn5F12
_symmetry_space_group_name_H-M   'P 1'
_cell_length_a   8.04263561
_cell_length_b   8.04263453
_cell_length_c   14.30807100
_cell_angle_alpha   74.30205344
_cell_angle_beta   74.30205561
_cell_angle_gamma   59.87065877
_symmetry_Int_Tables_number   1
_chemical_formula_structural   RbIn5F12
_chemical_formula_sum   'Rb2 In10 F24'
_cell_volume   760.44732114
_cell_formula_units_Z   2
loop_
 _symmetry_equiv_pos_site_id
 _symmetry_equiv_pos_as_xyz
  1  'x, y, z'
loop_
 _atom_site_type_symbol
 _atom_site_label
 _atom_site_symmetry_multiplicity
 _atom_site_fract_x
 _atom_site_fract_y
 _atom_site_fract_z
 _atom_site_occupancy
  Rb  Rb0  1  0.248551  0.751449  0.750000  1
  Rb  Rb1  1  0.751449  0.248551  0.250000  1
  In  In2  1  0.500000  0.000000  0.500000  1
  In  In3  1  0.000000  0.500000  0.000000  1
  In  In4  1  0.000000  0.000000  0.500000  1
  In  In5  1  0.000000  0.000000  0.000000  1
  In  In6  1  0.500000  0.500000  0.500000  1
  In  In7  1  0.500000  0.500000  0.000000  1
  In  In8  1  0.918024  0.419043  0.739371  1
  In  In9  1  0.081976  0.580957  0.260629  1
  In  In10  1  0.580957  0.081976  0.760629  1
  In  In11  1  0.419043  0.918024  0.239371  1
  F  F12  1  0.887900  0.983331  0.649983  1
  F  F13  1  0.486889  0.972755  0.650814  1
  F  F14  1  0.300104  0.422461  0.976726  1
  F  F15  1  0.700648  0.200393  0.032098  1
  F  F16  1  0.972755  0.486889  0.150814  1
  F  F17  1  0.027245  0.513111  0.849186  1
  F  F18  1  0.513111  0.027245  0.349186  1
  F  F19  1  0.799607  0.299352  0.467902  1
  F  F20  1  0.112100  0.016669  0.350017  1
  F  F21  1  0.577539  0.699896  0.523274  1
  F  F22  1  0.392593  0.487761  0.150543  1
  F  F23  1  0.422461  0.300104  0.476726  1
  F  F24  1  0.487761  0.392593  0.650543  1
  F  F25  1  0.799308  0.932576  0.468143  1
  F  F26  1  0.200692  0.067424  0.531857  1
  F  F27  1  0.607407  0.512239  0.849457  1
  F  F28  1  0.932576  0.799308  0.968143  1
  F  F29  1  0.512239  0.607407  0.349457  1
  F  F30  1  0.699896  0.577539  0.023274  1
  F  F31  1  0.983331  0.887900  0.149983  1
  F  F32  1  0.067424  0.200692  0.031857  1
  F  F33  1  0.299352  0.799607  0.967902  1
  F  F34  1  0.016669  0.112100  0.850017  1
  F  F35  1  0.200393  0.700648  0.532098  1
