# generated using pymatgen
data_Y4Hf4Ir3Os
_symmetry_space_group_name_H-M   'P 1'
_cell_length_a   4.54371600
_cell_length_b   7.09255228
_cell_length_c   8.31468800
_cell_angle_alpha   89.96552988
_cell_angle_beta   90.00000000
_cell_angle_gamma   90.00000000
_symmetry_Int_Tables_number   1
_chemical_formula_structural   Y4Hf4Ir3Os
_chemical_formula_sum   'Y4 Hf4 Ir3 Os1'
_cell_volume   267.95360430
_cell_formula_units_Z   1
loop_
 _symmetry_equiv_pos_site_id
 _symmetry_equiv_pos_as_xyz
  1  'x, y, z'
loop_
 _atom_site_type_symbol
 _atom_site_label
 _atom_site_symmetry_multiplicity
 _atom_site_fract_x
 _atom_site_fract_y
 _atom_site_fract_z
 _atom_site_occupancy
  Y  Y0  1  0.250000  0.986461  0.323781  1
  Y  Y1  1  0.250000  0.482292  0.179459  1
  Y  Y2  1  0.750000  0.014739  0.676409  1
  Y  Y3  1  0.750000  0.515360  0.822328  1
  Hf  Hf4  1  0.250000  0.358662  0.570556  1
  Hf  Hf5  1  0.250000  0.858417  0.928162  1
  Hf  Hf6  1  0.750000  0.640729  0.428436  1
  Hf  Hf7  1  0.750000  0.141516  0.071037  1
  Ir  Ir8  1  0.250000  0.229981  0.906727  1
  Ir  Ir9  1  0.250000  0.730077  0.595166  1
  Ir  Ir10  1  0.750000  0.771438  0.092793  1
  Os  Os11  1  0.750000  0.270326  0.405147  1
