# generated using pymatgen
data_Tb2HoEr(ReB6)2
_symmetry_space_group_name_H-M   'P 1'
_cell_length_a   3.67968700
_cell_length_b   9.16639801
_cell_length_c   11.56256402
_cell_angle_alpha   90.00597584
_cell_angle_beta   90.00000000
_cell_angle_gamma   90.00000000
_symmetry_Int_Tables_number   1
_chemical_formula_structural   Tb2HoEr(ReB6)2
_chemical_formula_sum   'Tb4 Ho2 Er2 Re4 B24'
_cell_volume   389.99921876
_cell_formula_units_Z   2
loop_
 _symmetry_equiv_pos_site_id
 _symmetry_equiv_pos_as_xyz
  1  'x, y, z'
loop_
 _atom_site_type_symbol
 _atom_site_label
 _atom_site_symmetry_multiplicity
 _atom_site_fract_x
 _atom_site_fract_y
 _atom_site_fract_z
 _atom_site_occupancy
  Tb  Tb0  1  0.000000  0.323557  0.413873  1
  Tb  Tb1  1  0.000000  0.676443  0.586127  1
  Tb  Tb2  1  0.000000  0.823434  0.086052  1
  Tb  Tb3  1  0.000000  0.176566  0.913948  1
  Ho  Ho4  1  0.000000  0.943304  0.370007  1
  Ho  Ho5  1  0.000000  0.056696  0.629993  1
  Er  Er6  1  0.000000  0.443343  0.129922  1
  Er  Er7  1  0.000000  0.556657  0.870078  1
  Re  Re8  1  0.000000  0.638824  0.320292  1
  Re  Re9  1  0.000000  0.361176  0.679708  1
  Re  Re10  1  0.000000  0.139309  0.179433  1
  Re  Re11  1  0.000000  0.860691  0.820567  1
  B  B12  1  0.500000  0.553640  0.432497  1
  B  B13  1  0.500000  0.446360  0.567503  1
  B  B14  1  0.500000  0.053697  0.067462  1
  B  B15  1  0.500000  0.946303  0.932538  1
  B  B16  1  0.500000  0.749538  0.418313  1
  B  B17  1  0.500000  0.250462  0.581687  1
  B  B18  1  0.500000  0.249872  0.081676  1
  B  B19  1  0.500000  0.750128  0.918324  1
  B  B20  1  0.500000  0.792208  0.265722  1
  B  B21  1  0.500000  0.207792  0.734278  1
  B  B22  1  0.500000  0.292542  0.234183  1
  B  B23  1  0.500000  0.707458  0.765817  1
  B  B24  1  0.500000  0.630625  0.185620  1
  B  B25  1  0.500000  0.369375  0.814380  1
  B  B26  1  0.500000  0.130932  0.314199  1
  B  B27  1  0.500000  0.869068  0.685801  1
  B  B28  1  0.500000  0.982686  0.212213  1
  B  B29  1  0.500000  0.017314  0.787787  1
  B  B30  1  0.500000  0.482506  0.287589  1
  B  B31  1  0.500000  0.517494  0.712411  1
  B  B32  1  0.500000  0.599020  0.027651  1
  B  B33  1  0.500000  0.400980  0.972349  1
  B  B34  1  0.500000  0.099395  0.472261  1
  B  B35  1  0.500000  0.900605  0.527739  1
