# generated using pymatgen
data_YbDy3Pt3RhO14
_symmetry_space_group_name_H-M   'P 1'
_cell_length_a   7.26769360
_cell_length_b   7.25408208
_cell_length_c   7.26769413
_cell_angle_alpha   59.83148148
_cell_angle_beta   59.96179368
_cell_angle_gamma   59.83149012
_symmetry_Int_Tables_number   1
_chemical_formula_structural   YbDy3Pt3RhO14
_chemical_formula_sum   'Yb1 Dy3 Pt3 Rh1 O14'
_cell_volume   270.16240115
_cell_formula_units_Z   1
loop_
 _symmetry_equiv_pos_site_id
 _symmetry_equiv_pos_as_xyz
  1  'x, y, z'
loop_
 _atom_site_type_symbol
 _atom_site_label
 _atom_site_symmetry_multiplicity
 _atom_site_fract_x
 _atom_site_fract_y
 _atom_site_fract_z
 _atom_site_occupancy
  Yb  Yb0  1  0.125000  0.625000  0.125000  1
  Dy  Dy1  1  0.125000  0.125000  0.625000  1
  Dy  Dy2  1  0.625000  0.125000  0.125000  1
  Dy  Dy3  1  0.125000  0.125000  0.125000  1
  Pt  Pt4  1  0.125000  0.625000  0.625000  1
  Pt  Pt5  1  0.625000  0.125000  0.625000  1
  Pt  Pt6  1  0.625000  0.625000  0.125000  1
  Rh  Rh7  1  0.625000  0.625000  0.625000  1
  O  O8  1  0.291095  0.713766  0.705185  1
  O  O9  1  0.535124  0.965442  0.964209  1
  O  O10  1  0.711788  0.287728  0.711788  1
  O  O11  1  0.285791  0.284558  0.714876  1
  O  O12  1  0.705185  0.713766  0.291095  1
  O  O13  1  0.997626  0.006408  0.997626  1
  O  O14  1  0.287203  0.717024  0.287203  1
  O  O15  1  0.962797  0.532976  0.962797  1
  O  O16  1  0.964209  0.965442  0.535124  1
  O  O17  1  0.544815  0.536234  0.958905  1
  O  O18  1  0.252374  0.243592  0.252374  1
  O  O19  1  0.538212  0.962272  0.538212  1
  O  O20  1  0.714876  0.284558  0.285791  1
  O  O21  1  0.958905  0.536234  0.544815  1
