# generated using pymatgen
data_ErHf7Ti6Nb6Si15P
_symmetry_space_group_name_H-M   'P 1'
_cell_length_a   6.82372716
_cell_length_b   6.82602488
_cell_length_c   12.50968200
_cell_angle_alpha   89.95119887
_cell_angle_beta   89.98747234
_cell_angle_gamma   89.96324160
_symmetry_Int_Tables_number   1
_chemical_formula_structural   ErHf7Ti6Nb6Si15P
_chemical_formula_sum   'Er1 Hf7 Ti6 Nb6 Si15 P1'
_cell_volume   582.68727445
_cell_formula_units_Z   1
loop_
 _symmetry_equiv_pos_site_id
 _symmetry_equiv_pos_as_xyz
  1  'x, y, z'
loop_
 _atom_site_type_symbol
 _atom_site_label
 _atom_site_symmetry_multiplicity
 _atom_site_fract_x
 _atom_site_fract_y
 _atom_site_fract_z
 _atom_site_occupancy
  Er  Er0  1  0.997711  0.662494  0.030086  1
  Hf  Hf1  1  0.338503  0.998703  0.471631  1
  Hf  Hf2  1  0.499674  0.843037  0.718235  1
  Hf  Hf3  1  0.497097  0.158881  0.221491  1
  Hf  Hf4  1  0.839546  0.502065  0.281614  1
  Hf  Hf5  1  0.161383  0.494925  0.778502  1
  Hf  Hf6  1  0.656773  0.001608  0.968941  1
  Hf  Hf7  1  0.998635  0.339632  0.530982  1
  Ti  Ti8  1  0.499876  0.344004  0.622102  1
  Ti  Ti9  1  0.653604  0.494462  0.875591  1
  Ti  Ti10  1  0.347337  0.504262  0.379143  1
  Ti  Ti11  1  0.848170  0.997731  0.374083  1
  Ti  Ti12  1  0.005853  0.152010  0.129008  1
  Ti  Ti13  1  0.998991  0.851068  0.627081  1
  Nb  Nb14  1  0.331750  0.327585  0.999263  1
  Nb  Nb15  1  0.170154  0.831713  0.252217  1
  Nb  Nb16  1  0.830422  0.170777  0.747440  1
  Nb  Nb17  1  0.669605  0.669335  0.500274  1
  Nb  Nb18  1  0.157181  0.004377  0.867968  1
  Nb  Nb19  1  0.497266  0.651805  0.124097  1
  Si  Si20  1  0.369931  0.705808  0.923776  1
  Si  Si21  1  0.633047  0.291471  0.426281  1
  Si  Si22  1  0.708199  0.358692  0.073792  1
  Si  Si23  1  0.291641  0.633701  0.574051  1
  Si  Si24  1  0.790960  0.871789  0.180373  1
  Si  Si25  1  0.134345  0.208958  0.325924  1
  Si  Si26  1  0.861313  0.792026  0.819667  1
  Si  Si27  1  0.297528  0.957638  0.064040  1
  Si  Si28  1  0.544315  0.799041  0.316354  1
  Si  Si29  1  0.461444  0.206413  0.812749  1
  Si  Si30  1  0.795683  0.545239  0.685426  1
  Si  Si31  1  0.201946  0.452159  0.189474  1
  Si  Si32  1  0.703722  0.044131  0.561957  1
  Si  Si33  1  0.953741  0.294206  0.936781  1
  Si  Si34  1  0.043999  0.703502  0.437922  1
  P  P35  1  0.208656  0.134751  0.671683  1
