# generated using pymatgen
data_Ac2PtI2
_symmetry_space_group_name_H-M   'P 1'
_cell_length_a   12.28718164
_cell_length_b   12.28718109
_cell_length_c   12.28718033
_cell_angle_alpha   20.88944297
_cell_angle_beta   20.88943837
_cell_angle_gamma   20.88944078
_symmetry_Int_Tables_number   1
_chemical_formula_structural   Ac2PtI2
_chemical_formula_sum   'Ac2 Pt1 I2'
_cell_volume   206.51402165
_cell_formula_units_Z   1
loop_
 _symmetry_equiv_pos_site_id
 _symmetry_equiv_pos_as_xyz
  1  'x, y, z'
loop_
 _atom_site_type_symbol
 _atom_site_label
 _atom_site_symmetry_multiplicity
 _atom_site_fract_x
 _atom_site_fract_y
 _atom_site_fract_z
 _atom_site_occupancy
  Ac  Ac0  1  0.381359  0.381359  0.381359  1
  Ac  Ac1  1  0.618641  0.618641  0.618641  1
  Pt  Pt2  1  0.000000  0.000000  0.000000  1
  I  I3  1  0.221423  0.221423  0.221423  1
  I  I4  1  0.778577  0.778577  0.778577  1
