# generated using pymatgen
data_Cd3SnP6N13
_symmetry_space_group_name_H-M   'P 1'
_cell_length_a   7.29363919
_cell_length_b   7.30411649
_cell_length_c   7.30411794
_cell_angle_alpha   109.50026643
_cell_angle_beta   109.44216477
_cell_angle_gamma   109.44216803
_symmetry_Int_Tables_number   1
_chemical_formula_structural   Cd3SnP6N13
_chemical_formula_sum   'Cd3 Sn1 P6 N13'
_cell_volume   299.64940047
_cell_formula_units_Z   1
loop_
 _symmetry_equiv_pos_site_id
 _symmetry_equiv_pos_as_xyz
  1  'x, y, z'
loop_
 _atom_site_type_symbol
 _atom_site_label
 _atom_site_symmetry_multiplicity
 _atom_site_fract_x
 _atom_site_fract_y
 _atom_site_fract_z
 _atom_site_occupancy
  Cd  Cd0  1  0.998736  0.000000  0.702413  1
  Cd  Cd1  1  0.998736  0.702413  0.000000  1
  Cd  Cd2  1  0.296323  0.297587  0.297587  1
  Sn  Sn3  1  0.696877  0.000000  0.000000  1
  P  P4  1  0.248883  0.747971  0.498300  1
  P  P5  1  0.750582  0.249670  0.501700  1
  P  P6  1  0.750582  0.501700  0.249670  1
  P  P7  1  0.248883  0.498300  0.747971  1
  P  P8  1  0.500912  0.750330  0.252029  1
  P  P9  1  0.500912  0.252029  0.750330  1
  N  N10  1  0.994624  0.000000  0.000000  1
  N  N11  1  0.711811  0.277344  0.277344  1
  N  N12  1  0.280402  0.715037  0.280038  1
  N  N13  1  0.294282  0.570951  0.570951  1
  N  N14  1  0.565365  0.565001  0.284963  1
  N  N15  1  0.434467  0.722656  0.000000  1
  N  N16  1  0.000364  0.719962  0.434999  1
  N  N17  1  0.565365  0.284963  0.565001  1
  N  N18  1  0.723331  0.000000  0.429049  1
  N  N19  1  0.434467  0.000000  0.722656  1
  N  N20  1  0.723331  0.429049  0.000000  1
  N  N21  1  0.280402  0.280038  0.715037  1
  N  N22  1  0.000364  0.434999  0.719962  1
