# generated using pymatgen
data_Th10AgBi2Pb5
_symmetry_space_group_name_H-M   'P 1'
_cell_length_a   9.74950907
_cell_length_b   9.74950938
_cell_length_c   6.70373503
_cell_angle_alpha   89.99467191
_cell_angle_beta   89.99467437
_cell_angle_gamma   120.01237913
_symmetry_Int_Tables_number   1
_chemical_formula_structural   Th10AgBi2Pb5
_chemical_formula_sum   'Th10 Ag1 Bi2 Pb5'
_cell_volume   551.77089166
_cell_formula_units_Z   1
loop_
 _symmetry_equiv_pos_site_id
 _symmetry_equiv_pos_as_xyz
  1  'x, y, z'
loop_
 _atom_site_type_symbol
 _atom_site_label
 _atom_site_symmetry_multiplicity
 _atom_site_fract_x
 _atom_site_fract_y
 _atom_site_fract_z
 _atom_site_occupancy
  Th  Th0  1  0.667306  0.333175  0.500669  1
  Th  Th1  1  0.333175  0.667306  0.500669  1
  Th  Th2  1  0.333562  0.667412  0.999203  1
  Th  Th3  1  0.667412  0.333562  0.999203  1
  Th  Th4  1  0.720841  0.720841  0.254646  1
  Th  Th5  1  0.278694  0.998897  0.254416  1
  Th  Th6  1  0.998897  0.278694  0.254416  1
  Th  Th7  1  0.279359  0.279359  0.745238  1
  Th  Th8  1  0.720560  0.999919  0.745716  1
  Th  Th9  1  0.999919  0.720560  0.745716  1
  Ag  Ag10  1  0.999878  0.999878  0.500591  1
  Bi  Bi11  1  0.000092  0.000092  0.999905  1
  Bi  Bi12  1  0.378870  0.378870  0.250431  1
  Pb  Pb13  1  0.621982  0.999745  0.250830  1
  Pb  Pb14  1  0.999745  0.621982  0.250830  1
  Pb  Pb15  1  0.622384  0.622384  0.749289  1
  Pb  Pb16  1  0.377742  0.999582  0.749117  1
  Pb  Pb17  1  0.999582  0.377742  0.749117  1
