# generated using pymatgen
data_Dy9Th(Sn3N)2
_symmetry_space_group_name_H-M   'P 1'
_cell_length_a   8.98047166
_cell_length_b   8.98047186
_cell_length_c   6.44993600
_cell_angle_alpha   90.00000000
_cell_angle_beta   90.00000000
_cell_angle_gamma   120.23978434
_symmetry_Int_Tables_number   1
_chemical_formula_structural   Dy9Th(Sn3N)2
_chemical_formula_sum   'Dy9 Th1 Sn6 N2'
_cell_volume   449.39672930
_cell_formula_units_Z   1
loop_
 _symmetry_equiv_pos_site_id
 _symmetry_equiv_pos_as_xyz
  1  'x, y, z'
loop_
 _atom_site_type_symbol
 _atom_site_label
 _atom_site_symmetry_multiplicity
 _atom_site_fract_x
 _atom_site_fract_y
 _atom_site_fract_z
 _atom_site_occupancy
  Dy  Dy0  1  0.666232  0.333164  0.000972  1
  Dy  Dy1  1  0.333164  0.666232  0.000972  1
  Dy  Dy2  1  0.333164  0.666232  0.499028  1
  Dy  Dy3  1  0.666232  0.333164  0.499028  1
  Dy  Dy4  1  0.220788  0.002937  0.750000  1
  Dy  Dy5  1  0.002937  0.220788  0.750000  1
  Dy  Dy6  1  0.215317  0.215317  0.250000  1
  Dy  Dy7  1  0.784709  0.000706  0.250000  1
  Dy  Dy8  1  0.000706  0.784709  0.250000  1
  Th  Th9  1  0.785876  0.785876  0.750000  1
  Sn  Sn10  1  0.401396  0.401396  0.750000  1
  Sn  Sn11  1  0.595093  0.002768  0.750000  1
  Sn  Sn12  1  0.002768  0.595093  0.750000  1
  Sn  Sn13  1  0.596923  0.596923  0.250000  1
  Sn  Sn14  1  0.401362  0.999594  0.250000  1
  Sn  Sn15  1  0.999594  0.401362  0.250000  1
  N  N16  1  0.996870  0.996870  0.998493  1
  N  N17  1  0.996870  0.996870  0.501507  1
