# generated using pymatgen
data_Y6Lu14CdIn5Ru2
_symmetry_space_group_name_H-M   'P 1'
_cell_length_a   9.64656914
_cell_length_b   9.70313071
_cell_length_c   9.48936000
_cell_angle_alpha   90.00000000
_cell_angle_beta   90.00000000
_cell_angle_gamma   120.19415642
_symmetry_Int_Tables_number   1
_chemical_formula_structural   Y6Lu14CdIn5Ru2
_chemical_formula_sum   'Y6 Lu14 Cd1 In5 Ru2'
_cell_volume   767.71374080
_cell_formula_units_Z   1
loop_
 _symmetry_equiv_pos_site_id
 _symmetry_equiv_pos_as_xyz
  1  'x, y, z'
loop_
 _atom_site_type_symbol
 _atom_site_label
 _atom_site_symmetry_multiplicity
 _atom_site_fract_x
 _atom_site_fract_y
 _atom_site_fract_z
 _atom_site_occupancy
  Y  Y0  1  0.539711  0.461746  0.250000  1
  Y  Y1  1  0.539711  0.077967  0.250000  1
  Y  Y2  1  0.925139  0.462569  0.250000  1
  Y  Y3  1  0.463184  0.540341  0.750000  1
  Y  Y4  1  0.463184  0.922842  0.750000  1
  Y  Y5  1  0.079507  0.539753  0.750000  1
  Lu  Lu6  1  0.995776  0.997888  0.501967  1
  Lu  Lu7  1  0.995776  0.997888  0.998033  1
  Lu  Lu8  1  0.211892  0.789436  0.439571  1
  Lu  Lu9  1  0.211892  0.422457  0.439571  1
  Lu  Lu10  1  0.578556  0.789279  0.438082  1
  Lu  Lu11  1  0.789136  0.212233  0.560573  1
  Lu  Lu12  1  0.789136  0.576903  0.560573  1
  Lu  Lu13  1  0.420439  0.210219  0.561815  1
  Lu  Lu14  1  0.789136  0.212233  0.939427  1
  Lu  Lu15  1  0.789136  0.576903  0.939427  1
  Lu  Lu16  1  0.420439  0.210219  0.938185  1
  Lu  Lu17  1  0.211892  0.789436  0.060429  1
  Lu  Lu18  1  0.211892  0.422457  0.060429  1
  Lu  Lu19  1  0.578556  0.789279  0.061918  1
  Cd  Cd20  1  0.767948  0.883974  0.750000  1
  In  In21  1  0.885820  0.118886  0.250000  1
  In  In22  1  0.885820  0.766934  0.250000  1
  In  In23  1  0.230108  0.115054  0.250000  1
  In  In24  1  0.113995  0.880895  0.750000  1
  In  In25  1  0.113995  0.233099  0.750000  1
  Ru  Ru26  1  0.332447  0.666224  0.250000  1
  Ru  Ru27  1  0.665775  0.332888  0.750000  1
