# generated using pymatgen
data_Eu12PaGa7Ir8
_symmetry_space_group_name_H-M   'P 1'
_cell_length_a   5.85472400
_cell_length_b   7.98436061
_cell_length_c   13.85816800
_cell_angle_alpha   90.02238912
_cell_angle_beta   90.00000000
_cell_angle_gamma   90.00000000
_symmetry_Int_Tables_number   1
_chemical_formula_structural   Eu12PaGa7Ir8
_chemical_formula_sum   'Eu12 Pa1 Ga7 Ir8'
_cell_volume   647.81702717
_cell_formula_units_Z   1
loop_
 _symmetry_equiv_pos_site_id
 _symmetry_equiv_pos_as_xyz
  1  'x, y, z'
loop_
 _atom_site_type_symbol
 _atom_site_label
 _atom_site_symmetry_multiplicity
 _atom_site_fract_x
 _atom_site_fract_y
 _atom_site_fract_z
 _atom_site_occupancy
  Eu  Eu0  1  0.135425  0.618439  0.101615  1
  Eu  Eu1  1  0.135425  0.881561  0.898385  1
  Eu  Eu2  1  0.855350  0.105243  0.406065  1
  Eu  Eu3  1  0.855350  0.394757  0.593935  1
  Eu  Eu4  1  0.858543  0.402591  0.896247  1
  Eu  Eu5  1  0.858543  0.097409  0.103753  1
  Eu  Eu6  1  0.143759  0.894329  0.596346  1
  Eu  Eu7  1  0.143759  0.605671  0.403654  1
  Eu  Eu8  1  0.374613  0.259594  0.259375  1
  Eu  Eu9  1  0.374613  0.240406  0.740625  1
  Eu  Eu10  1  0.628979  0.755448  0.256875  1
  Eu  Eu11  1  0.628979  0.744552  0.743125  1
  Pa  Pa12  1  0.368920  0.250000  0.000000  1
  Ga  Ga13  1  0.614387  0.750000  0.500000  1
  Ga  Ga14  1  0.622960  0.750000  0.000000  1
  Ga  Ga15  1  0.384109  0.250000  0.500000  1
  Ga  Ga16  1  0.856075  0.402923  0.249718  1
  Ga  Ga17  1  0.856075  0.097077  0.750282  1
  Ga  Ga18  1  0.148436  0.910582  0.255447  1
  Ga  Ga19  1  0.148436  0.589418  0.744553  1
  Ir  Ir20  1  0.634450  0.467432  0.093020  1
  Ir  Ir21  1  0.634450  0.032568  0.906980  1
  Ir  Ir22  1  0.364976  0.971552  0.409009  1
  Ir  Ir23  1  0.364976  0.528448  0.590991  1
  Ir  Ir24  1  0.366480  0.528997  0.905121  1
  Ir  Ir25  1  0.366480  0.971003  0.094879  1
  Ir  Ir26  1  0.637728  0.029076  0.594811  1
  Ir  Ir27  1  0.637728  0.470924  0.405189  1
