# generated using pymatgen
data_MnHg3(OF3)2
_symmetry_space_group_name_H-M   'P 1'
_cell_length_a   6.92168400
_cell_length_b   6.92169800
_cell_length_c   5.01407100
_cell_angle_alpha   90.00007638
_cell_angle_beta   90.00013478
_cell_angle_gamma   120.00014583
_symmetry_Int_Tables_number   1
_chemical_formula_structural   MnHg3(OF3)2
_chemical_formula_sum   'Mn1 Hg3 O2 F6'
_cell_volume   208.03906253
_cell_formula_units_Z   1
loop_
 _symmetry_equiv_pos_site_id
 _symmetry_equiv_pos_as_xyz
  1  'x, y, z'
loop_
 _atom_site_type_symbol
 _atom_site_label
 _atom_site_symmetry_multiplicity
 _atom_site_fract_x
 _atom_site_fract_y
 _atom_site_fract_z
 _atom_site_occupancy
  Mn  Mn0  1  0.000000  0.000000  0.499997  1
  Hg  Hg1  1  0.500000  0.000000  0.000000  1
  Hg  Hg2  1  0.999999  0.500000  0.000000  1
  Hg  Hg3  1  0.500000  0.500000  0.000000  1
  O  O4  1  0.666667  0.333334  0.120069  1
  O  O5  1  0.333333  0.666666  0.879933  1
  F  F6  1  0.127295  0.254590  0.289317  1
  F  F7  1  0.127294  0.872706  0.289317  1
  F  F8  1  0.745412  0.872707  0.289318  1
  F  F9  1  0.254589  0.127293  0.710682  1
  F  F10  1  0.872706  0.127294  0.710683  1
  F  F11  1  0.872704  0.745409  0.710684  1
