# generated using pymatgen
data_Hf8TaNbGe6C
_symmetry_space_group_name_H-M   'P 1'
_cell_length_a   7.91043900
_cell_length_b   7.91043864
_cell_length_c   5.53602600
_cell_angle_alpha   90.00000000
_cell_angle_beta   90.00000000
_cell_angle_gamma   119.99999733
_symmetry_Int_Tables_number   1
_chemical_formula_structural   Hf8TaNbGe6C
_chemical_formula_sum   'Hf8 Ta1 Nb1 Ge6 C1'
_cell_volume   300.00598336
_cell_formula_units_Z   1
loop_
 _symmetry_equiv_pos_site_id
 _symmetry_equiv_pos_as_xyz
  1  'x, y, z'
loop_
 _atom_site_type_symbol
 _atom_site_label
 _atom_site_symmetry_multiplicity
 _atom_site_fract_x
 _atom_site_fract_y
 _atom_site_fract_z
 _atom_site_occupancy
  Hf  Hf0  1  0.999809  0.758367  0.259340  1
  Hf  Hf1  1  0.241633  0.241443  0.259340  1
  Hf  Hf2  1  0.758557  0.000191  0.259340  1
  Hf  Hf3  1  0.999809  0.241443  0.740660  1
  Hf  Hf4  1  0.758557  0.758367  0.740660  1
  Hf  Hf5  1  0.241633  0.000191  0.740660  1
  Hf  Hf6  1  0.333333  0.666667  0.000000  1
  Hf  Hf7  1  0.666667  0.333333  0.000000  1
  Ta  Ta8  1  0.666667  0.333333  0.500000  1
  Nb  Nb9  1  0.333333  0.666667  0.500000  1
  Ge  Ge10  1  0.999882  0.398993  0.252369  1
  Ge  Ge11  1  0.601007  0.600889  0.252369  1
  Ge  Ge12  1  0.399111  0.000118  0.252369  1
  Ge  Ge13  1  0.999882  0.600889  0.747631  1
  Ge  Ge14  1  0.399111  0.398993  0.747631  1
  Ge  Ge15  1  0.601007  0.000118  0.747631  1
  C  C16  1  0.000000  0.000000  0.500000  1
