# generated using pymatgen
data_Li3Ce4AlPt4
_symmetry_space_group_name_H-M   'P 1'
_cell_length_a   4.12977900
_cell_length_b   7.14208343
_cell_length_c   8.43345733
_cell_angle_alpha   89.16496473
_cell_angle_beta   90.00000000
_cell_angle_gamma   90.00000000
_symmetry_Int_Tables_number   1
_chemical_formula_structural   Li3Ce4AlPt4
_chemical_formula_sum   'Li3 Ce4 Al1 Pt4'
_cell_volume   248.72031419
_cell_formula_units_Z   1
loop_
 _symmetry_equiv_pos_site_id
 _symmetry_equiv_pos_as_xyz
  1  'x, y, z'
loop_
 _atom_site_type_symbol
 _atom_site_label
 _atom_site_symmetry_multiplicity
 _atom_site_fract_x
 _atom_site_fract_y
 _atom_site_fract_z
 _atom_site_occupancy
  Li  Li0  1  0.250000  0.631699  0.439302  1
  Li  Li1  1  0.250000  0.126957  0.059896  1
  Li  Li2  1  0.750000  0.375470  0.559282  1
  Ce  Ce3  1  0.750000  0.457614  0.187578  1
  Ce  Ce4  1  0.250000  0.044512  0.688553  1
  Ce  Ce5  1  0.750000  0.956073  0.311414  1
  Ce  Ce6  1  0.250000  0.540509  0.810624  1
  Al  Al7  1  0.750000  0.868372  0.941577  1
  Pt  Pt8  1  0.250000  0.752370  0.109532  1
  Pt  Pt9  1  0.250000  0.245178  0.377617  1
  Pt  Pt10  1  0.750000  0.758785  0.632146  1
  Pt  Pt11  1  0.750000  0.242461  0.882479  1
