# generated using pymatgen
data_Y4Er3Tm(Si3Rh)4
_symmetry_space_group_name_H-M   'P 1'
_cell_length_a   8.15831700
_cell_length_b   8.16325268
_cell_length_c   7.87342600
_cell_angle_alpha   90.00000000
_cell_angle_beta   90.00000000
_cell_angle_gamma   120.01555930
_symmetry_Int_Tables_number   1
_chemical_formula_structural   Y4Er3Tm(Si3Rh)4
_chemical_formula_sum   'Y4 Er3 Tm1 Si12 Rh4'
_cell_volume   454.03578663
_cell_formula_units_Z   1
loop_
 _symmetry_equiv_pos_site_id
 _symmetry_equiv_pos_as_xyz
  1  'x, y, z'
loop_
 _atom_site_type_symbol
 _atom_site_label
 _atom_site_symmetry_multiplicity
 _atom_site_fract_x
 _atom_site_fract_y
 _atom_site_fract_z
 _atom_site_occupancy
  Y  Y0  1  0.000161  0.000093  0.250000  1
  Y  Y1  1  0.000092  0.000036  0.750000  1
  Y  Y2  1  0.491087  0.508770  0.250000  1
  Y  Y3  1  0.491090  0.982314  0.250000  1
  Er  Er4  1  0.015678  0.507839  0.250000  1
  Er  Er5  1  0.981921  0.490978  0.750000  1
  Er  Er6  1  0.508967  0.018061  0.750000  1
  Tm  Tm7  1  0.508962  0.490942  0.750000  1
  Si  Si8  1  0.833126  0.167016  0.501304  1
  Si  Si9  1  0.833086  0.666087  0.501340  1
  Si  Si10  1  0.334294  0.167177  0.501694  1
  Si  Si11  1  0.833126  0.167016  0.998696  1
  Si  Si12  1  0.833086  0.666087  0.998660  1
  Si  Si13  1  0.334294  0.167177  0.998306  1
  Si  Si14  1  0.167213  0.832405  0.999597  1
  Si  Si15  1  0.665296  0.832628  0.998464  1
  Si  Si16  1  0.167242  0.334825  0.999586  1
  Si  Si17  1  0.167213  0.832405  0.500403  1
  Si  Si18  1  0.665296  0.832628  0.501536  1
  Si  Si19  1  0.167242  0.334825  0.500414  1
  Rh  Rh20  1  0.667839  0.333956  0.469723  1
  Rh  Rh21  1  0.667839  0.333956  0.030277  1
  Rh  Rh22  1  0.332925  0.666392  0.962058  1
  Rh  Rh23  1  0.332925  0.666392  0.537942  1
