# generated using pymatgen
data_Dy4Ti3AlIr4
_symmetry_space_group_name_H-M   'P 1'
_cell_length_a   4.32517100
_cell_length_b   6.95226839
_cell_length_c   7.98287664
_cell_angle_alpha   92.90286493
_cell_angle_beta   90.00000000
_cell_angle_gamma   90.00000000
_symmetry_Int_Tables_number   1
_chemical_formula_structural   Dy4Ti3AlIr4
_chemical_formula_sum   'Dy4 Ti3 Al1 Ir4'
_cell_volume   239.73508485
_cell_formula_units_Z   1
loop_
 _symmetry_equiv_pos_site_id
 _symmetry_equiv_pos_as_xyz
  1  'x, y, z'
loop_
 _atom_site_type_symbol
 _atom_site_label
 _atom_site_symmetry_multiplicity
 _atom_site_fract_x
 _atom_site_fract_y
 _atom_site_fract_z
 _atom_site_occupancy
  Dy  Dy0  1  0.250000  0.980428  0.315750  1
  Dy  Dy1  1  0.250000  0.472381  0.173980  1
  Dy  Dy2  1  0.750000  0.026754  0.686718  1
  Dy  Dy3  1  0.750000  0.514272  0.824257  1
  Ti  Ti4  1  0.250000  0.365841  0.568551  1
  Ti  Ti5  1  0.250000  0.865722  0.939236  1
  Ti  Ti6  1  0.750000  0.633853  0.431853  1
  Al  Al7  1  0.750000  0.143970  0.069228  1
  Ir  Ir8  1  0.250000  0.222564  0.880966  1
  Ir  Ir9  1  0.250000  0.725576  0.599420  1
  Ir  Ir10  1  0.750000  0.771980  0.109907  1
  Ir  Ir11  1  0.750000  0.276658  0.400134  1
