# generated using pymatgen
data_Sc5Zn(SnRu2)6
_symmetry_space_group_name_H-M   'P 1'
_cell_length_a   4.51801900
_cell_length_b   6.42766100
_cell_length_c   13.57274500
_cell_angle_alpha   90.00031665
_cell_angle_beta   89.99935367
_cell_angle_gamma   90.00191760
_symmetry_Int_Tables_number   1
_chemical_formula_structural   Sc5Zn(SnRu2)6
_chemical_formula_sum   'Sc5 Zn1 Sn6 Ru12'
_cell_volume   394.15651217
_cell_formula_units_Z   1
loop_
 _symmetry_equiv_pos_site_id
 _symmetry_equiv_pos_as_xyz
  1  'x, y, z'
loop_
 _atom_site_type_symbol
 _atom_site_label
 _atom_site_symmetry_multiplicity
 _atom_site_fract_x
 _atom_site_fract_y
 _atom_site_fract_z
 _atom_site_occupancy
  Sc  Sc0  1  0.499883  0.500354  0.163023  1
  Sc  Sc1  1  0.999903  0.999835  0.333968  1
  Sc  Sc2  1  0.500024  0.500141  0.499944  1
  Sc  Sc3  1  0.000090  0.999824  0.665985  1
  Sc  Sc4  1  0.500116  0.500371  0.837024  1
  Zn  Zn5  1  0.999997  0.999800  0.000019  1
  Sn  Sn6  1  0.999996  0.500295  0.000024  1
  Sn  Sn7  1  0.499904  0.999860  0.170851  1
  Sn  Sn8  1  0.999970  0.500082  0.329797  1
  Sn  Sn9  1  0.499996  0.999804  0.499999  1
  Sn  Sn10  1  0.000029  0.500093  0.670191  1
  Sn  Sn11  1  0.500097  0.999816  0.829144  1
  Ru  Ru12  1  0.499891  0.227763  0.999996  1
  Ru  Ru13  1  0.500105  0.772110  0.999999  1
  Ru  Ru14  1  0.999870  0.242972  0.161583  1
  Ru  Ru15  1  0.999867  0.757025  0.161594  1
  Ru  Ru16  1  0.499889  0.251945  0.332283  1
  Ru  Ru17  1  0.499937  0.747989  0.332284  1
  Ru  Ru18  1  0.000065  0.251536  0.500004  1
  Ru  Ru19  1  0.999932  0.748425  0.500004  1
  Ru  Ru20  1  0.500057  0.251974  0.667724  1
  Ru  Ru21  1  0.500112  0.747984  0.667723  1
  Ru  Ru22  1  0.000141  0.242932  0.838421  1
  Ru  Ru23  1  0.000125  0.757078  0.838416  1
