# generated using pymatgen
data_Tm3Sc3FeSb2
_symmetry_space_group_name_H-M   'P 1'
_cell_length_a   7.80642334
_cell_length_b   7.80989268
_cell_length_c   4.10115900
_cell_angle_alpha   90.00000000
_cell_angle_beta   90.00000000
_cell_angle_gamma   120.01901518
_symmetry_Int_Tables_number   1
_chemical_formula_structural   Tm3Sc3FeSb2
_chemical_formula_sum   'Tm3 Sc3 Fe1 Sb2'
_cell_volume   216.49663812
_cell_formula_units_Z   1
loop_
 _symmetry_equiv_pos_site_id
 _symmetry_equiv_pos_as_xyz
  1  'x, y, z'
loop_
 _atom_site_type_symbol
 _atom_site_label
 _atom_site_symmetry_multiplicity
 _atom_site_fract_x
 _atom_site_fract_y
 _atom_site_fract_z
 _atom_site_occupancy
  Tm  Tm0  1  0.000001  0.610451  0.500000  1
  Tm  Tm1  1  0.389671  0.389754  0.500000  1
  Tm  Tm2  1  0.610369  0.000086  0.500000  1
  Sc  Sc3  1  0.226268  0.999854  0.000000  1
  Sc  Sc4  1  0.773736  0.773609  0.000000  1
  Sc  Sc5  1  0.999976  0.226310  0.000000  1
  Fe  Fe6  1  0.999970  0.999984  0.500000  1
  Sb  Sb7  1  0.333270  0.666631  0.000000  1
  Sb  Sb8  1  0.666741  0.333320  0.000000  1
