# generated using pymatgen
data_Ho12Th4Mg3CdIr4
_symmetry_space_group_name_H-M   'P 1'
_cell_length_a   9.75672320
_cell_length_b   9.79211680
_cell_length_c   9.79211600
_cell_angle_alpha   60.00000269
_cell_angle_beta   59.87992958
_cell_angle_gamma   59.87992977
_symmetry_Int_Tables_number   1
_chemical_formula_structural   Ho12Th4Mg3CdIr4
_chemical_formula_sum   'Ho12 Th4 Mg3 Cd1 Ir4'
_cell_volume   660.31559805
_cell_formula_units_Z   1
loop_
 _symmetry_equiv_pos_site_id
 _symmetry_equiv_pos_as_xyz
  1  'x, y, z'
loop_
 _atom_site_type_symbol
 _atom_site_label
 _atom_site_symmetry_multiplicity
 _atom_site_fract_x
 _atom_site_fract_y
 _atom_site_fract_z
 _atom_site_occupancy
  Ho  Ho0  1  0.062952  0.437048  0.437048  1
  Ho  Ho1  1  0.438050  0.062197  0.062197  1
  Ho  Ho2  1  0.438050  0.062197  0.437556  1
  Ho  Ho3  1  0.062952  0.437048  0.062952  1
  Ho  Ho4  1  0.438050  0.437556  0.062197  1
  Ho  Ho5  1  0.062952  0.062952  0.437048  1
  Ho  Ho6  1  0.186382  0.815523  0.815523  1
  Ho  Ho7  1  0.816432  0.183551  0.183551  1
  Ho  Ho8  1  0.816432  0.183551  0.816465  1
  Ho  Ho9  1  0.186382  0.815523  0.182572  1
  Ho  Ho10  1  0.816432  0.816465  0.183551  1
  Ho  Ho11  1  0.186382  0.182572  0.815523  1
  Th  Th12  1  0.598185  0.598408  0.598408  1
  Th  Th13  1  0.598185  0.598408  0.204999  1
  Th  Th14  1  0.598185  0.204999  0.598408  1
  Th  Th15  1  0.205507  0.598165  0.598165  1
  Mg  Mg16  1  0.829823  0.831822  0.831822  1
  Mg  Mg17  1  0.829823  0.831822  0.506534  1
  Mg  Mg18  1  0.829823  0.506534  0.831822  1
  Cd  Cd19  1  0.500569  0.833144  0.833144  1
  Ir  Ir20  1  0.391936  0.392918  0.392918  1
  Ir  Ir21  1  0.391936  0.392918  0.822229  1
  Ir  Ir22  1  0.391936  0.822229  0.392918  1
  Ir  Ir23  1  0.822646  0.392451  0.392451  1
