# generated using pymatgen
data_Zr3AlCu2C
_symmetry_space_group_name_H-M   'P 1'
_cell_length_a   8.71347054
_cell_length_b   8.71347011
_cell_length_c   8.71347200
_cell_angle_alpha   60.00000043
_cell_angle_beta   60.00000205
_cell_angle_gamma   60.00000851
_symmetry_Int_Tables_number   1
_chemical_formula_structural   Zr3AlCu2C
_chemical_formula_sum   'Zr12 Al4 Cu8 C4'
_cell_volume   467.79824852
_cell_formula_units_Z   4
loop_
 _symmetry_equiv_pos_site_id
 _symmetry_equiv_pos_as_xyz
  1  'x, y, z'
loop_
 _atom_site_type_symbol
 _atom_site_label
 _atom_site_symmetry_multiplicity
 _atom_site_fract_x
 _atom_site_fract_y
 _atom_site_fract_z
 _atom_site_occupancy
  Zr  Zr0  1  0.810560  0.189440  0.189440  1
  Zr  Zr1  1  0.189440  0.810560  0.189440  1
  Zr  Zr2  1  0.810560  0.810560  0.189440  1
  Zr  Zr3  1  0.189440  0.810560  0.810560  1
  Zr  Zr4  1  0.810560  0.189440  0.810560  1
  Zr  Zr5  1  0.189440  0.189440  0.810560  1
  Zr  Zr6  1  0.439440  0.060560  0.060560  1
  Zr  Zr7  1  0.060560  0.439440  0.060560  1
  Zr  Zr8  1  0.439440  0.439440  0.060560  1
  Zr  Zr9  1  0.060560  0.439440  0.439440  1
  Zr  Zr10  1  0.439440  0.060560  0.439440  1
  Zr  Zr11  1  0.060560  0.060560  0.439440  1
  Al  Al12  1  0.625000  0.625000  0.125000  1
  Al  Al13  1  0.625000  0.625000  0.625000  1
  Al  Al14  1  0.125000  0.625000  0.625000  1
  Al  Al15  1  0.625000  0.125000  0.625000  1
  Cu  Cu16  1  0.419498  0.419498  0.741507  1
  Cu  Cu17  1  0.419498  0.419498  0.419498  1
  Cu  Cu18  1  0.741507  0.419498  0.419498  1
  Cu  Cu19  1  0.419498  0.741507  0.419498  1
  Cu  Cu20  1  0.830502  0.830502  0.508493  1
  Cu  Cu21  1  0.830502  0.830502  0.830502  1
  Cu  Cu22  1  0.508493  0.830502  0.830502  1
  Cu  Cu23  1  0.830502  0.508493  0.830502  1
  C  C24  1  0.125000  0.125000  0.625000  1
  C  C25  1  0.125000  0.125000  0.125000  1
  C  C26  1  0.625000  0.125000  0.125000  1
  C  C27  1  0.125000  0.625000  0.125000  1
