# generated using pymatgen
data_Li2Ti3AlIr6
_symmetry_space_group_name_H-M   'P 1'
_cell_length_a   4.30655300
_cell_length_b   6.06771800
_cell_length_c   12.85140600
_cell_angle_alpha   90.00001390
_cell_angle_beta   89.99783898
_cell_angle_gamma   90.00000000
_symmetry_Int_Tables_number   1
_chemical_formula_structural   Li2Ti3AlIr6
_chemical_formula_sum   'Li4 Ti6 Al2 Ir12'
_cell_volume   335.81943665
_cell_formula_units_Z   2
loop_
 _symmetry_equiv_pos_site_id
 _symmetry_equiv_pos_as_xyz
  1  'x, y, z'
loop_
 _atom_site_type_symbol
 _atom_site_label
 _atom_site_symmetry_multiplicity
 _atom_site_fract_x
 _atom_site_fract_y
 _atom_site_fract_z
 _atom_site_occupancy
  Li  Li0  1  0.999491  0.000000  0.334294  1
  Li  Li1  1  0.499989  0.500000  0.500208  1
  Li  Li2  1  0.000489  0.000000  0.666434  1
  Li  Li3  1  0.500480  0.500000  0.832413  1
  Ti  Ti4  1  0.999981  0.500000  0.995505  1
  Ti  Ti5  1  0.499640  0.000000  0.171160  1
  Ti  Ti6  1  0.999622  0.500000  0.339933  1
  Ti  Ti7  1  0.500004  0.000000  0.503039  1
  Ti  Ti8  1  0.000371  0.500000  0.663629  1
  Ti  Ti9  1  0.500344  0.000000  0.826725  1
  Al  Al10  1  0.999979  0.000000  0.998079  1
  Al  Al11  1  0.499635  0.500000  0.168587  1
  Ir  Ir12  1  0.499978  0.250034  0.000092  1
  Ir  Ir13  1  0.499978  0.749966  0.000092  1
  Ir  Ir14  1  0.999656  0.249960  0.166575  1
  Ir  Ir15  1  0.999657  0.750040  0.166575  1
  Ir  Ir16  1  0.499613  0.249185  0.334035  1
  Ir  Ir17  1  0.499612  0.750814  0.334035  1
  Ir  Ir18  1  0.999997  0.248406  0.500140  1
  Ir  Ir19  1  0.999997  0.751595  0.500140  1
  Ir  Ir20  1  0.500380  0.251622  0.666526  1
  Ir  Ir21  1  0.500381  0.748378  0.666526  1
  Ir  Ir22  1  0.000357  0.250818  0.832629  1
  Ir  Ir23  1  0.000355  0.749182  0.832628  1
