# generated using pymatgen
data_Tm8In3Fe
_symmetry_space_group_name_H-M   'P 1'
_cell_length_a   10.23741900
_cell_length_b   10.23741882
_cell_length_c   6.94549100
_cell_angle_alpha   90.00000000
_cell_angle_beta   90.00000000
_cell_angle_gamma   119.99999736
_symmetry_Int_Tables_number   1
_chemical_formula_structural   Tm8In3Fe
_chemical_formula_sum   'Tm16 In6 Fe2'
_cell_volume   630.39759192
_cell_formula_units_Z   2
loop_
 _symmetry_equiv_pos_site_id
 _symmetry_equiv_pos_as_xyz
  1  'x, y, z'
loop_
 _atom_site_type_symbol
 _atom_site_label
 _atom_site_symmetry_multiplicity
 _atom_site_fract_x
 _atom_site_fract_y
 _atom_site_fract_z
 _atom_site_occupancy
  Tm  Tm0  1  0.534693  0.069384  0.792433  1
  Tm  Tm1  1  0.930616  0.465307  0.792433  1
  Tm  Tm2  1  0.534693  0.465307  0.792433  1
  Tm  Tm3  1  0.465307  0.930616  0.292433  1
  Tm  Tm4  1  0.069384  0.534693  0.292433  1
  Tm  Tm5  1  0.465307  0.534693  0.292433  1
  Tm  Tm6  1  0.820963  0.641927  0.498402  1
  Tm  Tm7  1  0.358073  0.179037  0.498402  1
  Tm  Tm8  1  0.820963  0.179037  0.498402  1
  Tm  Tm9  1  0.179037  0.358073  0.998402  1
  Tm  Tm10  1  0.641927  0.820963  0.998402  1
  Tm  Tm11  1  0.179037  0.820963  0.998402  1
  Tm  Tm12  1  0.666667  0.333333  0.180322  1
  Tm  Tm13  1  0.333333  0.666667  0.680322  1
  Tm  Tm14  1  0.000000  0.000000  0.779391  1
  Tm  Tm15  1  0.000000  0.000000  0.279391  1
  In  In16  1  0.837038  0.674077  0.039005  1
  In  In17  1  0.325923  0.162962  0.039005  1
  In  In18  1  0.837038  0.162962  0.039005  1
  In  In19  1  0.162962  0.325923  0.539005  1
  In  In20  1  0.674077  0.837038  0.539005  1
  In  In21  1  0.162962  0.837038  0.539005  1
  Fe  Fe22  1  0.666667  0.333333  0.568722  1
  Fe  Fe23  1  0.333333  0.666667  0.068722  1
