# generated using pymatgen
data_TbNd5(SiIr)4
_symmetry_space_group_name_H-M   'P 1'
_cell_length_a   5.78196178
_cell_length_b   5.78196310
_cell_length_c   13.39770700
_cell_angle_alpha   90.00000000
_cell_angle_beta   90.00000000
_cell_angle_gamma   137.94574233
_symmetry_Int_Tables_number   1
_chemical_formula_structural   TbNd5(SiIr)4
_chemical_formula_sum   'Tb1 Nd5 Si4 Ir4'
_cell_volume   300.01863141
_cell_formula_units_Z   1
loop_
 _symmetry_equiv_pos_site_id
 _symmetry_equiv_pos_as_xyz
  1  'x, y, z'
loop_
 _atom_site_type_symbol
 _atom_site_label
 _atom_site_symmetry_multiplicity
 _atom_site_fract_x
 _atom_site_fract_y
 _atom_site_fract_z
 _atom_site_occupancy
  Tb  Tb0  1  0.515236  0.484764  0.250000  1
  Nd  Nd1  1  0.772502  0.227498  0.602538  1
  Nd  Nd2  1  0.227177  0.772823  0.395850  1
  Nd  Nd3  1  0.772502  0.227498  0.897462  1
  Nd  Nd4  1  0.481121  0.518879  0.750000  1
  Nd  Nd5  1  0.227177  0.772823  0.104150  1
  Si  Si6  1  0.059752  0.940248  0.587684  1
  Si  Si7  1  0.059752  0.940248  0.912316  1
  Si  Si8  1  0.940720  0.059280  0.409611  1
  Si  Si9  1  0.940720  0.059280  0.090389  1
  Ir  Ir10  1  0.818163  0.181837  0.250000  1
  Ir  Ir11  1  0.183353  0.816647  0.750000  1
  Ir  Ir12  1  0.500912  0.499088  0.002385  1
  Ir  Ir13  1  0.500912  0.499088  0.497615  1
