# generated using pymatgen
data_Cs4TbDy11Se20
_symmetry_space_group_name_H-M   'P 1'
_cell_length_a   4.16462800
_cell_length_b   12.49624296
_cell_length_c   22.28903771
_cell_angle_alpha   90.04489412
_cell_angle_beta   90.00000000
_cell_angle_gamma   90.00000000
_symmetry_Int_Tables_number   1
_chemical_formula_structural   Cs4TbDy11Se20
_chemical_formula_sum   'Cs4 Tb1 Dy11 Se20'
_cell_volume   1159.97027630
_cell_formula_units_Z   1
loop_
 _symmetry_equiv_pos_site_id
 _symmetry_equiv_pos_as_xyz
  1  'x, y, z'
loop_
 _atom_site_type_symbol
 _atom_site_label
 _atom_site_symmetry_multiplicity
 _atom_site_fract_x
 _atom_site_fract_y
 _atom_site_fract_z
 _atom_site_occupancy
  Cs  Cs0  1  0.250000  0.853525  0.092361  1
  Cs  Cs1  1  0.750000  0.146538  0.907656  1
  Cs  Cs2  1  0.750000  0.353535  0.407654  1
  Cs  Cs3  1  0.250000  0.646463  0.592328  1
  Tb  Tb4  1  0.750000  0.797277  0.825476  1
  Dy  Dy5  1  0.250000  0.202571  0.174594  1
  Dy  Dy6  1  0.250000  0.297423  0.674594  1
  Dy  Dy7  1  0.750000  0.702575  0.325410  1
  Dy  Dy8  1  0.250000  0.957206  0.697833  1
  Dy  Dy9  1  0.750000  0.042917  0.302071  1
  Dy  Dy10  1  0.750000  0.456877  0.802055  1
  Dy  Dy11  1  0.250000  0.542937  0.197933  1
  Dy  Dy12  1  0.750000  0.391556  0.053923  1
  Dy  Dy13  1  0.250000  0.608276  0.946207  1
  Dy  Dy14  1  0.250000  0.891561  0.446089  1
  Dy  Dy15  1  0.750000  0.108437  0.553916  1
  Se  Se16  1  0.250000  0.948390  0.568891  1
  Se  Se17  1  0.750000  0.051637  0.431085  1
  Se  Se18  1  0.750000  0.448378  0.931096  1
  Se  Se19  1  0.250000  0.551623  0.068914  1
  Se  Se20  1  0.750000  0.764110  0.952913  1
  Se  Se21  1  0.250000  0.235676  0.047656  1
  Se  Se22  1  0.250000  0.264320  0.547659  1
  Se  Se23  1  0.750000  0.735684  0.452341  1
  Se  Se24  1  0.250000  0.950463  0.825274  1
  Se  Se25  1  0.750000  0.050772  0.174625  1
  Se  Se26  1  0.750000  0.449249  0.674633  1
  Se  Se27  1  0.250000  0.550759  0.325366  1
  Se  Se28  1  0.750000  0.126367  0.684539  1
  Se  Se29  1  0.250000  0.873644  0.315457  1
  Se  Se30  1  0.250000  0.625537  0.815429  1
  Se  Se31  1  0.750000  0.373637  0.184539  1
  Se  Se32  1  0.750000  0.693307  0.197784  1
  Se  Se33  1  0.250000  0.306665  0.802215  1
  Se  Se34  1  0.250000  0.193325  0.302217  1
  Se  Se35  1  0.750000  0.806780  0.697268  1
