# generated using pymatgen
data_Zr8In4FeAu7
_symmetry_space_group_name_H-M   'P 1'
_cell_length_a   7.58275456
_cell_length_b   7.58275456
_cell_length_c   7.09995976
_cell_angle_alpha   90.38642196
_cell_angle_beta   90.38642196
_cell_angle_gamma   90.50424582
_symmetry_Int_Tables_number   1
_chemical_formula_structural   Zr8In4FeAu7
_chemical_formula_sum   'Zr8 In4 Fe1 Au7'
_cell_volume   408.20012693
_cell_formula_units_Z   1
loop_
 _symmetry_equiv_pos_site_id
 _symmetry_equiv_pos_as_xyz
  1  'x, y, z'
loop_
 _atom_site_type_symbol
 _atom_site_label
 _atom_site_symmetry_multiplicity
 _atom_site_fract_x
 _atom_site_fract_y
 _atom_site_fract_z
 _atom_site_occupancy
  Zr  Zr0  1  0.160496  0.160496  0.016388  1
  Zr  Zr1  1  0.857259  0.857259  0.997112  1
  Zr  Zr2  1  0.629733  0.344990  0.484093  1
  Zr  Zr3  1  0.344990  0.629733  0.484093  1
  Zr  Zr4  1  0.678321  0.305316  0.008683  1
  Zr  Zr5  1  0.305316  0.678321  0.008683  1
  Zr  Zr6  1  0.806375  0.806375  0.498318  1
  Zr  Zr7  1  0.204810  0.204810  0.485687  1
  In  In8  1  0.498383  0.006565  0.245260  1
  In  In9  1  0.498802  0.997236  0.750165  1
  In  In10  1  0.006565  0.498383  0.245260  1
  In  In11  1  0.997236  0.498802  0.750165  1
  Fe  Fe12  1  0.371947  0.371947  0.225174  1
  Au  Au13  1  0.630536  0.630536  0.787365  1
  Au  Au14  1  0.629643  0.629643  0.202903  1
  Au  Au15  1  0.871815  0.134535  0.710259  1
  Au  Au16  1  0.872023  0.130965  0.295468  1
  Au  Au17  1  0.370251  0.370251  0.799198  1
  Au  Au18  1  0.130965  0.872023  0.295468  1
  Au  Au19  1  0.134535  0.871815  0.710259  1
