# generated using pymatgen
data_Er2Th(AlNi)3
_symmetry_space_group_name_H-M   'P 1'
_cell_length_a   7.12749700
_cell_length_b   7.01178025
_cell_length_c   3.83958100
_cell_angle_alpha   90.00000000
_cell_angle_beta   90.00000000
_cell_angle_gamma   120.54743470
_symmetry_Int_Tables_number   1
_chemical_formula_structural   Er2Th(AlNi)3
_chemical_formula_sum   'Er2 Th1 Al3 Ni3'
_cell_volume   165.25612739
_cell_formula_units_Z   1
loop_
 _symmetry_equiv_pos_site_id
 _symmetry_equiv_pos_as_xyz
  1  'x, y, z'
loop_
 _atom_site_type_symbol
 _atom_site_label
 _atom_site_symmetry_multiplicity
 _atom_site_fract_x
 _atom_site_fract_y
 _atom_site_fract_z
 _atom_site_occupancy
  Er  Er0  1  0.999122  0.416124  0.500000  1
  Er  Er1  1  0.582998  0.583876  0.500000  1
  Th  Th2  1  0.422391  0.000000  0.500000  1
  Al  Al3  1  0.775336  0.000000  0.000000  1
  Al  Al4  1  0.989711  0.754240  0.000000  1
  Al  Al5  1  0.235471  0.245760  0.000000  1
  Ni  Ni6  1  0.332654  0.674765  0.000000  1
  Ni  Ni7  1  0.657890  0.325235  0.000000  1
  Ni  Ni8  1  0.004427  0.000000  0.500000  1
