# generated using pymatgen
data_LiMnCrF6
_symmetry_space_group_name_H-M   'P 1'
_cell_length_a   4.79530800
_cell_length_b   4.79530800
_cell_length_c   9.45075400
_cell_angle_alpha   90.00000000
_cell_angle_beta   90.00000000
_cell_angle_gamma   90.00000000
_symmetry_Int_Tables_number   1
_chemical_formula_structural   LiMnCrF6
_chemical_formula_sum   'Li2 Mn2 Cr2 F12'
_cell_volume   217.31988801
_cell_formula_units_Z   2
loop_
 _symmetry_equiv_pos_site_id
 _symmetry_equiv_pos_as_xyz
  1  'x, y, z'
loop_
 _atom_site_type_symbol
 _atom_site_label
 _atom_site_symmetry_multiplicity
 _atom_site_fract_x
 _atom_site_fract_y
 _atom_site_fract_z
 _atom_site_occupancy
  Li  Li0  1  0.500000  0.500000  0.832786  1
  Li  Li1  1  0.000000  0.000000  0.332786  1
  Mn  Mn2  1  0.500000  0.500000  0.501910  1
  Mn  Mn3  1  0.000000  0.000000  0.001910  1
  Cr  Cr4  1  0.500000  0.500000  0.165866  1
  Cr  Cr5  1  0.000000  0.000000  0.665866  1
  F  F6  1  0.187575  0.812425  0.508512  1
  F  F7  1  0.812425  0.187575  0.508512  1
  F  F8  1  0.687575  0.687575  0.008512  1
  F  F9  1  0.312425  0.312425  0.008512  1
  F  F10  1  0.193573  0.806427  0.820088  1
  F  F11  1  0.806427  0.193573  0.820088  1
  F  F12  1  0.693573  0.693573  0.320088  1
  F  F13  1  0.306427  0.306427  0.320088  1
  F  F14  1  0.789095  0.210905  0.169170  1
  F  F15  1  0.210905  0.789095  0.169170  1
  F  F16  1  0.289095  0.289095  0.669170  1
  F  F17  1  0.710905  0.710905  0.669170  1
