# generated using pymatgen
data_Sr3AcSb3
_symmetry_space_group_name_H-M   'P 1'
_cell_length_a   8.70792452
_cell_length_b   8.70792424
_cell_length_c   8.76045636
_cell_angle_alpha   109.56095198
_cell_angle_beta   109.56095546
_cell_angle_gamma   109.23092236
_symmetry_Int_Tables_number   1
_chemical_formula_structural   Sr3AcSb3
_chemical_formula_sum   'Sr6 Ac2 Sb6'
_cell_volume   511.74800253
_cell_formula_units_Z   2
loop_
 _symmetry_equiv_pos_site_id
 _symmetry_equiv_pos_as_xyz
  1  'x, y, z'
loop_
 _atom_site_type_symbol
 _atom_site_label
 _atom_site_symmetry_multiplicity
 _atom_site_fract_x
 _atom_site_fract_y
 _atom_site_fract_z
 _atom_site_occupancy
  Sr  Sr0  1  0.996319  0.135064  0.493746  1
  Sr  Sr1  1  0.361086  0.358100  0.365206  1
  Sr  Sr2  1  0.635064  0.496319  0.993746  1
  Sr  Sr3  1  0.502592  0.005955  0.140892  1
  Sr  Sr4  1  0.858100  0.861086  0.865206  1
  Sr  Sr5  1  0.505955  0.002592  0.640892  1
  Ac  Ac6  1  0.999804  0.644268  0.500721  1
  Ac  Ac7  1  0.144268  0.499804  0.000721  1
  Sb  Sb8  1  0.879001  0.256072  0.127154  1
  Sb  Sb9  1  0.369854  0.625997  0.751333  1
  Sb  Sb10  1  0.125997  0.869854  0.251333  1
  Sb  Sb11  1  0.622037  0.743851  0.370948  1
  Sb  Sb12  1  0.243851  0.122037  0.870948  1
  Sb  Sb13  1  0.756072  0.379001  0.627154  1
