# generated using pymatgen
data_YbHo3Tm4(B6Os)4
_symmetry_space_group_name_H-M   'P 1'
_cell_length_a   3.62770500
_cell_length_b   9.10370081
_cell_length_c   11.49107304
_cell_angle_alpha   89.91995544
_cell_angle_beta   90.00000000
_cell_angle_gamma   90.00000000
_symmetry_Int_Tables_number   1
_chemical_formula_structural   YbHo3Tm4(B6Os)4
_chemical_formula_sum   'Yb1 Ho3 Tm4 B24 Os4'
_cell_volume   379.49853305
_cell_formula_units_Z   1
loop_
 _symmetry_equiv_pos_site_id
 _symmetry_equiv_pos_as_xyz
  1  'x, y, z'
loop_
 _atom_site_type_symbol
 _atom_site_label
 _atom_site_symmetry_multiplicity
 _atom_site_fract_x
 _atom_site_fract_y
 _atom_site_fract_z
 _atom_site_occupancy
  Yb  Yb0  1  0.000000  0.322461  0.413559  1
  Ho  Ho1  1  0.000000  0.676959  0.585112  1
  Ho  Ho2  1  0.000000  0.821908  0.086625  1
  Ho  Ho3  1  0.000000  0.178655  0.914330  1
  Tm  Tm4  1  0.000000  0.944335  0.372154  1
  Tm  Tm5  1  0.000000  0.057630  0.626982  1
  Tm  Tm6  1  0.000000  0.443119  0.128802  1
  Tm  Tm7  1  0.000000  0.556080  0.872778  1
  B  B8  1  0.500000  0.553619  0.432571  1
  B  B9  1  0.500000  0.446028  0.567282  1
  B  B10  1  0.500000  0.053166  0.066499  1
  B  B11  1  0.500000  0.946052  0.932698  1
  B  B12  1  0.500000  0.748870  0.419236  1
  B  B13  1  0.500000  0.251558  0.580833  1
  B  B14  1  0.500000  0.248283  0.080581  1
  B  B15  1  0.500000  0.751026  0.919605  1
  B  B16  1  0.500000  0.791847  0.266182  1
  B  B17  1  0.500000  0.209155  0.734116  1
  B  B18  1  0.500000  0.290445  0.233746  1
  B  B19  1  0.500000  0.708817  0.766301  1
  B  B20  1  0.500000  0.631184  0.185676  1
  B  B21  1  0.500000  0.369176  0.815385  1
  B  B22  1  0.500000  0.130778  0.314285  1
  B  B23  1  0.500000  0.869084  0.684932  1
  B  B24  1  0.500000  0.982518  0.212351  1
  B  B25  1  0.500000  0.017494  0.786750  1
  B  B26  1  0.500000  0.482701  0.287321  1
  B  B27  1  0.500000  0.517318  0.713189  1
  B  B28  1  0.500000  0.605776  0.029518  1
  B  B29  1  0.500000  0.394400  0.971160  1
  B  B30  1  0.500000  0.103153  0.471311  1
  B  B31  1  0.500000  0.895766  0.528828  1
  Os  Os32  1  0.000000  0.639375  0.320184  1
  Os  Os33  1  0.000000  0.362157  0.680371  1
  Os  Os34  1  0.000000  0.136832  0.177692  1
  Os  Os35  1  0.000000  0.862273  0.821058  1
