# generated using pymatgen
data_ErAl2Pd5
_symmetry_space_group_name_H-M   'P 1'
_cell_length_a   4.14196873
_cell_length_b   4.14196772
_cell_length_c   8.01170896
_cell_angle_alpha   104.98075180
_cell_angle_beta   104.98076658
_cell_angle_gamma   90.00000916
_symmetry_Int_Tables_number   1
_chemical_formula_structural   ErAl2Pd5
_chemical_formula_sum   'Er1 Al2 Pd5'
_cell_volume   127.93463601
_cell_formula_units_Z   1
loop_
 _symmetry_equiv_pos_site_id
 _symmetry_equiv_pos_as_xyz
  1  'x, y, z'
loop_
 _atom_site_type_symbol
 _atom_site_label
 _atom_site_symmetry_multiplicity
 _atom_site_fract_x
 _atom_site_fract_y
 _atom_site_fract_z
 _atom_site_occupancy
  Er  Er0  1  0.000000  0.000000  0.000000  1
  Al  Al1  1  0.746345  0.746345  0.492689  1
  Al  Al2  1  0.253655  0.253655  0.507311  1
  Pd  Pd3  1  0.500000  0.500000  0.000000  1
  Pd  Pd4  1  0.643699  0.143700  0.287399  1
  Pd  Pd5  1  0.143700  0.643699  0.287399  1
  Pd  Pd6  1  0.856300  0.356300  0.712600  1
  Pd  Pd7  1  0.356300  0.856300  0.712600  1
