# generated using pymatgen
data_CsBaCoO3
_symmetry_space_group_name_H-M   'P 1'
_cell_length_a   6.72403044
_cell_length_b   6.72403007
_cell_length_c   13.20465900
_cell_angle_alpha   90.00000000
_cell_angle_beta   90.00000000
_cell_angle_gamma   127.70653072
_symmetry_Int_Tables_number   1
_chemical_formula_structural   CsBaCoO3
_chemical_formula_sum   'Cs4 Ba4 Co4 O12'
_cell_volume   472.33207614
_cell_formula_units_Z   4
loop_
 _symmetry_equiv_pos_site_id
 _symmetry_equiv_pos_as_xyz
  1  'x, y, z'
loop_
 _atom_site_type_symbol
 _atom_site_label
 _atom_site_symmetry_multiplicity
 _atom_site_fract_x
 _atom_site_fract_y
 _atom_site_fract_z
 _atom_site_occupancy
  Cs  Cs0  1  0.463796  0.536204  0.646117  1
  Cs  Cs1  1  0.536204  0.463796  0.353883  1
  Cs  Cs2  1  0.036204  0.963796  0.146117  1
  Cs  Cs3  1  0.963796  0.036204  0.853883  1
  Ba  Ba4  1  0.652424  0.347576  0.921922  1
  Ba  Ba5  1  0.847576  0.152424  0.421922  1
  Ba  Ba6  1  0.152424  0.847576  0.578078  1
  Ba  Ba7  1  0.347576  0.652424  0.078078  1
  Co  Co8  1  0.225361  0.774639  0.332074  1
  Co  Co9  1  0.725361  0.274639  0.167926  1
  Co  Co10  1  0.774639  0.225361  0.667926  1
  Co  Co11  1  0.274639  0.725361  0.832074  1
  O  O12  1  0.976416  0.523584  0.750000  1
  O  O13  1  0.523584  0.976416  0.250000  1
  O  O14  1  0.023584  0.476416  0.250000  1
  O  O15  1  0.476416  0.023584  0.750000  1
  O  O16  1  0.416768  0.583232  0.882882  1
  O  O17  1  0.583232  0.416768  0.117118  1
  O  O18  1  0.083232  0.916768  0.382882  1
  O  O19  1  0.684358  0.315642  0.550387  1
  O  O20  1  0.184358  0.815642  0.949613  1
  O  O21  1  0.815642  0.184358  0.050387  1
  O  O22  1  0.315642  0.684358  0.449613  1
  O  O23  1  0.916768  0.083232  0.617118  1
