# generated using pymatgen
data_Ce10AgBiPb6
_symmetry_space_group_name_H-M   'P 1'
_cell_length_a   9.68133200
_cell_length_b   9.68133211
_cell_length_c   6.65275400
_cell_angle_alpha   90.00000000
_cell_angle_beta   90.00000000
_cell_angle_gamma   120.00000647
_symmetry_Int_Tables_number   1
_chemical_formula_structural   Ce10AgBiPb6
_chemical_formula_sum   'Ce10 Ag1 Bi1 Pb6'
_cell_volume   540.01061896
_cell_formula_units_Z   1
loop_
 _symmetry_equiv_pos_site_id
 _symmetry_equiv_pos_as_xyz
  1  'x, y, z'
loop_
 _atom_site_type_symbol
 _atom_site_label
 _atom_site_symmetry_multiplicity
 _atom_site_fract_x
 _atom_site_fract_y
 _atom_site_fract_z
 _atom_site_occupancy
  Ce  Ce0  1  0.666667  0.333333  0.500000  1
  Ce  Ce1  1  0.333333  0.666667  0.500000  1
  Ce  Ce2  1  0.333333  0.666667  0.000000  1
  Ce  Ce3  1  0.666667  0.333333  0.000000  1
  Ce  Ce4  1  0.720673  0.720673  0.249548  1
  Ce  Ce5  1  0.279327  0.000000  0.249548  1
  Ce  Ce6  1  0.000000  0.279327  0.249548  1
  Ce  Ce7  1  0.279327  0.279327  0.750452  1
  Ce  Ce8  1  0.720673  0.000000  0.750452  1
  Ce  Ce9  1  0.000000  0.720673  0.750452  1
  Ag  Ag10  1  0.000000  0.000000  0.000000  1
  Bi  Bi11  1  0.000000  0.000000  0.500000  1
  Pb  Pb12  1  0.376663  0.376663  0.248015  1
  Pb  Pb13  1  0.623337  0.000000  0.248015  1
  Pb  Pb14  1  0.000000  0.623337  0.248015  1
  Pb  Pb15  1  0.623337  0.623337  0.751985  1
  Pb  Pb16  1  0.376663  0.000000  0.751985  1
  Pb  Pb17  1  0.000000  0.376663  0.751985  1
