# generated using pymatgen
data_RbSb12Ru3Pt
_symmetry_space_group_name_H-M   'P 1'
_cell_length_a   8.19653208
_cell_length_b   8.18494287
_cell_length_c   8.19653167
_cell_angle_alpha   109.44258411
_cell_angle_beta   109.49984697
_cell_angle_gamma   109.44257631
_symmetry_Int_Tables_number   1
_chemical_formula_structural   RbSb12Ru3Pt
_chemical_formula_sum   'Rb1 Sb12 Ru3 Pt1'
_cell_volume   423.45513545
_cell_formula_units_Z   1
loop_
 _symmetry_equiv_pos_site_id
 _symmetry_equiv_pos_as_xyz
  1  'x, y, z'
loop_
 _atom_site_type_symbol
 _atom_site_label
 _atom_site_symmetry_multiplicity
 _atom_site_fract_x
 _atom_site_fract_y
 _atom_site_fract_z
 _atom_site_occupancy
  Rb  Rb0  1  0.000000  0.000000  0.000000  1
  Sb  Sb1  1  0.159460  0.817627  0.658548  1
  Sb  Sb2  1  0.161051  0.501827  0.350685  1
  Sb  Sb3  1  0.499088  0.658167  0.840540  1
  Sb  Sb4  1  0.350685  0.848857  0.189634  1
  Sb  Sb5  1  0.810366  0.659223  0.161051  1
  Sb  Sb6  1  0.658548  0.840921  0.499088  1
  Sb  Sb7  1  0.189634  0.340777  0.838949  1
  Sb  Sb8  1  0.649315  0.151143  0.810366  1
  Sb  Sb9  1  0.341452  0.159079  0.500912  1
  Sb  Sb10  1  0.500912  0.341833  0.159460  1
  Sb  Sb11  1  0.838949  0.498173  0.649315  1
  Sb  Sb12  1  0.840540  0.182373  0.341452  1
  Ru  Ru13  1  0.500000  0.500000  0.500000  1
  Ru  Ru14  1  0.000000  0.000000  0.500000  1
  Ru  Ru15  1  0.500000  0.000000  0.000000  1
  Pt  Pt16  1  0.000000  0.500000  0.000000  1
