# generated using pymatgen
data_PrGd13Au6
_symmetry_space_group_name_H-M   'P 1'
_cell_length_a   10.39122400
_cell_length_b   10.39122440
_cell_length_c   6.45680300
_cell_angle_alpha   90.00000000
_cell_angle_beta   90.00000000
_cell_angle_gamma   119.99999236
_symmetry_Int_Tables_number   1
_chemical_formula_structural   PrGd13Au6
_chemical_formula_sum   'Pr1 Gd13 Au6'
_cell_volume   603.78404370
_cell_formula_units_Z   1
loop_
 _symmetry_equiv_pos_site_id
 _symmetry_equiv_pos_as_xyz
  1  'x, y, z'
loop_
 _atom_site_type_symbol
 _atom_site_label
 _atom_site_symmetry_multiplicity
 _atom_site_fract_x
 _atom_site_fract_y
 _atom_site_fract_z
 _atom_site_occupancy
  Pr  Pr0  1  0.333333  0.666667  0.690841  1
  Gd  Gd1  1  0.666667  0.333333  0.196023  1
  Gd  Gd2  1  0.128045  0.871955  0.507117  1
  Gd  Gd3  1  0.743907  0.871955  0.507117  1
  Gd  Gd4  1  0.128045  0.256093  0.507117  1
  Gd  Gd5  1  0.869989  0.130011  0.007450  1
  Gd  Gd6  1  0.260021  0.130011  0.007450  1
  Gd  Gd7  1  0.869989  0.739979  0.007450  1
  Gd  Gd8  1  0.537714  0.462286  0.705682  1
  Gd  Gd9  1  0.924568  0.462286  0.705682  1
  Gd  Gd10  1  0.537714  0.075432  0.705682  1
  Gd  Gd11  1  0.464422  0.535578  0.203894  1
  Gd  Gd12  1  0.071158  0.535578  0.203894  1
  Gd  Gd13  1  0.464422  0.928842  0.203894  1
  Au  Au14  1  0.810195  0.189805  0.441999  1
  Au  Au15  1  0.379609  0.189805  0.441999  1
  Au  Au16  1  0.810195  0.620391  0.441999  1
  Au  Au17  1  0.188452  0.811548  0.943624  1
  Au  Au18  1  0.623094  0.811548  0.943624  1
  Au  Au19  1  0.188452  0.376906  0.943624  1
