# generated using pymatgen
data_YTm3Co12(P3Rh2)4
_symmetry_space_group_name_H-M   'P 1'
_cell_length_a   3.72481300
_cell_length_b   10.45993789
_cell_length_c   12.08236502
_cell_angle_alpha   90.04729370
_cell_angle_beta   90.00000000
_cell_angle_gamma   90.00000000
_symmetry_Int_Tables_number   1
_chemical_formula_structural   YTm3Co12(P3Rh2)4
_chemical_formula_sum   'Y1 Tm3 Co12 P12 Rh8'
_cell_volume   470.74464090
_cell_formula_units_Z   1
loop_
 _symmetry_equiv_pos_site_id
 _symmetry_equiv_pos_as_xyz
  1  'x, y, z'
loop_
 _atom_site_type_symbol
 _atom_site_label
 _atom_site_symmetry_multiplicity
 _atom_site_fract_x
 _atom_site_fract_y
 _atom_site_fract_z
 _atom_site_occupancy
  Y  Y0  1  0.250000  0.584427  0.711643  1
  Tm  Tm1  1  0.250000  0.916331  0.211101  1
  Tm  Tm2  1  0.750000  0.083731  0.788775  1
  Tm  Tm3  1  0.750000  0.415705  0.288940  1
  Co  Co4  1  0.250000  0.278661  0.678400  1
  Co  Co5  1  0.750000  0.721501  0.321207  1
  Co  Co6  1  0.750000  0.780348  0.821628  1
  Co  Co7  1  0.250000  0.220590  0.178484  1
  Co  Co8  1  0.250000  0.617618  0.197402  1
  Co  Co9  1  0.750000  0.381355  0.803302  1
  Co  Co10  1  0.750000  0.117544  0.302753  1
  Co  Co11  1  0.250000  0.883348  0.696915  1
  Co  Co12  1  0.250000  0.037416  0.430771  1
  Co  Co13  1  0.750000  0.963392  0.568663  1
  Co  Co14  1  0.750000  0.537029  0.070098  1
  Co  Co15  1  0.250000  0.461766  0.932341  1
  P  P16  1  0.250000  0.078401  0.610961  1
  P  P17  1  0.750000  0.921975  0.388670  1
  P  P18  1  0.750000  0.578072  0.890594  1
  P  P19  1  0.250000  0.421561  0.111827  1
  P  P20  1  0.250000  0.226319  0.361517  1
  P  P21  1  0.750000  0.774697  0.637421  1
  P  P22  1  0.750000  0.726698  0.138457  1
  P  P23  1  0.250000  0.273249  0.861549  1
  P  P24  1  0.250000  0.896398  0.878620  1
  P  P25  1  0.750000  0.103529  0.121188  1
  P  P26  1  0.750000  0.395620  0.620767  1
  P  P27  1  0.250000  0.603671  0.378863  1
  Rh  Rh28  1  0.250000  0.788209  0.486184  1
  Rh  Rh29  1  0.750000  0.211908  0.513469  1
  Rh  Rh30  1  0.750000  0.287635  0.013976  1
  Rh  Rh31  1  0.250000  0.711936  0.986000  1
  Rh  Rh32  1  0.250000  0.093157  0.977500  1
  Rh  Rh33  1  0.750000  0.906778  0.022513  1
  Rh  Rh34  1  0.750000  0.593150  0.519959  1
  Rh  Rh35  1  0.250000  0.406276  0.477544  1
