# generated using pymatgen
data_SmHo3HgPt
_symmetry_space_group_name_H-M   'P 1'
_cell_length_a   9.67430866
_cell_length_b   9.65360272
_cell_length_c   9.65360300
_cell_angle_alpha   60.14196592
_cell_angle_beta   59.92901464
_cell_angle_gamma   59.92901987
_symmetry_Int_Tables_number   1
_chemical_formula_structural   SmHo3HgPt
_chemical_formula_sum   'Sm4 Ho12 Hg4 Pt4'
_cell_volume   637.49942117
_cell_formula_units_Z   4
loop_
 _symmetry_equiv_pos_site_id
 _symmetry_equiv_pos_as_xyz
  1  'x, y, z'
loop_
 _atom_site_type_symbol
 _atom_site_label
 _atom_site_symmetry_multiplicity
 _atom_site_fract_x
 _atom_site_fract_y
 _atom_site_fract_z
 _atom_site_occupancy
  Sm  Sm0  1  0.564457  0.935543  0.564457  1
  Sm  Sm1  1  0.935543  0.564457  0.935543  1
  Sm  Sm2  1  0.564457  0.564457  0.935543  1
  Sm  Sm3  1  0.935543  0.935543  0.564457  1
  Ho  Ho4  1  0.354003  0.352777  0.352777  1
  Ho  Ho5  1  0.352777  0.354003  0.940445  1
  Ho  Ho6  1  0.352777  0.940445  0.354003  1
  Ho  Ho7  1  0.940445  0.352777  0.352777  1
  Ho  Ho8  1  0.810987  0.189013  0.189013  1
  Ho  Ho9  1  0.189013  0.810987  0.810987  1
  Ho  Ho10  1  0.189414  0.810586  0.189414  1
  Ho  Ho11  1  0.810586  0.189414  0.810586  1
  Ho  Ho12  1  0.189414  0.189414  0.810586  1
  Ho  Ho13  1  0.810586  0.810586  0.189414  1
  Ho  Ho14  1  0.940635  0.559365  0.559365  1
  Ho  Ho15  1  0.559365  0.940635  0.940635  1
  Hg  Hg16  1  0.587357  0.583350  0.583350  1
  Hg  Hg17  1  0.583350  0.587357  0.245943  1
  Hg  Hg18  1  0.583350  0.245943  0.587357  1
  Hg  Hg19  1  0.245943  0.583350  0.583350  1
  Pt  Pt20  1  0.145339  0.142328  0.142328  1
  Pt  Pt21  1  0.142328  0.145339  0.570007  1
  Pt  Pt22  1  0.142328  0.570007  0.145339  1
  Pt  Pt23  1  0.570007  0.142328  0.142328  1
