# generated using pymatgen
data_EuYB4Ir5
_symmetry_space_group_name_H-M   'P 1'
_cell_length_a   7.55107490
_cell_length_b   6.33741640
_cell_length_c   5.67731836
_cell_angle_alpha   77.75653217
_cell_angle_beta   55.07464445
_cell_angle_gamma   47.26115995
_symmetry_Int_Tables_number   1
_chemical_formula_structural   EuYB4Ir5
_chemical_formula_sum   'Eu1 Y1 B4 Ir5'
_cell_volume   156.41946099
_cell_formula_units_Z   1
loop_
 _symmetry_equiv_pos_site_id
 _symmetry_equiv_pos_as_xyz
  1  'x, y, z'
loop_
 _atom_site_type_symbol
 _atom_site_label
 _atom_site_symmetry_multiplicity
 _atom_site_fract_x
 _atom_site_fract_y
 _atom_site_fract_z
 _atom_site_occupancy
  Eu  Eu0  1  0.141551  0.142018  0.857954  1
  Y  Y1  1  0.861632  0.860560  0.139099  1
  B  B2  1  0.474042  0.789168  0.210559  1
  B  B3  1  0.210195  0.525814  0.473990  1
  B  B4  1  0.789418  0.473721  0.526430  1
  B  B5  1  0.525285  0.210669  0.789959  1
  Ir  Ir6  1  0.500006  0.499952  0.000003  1
  Ir  Ir7  1  0.250647  0.250247  0.249379  1
  Ir  Ir8  1  0.000004  0.000174  0.499863  1
  Ir  Ir9  1  0.496989  0.496942  0.503034  1
  Ir  Ir10  1  0.750225  0.750741  0.749737  1
