# generated using pymatgen
data_NaSr9(Tb5Pb8)2
_symmetry_space_group_name_H-M   'P 1'
_cell_length_a   8.20384447
_cell_length_b   8.75990529
_cell_length_c   16.54388300
_cell_angle_alpha   90.00000000
_cell_angle_beta   90.00000000
_cell_angle_gamma   89.91226722
_symmetry_Int_Tables_number   1
_chemical_formula_structural   NaSr9(Tb5Pb8)2
_chemical_formula_sum   'Na1 Sr9 Tb10 Pb16'
_cell_volume   1188.92311312
_cell_formula_units_Z   1
loop_
 _symmetry_equiv_pos_site_id
 _symmetry_equiv_pos_as_xyz
  1  'x, y, z'
loop_
 _atom_site_type_symbol
 _atom_site_label
 _atom_site_symmetry_multiplicity
 _atom_site_fract_x
 _atom_site_fract_y
 _atom_site_fract_z
 _atom_site_occupancy
  Na  Na0  1  0.830057  0.504816  0.750000  1
  Sr  Sr1  1  0.502138  0.679088  0.593934  1
  Sr  Sr2  1  0.997543  0.812648  0.904646  1
  Sr  Sr3  1  0.500219  0.318011  0.090758  1
  Sr  Sr4  1  0.000370  0.181516  0.411479  1
  Sr  Sr5  1  0.500219  0.318011  0.409242  1
  Sr  Sr6  1  0.000370  0.181516  0.088521  1
  Sr  Sr7  1  0.502138  0.679088  0.906066  1
  Sr  Sr8  1  0.997543  0.812648  0.595354  1
  Sr  Sr9  1  0.673337  0.012953  0.250000  1
  Tb  Tb10  1  0.671683  0.168283  0.624154  1
  Tb  Tb11  1  0.167780  0.342918  0.875735  1
  Tb  Tb12  1  0.328925  0.839022  0.120330  1
  Tb  Tb13  1  0.828008  0.663913  0.378879  1
  Tb  Tb14  1  0.328925  0.839022  0.379670  1
  Tb  Tb15  1  0.828008  0.663913  0.121121  1
  Tb  Tb16  1  0.671683  0.168283  0.875846  1
  Tb  Tb17  1  0.167780  0.342918  0.624265  1
  Tb  Tb18  1  0.333797  0.995943  0.750000  1
  Tb  Tb19  1  0.171482  0.491405  0.250000  1
  Pb  Pb20  1  0.669818  0.956265  0.461972  1
  Pb  Pb21  1  0.172007  0.540300  0.043975  1
  Pb  Pb22  1  0.325831  0.039980  0.953463  1
  Pb  Pb23  1  0.829447  0.455937  0.541032  1
  Pb  Pb24  1  0.325831  0.039980  0.546537  1
  Pb  Pb25  1  0.829447  0.455937  0.958968  1
  Pb  Pb26  1  0.669818  0.956265  0.038028  1
  Pb  Pb27  1  0.172007  0.540300  0.456025  1
  Pb  Pb28  1  0.469905  0.366958  0.750000  1
  Pb  Pb29  1  0.975405  0.124610  0.750000  1
  Pb  Pb30  1  0.526473  0.630446  0.250000  1
  Pb  Pb31  1  0.038066  0.852068  0.250000  1
  Pb  Pb32  1  0.699425  0.877609  0.750000  1
  Pb  Pb33  1  0.212182  0.632221  0.750000  1
  Pb  Pb34  1  0.280514  0.134563  0.250000  1
  Pb  Pb35  1  0.801815  0.380649  0.250000  1
