# generated using pymatgen
data_La2Tb3YTa2O14
_symmetry_space_group_name_H-M   'P 1'
_cell_length_a   6.55332403
_cell_length_b   6.55704112
_cell_length_c   7.65774300
_cell_angle_alpha   90.00000000
_cell_angle_beta   90.00000000
_cell_angle_gamma   109.02898810
_symmetry_Int_Tables_number   1
_chemical_formula_structural   La2Tb3YTa2O14
_chemical_formula_sum   'La2 Tb3 Y1 Ta2 O14'
_cell_volume   311.07469348
_cell_formula_units_Z   1
loop_
 _symmetry_equiv_pos_site_id
 _symmetry_equiv_pos_as_xyz
  1  'x, y, z'
loop_
 _atom_site_type_symbol
 _atom_site_label
 _atom_site_symmetry_multiplicity
 _atom_site_fract_x
 _atom_site_fract_y
 _atom_site_fract_z
 _atom_site_occupancy
  La  La0  1  0.499964  0.499957  0.500028  1
  La  La1  1  0.499964  0.499957  0.999972  1
  Tb  Tb2  1  0.532908  0.000702  0.750000  1
  Tb  Tb3  1  0.000659  0.532792  0.250000  1
  Tb  Tb4  1  0.467193  0.999347  0.250000  1
  Y  Y5  1  0.999231  0.467710  0.750000  1
  Ta  Ta6  1  0.999984  0.999902  0.500075  1
  Ta  Ta7  1  0.999984  0.999902  0.999925  1
  O  O8  1  0.682355  0.933882  0.467958  1
  O  O9  1  0.934000  0.682412  0.532141  1
  O  O10  1  0.682355  0.933882  0.032042  1
  O  O11  1  0.934000  0.682412  0.967859  1
  O  O12  1  0.317677  0.066102  0.532081  1
  O  O13  1  0.066078  0.317658  0.468099  1
  O  O14  1  0.317677  0.066102  0.967919  1
  O  O15  1  0.066078  0.317658  0.031901  1
  O  O16  1  0.938167  0.061805  0.750000  1
  O  O17  1  0.061834  0.938193  0.250000  1
  O  O18  1  0.362426  0.636358  0.750000  1
  O  O19  1  0.636756  0.363203  0.250000  1
  O  O20  1  0.644195  0.356532  0.750000  1
  O  O21  1  0.356516  0.643532  0.250000  1
