# generated using pymatgen
data_Nd6Al24ZnOs7
_symmetry_space_group_name_H-M   'P 1'
_cell_length_a   8.94422131
_cell_length_b   8.94422050
_cell_length_c   9.66430286
_cell_angle_alpha   90.04168799
_cell_angle_beta   89.95831119
_cell_angle_gamma   119.84948466
_symmetry_Int_Tables_number   1
_chemical_formula_structural   Nd6Al24ZnOs7
_chemical_formula_sum   'Nd6 Al24 Zn1 Os7'
_cell_volume   670.56786668
_cell_formula_units_Z   1
loop_
 _symmetry_equiv_pos_site_id
 _symmetry_equiv_pos_as_xyz
  1  'x, y, z'
loop_
 _atom_site_type_symbol
 _atom_site_label
 _atom_site_symmetry_multiplicity
 _atom_site_fract_x
 _atom_site_fract_y
 _atom_site_fract_z
 _atom_site_occupancy
  Nd  Nd0  1  0.190784  0.382930  0.246838  1
  Nd  Nd1  1  0.809216  0.617070  0.753162  1
  Nd  Nd2  1  0.617070  0.809216  0.246838  1
  Nd  Nd3  1  0.382930  0.190784  0.753162  1
  Nd  Nd4  1  0.192439  0.807561  0.254494  1
  Nd  Nd5  1  0.807561  0.192439  0.745506  1
  Al  Al6  1  0.328601  0.671399  0.013323  1
  Al  Al7  1  0.671399  0.328601  0.986677  1
  Al  Al8  1  0.666032  0.333968  0.511895  1
  Al  Al9  1  0.333968  0.666032  0.488105  1
  Al  Al10  1  0.162786  0.326059  0.571951  1
  Al  Al11  1  0.837214  0.673941  0.428049  1
  Al  Al12  1  0.673941  0.837214  0.571951  1
  Al  Al13  1  0.850305  0.677779  0.079756  1
  Al  Al14  1  0.326059  0.162786  0.428049  1
  Al  Al15  1  0.149695  0.322221  0.920244  1
  Al  Al16  1  0.162957  0.837043  0.574914  1
  Al  Al17  1  0.322221  0.149695  0.079756  1
  Al  Al18  1  0.837043  0.162957  0.425086  1
  Al  Al19  1  0.677779  0.850305  0.920244  1
  Al  Al20  1  0.836668  0.163332  0.074617  1
  Al  Al21  1  0.163332  0.836668  0.925383  1
  Al  Al22  1  0.562116  0.122674  0.249144  1
  Al  Al23  1  0.437884  0.877326  0.750856  1
  Al  Al24  1  0.877326  0.437884  0.249144  1
  Al  Al25  1  0.122674  0.562116  0.750856  1
  Al  Al26  1  0.564832  0.435168  0.256394  1
  Al  Al27  1  0.435168  0.564832  0.743606  1
  Al  Al28  1  0.998782  0.001218  0.250627  1
  Al  Al29  1  0.001218  0.998782  0.749373  1
  Zn  Zn30  1  0.500000  0.500000  0.000000  1
  Os  Os31  1  0.500000  0.000000  0.000000  1
  Os  Os32  1  0.000000  0.500000  0.000000  1
  Os  Os33  1  0.500000  0.000000  0.500000  1
  Os  Os34  1  0.000000  0.500000  0.500000  1
  Os  Os35  1  0.500000  0.500000  0.500000  1
  Os  Os36  1  0.000000  0.000000  0.000000  1
  Os  Os37  1  0.000000  0.000000  0.500000  1
