# generated using pymatgen
data_DyEr4V3(P3Ir4)4
_symmetry_space_group_name_H-M   'P 1'
_cell_length_a   12.66739400
_cell_length_b   12.66850512
_cell_length_c   3.95068400
_cell_angle_alpha   90.00000000
_cell_angle_beta   90.00000000
_cell_angle_gamma   119.99709870
_symmetry_Int_Tables_number   1
_chemical_formula_structural   DyEr4V3(P3Ir4)4
_chemical_formula_sum   'Dy1 Er4 V3 P12 Ir16'
_cell_volume   549.07070301
_cell_formula_units_Z   1
loop_
 _symmetry_equiv_pos_site_id
 _symmetry_equiv_pos_as_xyz
  1  'x, y, z'
loop_
 _atom_site_type_symbol
 _atom_site_label
 _atom_site_symmetry_multiplicity
 _atom_site_fract_x
 _atom_site_fract_y
 _atom_site_fract_z
 _atom_site_occupancy
  Dy  Dy0  1  0.811517  0.000000  0.000000  1
  Er  Er1  1  0.333369  0.666729  0.500000  1
  Er  Er2  1  0.666641  0.333271  0.500000  1
  Er  Er3  1  0.000006  0.811447  0.000000  1
  Er  Er4  1  0.188559  0.188553  0.000000  1
  V  V5  1  0.000015  0.451004  0.500000  1
  V  V6  1  0.549011  0.548996  0.500000  1
  V  V7  1  0.450951  0.000000  0.500000  1
  P  P8  1  0.000003  0.636305  0.500000  1
  P  P9  1  0.363698  0.363695  0.500000  1
  P  P10  1  0.635889  0.000000  0.500000  1
  P  P11  1  0.516383  0.683683  0.000000  1
  P  P12  1  0.316345  0.832722  0.000000  1
  P  P13  1  0.167323  0.483694  0.000000  1
  P  P14  1  0.483621  0.167278  0.000000  1
  P  P15  1  0.683628  0.516306  0.000000  1
  P  P16  1  0.832699  0.316317  0.000000  1
  P  P17  1  0.000209  0.177071  0.500000  1
  P  P18  1  0.823139  0.822929  0.500000  1
  P  P19  1  0.177011  0.000000  0.500000  1
  Ir  Ir20  1  0.509039  0.867030  0.000000  1
  Ir  Ir21  1  0.133024  0.642152  0.000000  1
  Ir  Ir22  1  0.357889  0.490924  0.000000  1
  Ir  Ir23  1  0.490873  0.357848  0.000000  1
  Ir  Ir24  1  0.866966  0.509076  0.000000  1
  Ir  Ir25  1  0.642009  0.132970  0.000000  1
  Ir  Ir26  1  0.000163  0.285202  0.000000  1
  Ir  Ir27  1  0.714961  0.714798  0.000000  1
  Ir  Ir28  1  0.285034  0.000000  0.000000  1
  Ir  Ir29  1  0.625116  0.803913  0.500000  1
  Ir  Ir30  1  0.195561  0.821204  0.500000  1
  Ir  Ir31  1  0.178850  0.374341  0.500000  1
  Ir  Ir32  1  0.374356  0.178796  0.500000  1
  Ir  Ir33  1  0.804509  0.625659  0.500000  1
  Ir  Ir34  1  0.821203  0.196087  0.500000  1
  Ir  Ir35  1  0.000431  0.000000  0.500000  1
