# generated using pymatgen
data_Tb8DyHo3Ga20
_symmetry_space_group_name_H-M   'P 1'
_cell_length_a   6.11738403
_cell_length_b   9.63002100
_cell_length_c   11.55777505
_cell_angle_alpha   90.00000000
_cell_angle_beta   90.01052732
_cell_angle_gamma   90.00000000
_symmetry_Int_Tables_number   1
_chemical_formula_structural   Tb8DyHo3Ga20
_chemical_formula_sum   'Tb8 Dy1 Ho3 Ga20'
_cell_volume   680.87471892
_cell_formula_units_Z   1
loop_
 _symmetry_equiv_pos_site_id
 _symmetry_equiv_pos_as_xyz
  1  'x, y, z'
loop_
 _atom_site_type_symbol
 _atom_site_label
 _atom_site_symmetry_multiplicity
 _atom_site_fract_x
 _atom_site_fract_y
 _atom_site_fract_z
 _atom_site_occupancy
  Tb  Tb0  1  0.890370  0.509844  0.351540  1
  Tb  Tb1  1  0.609620  0.990141  0.851440  1
  Tb  Tb2  1  0.109660  0.009929  0.648494  1
  Tb  Tb3  1  0.390219  0.489971  0.148480  1
  Tb  Tb4  1  0.109660  0.490071  0.648494  1
  Tb  Tb5  1  0.390219  0.010029  0.148480  1
  Tb  Tb6  1  0.890370  0.990156  0.351540  1
  Tb  Tb7  1  0.609620  0.509859  0.851440  1
  Dy  Dy8  1  0.848943  0.750000  0.074554  1
  Ho  Ho9  1  0.651030  0.750000  0.574661  1
  Ho  Ho10  1  0.151099  0.250000  0.925379  1
  Ho  Ho11  1  0.348981  0.250000  0.425294  1
  Ga  Ga12  1  0.874914  0.053436  0.090242  1
  Ga  Ga13  1  0.625043  0.446732  0.590173  1
  Ga  Ga14  1  0.125142  0.553131  0.909740  1
  Ga  Ga15  1  0.374986  0.946746  0.409860  1
  Ga  Ga16  1  0.125142  0.946869  0.909740  1
  Ga  Ga17  1  0.374986  0.553254  0.409860  1
  Ga  Ga18  1  0.874914  0.446564  0.090242  1
  Ga  Ga19  1  0.625043  0.053268  0.590173  1
  Ga  Ga20  1  0.173831  0.750000  0.252070  1
  Ga  Ga21  1  0.326567  0.750000  0.751900  1
  Ga  Ga22  1  0.826567  0.250000  0.748078  1
  Ga  Ga23  1  0.673426  0.250000  0.248060  1
  Ga  Ga24  1  0.371189  0.750000  0.004383  1
  Ga  Ga25  1  0.128723  0.750000  0.504597  1
  Ga  Ga26  1  0.628427  0.250000  0.995527  1
  Ga  Ga27  1  0.871291  0.250000  0.495450  1
  Ga  Ga28  1  0.601036  0.750000  0.299690  1
  Ga  Ga29  1  0.898823  0.750000  0.799326  1
  Ga  Ga30  1  0.398882  0.250000  0.700549  1
  Ga  Ga31  1  0.101276  0.250000  0.200547  1
