# generated using pymatgen
data_LiAg3(GeO3)2
_symmetry_space_group_name_H-M   'P 1'
_cell_length_a   5.16524010
_cell_length_b   5.16523921
_cell_length_c   6.50069583
_cell_angle_alpha   82.40153092
_cell_angle_beta   82.40153232
_cell_angle_gamma   119.92472054
_symmetry_Int_Tables_number   1
_chemical_formula_structural   LiAg3(GeO3)2
_chemical_formula_sum   'Li1 Ag3 Ge2 O6'
_cell_volume   144.97502108
_cell_formula_units_Z   1
loop_
 _symmetry_equiv_pos_site_id
 _symmetry_equiv_pos_as_xyz
  1  'x, y, z'
loop_
 _atom_site_type_symbol
 _atom_site_label
 _atom_site_symmetry_multiplicity
 _atom_site_fract_x
 _atom_site_fract_y
 _atom_site_fract_z
 _atom_site_occupancy
  Li  Li0  1  0.500000  0.500000  0.000000  1
  Ag  Ag1  1  0.669173  0.330827  0.500000  1
  Ag  Ag2  1  0.000000  0.000000  0.500000  1
  Ag  Ag3  1  0.330827  0.669173  0.500000  1
  Ge  Ge4  1  0.166675  0.833325  0.000000  1
  Ge  Ge5  1  0.833325  0.166675  0.000000  1
  O  O6  1  0.552755  0.192008  0.839262  1
  O  O7  1  0.083038  0.083038  0.161826  1
  O  O8  1  0.916962  0.916962  0.838174  1
  O  O9  1  0.807992  0.447245  0.160738  1
  O  O10  1  0.447245  0.807992  0.160738  1
  O  O11  1  0.192008  0.552755  0.839262  1
