# generated using pymatgen
data_Mg3ZrGe5PIr7
_symmetry_space_group_name_H-M   'P 1'
_cell_length_a   7.09311129
_cell_length_b   7.09311261
_cell_length_c   7.07028781
_cell_angle_alpha   109.42901604
_cell_angle_beta   109.42901957
_cell_angle_gamma   110.54258470
_symmetry_Int_Tables_number   1
_chemical_formula_structural   Mg3ZrGe5PIr7
_chemical_formula_sum   'Mg3 Zr1 Ge5 P1 Ir7'
_cell_volume   270.42259094
_cell_formula_units_Z   1
loop_
 _symmetry_equiv_pos_site_id
 _symmetry_equiv_pos_as_xyz
  1  'x, y, z'
loop_
 _atom_site_type_symbol
 _atom_site_label
 _atom_site_symmetry_multiplicity
 _atom_site_fract_x
 _atom_site_fract_y
 _atom_site_fract_z
 _atom_site_occupancy
  Mg  Mg0  1  0.998812  0.998812  0.483876  1
  Mg  Mg1  1  0.998960  0.514225  0.999434  1
  Mg  Mg2  1  0.514225  0.998960  0.999434  1
  Zr  Zr3  1  0.530700  0.530700  0.530292  1
  Ge  Ge4  1  0.308981  0.998584  0.306918  1
  Ge  Ge5  1  0.998584  0.308981  0.306918  1
  Ge  Ge6  1  0.292871  0.292871  0.993791  1
  Ge  Ge7  1  0.695674  0.014968  0.693684  1
  Ge  Ge8  1  0.014968  0.695674  0.693684  1
  P  P9  1  0.672617  0.672617  0.006012  1
  Ir  Ir10  1  0.749649  0.250422  0.496156  1
  Ir  Ir11  1  0.746390  0.500975  0.247838  1
  Ir  Ir12  1  0.499447  0.254373  0.752726  1
  Ir  Ir13  1  0.254373  0.499447  0.752726  1
  Ir  Ir14  1  0.250422  0.749649  0.496156  1
  Ir  Ir15  1  0.500975  0.746390  0.247838  1
  Ir  Ir16  1  0.972355  0.972355  0.992517  1
