# generated using pymatgen
data_Dy13Ho3InHg3Rh4
_symmetry_space_group_name_H-M   'P 1'
_cell_length_a   9.59439947
_cell_length_b   9.59440001
_cell_length_c   9.59343999
_cell_angle_alpha   59.98884232
_cell_angle_beta   59.98883869
_cell_angle_gamma   59.99237764
_symmetry_Int_Tables_number   1
_chemical_formula_structural   Dy13Ho3InHg3Rh4
_chemical_formula_sum   'Dy13 Ho3 In1 Hg3 Rh4'
_cell_volume   624.30482542
_cell_formula_units_Z   1
loop_
 _symmetry_equiv_pos_site_id
 _symmetry_equiv_pos_as_xyz
  1  'x, y, z'
loop_
 _atom_site_type_symbol
 _atom_site_label
 _atom_site_symmetry_multiplicity
 _atom_site_fract_x
 _atom_site_fract_y
 _atom_site_fract_z
 _atom_site_occupancy
  Dy  Dy0  1  0.936154  0.936154  0.560664  1
  Dy  Dy1  1  0.147965  0.147965  0.552647  1
  Dy  Dy2  1  0.562693  0.937224  0.562212  1
  Dy  Dy3  1  0.149457  0.149457  0.149853  1
  Dy  Dy4  1  0.310934  0.310934  0.689768  1
  Dy  Dy5  1  0.937224  0.562693  0.562212  1
  Dy  Dy6  1  0.562309  0.562309  0.937672  1
  Dy  Dy7  1  0.560822  0.935848  0.936554  1
  Dy  Dy8  1  0.935848  0.560822  0.936554  1
  Dy  Dy9  1  0.147593  0.553255  0.148099  1
  Dy  Dy10  1  0.311085  0.689937  0.689548  1
  Dy  Dy11  1  0.689937  0.311085  0.689548  1
  Dy  Dy12  1  0.553255  0.147593  0.148099  1
  Ho  Ho13  1  0.689626  0.311350  0.310855  1
  Ho  Ho14  1  0.689631  0.689631  0.310750  1
  Ho  Ho15  1  0.311350  0.689626  0.310855  1
  In  In16  1  0.919923  0.919923  0.919689  1
  Hg  Hg17  1  0.914771  0.914771  0.256394  1
  Hg  Hg18  1  0.256389  0.914758  0.914866  1
  Hg  Hg19  1  0.914758  0.256389  0.914866  1
  Rh  Rh20  1  0.357363  0.357363  0.357098  1
  Rh  Rh21  1  0.927405  0.356971  0.356508  1
  Rh  Rh22  1  0.356536  0.356536  0.928181  1
  Rh  Rh23  1  0.356971  0.927405  0.356508  1
