# generated using pymatgen
data_Y5Ge10P2Ir14Rh5
_symmetry_space_group_name_H-M   'P 1'
_cell_length_a   13.11816005
_cell_length_b   13.08850237
_cell_length_c   4.00502000
_cell_angle_alpha   90.00000000
_cell_angle_beta   90.00000000
_cell_angle_gamma   119.91984046
_symmetry_Int_Tables_number   1
_chemical_formula_structural   Y5Ge10P2Ir14Rh5
_chemical_formula_sum   'Y5 Ge10 P2 Ir14 Rh5'
_cell_volume   596.00298265
_cell_formula_units_Z   1
loop_
 _symmetry_equiv_pos_site_id
 _symmetry_equiv_pos_as_xyz
  1  'x, y, z'
loop_
 _atom_site_type_symbol
 _atom_site_label
 _atom_site_symmetry_multiplicity
 _atom_site_fract_x
 _atom_site_fract_y
 _atom_site_fract_z
 _atom_site_occupancy
  Y  Y0  1  0.334294  0.666750  0.500000  1
  Y  Y1  1  0.665549  0.332557  0.500000  1
  Y  Y2  1  0.999943  0.814841  0.000000  1
  Y  Y3  1  0.185793  0.185593  0.000000  1
  Y  Y4  1  0.815138  0.000142  0.000000  1
  Ge  Ge5  1  0.000824  0.634163  0.500000  1
  Ge  Ge6  1  0.366161  0.366947  0.500000  1
  Ge  Ge7  1  0.632856  0.999523  0.500000  1
  Ge  Ge8  1  0.520805  0.684198  0.000000  1
  Ge  Ge9  1  0.317309  0.836415  0.000000  1
  Ge  Ge10  1  0.165901  0.483352  0.000000  1
  Ge  Ge11  1  0.479920  0.162932  0.000000  1
  Ge  Ge12  1  0.682116  0.518298  0.000000  1
  Ge  Ge13  1  0.833674  0.316506  0.000000  1
  Ge  Ge14  1  0.999939  0.173311  0.500000  1
  P  P15  1  0.820275  0.818975  0.500000  1
  P  P16  1  0.179924  0.999375  0.500000  1
  Ir  Ir17  1  0.517441  0.872684  0.000000  1
  Ir  Ir18  1  0.126738  0.645197  0.000000  1
  Ir  Ir19  1  0.358710  0.485262  0.000000  1
  Ir  Ir20  1  0.483118  0.355178  0.000000  1
  Ir  Ir21  1  0.872051  0.517113  0.000000  1
  Ir  Ir22  1  0.641556  0.126274  0.000000  1
  Ir  Ir23  1  0.999945  0.279918  0.000000  1
  Ir  Ir24  1  0.728153  0.728139  0.000000  1
  Ir  Ir25  1  0.271771  0.999772  0.000000  1
  Ir  Ir26  1  0.180674  0.374132  0.500000  1
  Ir  Ir27  1  0.366279  0.176152  0.500000  1
  Ir  Ir28  1  0.808492  0.632098  0.500000  1
  Ir  Ir29  1  0.819102  0.192141  0.500000  1
  Ir  Ir30  1  0.999745  0.988194  0.500000  1
  Rh  Rh31  1  0.998900  0.445301  0.500000  1
  Rh  Rh32  1  0.555823  0.554561  0.500000  1
  Rh  Rh33  1  0.444887  0.000511  0.500000  1
  Rh  Rh34  1  0.633722  0.809525  0.500000  1
  Rh  Rh35  1  0.192476  0.823973  0.500000  1
