# generated using pymatgen
data_Cs6PrNdI12
_symmetry_space_group_name_H-M   'P 1'
_cell_length_a   10.75916343
_cell_length_b   10.75833972
_cell_length_c   8.93374000
_cell_angle_alpha   90.00000000
_cell_angle_beta   90.00000000
_cell_angle_gamma   89.99610599
_symmetry_Int_Tables_number   1
_chemical_formula_structural   Cs6PrNdI12
_chemical_formula_sum   'Cs6 Pr1 Nd1 I12'
_cell_volume   1034.08697115
_cell_formula_units_Z   1
loop_
 _symmetry_equiv_pos_site_id
 _symmetry_equiv_pos_as_xyz
  1  'x, y, z'
loop_
 _atom_site_type_symbol
 _atom_site_label
 _atom_site_symmetry_multiplicity
 _atom_site_fract_x
 _atom_site_fract_y
 _atom_site_fract_z
 _atom_site_occupancy
  Cs  Cs0  1  0.000000  0.000000  0.500000  1
  Cs  Cs1  1  0.000000  0.000000  0.000000  1
  Cs  Cs2  1  0.233398  0.587611  0.500000  1
  Cs  Cs3  1  0.766602  0.412389  0.500000  1
  Cs  Cs4  1  0.412396  0.232994  0.000000  1
  Cs  Cs5  1  0.587604  0.767006  0.000000  1
  Pr  Pr6  1  0.000000  0.500000  0.000000  1
  Nd  Nd7  1  0.500000  0.000000  0.500000  1
  I  I8  1  0.698248  0.060441  0.747907  1
  I  I9  1  0.301752  0.939559  0.747907  1
  I  I10  1  0.939212  0.699370  0.249220  1
  I  I11  1  0.060788  0.300630  0.249220  1
  I  I12  1  0.301752  0.939559  0.252093  1
  I  I13  1  0.698248  0.060441  0.252093  1
  I  I14  1  0.060788  0.300630  0.750780  1
  I  I15  1  0.939212  0.699370  0.750780  1
  I  I16  1  0.570368  0.719057  0.500000  1
  I  I17  1  0.429632  0.280943  0.500000  1
  I  I18  1  0.282392  0.570640  0.000000  1
  I  I19  1  0.717608  0.429360  0.000000  1
