# generated using pymatgen
data_Tb12Co4OsPb
_symmetry_space_group_name_H-M   'P 1'
_cell_length_a   8.37469072
_cell_length_b   8.37461738
_cell_length_c   8.37468903
_cell_angle_alpha   111.49870545
_cell_angle_beta   110.38072146
_cell_angle_gamma   106.57491692
_symmetry_Int_Tables_number   1
_chemical_formula_structural   Tb12Co4OsPb
_chemical_formula_sum   'Tb12 Co4 Os1 Pb1'
_cell_volume   451.23959927
_cell_formula_units_Z   1
loop_
 _symmetry_equiv_pos_site_id
 _symmetry_equiv_pos_as_xyz
  1  'x, y, z'
loop_
 _atom_site_type_symbol
 _atom_site_label
 _atom_site_symmetry_multiplicity
 _atom_site_fract_x
 _atom_site_fract_y
 _atom_site_fract_z
 _atom_site_occupancy
  Tb  Tb0  1  0.408654  0.214616  0.194027  1
  Tb  Tb1  1  0.591346  0.785384  0.805973  1
  Tb  Tb2  1  0.020589  0.214616  0.805961  1
  Tb  Tb3  1  0.979411  0.785384  0.194039  1
  Tb  Tb4  1  0.181185  0.283902  0.465071  1
  Tb  Tb5  1  0.818815  0.716098  0.534929  1
  Tb  Tb6  1  0.181169  0.716098  0.897284  1
  Tb  Tb7  1  0.818831  0.283902  0.102716  1
  Tb  Tb8  1  0.313606  0.621683  0.308076  1
  Tb  Tb9  1  0.686394  0.378317  0.691924  1
  Tb  Tb10  1  0.313608  0.005524  0.691915  1
  Tb  Tb11  1  0.686392  0.994476  0.308085  1
  Co  Co12  1  0.378970  0.000000  0.378970  1
  Co  Co13  1  0.621030  0.000000  0.621030  1
  Co  Co14  1  0.110623  0.610611  0.499988  1
  Co  Co15  1  0.889377  0.389389  0.500012  1
  Os  Os16  1  0.000000  0.000000  0.000000  1
  Pb  Pb17  1  0.500000  0.500000  0.000000  1
