# generated using pymatgen
data_Si4IrPd6Rh
_symmetry_space_group_name_H-M   'P 1'
_cell_length_a   3.89026100
_cell_length_b   6.03802474
_cell_length_c   7.36129502
_cell_angle_alpha   90.76018192
_cell_angle_beta   90.00000000
_cell_angle_gamma   90.00000000
_symmetry_Int_Tables_number   1
_chemical_formula_structural   Si4IrPd6Rh
_chemical_formula_sum   'Si4 Ir1 Pd6 Rh1'
_cell_volume   172.89786279
_cell_formula_units_Z   1
loop_
 _symmetry_equiv_pos_site_id
 _symmetry_equiv_pos_as_xyz
  1  'x, y, z'
loop_
 _atom_site_type_symbol
 _atom_site_label
 _atom_site_symmetry_multiplicity
 _atom_site_fract_x
 _atom_site_fract_y
 _atom_site_fract_z
 _atom_site_occupancy
  Si  Si0  1  0.250000  0.252172  0.874576  1
  Si  Si1  1  0.750000  0.747292  0.125799  1
  Si  Si2  1  0.250000  0.747784  0.609986  1
  Si  Si3  1  0.750000  0.252182  0.390572  1
  Ir  Ir4  1  0.250000  0.353248  0.567219  1
  Pd  Pd5  1  0.750000  0.530787  0.836538  1
  Pd  Pd6  1  0.250000  0.471080  0.163537  1
  Pd  Pd7  1  0.750000  0.029675  0.675456  1
  Pd  Pd8  1  0.250000  0.967161  0.324816  1
  Pd  Pd9  1  0.250000  0.852970  0.928553  1
  Pd  Pd10  1  0.750000  0.147080  0.071858  1
  Rh  Rh11  1  0.750000  0.648569  0.431090  1
