# generated using pymatgen
data_Sr4Zn2Si8Ni3Ir5
_symmetry_space_group_name_H-M   'P 1'
_cell_length_a   6.43330605
_cell_length_b   6.43330413
_cell_length_c   10.85958994
_cell_angle_alpha   89.82608738
_cell_angle_beta   89.82607698
_cell_angle_gamma   115.75752532
_symmetry_Int_Tables_number   1
_chemical_formula_structural   Sr4Zn2Si8Ni3Ir5
_chemical_formula_sum   'Sr4 Zn2 Si8 Ni3 Ir5'
_cell_volume   404.78689229
_cell_formula_units_Z   1
loop_
 _symmetry_equiv_pos_site_id
 _symmetry_equiv_pos_as_xyz
  1  'x, y, z'
loop_
 _atom_site_type_symbol
 _atom_site_label
 _atom_site_symmetry_multiplicity
 _atom_site_fract_x
 _atom_site_fract_y
 _atom_site_fract_z
 _atom_site_occupancy
  Sr  Sr0  1  0.196969  0.802815  0.500398  1
  Sr  Sr1  1  0.197643  0.800645  0.998991  1
  Sr  Sr2  1  0.802815  0.196969  0.500398  1
  Sr  Sr3  1  0.800645  0.197643  0.998991  1
  Zn  Zn4  1  0.013970  0.013970  0.251130  1
  Zn  Zn5  1  0.978161  0.978161  0.754049  1
  Si  Si6  1  0.517680  0.887058  0.249731  1
  Si  Si7  1  0.111063  0.482766  0.749176  1
  Si  Si8  1  0.482766  0.111063  0.749176  1
  Si  Si9  1  0.887058  0.517680  0.249731  1
  Si  Si10  1  0.349095  0.349095  0.427774  1
  Si  Si11  1  0.655114  0.655114  0.568510  1
  Si  Si12  1  0.343023  0.343023  0.078812  1
  Si  Si13  1  0.656339  0.656339  0.928096  1
  Ni  Ni14  1  0.684380  0.684380  0.363747  1
  Ni  Ni15  1  0.323142  0.323142  0.630029  1
  Ni  Ni16  1  0.684176  0.684176  0.135180  1
  Ir  Ir17  1  0.497061  0.234225  0.252735  1
  Ir  Ir18  1  0.766438  0.505717  0.745827  1
  Ir  Ir19  1  0.505717  0.766438  0.745827  1
  Ir  Ir20  1  0.234225  0.497061  0.252735  1
  Ir  Ir21  1  0.312521  0.312521  0.868956  1
