# generated using pymatgen
data_SrLi2Y2Al7
_symmetry_space_group_name_H-M   'P 1'
_cell_length_a   9.47652469
_cell_length_b   9.47652513
_cell_length_c   9.47652497
_cell_angle_alpha   34.53940311
_cell_angle_beta   34.53939887
_cell_angle_gamma   34.53939564
_symmetry_Int_Tables_number   1
_chemical_formula_structural   SrLi2Y2Al7
_chemical_formula_sum   'Sr1 Li2 Y2 Al7'
_cell_volume   244.07622155
_cell_formula_units_Z   1
loop_
 _symmetry_equiv_pos_site_id
 _symmetry_equiv_pos_as_xyz
  1  'x, y, z'
loop_
 _atom_site_type_symbol
 _atom_site_label
 _atom_site_symmetry_multiplicity
 _atom_site_fract_x
 _atom_site_fract_y
 _atom_site_fract_z
 _atom_site_occupancy
  Sr  Sr0  1  0.000000  0.000000  0.000000  1
  Li  Li1  1  0.664879  0.664879  0.664879  1
  Li  Li2  1  0.335121  0.335121  0.335121  1
  Y  Y3  1  0.858929  0.858929  0.858929  1
  Y  Y4  1  0.141071  0.141071  0.141071  1
  Al  Al5  1  0.411908  0.411908  0.921545  1
  Al  Al6  1  0.921545  0.411908  0.411908  1
  Al  Al7  1  0.411908  0.921545  0.411908  1
  Al  Al8  1  0.500000  0.500000  0.500000  1
  Al  Al9  1  0.588092  0.078455  0.588092  1
  Al  Al10  1  0.078455  0.588092  0.588092  1
  Al  Al11  1  0.588092  0.588092  0.078455  1
