# generated using pymatgen
data_LaZr2Al7Cu2
_symmetry_space_group_name_H-M   'P 1'
_cell_length_a   9.01807237
_cell_length_b   9.01807255
_cell_length_c   9.01807194
_cell_angle_alpha   34.69605661
_cell_angle_beta   34.69605579
_cell_angle_gamma   34.69605054
_symmetry_Int_Tables_number   1
_chemical_formula_structural   LaZr2Al7Cu2
_chemical_formula_sum   'La1 Zr2 Al7 Cu2'
_cell_volume   212.06775778
_cell_formula_units_Z   1
loop_
 _symmetry_equiv_pos_site_id
 _symmetry_equiv_pos_as_xyz
  1  'x, y, z'
loop_
 _atom_site_type_symbol
 _atom_site_label
 _atom_site_symmetry_multiplicity
 _atom_site_fract_x
 _atom_site_fract_y
 _atom_site_fract_z
 _atom_site_occupancy
  La  La0  1  0.000000  0.000000  0.000000  1
  Zr  Zr1  1  0.855982  0.855982  0.855982  1
  Zr  Zr2  1  0.144018  0.144018  0.144018  1
  Al  Al3  1  0.413869  0.413869  0.923589  1
  Al  Al4  1  0.923589  0.413869  0.413869  1
  Al  Al5  1  0.413869  0.923589  0.413869  1
  Al  Al6  1  0.500000  0.500000  0.500000  1
  Al  Al7  1  0.586131  0.076411  0.586131  1
  Al  Al8  1  0.076411  0.586131  0.586131  1
  Al  Al9  1  0.586131  0.586131  0.076411  1
  Cu  Cu10  1  0.665407  0.665407  0.665407  1
  Cu  Cu11  1  0.334593  0.334593  0.334593  1
