# generated using pymatgen
data_TbHo5ScCrO12
_symmetry_space_group_name_H-M   'P 1'
_cell_length_a   6.54692247
_cell_length_b   6.54025222
_cell_length_c   6.53969123
_cell_angle_alpha   92.89240908
_cell_angle_beta   92.87887013
_cell_angle_gamma   92.86370259
_symmetry_Int_Tables_number   1
_chemical_formula_structural   TbHo5ScCrO12
_chemical_formula_sum   'Tb1 Ho5 Sc1 Cr1 O12'
_cell_volume   278.92317456
_cell_formula_units_Z   1
loop_
 _symmetry_equiv_pos_site_id
 _symmetry_equiv_pos_as_xyz
  1  'x, y, z'
loop_
 _atom_site_type_symbol
 _atom_site_label
 _atom_site_symmetry_multiplicity
 _atom_site_fract_x
 _atom_site_fract_y
 _atom_site_fract_z
 _atom_site_occupancy
  Tb  Tb0  1  0.741821  0.925707  0.434845  1
  Ho  Ho1  1  0.926363  0.435673  0.743106  1
  Ho  Ho2  1  0.434675  0.742598  0.925953  1
  Ho  Ho3  1  0.257130  0.074254  0.565376  1
  Ho  Ho4  1  0.074740  0.564517  0.257896  1
  Ho  Ho5  1  0.565079  0.258164  0.073485  1
  Sc  Sc6  1  0.000843  0.000510  0.000242  1
  Cr  Cr7  1  0.499436  0.499359  0.500248  1
  O  O8  1  0.588139  0.460117  0.799704  1
  O  O9  1  0.457616  0.798312  0.588900  1
  O  O10  1  0.799469  0.584817  0.459903  1
  O  O11  1  0.412333  0.540519  0.200504  1
  O  O12  1  0.536919  0.200680  0.410962  1
  O  O13  1  0.200256  0.412273  0.540265  1
  O  O14  1  0.069834  0.914696  0.308476  1
  O  O15  1  0.915559  0.309039  0.068791  1
  O  O16  1  0.691839  0.932568  0.081457  1
  O  O17  1  0.084838  0.691400  0.932018  1
  O  O18  1  0.933744  0.086372  0.692192  1
  O  O19  1  0.309370  0.068425  0.915678  1
