# generated using pymatgen
data_ErBi3(SbO4)4
_symmetry_space_group_name_H-M   'P 1'
_cell_length_a   5.23097375
_cell_length_b   5.24504864
_cell_length_c   13.76821025
_cell_angle_alpha   68.13304298
_cell_angle_beta   90.05435396
_cell_angle_gamma   89.93786353
_symmetry_Int_Tables_number   1
_chemical_formula_structural   ErBi3(SbO4)4
_chemical_formula_sum   'Er1 Bi3 Sb4 O16'
_cell_volume   350.57486279
_cell_formula_units_Z   1
loop_
 _symmetry_equiv_pos_site_id
 _symmetry_equiv_pos_as_xyz
  1  'x, y, z'
loop_
 _atom_site_type_symbol
 _atom_site_label
 _atom_site_symmetry_multiplicity
 _atom_site_fract_x
 _atom_site_fract_y
 _atom_site_fract_z
 _atom_site_occupancy
  Er  Er0  1  0.248600  0.333717  0.168375  1
  Bi  Bi1  1  0.754863  0.674142  0.327382  1
  Bi  Bi2  1  0.748106  0.667475  0.827479  1
  Bi  Bi3  1  0.248860  0.325858  0.672249  1
  Sb  Sb4  1  0.747076  0.928989  0.071501  1
  Sb  Sb5  1  0.753450  0.929925  0.565951  1
  Sb  Sb6  1  0.247575  0.064540  0.936209  1
  Sb  Sb7  1  0.251090  0.075856  0.427240  1
  O  O8  1  0.428206  0.732605  0.049507  1
  O  O9  1  0.066874  0.746276  0.538503  1
  O  O10  1  0.560975  0.248974  0.961460  1
  O  O11  1  0.940391  0.258272  0.458779  1
  O  O12  1  0.592602  0.034070  0.182274  1
  O  O13  1  0.896371  0.020529  0.683498  1
  O  O14  1  0.391590  0.968218  0.820589  1
  O  O15  1  0.099829  0.988122  0.311514  1
  O  O16  1  0.064730  0.169036  0.050340  1
  O  O17  1  0.438935  0.164921  0.543936  1
  O  O18  1  0.930733  0.837041  0.957007  1
  O  O19  1  0.564432  0.836221  0.452609  1
  O  O20  1  0.905530  0.603734  0.178523  1
  O  O21  1  0.613811  0.597247  0.679185  1
  O  O22  1  0.110487  0.395845  0.822343  1
  O  O23  1  0.394884  0.398385  0.313547  1
