# generated using pymatgen
data_Zr8Co7Si14Ru
_symmetry_space_group_name_H-M   'P 1'
_cell_length_a   9.52982094
_cell_length_b   9.52584447
_cell_length_c   9.53597124
_cell_angle_alpha   94.15015597
_cell_angle_beta   94.17236866
_cell_angle_gamma   148.73192667
_symmetry_Int_Tables_number   1
_chemical_formula_structural   Zr8Co7Si14Ru
_chemical_formula_sum   'Zr8 Co7 Si14 Ru1'
_cell_volume   432.72592511
_cell_formula_units_Z   1
loop_
 _symmetry_equiv_pos_site_id
 _symmetry_equiv_pos_as_xyz
  1  'x, y, z'
loop_
 _atom_site_type_symbol
 _atom_site_label
 _atom_site_symmetry_multiplicity
 _atom_site_fract_x
 _atom_site_fract_y
 _atom_site_fract_z
 _atom_site_occupancy
  Zr  Zr0  1  0.137802  0.137802  0.275606  1
  Zr  Zr1  1  0.862347  0.862347  0.724692  1
  Zr  Zr2  1  0.862139  0.137099  0.000888  1
  Zr  Zr3  1  0.138749  0.863789  0.000888  1
  Zr  Zr4  1  0.499574  0.304300  0.803896  1
  Zr  Zr5  1  0.501190  0.696443  0.197185  1
  Zr  Zr6  1  0.695995  0.500742  0.197185  1
  Zr  Zr7  1  0.304322  0.499596  0.803896  1
  Co  Co8  1  0.103646  0.603646  0.207291  1
  Co  Co9  1  0.101102  0.896491  0.499059  1
  Co  Co10  1  0.397957  0.602568  0.499059  1
  Co  Co11  1  0.600970  0.396098  0.499170  1
  Co  Co12  1  0.898200  0.103072  0.499170  1
  Co  Co13  1  0.897589  0.397589  0.795179  1
  Co  Co14  1  0.602466  0.102466  0.204930  1
  Si  Si15  1  0.506316  0.099227  0.587667  1
  Si  Si16  1  0.501969  0.909732  0.407552  1
  Si  Si17  1  0.905583  0.497820  0.407552  1
  Si  Si18  1  0.081351  0.488439  0.587667  1
  Si  Si19  1  0.749315  0.749671  0.000332  1
  Si  Si20  1  0.251017  0.250661  0.000332  1
  Si  Si21  1  0.289168  0.289168  0.578335  1
  Si  Si22  1  0.710918  0.710918  0.421838  1
  Si  Si23  1  0.720400  0.300431  0.004157  1
  Si  Si24  1  0.283757  0.703726  0.004157  1
  Si  Si25  1  0.999874  0.302193  0.302059  1
  Si  Si26  1  0.990573  0.693041  0.697224  1
  Si  Si27  1  0.706651  0.004183  0.697224  1
  Si  Si28  1  0.302186  0.999867  0.302059  1
  Ru  Ru29  1  0.396876  0.896876  0.793754  1
