# generated using pymatgen
data_La15Nd5(SiSb2)4
_symmetry_space_group_name_H-M   'P 1'
_cell_length_a   8.34182595
_cell_length_b   9.46058811
_cell_length_c   12.64165250
_cell_angle_alpha   89.98539705
_cell_angle_beta   89.94628920
_cell_angle_gamma   90.01015938
_symmetry_Int_Tables_number   1
_chemical_formula_structural   La15Nd5(SiSb2)4
_chemical_formula_sum   'La15 Nd5 Si4 Sb8'
_cell_volume   997.66076971
_cell_formula_units_Z   1
loop_
 _symmetry_equiv_pos_site_id
 _symmetry_equiv_pos_as_xyz
  1  'x, y, z'
loop_
 _atom_site_type_symbol
 _atom_site_label
 _atom_site_symmetry_multiplicity
 _atom_site_fract_x
 _atom_site_fract_y
 _atom_site_fract_z
 _atom_site_occupancy
  La  La0  1  0.863711  0.750573  0.790633  1
  La  La1  1  0.135522  0.249969  0.209260  1
  La  La2  1  0.363892  0.250972  0.708858  1
  La  La3  1  0.635348  0.749280  0.291108  1
  La  La4  1  0.307285  0.455320  0.437059  1
  La  La5  1  0.191551  0.455908  0.936962  1
  La  La6  1  0.310875  0.043220  0.437944  1
  La  La7  1  0.807790  0.544324  0.062725  1
  La  La8  1  0.692596  0.956239  0.562488  1
  La  La9  1  0.808472  0.955921  0.062490  1
  La  La10  1  0.191921  0.044353  0.937787  1
  La  La11  1  0.340594  0.748915  0.714765  1
  La  La12  1  0.659105  0.250094  0.285827  1
  La  La13  1  0.840743  0.250088  0.785616  1
  La  La14  1  0.158908  0.750067  0.213793  1
  Nd  Nd15  1  0.032993  0.752244  0.501615  1
  Nd  Nd16  1  0.967657  0.249432  0.498770  1
  Nd  Nd17  1  0.531423  0.250035  0.998034  1
  Nd  Nd18  1  0.468875  0.748908  0.001167  1
  Nd  Nd19  1  0.689721  0.543137  0.562466  1
  Si  Si20  1  0.078161  0.749805  0.980447  1
  Si  Si21  1  0.921604  0.250223  0.019296  1
  Si  Si22  1  0.578630  0.251802  0.519724  1
  Si  Si23  1  0.425392  0.747410  0.482456  1
  Sb  Sb24  1  0.576549  0.508674  0.827055  1
  Sb  Sb25  1  0.424066  0.491186  0.171363  1
  Sb  Sb26  1  0.072842  0.492143  0.670385  1
  Sb  Sb27  1  0.424270  0.008322  0.171327  1
  Sb  Sb28  1  0.923598  0.509522  0.330363  1
  Sb  Sb29  1  0.575294  0.991593  0.828263  1
  Sb  Sb30  1  0.924386  0.991438  0.328464  1
  Sb  Sb31  1  0.076225  0.008881  0.671488  1
