# generated using pymatgen
data_NaY6Co6Sn23
_symmetry_space_group_name_H-M   'P 1'
_cell_length_a   9.71567500
_cell_length_b   9.71567630
_cell_length_c   9.94909200
_cell_angle_alpha   90.00000000
_cell_angle_beta   90.00000000
_cell_angle_gamma   120.00000579
_symmetry_Int_Tables_number   1
_chemical_formula_structural   NaY6Co6Sn23
_chemical_formula_sum   'Na1 Y6 Co6 Sn23'
_cell_volume   813.31740969
_cell_formula_units_Z   1
loop_
 _symmetry_equiv_pos_site_id
 _symmetry_equiv_pos_as_xyz
  1  'x, y, z'
loop_
 _atom_site_type_symbol
 _atom_site_label
 _atom_site_symmetry_multiplicity
 _atom_site_fract_x
 _atom_site_fract_y
 _atom_site_fract_z
 _atom_site_occupancy
  Na  Na0  1  0.000000  0.000000  0.000000  1
  Y  Y1  1  0.042390  0.521195  0.305647  1
  Y  Y2  1  0.478805  0.957610  0.305647  1
  Y  Y3  1  0.478805  0.521195  0.305647  1
  Y  Y4  1  0.957610  0.478805  0.694353  1
  Y  Y5  1  0.521195  0.042390  0.694353  1
  Y  Y6  1  0.521195  0.478805  0.694353  1
  Co  Co7  1  0.170249  0.829751  0.799343  1
  Co  Co8  1  0.659502  0.829751  0.799343  1
  Co  Co9  1  0.170249  0.340498  0.799343  1
  Co  Co10  1  0.829751  0.170249  0.200657  1
  Co  Co11  1  0.340498  0.170249  0.200657  1
  Co  Co12  1  0.829751  0.659502  0.200657  1
  Sn  Sn13  1  0.000000  0.000000  0.500000  1
  Sn  Sn14  1  0.115894  0.884106  0.272262  1
  Sn  Sn15  1  0.768211  0.884106  0.272262  1
  Sn  Sn16  1  0.115894  0.231789  0.272262  1
  Sn  Sn17  1  0.884106  0.115894  0.727738  1
  Sn  Sn18  1  0.231789  0.115894  0.727738  1
  Sn  Sn19  1  0.884106  0.768211  0.727738  1
  Sn  Sn20  1  0.343820  0.000000  0.000000  1
  Sn  Sn21  1  0.656180  0.656180  0.000000  1
  Sn  Sn22  1  0.000000  0.343820  0.000000  1
  Sn  Sn23  1  0.343820  0.343820  0.000000  1
  Sn  Sn24  1  0.000000  0.656180  0.000000  1
  Sn  Sn25  1  0.656180  0.000000  0.000000  1
  Sn  Sn26  1  0.781423  0.562846  0.452671  1
  Sn  Sn27  1  0.781423  0.218577  0.452671  1
  Sn  Sn28  1  0.437154  0.218577  0.452671  1
  Sn  Sn29  1  0.218577  0.437154  0.547329  1
  Sn  Sn30  1  0.218577  0.781423  0.547329  1
  Sn  Sn31  1  0.562846  0.781423  0.547329  1
  Sn  Sn32  1  0.666667  0.333333  0.184792  1
  Sn  Sn33  1  0.333333  0.666667  0.815208  1
  Sn  Sn34  1  0.666667  0.333333  0.884881  1
  Sn  Sn35  1  0.333333  0.666667  0.115119  1
