# generated using pymatgen
data_Ho3TmFe13Co
_symmetry_space_group_name_H-M   'P 1'
_cell_length_a   5.06051670
_cell_length_b   5.06051747
_cell_length_c   12.33151487
_cell_angle_alpha   78.15959674
_cell_angle_beta   78.15959364
_cell_angle_gamma   59.99999907
_symmetry_Int_Tables_number   1
_chemical_formula_structural   Ho3TmFe13Co
_chemical_formula_sum   'Ho3 Tm1 Fe13 Co1'
_cell_volume   265.70011318
_cell_formula_units_Z   1
loop_
 _symmetry_equiv_pos_site_id
 _symmetry_equiv_pos_as_xyz
  1  'x, y, z'
loop_
 _atom_site_type_symbol
 _atom_site_label
 _atom_site_symmetry_multiplicity
 _atom_site_fract_x
 _atom_site_fract_y
 _atom_site_fract_z
 _atom_site_occupancy
  Ho  Ho0  1  0.947528  0.947528  0.157414  1
  Ho  Ho1  1  0.052657  0.052657  0.842031  1
  Ho  Ho2  1  0.850148  0.850148  0.449555  1
  Tm  Tm3  1  0.149512  0.149512  0.551466  1
  Fe  Fe4  1  0.721222  0.721222  0.836336  1
  Fe  Fe5  1  0.278807  0.278807  0.163577  1
  Fe  Fe6  1  0.612429  0.612429  0.162713  1
  Fe  Fe7  1  0.387627  0.387627  0.837119  1
  Fe  Fe8  1  0.000059  0.500015  0.999911  1
  Fe  Fe9  1  0.500015  0.000059  0.999911  1
  Fe  Fe10  1  0.500015  0.500015  0.999911  1
  Fe  Fe11  1  0.390113  0.390113  0.328344  1
  Fe  Fe12  1  0.891430  0.390113  0.328344  1
  Fe  Fe13  1  0.390113  0.891430  0.328344  1
  Fe  Fe14  1  0.609839  0.609839  0.671606  1
  Fe  Fe15  1  0.108716  0.609839  0.671606  1
  Fe  Fe16  1  0.609839  0.108716  0.671606  1
  Co  Co17  1  0.499931  0.499931  0.500206  1
