# generated using pymatgen
data_NpPa4NO9
_symmetry_space_group_name_H-M   'P 1'
_cell_length_a   6.65458289
_cell_length_b   6.65438302
_cell_length_c   6.65402500
_cell_angle_alpha   99.59675049
_cell_angle_beta   99.59976031
_cell_angle_gamma   131.80060032
_symmetry_Int_Tables_number   1
_chemical_formula_structural   NpPa4NO9
_chemical_formula_sum   'Np1 Pa4 N1 O9'
_cell_volume   200.50765100
_cell_formula_units_Z   1
loop_
 _symmetry_equiv_pos_site_id
 _symmetry_equiv_pos_as_xyz
  1  'x, y, z'
loop_
 _atom_site_type_symbol
 _atom_site_label
 _atom_site_symmetry_multiplicity
 _atom_site_fract_x
 _atom_site_fract_y
 _atom_site_fract_z
 _atom_site_occupancy
  Np  Np0  1  0.999984  0.000013  0.000011  1
  Pa  Pa1  1  0.407216  0.203846  0.598731  1
  Pa  Pa2  1  0.796118  0.394890  0.203371  1
  Pa  Pa3  1  0.191551  0.592785  0.796643  1
  Pa  Pa4  1  0.605109  0.808466  0.401235  1
  N  N5  1  0.749980  0.249968  0.499989  1
  O  O6  1  0.151892  0.457971  0.103123  1
  O  O7  1  0.542034  0.645137  0.693905  1
  O  O8  1  0.951206  0.848108  0.306089  1
  O  O9  1  0.354867  0.048789  0.896898  1
  O  O10  1  0.846815  0.543634  0.900852  1
  O  O11  1  0.250016  0.750008  0.499989  1
  O  O12  1  0.642796  0.945967  0.099162  1
  O  O13  1  0.054030  0.153175  0.696812  1
  O  O14  1  0.456386  0.357244  0.303190  1
