# generated using pymatgen
data_Mn3Al10GaRu
_symmetry_space_group_name_H-M   'P 1'
_cell_length_a   5.07273170
_cell_length_b   5.05935743
_cell_length_c   8.79952033
_cell_angle_alpha   105.24845179
_cell_angle_beta   90.32671262
_cell_angle_gamma   100.56104586
_symmetry_Int_Tables_number   1
_chemical_formula_structural   Mn3Al10GaRu
_chemical_formula_sum   'Mn3 Al10 Ga1 Ru1'
_cell_volume   213.84965129
_cell_formula_units_Z   1
loop_
 _symmetry_equiv_pos_site_id
 _symmetry_equiv_pos_as_xyz
  1  'x, y, z'
loop_
 _atom_site_type_symbol
 _atom_site_label
 _atom_site_symmetry_multiplicity
 _atom_site_fract_x
 _atom_site_fract_y
 _atom_site_fract_z
 _atom_site_occupancy
  Mn  Mn0  1  0.720763  0.847270  0.400492  1
  Mn  Mn1  1  0.664435  0.610972  0.866343  1
  Mn  Mn2  1  0.334985  0.386130  0.132529  1
  Al  Al3  1  0.943266  0.806486  0.672399  1
  Al  Al4  1  0.047636  0.181312  0.322078  1
  Al  Al5  1  0.795929  0.260413  0.633208  1
  Al  Al6  1  0.843217  0.532367  0.129167  1
  Al  Al7  1  0.154705  0.473777  0.874961  1
  Al  Al8  1  0.495026  0.890096  0.126211  1
  Al  Al9  1  0.508916  0.111403  0.879519  1
  Al  Al10  1  0.568442  0.329295  0.372077  1
  Al  Al11  1  0.437984  0.682173  0.626739  1
  Al  Al12  1  0.204349  0.732732  0.363557  1
  Ga  Ga13  1  0.999576  0.999854  0.999476  1
  Ru  Ru14  1  0.280769  0.155721  0.601244  1
