# generated using pymatgen
data_Hf2Zr4Ti4Ga5Ge
_symmetry_space_group_name_H-M   'P 1'
_cell_length_a   7.91576100
_cell_length_b   7.92213422
_cell_length_c   5.47384100
_cell_angle_alpha   90.00000000
_cell_angle_beta   90.00000000
_cell_angle_gamma   119.97339567
_symmetry_Int_Tables_number   1
_chemical_formula_structural   Hf2Zr4Ti4Ga5Ge
_chemical_formula_sum   'Hf2 Zr4 Ti4 Ga5 Ge1'
_cell_volume   297.35417700
_cell_formula_units_Z   1
loop_
 _symmetry_equiv_pos_site_id
 _symmetry_equiv_pos_as_xyz
  1  'x, y, z'
loop_
 _atom_site_type_symbol
 _atom_site_label
 _atom_site_symmetry_multiplicity
 _atom_site_fract_x
 _atom_site_fract_y
 _atom_site_fract_z
 _atom_site_occupancy
  Hf  Hf0  1  0.999179  0.756587  0.750000  1
  Hf  Hf1  1  0.242593  0.243413  0.750000  1
  Zr  Zr2  1  0.243413  0.000000  0.250000  1
  Zr  Zr3  1  0.755721  0.000000  0.750000  1
  Zr  Zr4  1  0.000791  0.243670  0.250000  1
  Zr  Zr5  1  0.757120  0.756330  0.250000  1
  Ti  Ti6  1  0.334058  0.667313  0.999780  1
  Ti  Ti7  1  0.666746  0.332687  0.999780  1
  Ti  Ti8  1  0.666746  0.332687  0.500220  1
  Ti  Ti9  1  0.334058  0.667313  0.500220  1
  Ga  Ga10  1  0.397657  0.000000  0.750000  1
  Ga  Ga11  1  0.000182  0.600102  0.250000  1
  Ga  Ga12  1  0.000586  0.400989  0.750000  1
  Ga  Ga13  1  0.400080  0.399898  0.250000  1
  Ga  Ga14  1  0.599597  0.599011  0.750000  1
  Ge  Ge15  1  0.601471  0.000000  0.250000  1
