# generated using pymatgen
data_YbYNbIr3
_symmetry_space_group_name_H-M   'P 1'
_cell_length_a   5.24864398
_cell_length_b   5.24864342
_cell_length_c   5.24864446
_cell_angle_alpha   65.13588062
_cell_angle_beta   65.13588419
_cell_angle_gamma   65.13587731
_symmetry_Int_Tables_number   1
_chemical_formula_structural   YbYNbIr3
_chemical_formula_sum   'Yb1 Y1 Nb1 Ir3'
_cell_volume   113.69418597
_cell_formula_units_Z   1
loop_
 _symmetry_equiv_pos_site_id
 _symmetry_equiv_pos_as_xyz
  1  'x, y, z'
loop_
 _atom_site_type_symbol
 _atom_site_label
 _atom_site_symmetry_multiplicity
 _atom_site_fract_x
 _atom_site_fract_y
 _atom_site_fract_z
 _atom_site_occupancy
  Yb  Yb0  1  0.999478  0.999478  0.999478  1
  Y  Y1  1  0.250220  0.250220  0.250220  1
  Nb  Nb2  1  0.623949  0.623949  0.623949  1
  Ir  Ir3  1  0.626584  0.626584  0.123186  1
  Ir  Ir4  1  0.626584  0.123186  0.626584  1
  Ir  Ir5  1  0.123186  0.626584  0.626584  1
