# generated using pymatgen
data_Yb4CuSi8Pt7
_symmetry_space_group_name_H-M   'P 1'
_cell_length_a   4.24632755
_cell_length_b   8.60804451
_cell_length_c   9.56351773
_cell_angle_alpha   88.56637789
_cell_angle_beta   90.07330836
_cell_angle_gamma   89.74992955
_symmetry_Int_Tables_number   1
_chemical_formula_structural   Yb4CuSi8Pt7
_chemical_formula_sum   'Yb4 Cu1 Si8 Pt7'
_cell_volume   349.45812581
_cell_formula_units_Z   1
loop_
 _symmetry_equiv_pos_site_id
 _symmetry_equiv_pos_as_xyz
  1  'x, y, z'
loop_
 _atom_site_type_symbol
 _atom_site_label
 _atom_site_symmetry_multiplicity
 _atom_site_fract_x
 _atom_site_fract_y
 _atom_site_fract_z
 _atom_site_occupancy
  Yb  Yb0  1  0.760917  0.629444  0.754386  1
  Yb  Yb1  1  0.743491  0.130294  0.751268  1
  Yb  Yb2  1  0.261087  0.871407  0.247092  1
  Yb  Yb3  1  0.237790  0.367672  0.246857  1
  Cu  Cu4  1  0.183607  0.140676  0.499213  1
  Si  Si5  1  0.729614  0.375346  0.004699  1
  Si  Si6  1  0.698566  0.112525  0.375138  1
  Si  Si7  1  0.305187  0.889962  0.622795  1
  Si  Si8  1  0.269539  0.625512  0.995474  1
  Si  Si9  1  0.771044  0.872443  0.004998  1
  Si  Si10  1  0.192955  0.387706  0.621388  1
  Si  Si11  1  0.233572  0.125987  0.994657  1
  Si  Si12  1  0.803873  0.610326  0.381495  1
  Pt  Pt13  1  0.230204  0.379763  0.874117  1
  Pt  Pt14  1  0.767774  0.620442  0.127977  1
  Pt  Pt15  1  0.814915  0.868481  0.499144  1
  Pt  Pt16  1  0.681337  0.353368  0.498047  1
  Pt  Pt17  1  0.734338  0.120387  0.123202  1
  Pt  Pt18  1  0.311585  0.639675  0.503847  1
  Pt  Pt19  1  0.268606  0.878585  0.874205  1
