# generated using pymatgen
data_Nd2Ho5Tm(Si3Rh)4
_symmetry_space_group_name_H-M   'P 1'
_cell_length_a   8.18562738
_cell_length_b   8.18562806
_cell_length_c   7.97440200
_cell_angle_alpha   90.00000000
_cell_angle_beta   90.00000000
_cell_angle_gamma   119.96486938
_symmetry_Int_Tables_number   1
_chemical_formula_structural   Nd2Ho5Tm(Si3Rh)4
_chemical_formula_sum   'Nd2 Ho5 Tm1 Si12 Rh4'
_cell_volume   462.89913222
_cell_formula_units_Z   1
loop_
 _symmetry_equiv_pos_site_id
 _symmetry_equiv_pos_as_xyz
  1  'x, y, z'
loop_
 _atom_site_type_symbol
 _atom_site_label
 _atom_site_symmetry_multiplicity
 _atom_site_fract_x
 _atom_site_fract_y
 _atom_site_fract_z
 _atom_site_occupancy
  Nd  Nd0  1  0.000066  0.999934  0.250000  1
  Nd  Nd1  1  0.999914  0.000086  0.750000  1
  Ho  Ho2  1  0.508606  0.017533  0.250000  1
  Ho  Ho3  1  0.982467  0.491394  0.250000  1
  Ho  Ho4  1  0.491320  0.508680  0.750000  1
  Ho  Ho5  1  0.491344  0.982607  0.750000  1
  Ho  Ho6  1  0.017393  0.508656  0.750000  1
  Tm  Tm7  1  0.508457  0.491543  0.250000  1
  Si  Si8  1  0.168392  0.831608  0.500924  1
  Si  Si9  1  0.168620  0.336831  0.500772  1
  Si  Si10  1  0.663169  0.831380  0.500772  1
  Si  Si11  1  0.831657  0.168343  0.498966  1
  Si  Si12  1  0.831217  0.663087  0.498499  1
  Si  Si13  1  0.336913  0.168783  0.498499  1
  Si  Si14  1  0.831657  0.168343  0.001034  1
  Si  Si15  1  0.831217  0.663087  0.001501  1
  Si  Si16  1  0.336913  0.168783  0.001501  1
  Si  Si17  1  0.168392  0.831608  0.999076  1
  Si  Si18  1  0.168620  0.336831  0.999228  1
  Si  Si19  1  0.663169  0.831380  0.999228  1
  Rh  Rh20  1  0.333839  0.666161  0.464352  1
  Rh  Rh21  1  0.666410  0.333590  0.534152  1
  Rh  Rh22  1  0.666410  0.333590  0.965848  1
  Rh  Rh23  1  0.333839  0.666161  0.035648  1
