# generated using pymatgen
data_Dy2Er3Tm15Sn16
_symmetry_space_group_name_H-M   'P 1'
_cell_length_a   7.96121291
_cell_length_b   8.07731150
_cell_length_c   15.27731590
_cell_angle_alpha   90.01179955
_cell_angle_beta   89.87304605
_cell_angle_gamma   89.88307519
_symmetry_Int_Tables_number   1
_chemical_formula_structural   Dy2Er3Tm15Sn16
_chemical_formula_sum   'Dy2 Er3 Tm15 Sn16'
_cell_volume   982.40632339
_cell_formula_units_Z   1
loop_
 _symmetry_equiv_pos_site_id
 _symmetry_equiv_pos_as_xyz
  1  'x, y, z'
loop_
 _atom_site_type_symbol
 _atom_site_label
 _atom_site_symmetry_multiplicity
 _atom_site_fract_x
 _atom_site_fract_y
 _atom_site_fract_z
 _atom_site_occupancy
  Dy  Dy0  1  0.521526  0.321011  0.596647  1
  Dy  Dy1  1  0.020935  0.179471  0.903431  1
  Er  Er2  1  0.978614  0.820480  0.097141  1
  Er  Er3  1  0.478702  0.678851  0.096644  1
  Er  Er4  1  0.978232  0.820836  0.403187  1
  Tm  Tm5  1  0.367251  0.837018  0.877066  1
  Tm  Tm6  1  0.868013  0.662834  0.622641  1
  Tm  Tm7  1  0.631817  0.162927  0.377276  1
  Tm  Tm8  1  0.132467  0.337346  0.122885  1
  Tm  Tm9  1  0.632246  0.162877  0.122940  1
  Tm  Tm10  1  0.131686  0.337122  0.377528  1
  Tm  Tm11  1  0.368499  0.837154  0.622682  1
  Tm  Tm12  1  0.867495  0.662623  0.877053  1
  Tm  Tm13  1  0.522368  0.320857  0.902625  1
  Tm  Tm14  1  0.022774  0.179046  0.597424  1
  Tm  Tm15  1  0.477136  0.678763  0.402737  1
  Tm  Tm16  1  0.198547  0.504007  0.749898  1
  Tm  Tm17  1  0.698448  0.996067  0.749802  1
  Tm  Tm18  1  0.801383  0.496091  0.250316  1
  Tm  Tm19  1  0.301682  0.003991  0.250253  1
  Sn  Sn20  1  0.294105  0.037181  0.041718  1
  Sn  Sn21  1  0.792102  0.463867  0.458143  1
  Sn  Sn22  1  0.708036  0.963983  0.541827  1
  Sn  Sn23  1  0.207503  0.536569  0.958192  1
  Sn  Sn24  1  0.705188  0.962777  0.958361  1
  Sn  Sn25  1  0.206606  0.537819  0.541173  1
  Sn  Sn26  1  0.293205  0.037089  0.458784  1
  Sn  Sn27  1  0.793414  0.461624  0.041063  1
  Sn  Sn28  1  0.564714  0.619100  0.749876  1
  Sn  Sn29  1  0.064600  0.880642  0.749868  1
  Sn  Sn30  1  0.435310  0.380630  0.250062  1
  Sn  Sn31  1  0.935438  0.119906  0.250121  1
  Sn  Sn32  1  0.331496  0.148857  0.750420  1
  Sn  Sn33  1  0.831409  0.351045  0.749635  1
  Sn  Sn34  1  0.667883  0.850958  0.250383  1
  Sn  Sn35  1  0.169169  0.648577  0.250197  1
