# generated using pymatgen
data_NdYHo4(Al3Os)8
_symmetry_space_group_name_H-M   'P 1'
_cell_length_a   8.83338944
_cell_length_b   8.82216437
_cell_length_c   9.60279000
_cell_angle_alpha   90.00000000
_cell_angle_beta   90.00000000
_cell_angle_gamma   119.92744736
_symmetry_Int_Tables_number   1
_chemical_formula_structural   NdYHo4(Al3Os)8
_chemical_formula_sum   'Nd1 Y1 Ho4 Al24 Os8'
_cell_volume   648.55622152
_cell_formula_units_Z   1
loop_
 _symmetry_equiv_pos_site_id
 _symmetry_equiv_pos_as_xyz
  1  'x, y, z'
loop_
 _atom_site_type_symbol
 _atom_site_label
 _atom_site_symmetry_multiplicity
 _atom_site_fract_x
 _atom_site_fract_y
 _atom_site_fract_z
 _atom_site_occupancy
  Nd  Nd0  1  0.190918  0.382752  0.250000  1
  Y  Y1  1  0.193532  0.807190  0.250000  1
  Ho  Ho2  1  0.806671  0.612940  0.750000  1
  Ho  Ho3  1  0.611651  0.806186  0.250000  1
  Ho  Ho4  1  0.388151  0.194037  0.750000  1
  Ho  Ho5  1  0.806976  0.194144  0.750000  1
  Al  Al6  1  0.333472  0.667667  0.014740  1
  Al  Al7  1  0.666959  0.332937  0.981428  1
  Al  Al8  1  0.666959  0.332937  0.518572  1
  Al  Al9  1  0.333472  0.667667  0.485260  1
  Al  Al10  1  0.164057  0.327459  0.577697  1
  Al  Al11  1  0.835893  0.672709  0.426191  1
  Al  Al12  1  0.673209  0.836410  0.575766  1
  Al  Al13  1  0.835893  0.672709  0.073809  1
  Al  Al14  1  0.328705  0.163736  0.426467  1
  Al  Al15  1  0.164057  0.327459  0.922303  1
  Al  Al16  1  0.163623  0.836588  0.574706  1
  Al  Al17  1  0.328705  0.163736  0.073533  1
  Al  Al18  1  0.834727  0.163070  0.427392  1
  Al  Al19  1  0.673209  0.836410  0.924234  1
  Al  Al20  1  0.834727  0.163070  0.072608  1
  Al  Al21  1  0.163623  0.836588  0.925294  1
  Al  Al22  1  0.561157  0.122712  0.250000  1
  Al  Al23  1  0.439681  0.878074  0.750000  1
  Al  Al24  1  0.875340  0.439186  0.250000  1
  Al  Al25  1  0.122314  0.561266  0.750000  1
  Al  Al26  1  0.563539  0.439329  0.250000  1
  Al  Al27  1  0.439708  0.561737  0.750000  1
  Al  Al28  1  0.995839  0.995461  0.250000  1
  Al  Al29  1  0.000446  0.999547  0.750000  1
  Os  Os30  1  0.500442  0.000126  0.999762  1
  Os  Os31  1  0.999059  0.500863  0.998518  1
  Os  Os32  1  0.500442  0.000126  0.500238  1
  Os  Os33  1  0.501541  0.500767  0.998693  1
  Os  Os34  1  0.999059  0.500863  0.501482  1
  Os  Os35  1  0.501541  0.500767  0.501307  1
  Os  Os36  1  0.000352  0.000387  0.999951  1
  Os  Os37  1  0.000352  0.000387  0.500049  1
