# generated using pymatgen
data_Y2Lu3(TcO6)2
_symmetry_space_group_name_H-M   'P 1'
_cell_length_a   6.73847530
_cell_length_b   6.73847540
_cell_length_c   7.42494574
_cell_angle_alpha   74.04912938
_cell_angle_beta   74.04912870
_cell_angle_gamma   49.45130710
_symmetry_Int_Tables_number   1
_chemical_formula_structural   Y2Lu3(TcO6)2
_chemical_formula_sum   'Y2 Lu3 Tc2 O12'
_cell_volume   244.17446805
_cell_formula_units_Z   1
loop_
 _symmetry_equiv_pos_site_id
 _symmetry_equiv_pos_as_xyz
  1  'x, y, z'
loop_
 _atom_site_type_symbol
 _atom_site_label
 _atom_site_symmetry_multiplicity
 _atom_site_fract_x
 _atom_site_fract_y
 _atom_site_fract_z
 _atom_site_occupancy
  Y  Y0  1  0.695810  0.695810  0.642753  1
  Y  Y1  1  0.304190  0.304190  0.357247  1
  Lu  Lu2  1  0.684089  0.684089  0.176082  1
  Lu  Lu3  1  0.315911  0.315911  0.823918  1
  Lu  Lu4  1  0.000000  0.000000  0.500000  1
  Tc  Tc5  1  0.786276  0.213724  0.000000  1
  Tc  Tc6  1  0.213724  0.786276  0.000000  1
  O  O7  1  0.999808  0.999808  0.208549  1
  O  O8  1  0.000192  0.000192  0.791451  1
  O  O9  1  0.583494  0.083035  0.082497  1
  O  O10  1  0.416506  0.916965  0.917503  1
  O  O11  1  0.916965  0.416506  0.917503  1
  O  O12  1  0.083035  0.583494  0.082497  1
  O  O13  1  0.500849  0.500849  0.179307  1
  O  O14  1  0.499151  0.499151  0.820693  1
  O  O15  1  0.403414  0.898766  0.422615  1
  O  O16  1  0.596586  0.101234  0.577385  1
  O  O17  1  0.101234  0.596586  0.577385  1
  O  O18  1  0.898766  0.403414  0.422615  1
