# generated using pymatgen
data_Ho10IrRuAu4
_symmetry_space_group_name_H-M   'P 1'
_cell_length_a   11.28827200
_cell_length_b   11.28827200
_cell_length_c   6.27261200
_cell_angle_alpha   90.00000000
_cell_angle_beta   90.00000000
_cell_angle_gamma   90.00000000
_symmetry_Int_Tables_number   1
_chemical_formula_structural   Ho10IrRuAu4
_chemical_formula_sum   'Ho20 Ir2 Ru2 Au8'
_cell_volume   799.28811568
_cell_formula_units_Z   2
loop_
 _symmetry_equiv_pos_site_id
 _symmetry_equiv_pos_as_xyz
  1  'x, y, z'
loop_
 _atom_site_type_symbol
 _atom_site_label
 _atom_site_symmetry_multiplicity
 _atom_site_fract_x
 _atom_site_fract_y
 _atom_site_fract_z
 _atom_site_occupancy
  Ho  Ho0  1  0.301059  0.082797  0.344145  1
  Ho  Ho1  1  0.301059  0.917203  0.844145  1
  Ho  Ho2  1  0.698941  0.082797  0.844145  1
  Ho  Ho3  1  0.698941  0.917203  0.344145  1
  Ho  Ho4  1  0.582797  0.801059  0.844145  1
  Ho  Ho5  1  0.582797  0.198941  0.344145  1
  Ho  Ho6  1  0.417203  0.801059  0.344145  1
  Ho  Ho7  1  0.417203  0.198941  0.844145  1
  Ho  Ho8  1  0.202191  0.416220  0.655149  1
  Ho  Ho9  1  0.202191  0.583780  0.155149  1
  Ho  Ho10  1  0.797809  0.416220  0.155149  1
  Ho  Ho11  1  0.797809  0.583780  0.655149  1
  Ho  Ho12  1  0.916220  0.702191  0.155149  1
  Ho  Ho13  1  0.916220  0.297809  0.655149  1
  Ho  Ho14  1  0.083780  0.702191  0.655149  1
  Ho  Ho15  1  0.083780  0.297809  0.155149  1
  Ho  Ho16  1  0.000000  0.000000  0.496969  1
  Ho  Ho17  1  0.000000  0.000000  0.996969  1
  Ho  Ho18  1  0.500000  0.500000  0.996969  1
  Ho  Ho19  1  0.500000  0.500000  0.496969  1
  Ir  Ir20  1  0.000000  0.500000  0.910020  1
  Ir  Ir21  1  0.000000  0.500000  0.410020  1
  Ru  Ru22  1  0.500000  0.000000  0.099266  1
  Ru  Ru23  1  0.500000  0.000000  0.599266  1
  Au  Au24  1  0.842620  0.155469  0.249899  1
  Au  Au25  1  0.842620  0.844531  0.749899  1
  Au  Au26  1  0.157380  0.155469  0.749899  1
  Au  Au27  1  0.157380  0.844531  0.249899  1
  Au  Au28  1  0.655469  0.342620  0.749899  1
  Au  Au29  1  0.655469  0.657380  0.249899  1
  Au  Au30  1  0.344531  0.342620  0.249899  1
  Au  Au31  1  0.344531  0.657380  0.749899  1
