# generated using pymatgen
data_Ho8Er4Fe2I17
_symmetry_space_group_name_H-M   'P 1'
_cell_length_a   9.71381607
_cell_length_b   11.65041079
_cell_length_c   11.67147685
_cell_angle_alpha   93.57743008
_cell_angle_beta   104.76772532
_cell_angle_gamma   113.93162687
_symmetry_Int_Tables_number   1
_chemical_formula_structural   Ho8Er4Fe2I17
_chemical_formula_sum   'Ho8 Er4 Fe2 I17'
_cell_volume   1146.70117855
_cell_formula_units_Z   1
loop_
 _symmetry_equiv_pos_site_id
 _symmetry_equiv_pos_as_xyz
  1  'x, y, z'
loop_
 _atom_site_type_symbol
 _atom_site_label
 _atom_site_symmetry_multiplicity
 _atom_site_fract_x
 _atom_site_fract_y
 _atom_site_fract_z
 _atom_site_occupancy
  Ho  Ho0  1  0.050624  0.500724  0.318500  1
  Ho  Ho1  1  0.992592  0.808193  0.590313  1
  Ho  Ho2  1  0.657523  0.241686  0.279440  1
  Ho  Ho3  1  0.007552  0.191403  0.410059  1
  Ho  Ho4  1  0.217923  0.671973  0.981214  1
  Ho  Ho5  1  0.253126  0.976153  0.888052  1
  Ho  Ho6  1  0.343383  0.758333  0.719996  1
  Ho  Ho7  1  0.949485  0.499752  0.681511  1
  Er  Er8  1  0.747243  0.024726  0.112192  1
  Er  Er9  1  0.137372  0.285866  0.153986  1
  Er  Er10  1  0.782203  0.327593  0.019135  1
  Er  Er11  1  0.861208  0.713787  0.845918  1
  Fe  Fe12  1  0.104076  0.738123  0.785839  1
  Fe  Fe13  1  0.895698  0.261805  0.213959  1
  I  I14  1  0.785358  0.528450  0.417740  1
  I  I15  1  0.647850  0.420682  0.764624  1
  I  I16  1  0.844747  0.897201  0.327463  1
  I  I17  1  0.326585  0.214350  0.366876  1
  I  I18  1  0.154979  0.102841  0.672068  1
  I  I19  1  0.584982  0.052907  0.843740  1
  I  I20  1  0.760316  0.190898  0.538175  1
  I  I21  1  0.552261  0.713130  0.954256  1
  I  I22  1  0.352131  0.578847  0.235823  1
  I  I23  1  0.214731  0.471359  0.582071  1
  I  I24  1  0.056288  0.368026  0.897799  1
  I  I25  1  0.448351  0.287318  0.045926  1
  I  I26  1  0.999751  0.000064  0.000197  1
  I  I27  1  0.239619  0.809148  0.461588  1
  I  I28  1  0.415658  0.947239  0.156370  1
  I  I29  1  0.673158  0.785679  0.632965  1
  I  I30  1  0.943227  0.631744  0.102207  1
