# generated using pymatgen
data_Y4Er8Tc3Pt
_symmetry_space_group_name_H-M   'P 1'
_cell_length_a   6.28789428
_cell_length_b   7.39289002
_cell_length_c   9.11631300
_cell_angle_alpha   90.00000000
_cell_angle_beta   90.00000000
_cell_angle_gamma   90.04951310
_symmetry_Int_Tables_number   1
_chemical_formula_structural   Y4Er8Tc3Pt
_chemical_formula_sum   'Y4 Er8 Tc3 Pt1'
_cell_volume   423.77813215
_cell_formula_units_Z   1
loop_
 _symmetry_equiv_pos_site_id
 _symmetry_equiv_pos_as_xyz
  1  'x, y, z'
loop_
 _atom_site_type_symbol
 _atom_site_label
 _atom_site_symmetry_multiplicity
 _atom_site_fract_x
 _atom_site_fract_y
 _atom_site_fract_z
 _atom_site_occupancy
  Y  Y0  1  0.874993  0.541042  0.250000  1
  Y  Y1  1  0.621977  0.037836  0.250000  1
  Y  Y2  1  0.126526  0.457383  0.750000  1
  Y  Y3  1  0.372794  0.965971  0.750000  1
  Er  Er4  1  0.328330  0.676439  0.066922  1
  Er  Er5  1  0.165707  0.177473  0.436632  1
  Er  Er6  1  0.668281  0.318731  0.558969  1
  Er  Er7  1  0.836756  0.826668  0.939960  1
  Er  Er8  1  0.668281  0.318731  0.941031  1
  Er  Er9  1  0.836756  0.826668  0.560040  1
  Er  Er10  1  0.328330  0.676439  0.433078  1
  Er  Er11  1  0.165707  0.177473  0.063368  1
  Tc  Tc12  1  0.042164  0.887260  0.250000  1
  Tc  Tc13  1  0.459758  0.388174  0.250000  1
  Tc  Tc14  1  0.954430  0.112153  0.750000  1
  Pt  Pt15  1  0.549211  0.611558  0.750000  1
