# generated using pymatgen
data_TmLu4B4P8Ir19
_symmetry_space_group_name_H-M   'P 1'
_cell_length_a   12.38653047
_cell_length_b   12.36257279
_cell_length_c   3.93802900
_cell_angle_alpha   90.00000000
_cell_angle_beta   90.00000000
_cell_angle_gamma   119.69562575
_symmetry_Int_Tables_number   1
_chemical_formula_structural   TmLu4B4P8Ir19
_chemical_formula_sum   'Tm1 Lu4 B4 P8 Ir19'
_cell_volume   523.83189604
_cell_formula_units_Z   1
loop_
 _symmetry_equiv_pos_site_id
 _symmetry_equiv_pos_as_xyz
  1  'x, y, z'
loop_
 _atom_site_type_symbol
 _atom_site_label
 _atom_site_symmetry_multiplicity
 _atom_site_fract_x
 _atom_site_fract_y
 _atom_site_fract_z
 _atom_site_occupancy
  Tm  Tm0  1  0.002203  0.816638  0.000000  1
  Lu  Lu1  1  0.332750  0.666542  0.500000  1
  Lu  Lu2  1  0.675624  0.331200  0.500000  1
  Lu  Lu3  1  0.181480  0.187214  0.000000  1
  Lu  Lu4  1  0.815336  0.002706  0.000000  1
  B  B5  1  0.305517  0.815390  0.000000  1
  B  B6  1  0.178437  0.487791  0.000000  1
  B  B7  1  0.509711  0.691986  0.000000  1
  B  B8  1  0.823703  0.303864  0.000000  1
  P  P9  1  0.487233  0.173881  0.000000  1
  P  P10  1  0.692191  0.513274  0.000000  1
  P  P11  1  0.358011  0.363572  0.500000  1
  P  P12  1  0.640701  0.000926  0.500000  1
  P  P13  1  0.005950  0.640097  0.500000  1
  P  P14  1  0.816952  0.820869  0.500000  1
  P  P15  1  0.179713  0.998344  0.500000  1
  P  P16  1  0.002302  0.185570  0.500000  1
  Ir  Ir17  1  0.199358  0.817742  0.500000  1
  Ir  Ir18  1  0.181987  0.381863  0.500000  1
  Ir  Ir19  1  0.619711  0.804250  0.500000  1
  Ir  Ir20  1  0.821594  0.200264  0.500000  1
  Ir  Ir21  1  0.374800  0.181331  0.500000  1
  Ir  Ir22  1  0.807558  0.624089  0.500000  1
  Ir  Ir23  1  0.136068  0.637543  0.000000  1
  Ir  Ir24  1  0.359682  0.501440  0.000000  1
  Ir  Ir25  1  0.496486  0.858280  0.000000  1
  Ir  Ir26  1  0.643604  0.131071  0.000000  1
  Ir  Ir27  1  0.491259  0.363069  0.000000  1
  Ir  Ir28  1  0.868306  0.497020  0.000000  1
  Ir  Ir29  1  0.539252  0.548654  0.500000  1
  Ir  Ir30  1  0.454156  0.995038  0.500000  1
  Ir  Ir31  1  0.003148  0.455698  0.500000  1
  Ir  Ir32  1  0.701504  0.707391  0.000000  1
  Ir  Ir33  1  0.292398  0.994145  0.000000  1
  Ir  Ir34  1  0.002037  0.299893  0.000000  1
  Ir  Ir35  1  0.999278  0.001356  0.500000  1
