# generated using pymatgen
data_UTi3(PO4)6
_symmetry_space_group_name_H-M   'P 1'
_cell_length_a   8.73808821
_cell_length_b   8.73771538
_cell_length_c   9.03852160
_cell_angle_alpha   89.94073661
_cell_angle_beta   61.15890963
_cell_angle_gamma   120.00159313
_symmetry_Int_Tables_number   1
_chemical_formula_structural   UTi3(PO4)6
_chemical_formula_sum   'U1 Ti3 P6 O24'
_cell_volume   496.09634725
_cell_formula_units_Z   1
loop_
 _symmetry_equiv_pos_site_id
 _symmetry_equiv_pos_as_xyz
  1  'x, y, z'
loop_
 _atom_site_type_symbol
 _atom_site_label
 _atom_site_symmetry_multiplicity
 _atom_site_fract_x
 _atom_site_fract_y
 _atom_site_fract_z
 _atom_site_occupancy
  U  U0  1  0.216464  0.858952  0.924373  1
  Ti  Ti1  1  0.785885  0.142334  0.072188  1
  Ti  Ti2  1  0.786506  0.642771  0.571076  1
  Ti  Ti3  1  0.215047  0.358053  0.426456  1
  P  P4  1  0.285985  0.033586  0.261952  1
  P  P5  1  0.704225  0.751693  0.260702  1
  P  P6  1  0.285742  0.269479  0.746669  1
  P  P7  1  0.738218  0.969149  0.745257  1
  P  P8  1  0.986485  0.517803  0.744523  1
  P  P9  1  0.985234  0.450925  0.262563  1
  O  O10  1  0.494094  0.066615  0.219219  1
  O  O11  1  0.858877  0.358759  0.914985  1
  O  O12  1  0.919044  0.142059  0.581599  1
  O  O13  1  0.837785  0.543375  0.719892  1
  O  O14  1  0.133516  0.627855  0.089493  1
  O  O15  1  0.093539  0.853119  0.415283  1
  O  O16  1  0.138220  0.429924  0.283351  1
  O  O17  1  0.134428  0.705191  0.766793  1
  O  O18  1  0.138202  0.499938  0.578619  1
  O  O19  1  0.282546  0.205006  0.288492  1
  O  O20  1  0.281732  0.009234  0.088515  1
  O  O21  1  0.709843  0.925786  0.223397  1
  O  O22  1  0.507371  0.576365  0.286070  1
  O  O23  1  0.273751  0.280602  0.584803  1
  O  O24  1  0.846478  0.489651  0.418211  1
  O  O25  1  0.086823  0.226553  0.920222  1
  O  O26  1  0.902640  0.776407  0.084368  1
  O  O27  1  0.526149  0.927069  0.770989  1
  O  O28  1  0.733371  0.737134  0.412377  1
  O  O29  1  0.486548  0.444740  0.717241  1
  O  O30  1  0.306455  0.101041  0.766249  1
  O  O31  1  0.727638  0.996834  0.916109  1
  O  O32  1  0.741434  0.797692  0.715153  1
  O  O33  1  0.849727  0.284306  0.222810  1
