# generated using pymatgen
data_Nd4GaI5
_symmetry_space_group_name_H-M   'P 1'
_cell_length_a   10.05695975
_cell_length_b   10.05696053
_cell_length_c   9.04400816
_cell_angle_alpha   78.24640407
_cell_angle_beta   78.24640224
_cell_angle_gamma   25.39688656
_symmetry_Int_Tables_number   1
_chemical_formula_structural   Nd4GaI5
_chemical_formula_sum   'Nd4 Ga1 I5'
_cell_volume   383.66808883
_cell_formula_units_Z   1
loop_
 _symmetry_equiv_pos_site_id
 _symmetry_equiv_pos_as_xyz
  1  'x, y, z'
loop_
 _atom_site_type_symbol
 _atom_site_label
 _atom_site_symmetry_multiplicity
 _atom_site_fract_x
 _atom_site_fract_y
 _atom_site_fract_z
 _atom_site_occupancy
  Nd  Nd0  1  0.850658  0.850658  0.076676  1
  Nd  Nd1  1  0.149342  0.149342  0.923324  1
  Nd  Nd2  1  0.501037  0.501037  0.216963  1
  Nd  Nd3  1  0.498963  0.498963  0.783037  1
  Ga  Ga4  1  0.000000  0.000000  0.000000  1
  I  I5  1  0.672282  0.672282  0.170177  1
  I  I6  1  0.327718  0.327718  0.829823  1
  I  I7  1  0.665153  0.665153  0.662493  1
  I  I8  1  0.334847  0.334847  0.337507  1
  I  I9  1  0.000000  0.000000  0.500000  1
