# generated using pymatgen
data_Rb4AcUTe6
_symmetry_space_group_name_H-M   'P 1'
_cell_length_a   8.46621439
_cell_length_b   8.46624083
_cell_length_c   8.99295828
_cell_angle_alpha   80.84312854
_cell_angle_beta   80.84298589
_cell_angle_gamma   119.99010902
_symmetry_Int_Tables_number   1
_chemical_formula_structural   Rb4AcUTe6
_chemical_formula_sum   'Rb4 Ac1 U1 Te6'
_cell_volume   529.26203532
_cell_formula_units_Z   1
loop_
 _symmetry_equiv_pos_site_id
 _symmetry_equiv_pos_as_xyz
  1  'x, y, z'
loop_
 _atom_site_type_symbol
 _atom_site_label
 _atom_site_symmetry_multiplicity
 _atom_site_fract_x
 _atom_site_fract_y
 _atom_site_fract_z
 _atom_site_occupancy
  Rb  Rb0  1  0.500030  0.499971  0.000000  1
  Rb  Rb1  1  0.656077  0.343925  0.500001  1
  Rb  Rb2  1  0.344051  0.655948  0.500001  1
  Rb  Rb3  1  0.000256  0.999744  0.500000  1
  Ac  Ac4  1  0.832343  0.167659  0.000000  1
  U  U5  1  0.167580  0.832413  0.999997  1
  Te  Te6  1  0.817883  0.791245  0.204807  1
  Te  Te7  1  0.208756  0.182118  0.795193  1
  Te  Te8  1  0.402303  0.040869  0.207017  1
  Te  Te9  1  0.542784  0.931195  0.792212  1
  Te  Te10  1  0.959132  0.597698  0.792984  1
  Te  Te11  1  0.068805  0.457216  0.207788  1
