# generated using pymatgen
data_HoLu5C2I7
_symmetry_space_group_name_H-M   'P 1'
_cell_length_a   10.84284016
_cell_length_b   10.84284018
_cell_length_c   12.67040362
_cell_angle_alpha   58.35013022
_cell_angle_beta   58.35013093
_cell_angle_gamma   20.71091452
_symmetry_Int_Tables_number   1
_chemical_formula_structural   HoLu5C2I7
_chemical_formula_sum   'Ho1 Lu5 C2 I7'
_cell_volume   445.60392286
_cell_formula_units_Z   1
loop_
 _symmetry_equiv_pos_site_id
 _symmetry_equiv_pos_as_xyz
  1  'x, y, z'
loop_
 _atom_site_type_symbol
 _atom_site_label
 _atom_site_symmetry_multiplicity
 _atom_site_fract_x
 _atom_site_fract_y
 _atom_site_fract_z
 _atom_site_occupancy
  Ho  Ho0  1  0.237725  0.237725  0.805598  1
  Lu  Lu1  1  0.306292  0.306292  0.378924  1
  Lu  Lu2  1  0.138154  0.138154  0.445854  1
  Lu  Lu3  1  0.861249  0.861249  0.554207  1
  Lu  Lu4  1  0.694400  0.694400  0.620694  1
  Lu  Lu5  1  0.761744  0.761744  0.197747  1
  C  C6  1  0.281194  0.281194  0.591268  1
  C  C7  1  0.719199  0.719199  0.406012  1
  I  I8  1  0.160369  0.160369  0.179539  1
  I  I9  1  0.842404  0.842404  0.819463  1
  I  I10  1  0.060047  0.060047  0.718096  1
  I  I11  1  0.940160  0.940160  0.280874  1
  I  I12  1  0.500391  0.500391  0.499494  1
  I  I13  1  0.384824  0.384824  0.074983  1
  I  I14  1  0.611848  0.611848  0.927248  1
