# generated using pymatgen
data_TbMnGa6Fe5
_symmetry_space_group_name_H-M   'P 1'
_cell_length_a   6.60593985
_cell_length_b   6.60594024
_cell_length_c   6.60593935
_cell_angle_alpha   135.32951834
_cell_angle_beta   99.54301767
_cell_angle_gamma   97.06816580
_symmetry_Int_Tables_number   1
_chemical_formula_structural   TbMnGa6Fe5
_chemical_formula_sum   'Tb1 Mn1 Ga6 Fe5'
_cell_volume   187.40094141
_cell_formula_units_Z   1
loop_
 _symmetry_equiv_pos_site_id
 _symmetry_equiv_pos_as_xyz
  1  'x, y, z'
loop_
 _atom_site_type_symbol
 _atom_site_label
 _atom_site_symmetry_multiplicity
 _atom_site_fract_x
 _atom_site_fract_y
 _atom_site_fract_z
 _atom_site_occupancy
  Tb  Tb0  1  0.000190  0.000000  0.000190  1
  Mn  Mn1  1  0.758606  0.500000  0.258606  1
  Ga  Ga2  1  0.814211  0.314365  0.499845  1
  Ga  Ga3  1  0.655307  0.655393  0.999914  1
  Ga  Ga4  1  0.344521  0.344607  0.999914  1
  Ga  Ga5  1  0.332994  0.000000  0.332994  1
  Ga  Ga6  1  0.185480  0.685635  0.499845  1
  Ga  Ga7  1  0.667023  0.000000  0.667023  1
  Fe  Fe8  1  0.242267  0.500000  0.742267  1
  Fe  Fe9  1  0.000917  0.001169  0.499952  1
  Fe  Fe10  1  0.498783  0.998831  0.999749  1
  Fe  Fe11  1  0.000917  0.500965  0.999749  1
  Fe  Fe12  1  0.498783  0.499035  0.499952  1
