# generated using pymatgen
data_Tb6YbRuBr12
_symmetry_space_group_name_H-M   'P 1'
_cell_length_a   9.29653780
_cell_length_b   9.29653703
_cell_length_c   9.29653948
_cell_angle_alpha   107.05689530
_cell_angle_beta   107.05689434
_cell_angle_gamma   107.05690758
_symmetry_Int_Tables_number   1
_chemical_formula_structural   Tb6YbRuBr12
_chemical_formula_sum   'Tb6 Yb1 Ru1 Br12'
_cell_volume   668.08710560
_cell_formula_units_Z   1
loop_
 _symmetry_equiv_pos_site_id
 _symmetry_equiv_pos_as_xyz
  1  'x, y, z'
loop_
 _atom_site_type_symbol
 _atom_site_label
 _atom_site_symmetry_multiplicity
 _atom_site_fract_x
 _atom_site_fract_y
 _atom_site_fract_z
 _atom_site_occupancy
  Tb  Tb0  1  0.102191  0.025857  0.312560  1
  Tb  Tb1  1  0.312560  0.102191  0.025857  1
  Tb  Tb2  1  0.025857  0.312560  0.102191  1
  Tb  Tb3  1  0.897809  0.974143  0.687440  1
  Tb  Tb4  1  0.687440  0.897809  0.974143  1
  Tb  Tb5  1  0.974143  0.687440  0.897809  1
  Yb  Yb6  1  0.500000  0.500000  0.500000  1
  Ru  Ru7  1  0.000000  0.000000  0.000000  1
  Br  Br8  1  0.072698  0.681496  0.222383  1
  Br  Br9  1  0.222383  0.072698  0.681496  1
  Br  Br10  1  0.681496  0.222383  0.072698  1
  Br  Br11  1  0.927302  0.318504  0.777617  1
  Br  Br12  1  0.777617  0.927302  0.318504  1
  Br  Br13  1  0.318504  0.777617  0.927302  1
  Br  Br14  1  0.456592  0.159890  0.380384  1
  Br  Br15  1  0.380384  0.456592  0.159890  1
  Br  Br16  1  0.159890  0.380384  0.456592  1
  Br  Br17  1  0.543408  0.840110  0.619616  1
  Br  Br18  1  0.619616  0.543408  0.840110  1
  Br  Br19  1  0.840110  0.619616  0.543408  1
