# generated using pymatgen
data_La6ReBr10
_symmetry_space_group_name_H-M   'P 1'
_cell_length_a   7.90508478
_cell_length_b   9.58876674
_cell_length_c   9.75590574
_cell_angle_alpha   108.77972968
_cell_angle_beta   96.59776062
_cell_angle_gamma   106.93595386
_symmetry_Int_Tables_number   1
_chemical_formula_structural   La6ReBr10
_chemical_formula_sum   'La6 Re1 Br10'
_cell_volume   651.74538777
_cell_formula_units_Z   1
loop_
 _symmetry_equiv_pos_site_id
 _symmetry_equiv_pos_as_xyz
  1  'x, y, z'
loop_
 _atom_site_type_symbol
 _atom_site_label
 _atom_site_symmetry_multiplicity
 _atom_site_fract_x
 _atom_site_fract_y
 _atom_site_fract_z
 _atom_site_occupancy
  La  La0  1  0.132704  0.052573  0.756212  1
  La  La1  1  0.619475  0.846908  0.803357  1
  La  La2  1  0.867296  0.947427  0.243788  1
  La  La3  1  0.028532  0.708730  0.909538  1
  La  La4  1  0.380525  0.153092  0.196643  1
  La  La5  1  0.971468  0.291270  0.090462  1
  Re  Re6  1  0.000000  0.000000  0.000000  1
  Br  Br7  1  0.197385  0.741865  0.648748  1
  Br  Br8  1  0.643588  0.535287  0.724697  1
  Br  Br9  1  0.246654  0.081521  0.452654  1
  Br  Br10  1  0.802615  0.258135  0.351252  1
  Br  Br11  1  0.551639  0.172073  0.920954  1
  Br  Br12  1  0.753346  0.918479  0.547346  1
  Br  Br13  1  0.908340  0.629089  0.170331  1
  Br  Br14  1  0.356412  0.464713  0.275303  1
  Br  Br15  1  0.091660  0.370911  0.829669  1
  Br  Br16  1  0.448361  0.827927  0.079046  1
