# generated using pymatgen
data_Pr3Y7(In2Rh)4
_symmetry_space_group_name_H-M   'P 1'
_cell_length_a   3.70528700
_cell_length_b   8.09925130
_cell_length_c   18.48945632
_cell_angle_alpha   89.77713896
_cell_angle_beta   90.00000000
_cell_angle_gamma   90.00000000
_symmetry_Int_Tables_number   1
_chemical_formula_structural   Pr3Y7(In2Rh)4
_chemical_formula_sum   'Pr3 Y7 In8 Rh4'
_cell_volume   554.86532165
_cell_formula_units_Z   1
loop_
 _symmetry_equiv_pos_site_id
 _symmetry_equiv_pos_as_xyz
  1  'x, y, z'
loop_
 _atom_site_type_symbol
 _atom_site_label
 _atom_site_symmetry_multiplicity
 _atom_site_fract_x
 _atom_site_fract_y
 _atom_site_fract_z
 _atom_site_occupancy
  Pr  Pr0  1  0.500000  0.243470  0.781188  1
  Pr  Pr1  1  0.500000  0.001856  0.999498  1
  Pr  Pr2  1  0.500000  0.499307  0.498807  1
  Y  Y3  1  0.500000  0.756846  0.219575  1
  Y  Y4  1  0.500000  0.255088  0.280470  1
  Y  Y5  1  0.500000  0.741847  0.718967  1
  Y  Y6  1  0.500000  0.116968  0.588392  1
  Y  Y7  1  0.500000  0.880354  0.410185  1
  Y  Y8  1  0.500000  0.382571  0.090601  1
  Y  Y9  1  0.500000  0.620579  0.912490  1
  In  In10  1  0.000000  0.075129  0.153791  1
  In  In11  1  0.000000  0.916641  0.845992  1
  In  In12  1  0.000000  0.429075  0.651544  1
  In  In13  1  0.000000  0.574734  0.345685  1
  In  In14  1  0.000000  0.200230  0.430480  1
  In  In15  1  0.000000  0.797778  0.567942  1
  In  In16  1  0.000000  0.304457  0.934690  1
  In  In17  1  0.000000  0.701382  0.069734  1
  Rh  Rh18  1  0.000000  0.016429  0.693400  1
  Rh  Rh19  1  0.000000  0.978147  0.305161  1
  Rh  Rh20  1  0.000000  0.478687  0.195389  1
  Rh  Rh21  1  0.000000  0.528427  0.806019  1
