# generated using pymatgen
data_CsPaRhS3
_symmetry_space_group_name_H-M   'P 1'
_cell_length_a   8.27647585
_cell_length_b   8.27647559
_cell_length_c   10.25031900
_cell_angle_alpha   90.00000000
_cell_angle_beta   90.00000000
_cell_angle_gamma   153.52330919
_symmetry_Int_Tables_number   1
_chemical_formula_structural   CsPaRhS3
_chemical_formula_sum   'Cs2 Pa2 Rh2 S6'
_cell_volume   313.04095690
_cell_formula_units_Z   2
loop_
 _symmetry_equiv_pos_site_id
 _symmetry_equiv_pos_as_xyz
  1  'x, y, z'
loop_
 _atom_site_type_symbol
 _atom_site_label
 _atom_site_symmetry_multiplicity
 _atom_site_fract_x
 _atom_site_fract_y
 _atom_site_fract_z
 _atom_site_occupancy
  Cs  Cs0  1  0.254674  0.745327  0.250000  1
  Cs  Cs1  1  0.745327  0.254674  0.750000  1
  Pa  Pa2  1  0.000000  0.000000  0.000000  1
  Pa  Pa3  1  0.000000  0.000000  0.500000  1
  Rh  Rh4  1  0.529512  0.470489  0.250000  1
  Rh  Rh5  1  0.470489  0.529512  0.750000  1
  S  S6  1  0.616074  0.383927  0.053494  1
  S  S7  1  0.942174  0.057827  0.250000  1
  S  S8  1  0.616074  0.383927  0.446507  1
  S  S9  1  0.383927  0.616074  0.553494  1
  S  S10  1  0.057827  0.942174  0.750000  1
  S  S11  1  0.383927  0.616074  0.946507  1
