# generated using pymatgen
data_DyMnAl10Rh
_symmetry_space_group_name_H-M   'P 1'
_cell_length_a   6.81889305
_cell_length_b   6.81889297
_cell_length_c   9.08511480
_cell_angle_alpha   90.52034601
_cell_angle_beta   90.52034511
_cell_angle_gamma   96.85075673
_symmetry_Int_Tables_number   1
_chemical_formula_structural   DyMnAl10Rh
_chemical_formula_sum   'Dy2 Mn2 Al20 Rh2'
_cell_volume   419.37796905
_cell_formula_units_Z   2
loop_
 _symmetry_equiv_pos_site_id
 _symmetry_equiv_pos_as_xyz
  1  'x, y, z'
loop_
 _atom_site_type_symbol
 _atom_site_label
 _atom_site_symmetry_multiplicity
 _atom_site_fract_x
 _atom_site_fract_y
 _atom_site_fract_z
 _atom_site_occupancy
  Dy  Dy0  1  0.873483  0.126517  0.750000  1
  Dy  Dy1  1  0.126517  0.873483  0.250000  1
  Mn  Mn2  1  0.000000  0.500000  0.000000  1
  Mn  Mn3  1  0.500000  0.000000  0.500000  1
  Al  Al4  1  0.619559  0.372463  0.548666  1
  Al  Al5  1  0.380441  0.627537  0.451334  1
  Al  Al6  1  0.372463  0.619559  0.048666  1
  Al  Al7  1  0.627537  0.380441  0.951334  1
  Al  Al8  1  0.229420  0.222010  0.496426  1
  Al  Al9  1  0.770580  0.777990  0.503574  1
  Al  Al10  1  0.777990  0.770580  0.003574  1
  Al  Al11  1  0.222010  0.229420  0.996426  1
  Al  Al12  1  0.848335  0.161377  0.098831  1
  Al  Al13  1  0.151665  0.838623  0.901169  1
  Al  Al14  1  0.161377  0.848335  0.598831  1
  Al  Al15  1  0.838623  0.151665  0.401169  1
  Al  Al16  1  0.861515  0.587655  0.753731  1
  Al  Al17  1  0.138485  0.412345  0.246269  1
  Al  Al18  1  0.412345  0.138485  0.746269  1
  Al  Al19  1  0.587655  0.861515  0.253731  1
  Al  Al20  1  0.221379  0.478790  0.755972  1
  Al  Al21  1  0.778621  0.521210  0.244028  1
  Al  Al22  1  0.521210  0.778621  0.744028  1
  Al  Al23  1  0.478790  0.221379  0.255972  1
  Rh  Rh24  1  0.000000  0.500000  0.500000  1
  Rh  Rh25  1  0.500000  0.000000  0.000000  1
