# generated using pymatgen
data_Ba4Cd4Fe3H22
_symmetry_space_group_name_H-M   'P 1'
_cell_length_a   7.27867900
_cell_length_b   7.27867900
_cell_length_c   7.27867900
_cell_angle_alpha   90.00000000
_cell_angle_beta   90.00000000
_cell_angle_gamma   90.00000000
_symmetry_Int_Tables_number   1
_chemical_formula_structural   Ba4Cd4Fe3H22
_chemical_formula_sum   'Ba4 Cd4 Fe3 H22'
_cell_volume   385.61835745
_cell_formula_units_Z   1
loop_
 _symmetry_equiv_pos_site_id
 _symmetry_equiv_pos_as_xyz
  1  'x, y, z'
loop_
 _atom_site_type_symbol
 _atom_site_label
 _atom_site_symmetry_multiplicity
 _atom_site_fract_x
 _atom_site_fract_y
 _atom_site_fract_z
 _atom_site_occupancy
  Ba  Ba0  1  0.285132  0.285132  0.714868  1
  Ba  Ba1  1  0.285132  0.714868  0.285132  1
  Ba  Ba2  1  0.714868  0.285132  0.285132  1
  Ba  Ba3  1  0.714868  0.714868  0.714868  1
  Cd  Cd4  1  0.788587  0.788587  0.211413  1
  Cd  Cd5  1  0.788587  0.211413  0.788587  1
  Cd  Cd6  1  0.211413  0.788587  0.788587  1
  Cd  Cd7  1  0.211413  0.211413  0.211413  1
  Fe  Fe8  1  0.000000  0.000000  0.500000  1
  Fe  Fe9  1  0.000000  0.500000  0.000000  1
  Fe  Fe10  1  0.500000  0.000000  0.000000  1
  H  H11  1  0.000000  0.500000  0.218678  1
  H  H12  1  0.500000  0.781322  0.000000  1
  H  H13  1  0.781322  0.000000  0.500000  1
  H  H14  1  0.000000  0.781322  0.500000  1
  H  H15  1  0.500000  0.000000  0.218678  1
  H  H16  1  0.781322  0.500000  0.000000  1
  H  H17  1  0.000000  0.500000  0.781322  1
  H  H18  1  0.500000  0.218678  0.000000  1
  H  H19  1  0.000000  0.218678  0.500000  1
  H  H20  1  0.500000  0.000000  0.781322  1
  H  H21  1  0.218678  0.000000  0.500000  1
  H  H22  1  0.218678  0.500000  0.000000  1
  H  H23  1  0.000000  0.000000  0.275792  1
  H  H24  1  0.000000  0.724208  0.000000  1
  H  H25  1  0.724208  0.000000  0.000000  1
  H  H26  1  0.000000  0.000000  0.724208  1
  H  H27  1  0.000000  0.275792  0.000000  1
  H  H28  1  0.275792  0.000000  0.000000  1
  H  H29  1  0.639145  0.639145  0.360855  1
  H  H30  1  0.639145  0.360855  0.639145  1
  H  H31  1  0.360855  0.639145  0.639145  1
  H  H32  1  0.360855  0.360855  0.360855  1
