# generated using pymatgen
data_Pr3Tm(MoN3)4
_symmetry_space_group_name_H-M   'P 1'
_cell_length_a   7.32062346
_cell_length_b   7.32062364
_cell_length_c   6.25786115
_cell_angle_alpha   76.24784999
_cell_angle_beta   76.24784886
_cell_angle_gamma   83.87061413
_symmetry_Int_Tables_number   1
_chemical_formula_structural   Pr3Tm(MoN3)4
_chemical_formula_sum   'Pr3 Tm1 Mo4 N12'
_cell_volume   315.96673065
_cell_formula_units_Z   1
loop_
 _symmetry_equiv_pos_site_id
 _symmetry_equiv_pos_as_xyz
  1  'x, y, z'
loop_
 _atom_site_type_symbol
 _atom_site_label
 _atom_site_symmetry_multiplicity
 _atom_site_fract_x
 _atom_site_fract_y
 _atom_site_fract_z
 _atom_site_occupancy
  Pr  Pr0  1  0.688229  0.311771  0.250000  1
  Pr  Pr1  1  0.085752  0.914248  0.250000  1
  Pr  Pr2  1  0.314162  0.685838  0.750000  1
  Tm  Tm3  1  0.910067  0.089933  0.750000  1
  Mo  Mo4  1  0.801774  0.617936  0.750240  1
  Mo  Mo5  1  0.198310  0.379417  0.257427  1
  Mo  Mo6  1  0.620583  0.801690  0.242573  1
  Mo  Mo7  1  0.382064  0.198226  0.749760  1
  N  N8  1  0.216548  0.005795  0.838621  1
  N  N9  1  0.345115  0.377707  0.482882  1
  N  N10  1  0.669293  0.632667  0.509594  1
  N  N11  1  0.619087  0.110714  0.661819  1
  N  N12  1  0.994205  0.783452  0.661379  1
  N  N13  1  0.777635  0.002128  0.133636  1
  N  N14  1  0.112092  0.611699  0.151309  1
  N  N15  1  0.889286  0.380913  0.838181  1
  N  N16  1  0.997872  0.222365  0.366364  1
  N  N17  1  0.367333  0.330707  0.990406  1
  N  N18  1  0.622293  0.654885  0.017118  1
  N  N19  1  0.388301  0.887908  0.348691  1
