# generated using pymatgen
data_Cd2Bi3Os3O14
_symmetry_space_group_name_H-M   'P 1'
_cell_length_a   7.61122578
_cell_length_b   7.61072721
_cell_length_c   7.60689778
_cell_angle_alpha   58.18350177
_cell_angle_beta   58.17215920
_cell_angle_gamma   58.14631641
_symmetry_Int_Tables_number   1
_chemical_formula_structural   Cd2Bi3Os3O14
_chemical_formula_sum   'Cd2 Bi3 Os3 O14'
_cell_volume   298.49575626
_cell_formula_units_Z   1
loop_
 _symmetry_equiv_pos_site_id
 _symmetry_equiv_pos_as_xyz
  1  'x, y, z'
loop_
 _atom_site_type_symbol
 _atom_site_label
 _atom_site_symmetry_multiplicity
 _atom_site_fract_x
 _atom_site_fract_y
 _atom_site_fract_z
 _atom_site_occupancy
  Cd  Cd0  1  0.999998  0.499999  0.000000  1
  Cd  Cd1  1  0.499996  0.999985  0.500020  1
  Bi  Bi2  1  0.000000  0.999993  0.500009  1
  Bi  Bi3  1  0.499993  0.000010  0.000000  1
  Bi  Bi4  1  0.500006  0.500000  0.499993  1
  Os  Os5  1  0.500000  0.499999  0.000002  1
  Os  Os6  1  0.999998  0.499998  0.500003  1
  Os  Os7  1  0.999995  0.000005  0.999999  1
  O  O8  1  0.611514  0.111592  0.611362  1
  O  O9  1  0.388486  0.888409  0.388638  1
  O  O10  1  0.079855  0.205135  0.705405  1
  O  O11  1  0.705343  0.204968  0.080512  1
  O  O12  1  0.705613  0.579426  0.705492  1
  O  O13  1  0.920152  0.794860  0.294590  1
  O  O14  1  0.294673  0.795036  0.919473  1
  O  O15  1  0.294378  0.420587  0.294501  1
  O  O16  1  0.614462  0.605027  0.104582  1
  O  O17  1  0.104604  0.604509  0.614949  1
  O  O18  1  0.104957  0.114419  0.104403  1
  O  O19  1  0.385535  0.394973  0.895422  1
  O  O20  1  0.895389  0.395493  0.385053  1
  O  O21  1  0.895052  0.885577  0.895594  1
