# generated using pymatgen
data_YbEr5Al18(Si3Os4)2
_symmetry_space_group_name_H-M   'P 1'
_cell_length_a   8.68806500
_cell_length_b   8.65236369
_cell_length_c   9.54001900
_cell_angle_alpha   90.00000000
_cell_angle_beta   90.00000000
_cell_angle_gamma   120.13659127
_symmetry_Int_Tables_number   1
_chemical_formula_structural   YbEr5Al18(Si3Os4)2
_chemical_formula_sum   'Yb1 Er5 Al18 Si6 Os8'
_cell_volume   620.20933105
_cell_formula_units_Z   1
loop_
 _symmetry_equiv_pos_site_id
 _symmetry_equiv_pos_as_xyz
  1  'x, y, z'
loop_
 _atom_site_type_symbol
 _atom_site_label
 _atom_site_symmetry_multiplicity
 _atom_site_fract_x
 _atom_site_fract_y
 _atom_site_fract_z
 _atom_site_occupancy
  Yb  Yb0  1  0.193936  0.387875  0.250000  1
  Er  Er1  1  0.805108  0.610214  0.750000  1
  Er  Er2  1  0.608457  0.806317  0.250000  1
  Er  Er3  1  0.392199  0.193574  0.750000  1
  Er  Er4  1  0.197859  0.806317  0.250000  1
  Er  Er5  1  0.801376  0.193574  0.750000  1
  Al  Al6  1  0.165350  0.330700  0.578106  1
  Al  Al7  1  0.834709  0.669418  0.420179  1
  Al  Al8  1  0.669947  0.834922  0.577620  1
  Al  Al9  1  0.834709  0.669418  0.079821  1
  Al  Al10  1  0.329762  0.165531  0.422302  1
  Al  Al11  1  0.165350  0.330700  0.921894  1
  Al  Al12  1  0.164975  0.834922  0.577620  1
  Al  Al13  1  0.329762  0.165531  0.077698  1
  Al  Al14  1  0.835769  0.165531  0.422302  1
  Al  Al15  1  0.669947  0.834922  0.922380  1
  Al  Al16  1  0.835769  0.165531  0.077698  1
  Al  Al17  1  0.164975  0.834922  0.922380  1
  Al  Al18  1  0.873766  0.433124  0.250000  1
  Al  Al19  1  0.127440  0.566592  0.750000  1
  Al  Al20  1  0.559357  0.433124  0.250000  1
  Al  Al21  1  0.439153  0.566592  0.750000  1
  Al  Al22  1  0.999786  0.999573  0.250000  1
  Al  Al23  1  0.000623  0.001247  0.750000  1
  Si  Si24  1  0.331693  0.663385  0.040320  1
  Si  Si25  1  0.667868  0.335736  0.960168  1
  Si  Si26  1  0.667868  0.335736  0.539832  1
  Si  Si27  1  0.331693  0.663385  0.459680  1
  Si  Si28  1  0.563562  0.127122  0.250000  1
  Si  Si29  1  0.436583  0.873168  0.750000  1
  Os  Os30  1  0.500300  0.000600  0.999144  1
  Os  Os31  1  0.998964  0.500475  0.998664  1
  Os  Os32  1  0.500300  0.000600  0.500856  1
  Os  Os33  1  0.501512  0.500475  0.998664  1
  Os  Os34  1  0.998964  0.500475  0.501336  1
  Os  Os35  1  0.501512  0.500475  0.501336  1
  Os  Os36  1  0.999548  0.999097  0.999813  1
  Os  Os37  1  0.999548  0.999097  0.500187  1
