# generated using pymatgen
data_YEr(BIr)8
_symmetry_space_group_name_H-M   'P 1'
_cell_length_a   7.63315100
_cell_length_b   7.63315100
_cell_length_c   3.99800100
_cell_angle_alpha   90.00000000
_cell_angle_beta   90.00000000
_cell_angle_gamma   90.00000000
_symmetry_Int_Tables_number   1
_chemical_formula_structural   YEr(BIr)8
_chemical_formula_sum   'Y1 Er1 B8 Ir8'
_cell_volume   232.94350503
_cell_formula_units_Z   1
loop_
 _symmetry_equiv_pos_site_id
 _symmetry_equiv_pos_as_xyz
  1  'x, y, z'
loop_
 _atom_site_type_symbol
 _atom_site_label
 _atom_site_symmetry_multiplicity
 _atom_site_fract_x
 _atom_site_fract_y
 _atom_site_fract_z
 _atom_site_occupancy
  Y  Y0  1  0.500000  0.500000  0.500000  1
  Er  Er1  1  0.000000  0.000000  0.000000  1
  B  B2  1  0.342142  0.778682  0.888346  1
  B  B3  1  0.657858  0.221318  0.888346  1
  B  B4  1  0.778682  0.657858  0.111654  1
  B  B5  1  0.221318  0.342142  0.111654  1
  B  B6  1  0.277883  0.157784  0.388013  1
  B  B7  1  0.722117  0.842216  0.388013  1
  B  B8  1  0.842216  0.277883  0.611987  1
  B  B9  1  0.157784  0.722117  0.611987  1
  Ir  Ir10  1  0.390242  0.159513  0.887044  1
  Ir  Ir11  1  0.609758  0.840487  0.887044  1
  Ir  Ir12  1  0.840487  0.390242  0.112956  1
  Ir  Ir13  1  0.159513  0.609758  0.112956  1
  Ir  Ir14  1  0.339061  0.890976  0.386351  1
  Ir  Ir15  1  0.660939  0.109024  0.386351  1
  Ir  Ir16  1  0.890976  0.660939  0.613649  1
  Ir  Ir17  1  0.109024  0.339061  0.613649  1
