# generated using pymatgen
data_Sc2MnTcOs2
_symmetry_space_group_name_H-M   'P 1'
_cell_length_a   5.11536909
_cell_length_b   5.17559672
_cell_length_c   8.60407100
_cell_angle_alpha   90.00000000
_cell_angle_beta   90.00000000
_cell_angle_gamma   120.39024660
_symmetry_Int_Tables_number   1
_chemical_formula_structural   Sc2MnTcOs2
_chemical_formula_sum   'Sc4 Mn2 Tc2 Os4'
_cell_volume   196.49465535
_cell_formula_units_Z   2
loop_
 _symmetry_equiv_pos_site_id
 _symmetry_equiv_pos_as_xyz
  1  'x, y, z'
loop_
 _atom_site_type_symbol
 _atom_site_label
 _atom_site_symmetry_multiplicity
 _atom_site_fract_x
 _atom_site_fract_y
 _atom_site_fract_z
 _atom_site_occupancy
  Sc  Sc0  1  0.332187  0.663292  0.062946  1
  Sc  Sc1  1  0.667813  0.331105  0.562946  1
  Sc  Sc2  1  0.667813  0.331105  0.937054  1
  Sc  Sc3  1  0.332187  0.663292  0.437054  1
  Mn  Mn4  1  0.826709  0.170705  0.250000  1
  Mn  Mn5  1  0.173291  0.343997  0.750000  1
  Tc  Tc6  1  0.651360  0.827571  0.750000  1
  Tc  Tc7  1  0.348640  0.176211  0.250000  1
  Os  Os8  1  0.000000  0.000982  0.000000  1
  Os  Os9  1  0.000000  0.000982  0.500000  1
  Os  Os10  1  0.827651  0.659204  0.250000  1
  Os  Os11  1  0.172349  0.831553  0.750000  1
