# generated using pymatgen
data_Li3Tb3InGeP
_symmetry_space_group_name_H-M   'P 1'
_cell_length_a   7.15677700
_cell_length_b   7.15677752
_cell_length_c   4.24342500
_cell_angle_alpha   90.00000000
_cell_angle_beta   90.00000000
_cell_angle_gamma   120.00000223
_symmetry_Int_Tables_number   1
_chemical_formula_structural   Li3Tb3InGeP
_chemical_formula_sum   'Li3 Tb3 In1 Ge1 P1'
_cell_volume   188.22710135
_cell_formula_units_Z   1
loop_
 _symmetry_equiv_pos_site_id
 _symmetry_equiv_pos_as_xyz
  1  'x, y, z'
loop_
 _atom_site_type_symbol
 _atom_site_label
 _atom_site_symmetry_multiplicity
 _atom_site_fract_x
 _atom_site_fract_y
 _atom_site_fract_z
 _atom_site_occupancy
  Li  Li0  1  0.750136  0.748316  0.500000  1
  Li  Li1  1  0.251684  0.001820  0.500000  1
  Li  Li2  1  0.998180  0.249864  0.500000  1
  Tb  Tb3  1  0.439890  0.438249  0.000000  1
  Tb  Tb4  1  0.561751  0.001641  0.000000  1
  Tb  Tb5  1  0.998359  0.560110  0.000000  1
  In  In6  1  0.000000  0.000000  0.000000  1
  Ge  Ge7  1  0.333333  0.666667  0.500000  1
  P  P8  1  0.666667  0.333333  0.500000  1
