# generated using pymatgen
data_Tb2Dy7Y3Rh4
_symmetry_space_group_name_H-M   'P 1'
_cell_length_a   6.27753731
_cell_length_b   7.18767020
_cell_length_c   9.53474965
_cell_angle_alpha   90.02207238
_cell_angle_beta   90.03620457
_cell_angle_gamma   89.89542272
_symmetry_Int_Tables_number   1
_chemical_formula_structural   Tb2Dy7Y3Rh4
_chemical_formula_sum   'Tb2 Dy7 Y3 Rh4'
_cell_volume   430.21534488
_cell_formula_units_Z   1
loop_
 _symmetry_equiv_pos_site_id
 _symmetry_equiv_pos_as_xyz
  1  'x, y, z'
loop_
 _atom_site_type_symbol
 _atom_site_label
 _atom_site_symmetry_multiplicity
 _atom_site_fract_x
 _atom_site_fract_y
 _atom_site_fract_z
 _atom_site_occupancy
  Tb  Tb0  1  0.330095  0.676837  0.062644  1
  Tb  Tb1  1  0.366258  0.967159  0.749833  1
  Dy  Dy2  1  0.170515  0.176941  0.437029  1
  Dy  Dy3  1  0.669658  0.322793  0.563360  1
  Dy  Dy4  1  0.829760  0.823201  0.937007  1
  Dy  Dy5  1  0.669656  0.322696  0.936440  1
  Dy  Dy6  1  0.829634  0.823095  0.562784  1
  Dy  Dy7  1  0.330045  0.676808  0.437290  1
  Dy  Dy8  1  0.170377  0.176927  0.063050  1
  Y  Y9  1  0.866621  0.532458  0.250184  1
  Y  Y10  1  0.633520  0.032838  0.250147  1
  Y  Y11  1  0.133236  0.467698  0.749871  1
  Rh  Rh12  1  0.063293  0.883332  0.250265  1
  Rh  Rh13  1  0.435837  0.382406  0.250339  1
  Rh  Rh14  1  0.938099  0.116523  0.750046  1
  Rh  Rh15  1  0.563396  0.618286  0.749711  1
