# generated using pymatgen
data_TbV(FeSi)2
_symmetry_space_group_name_H-M   'P 1'
_cell_length_a   3.91534700
_cell_length_b   3.91534814
_cell_length_c   13.35718100
_cell_angle_alpha   90.00000000
_cell_angle_beta   90.00000000
_cell_angle_gamma   119.99999878
_symmetry_Int_Tables_number   1
_chemical_formula_structural   TbV(FeSi)2
_chemical_formula_sum   'Tb2 V2 Fe4 Si4'
_cell_volume   177.33158282
_cell_formula_units_Z   2
loop_
 _symmetry_equiv_pos_site_id
 _symmetry_equiv_pos_as_xyz
  1  'x, y, z'
loop_
 _atom_site_type_symbol
 _atom_site_label
 _atom_site_symmetry_multiplicity
 _atom_site_fract_x
 _atom_site_fract_y
 _atom_site_fract_z
 _atom_site_occupancy
  Tb  Tb0  1  0.000000  0.000000  0.250000  1
  Tb  Tb1  1  0.000000  0.000000  0.750000  1
  V  V2  1  0.000000  0.000000  0.000000  1
  V  V3  1  0.000000  0.000000  0.500000  1
  Fe  Fe4  1  0.666666  0.333333  0.061832  1
  Fe  Fe5  1  0.666666  0.333333  0.438167  1
  Fe  Fe6  1  0.333333  0.666666  0.561832  1
  Fe  Fe7  1  0.333333  0.666666  0.938168  1
  Si  Si8  1  0.333333  0.666666  0.113217  1
  Si  Si9  1  0.333333  0.666666  0.386783  1
  Si  Si10  1  0.666666  0.333333  0.613216  1
  Si  Si11  1  0.666666  0.333333  0.886783  1
