# generated using pymatgen
data_La8Er2InSn5
_symmetry_space_group_name_H-M   'P 1'
_cell_length_a   9.46528025
_cell_length_b   9.46523318
_cell_length_c   9.46528124
_cell_angle_alpha   96.38326203
_cell_angle_beta   96.38440792
_cell_angle_gamma   141.04383279
_symmetry_Int_Tables_number   1
_chemical_formula_structural   La8Er2InSn5
_chemical_formula_sum   'La8 Er2 In1 Sn5'
_cell_volume   502.64782168
_cell_formula_units_Z   1
loop_
 _symmetry_equiv_pos_site_id
 _symmetry_equiv_pos_as_xyz
  1  'x, y, z'
loop_
 _atom_site_type_symbol
 _atom_site_label
 _atom_site_symmetry_multiplicity
 _atom_site_fract_x
 _atom_site_fract_y
 _atom_site_fract_z
 _atom_site_occupancy
  La  La0  1  0.909714  0.222931  0.133715  1
  La  La1  1  0.222938  0.089237  0.313232  1
  La  La2  1  0.776001  0.909701  0.686768  1
  La  La3  1  0.089247  0.776035  0.866303  1
  La  La4  1  0.723995  0.410763  0.133701  1
  La  La5  1  0.277067  0.590299  0.866300  1
  La  La6  1  0.590268  0.723965  0.313211  1
  La  La7  1  0.410784  0.277069  0.686783  1
  Er  Er8  1  0.750001  0.250000  0.500001  1
  Er  Er9  1  0.250001  0.750000  0.500001  1
  In  In10  1  0.749999  0.750000  0.999999  1
  Sn  Sn11  1  0.249998  0.250000  0.999998  1
  Sn  Sn12  1  0.846450  0.653554  0.499994  1
  Sn  Sn13  1  0.653554  0.153557  0.807101  1
  Sn  Sn14  1  0.346440  0.846446  0.192896  1
  Sn  Sn15  1  0.153544  0.346443  0.499997  1
