# generated using pymatgen
data_Pa4TaMo3C8
_symmetry_space_group_name_H-M   'P 1'
_cell_length_a   3.34196200
_cell_length_b   5.76792920
_cell_length_c   11.09344638
_cell_angle_alpha   90.03007099
_cell_angle_beta   90.00000000
_cell_angle_gamma   90.00000000
_symmetry_Int_Tables_number   1
_chemical_formula_structural   Pa4TaMo3C8
_chemical_formula_sum   'Pa4 Ta1 Mo3 C8'
_cell_volume   213.83946392
_cell_formula_units_Z   1
loop_
 _symmetry_equiv_pos_site_id
 _symmetry_equiv_pos_as_xyz
  1  'x, y, z'
loop_
 _atom_site_type_symbol
 _atom_site_label
 _atom_site_symmetry_multiplicity
 _atom_site_fract_x
 _atom_site_fract_y
 _atom_site_fract_z
 _atom_site_occupancy
  Pa  Pa0  1  0.250000  0.582900  0.856458  1
  Pa  Pa1  1  0.750000  0.418016  0.142536  1
  Pa  Pa2  1  0.750000  0.919101  0.360499  1
  Pa  Pa3  1  0.250000  0.079797  0.641255  1
  Ta  Ta4  1  0.250000  0.917899  0.101686  1
  Mo  Mo5  1  0.750000  0.085292  0.896018  1
  Mo  Mo6  1  0.750000  0.579528  0.600827  1
  Mo  Mo7  1  0.250000  0.418047  0.401111  1
  C  C8  1  0.250000  0.662059  0.247829  1
  C  C9  1  0.750000  0.338074  0.752271  1
  C  C10  1  0.750000  0.837168  0.746138  1
  C  C11  1  0.250000  0.164867  0.255725  1
  C  C12  1  0.250000  0.742312  0.509775  1
  C  C13  1  0.750000  0.257379  0.491495  1
  C  C14  1  0.750000  0.755196  0.007502  1
  C  C15  1  0.250000  0.242364  0.988876  1
