# generated using pymatgen
data_LaInGeRh3
_symmetry_space_group_name_H-M   'P 1'
_cell_length_a   5.82998981
_cell_length_b   7.04352212
_cell_length_c   7.04352195
_cell_angle_alpha   67.81234357
_cell_angle_beta   65.51192984
_cell_angle_gamma   65.51192759
_symmetry_Int_Tables_number   1
_chemical_formula_structural   LaInGeRh3
_chemical_formula_sum   'La2 In2 Ge2 Rh6'
_cell_volume   232.02311401
_cell_formula_units_Z   2
loop_
 _symmetry_equiv_pos_site_id
 _symmetry_equiv_pos_as_xyz
  1  'x, y, z'
loop_
 _atom_site_type_symbol
 _atom_site_label
 _atom_site_symmetry_multiplicity
 _atom_site_fract_x
 _atom_site_fract_y
 _atom_site_fract_z
 _atom_site_occupancy
  La  La0  1  0.484632  0.771009  0.771009  1
  La  La1  1  0.515368  0.228991  0.228991  1
  In  In2  1  0.187549  0.565875  0.565875  1
  In  In3  1  0.812451  0.434125  0.434125  1
  Ge  Ge4  1  0.141607  0.105149  0.105149  1
  Ge  Ge5  1  0.858393  0.894851  0.894851  1
  Rh  Rh6  1  0.500000  0.212080  0.787920  1
  Rh  Rh7  1  0.000000  0.784713  0.215287  1
  Rh  Rh8  1  0.500000  0.787920  0.212080  1
  Rh  Rh9  1  0.000000  0.215287  0.784713  1
  Rh  Rh10  1  0.000000  0.500000  0.000000  1
  Rh  Rh11  1  0.000000  0.000000  0.500000  1
