# generated using pymatgen
data_Ho8Tm8MgCd3Ir4
_symmetry_space_group_name_H-M   'P 1'
_cell_length_a   9.59715033
_cell_length_b   9.59715041
_cell_length_c   9.60025904
_cell_angle_alpha   59.65188955
_cell_angle_beta   59.65189183
_cell_angle_gamma   59.69678213
_symmetry_Int_Tables_number   1
_chemical_formula_structural   Ho8Tm8MgCd3Ir4
_chemical_formula_sum   'Ho8 Tm8 Mg1 Cd3 Ir4'
_cell_volume   620.51564394
_cell_formula_units_Z   1
loop_
 _symmetry_equiv_pos_site_id
 _symmetry_equiv_pos_as_xyz
  1  'x, y, z'
loop_
 _atom_site_type_symbol
 _atom_site_label
 _atom_site_symmetry_multiplicity
 _atom_site_fract_x
 _atom_site_fract_y
 _atom_site_fract_z
 _atom_site_occupancy
  Ho  Ho0  1  0.439464  0.439464  0.059733  1
  Ho  Ho1  1  0.061768  0.061768  0.436863  1
  Ho  Ho2  1  0.189417  0.812669  0.812607  1
  Ho  Ho3  1  0.812045  0.187946  0.187938  1
  Ho  Ho4  1  0.812669  0.189417  0.812607  1
  Ho  Ho5  1  0.187946  0.812045  0.187938  1
  Ho  Ho6  1  0.812617  0.812617  0.189405  1
  Ho  Ho7  1  0.188011  0.188011  0.811998  1
  Tm  Tm8  1  0.599151  0.599151  0.598813  1
  Tm  Tm9  1  0.598427  0.598427  0.205857  1
  Tm  Tm10  1  0.598127  0.205813  0.598468  1
  Tm  Tm11  1  0.205813  0.598127  0.598468  1
  Tm  Tm12  1  0.059537  0.439664  0.439664  1
  Tm  Tm13  1  0.436972  0.061639  0.061619  1
  Tm  Tm14  1  0.439664  0.059537  0.439664  1
  Tm  Tm15  1  0.061639  0.436972  0.061619  1
  Mg  Mg16  1  0.826036  0.826036  0.826228  1
  Cd  Cd17  1  0.831116  0.831116  0.506185  1
  Cd  Cd18  1  0.831259  0.506159  0.831121  1
  Cd  Cd19  1  0.506159  0.831259  0.831121  1
  Ir  Ir20  1  0.391705  0.391705  0.392244  1
  Ir  Ir21  1  0.392564  0.392564  0.824710  1
  Ir  Ir22  1  0.393168  0.824729  0.392567  1
  Ir  Ir23  1  0.824729  0.393168  0.392567  1
