# generated using pymatgen
data_TcMo2Ir4Rh
_symmetry_space_group_name_H-M   'P 1'
_cell_length_a   5.52067800
_cell_length_b   5.55002797
_cell_length_c   4.41629000
_cell_angle_alpha   90.00000000
_cell_angle_beta   90.00000000
_cell_angle_gamma   119.82521955
_symmetry_Int_Tables_number   1
_chemical_formula_structural   TcMo2Ir4Rh
_chemical_formula_sum   'Tc1 Mo2 Ir4 Rh1'
_cell_volume   117.39186290
_cell_formula_units_Z   1
loop_
 _symmetry_equiv_pos_site_id
 _symmetry_equiv_pos_as_xyz
  1  'x, y, z'
loop_
 _atom_site_type_symbol
 _atom_site_label
 _atom_site_symmetry_multiplicity
 _atom_site_fract_x
 _atom_site_fract_y
 _atom_site_fract_z
 _atom_site_occupancy
  Tc  Tc0  1  0.833279  0.666559  0.250000  1
  Mo  Mo1  1  0.332594  0.665189  0.250000  1
  Mo  Mo2  1  0.667110  0.334218  0.750000  1
  Ir  Ir3  1  0.167929  0.833239  0.750000  1
  Ir  Ir4  1  0.665310  0.833239  0.750000  1
  Ir  Ir5  1  0.331719  0.167906  0.250000  1
  Ir  Ir6  1  0.836187  0.167906  0.250000  1
  Rh  Rh7  1  0.165871  0.331742  0.750000  1
