# generated using pymatgen
data_Li2NdY2Al7
_symmetry_space_group_name_H-M   'P 1'
_cell_length_a   9.34810290
_cell_length_b   9.34810321
_cell_length_c   9.34810415
_cell_angle_alpha   34.63922697
_cell_angle_beta   34.63922269
_cell_angle_gamma   34.63922291
_symmetry_Int_Tables_number   1
_chemical_formula_structural   Li2NdY2Al7
_chemical_formula_sum   'Li2 Nd1 Y2 Al7'
_cell_volume   235.51388460
_cell_formula_units_Z   1
loop_
 _symmetry_equiv_pos_site_id
 _symmetry_equiv_pos_as_xyz
  1  'x, y, z'
loop_
 _atom_site_type_symbol
 _atom_site_label
 _atom_site_symmetry_multiplicity
 _atom_site_fract_x
 _atom_site_fract_y
 _atom_site_fract_z
 _atom_site_occupancy
  Li  Li0  1  0.335224  0.335224  0.335224  1
  Li  Li1  1  0.664776  0.664776  0.664776  1
  Nd  Nd2  1  0.000000  0.000000  0.000000  1
  Y  Y3  1  0.141222  0.141222  0.141222  1
  Y  Y4  1  0.858778  0.858778  0.858778  1
  Al  Al5  1  0.585795  0.585795  0.076463  1
  Al  Al6  1  0.414205  0.923537  0.414205  1
  Al  Al7  1  0.585795  0.076463  0.585795  1
  Al  Al8  1  0.076463  0.585795  0.585795  1
  Al  Al9  1  0.414205  0.414205  0.923537  1
  Al  Al10  1  0.500000  0.500000  0.500000  1
  Al  Al11  1  0.923537  0.414205  0.414205  1
