# generated using pymatgen
data_Yb5Bi2P
_symmetry_space_group_name_H-M   'P 1'
_cell_length_a   8.14315100
_cell_length_b   9.39038600
_cell_length_c   12.44416900
_cell_angle_alpha   90.00000000
_cell_angle_beta   90.00000000
_cell_angle_gamma   90.00000000
_symmetry_Int_Tables_number   1
_chemical_formula_structural   Yb5Bi2P
_chemical_formula_sum   'Yb20 Bi8 P4'
_cell_volume   951.57239176
_cell_formula_units_Z   4
loop_
 _symmetry_equiv_pos_site_id
 _symmetry_equiv_pos_as_xyz
  1  'x, y, z'
loop_
 _atom_site_type_symbol
 _atom_site_label
 _atom_site_symmetry_multiplicity
 _atom_site_fract_x
 _atom_site_fract_y
 _atom_site_fract_z
 _atom_site_occupancy
  Yb  Yb0  1  0.817924  0.539603  0.068743  1
  Yb  Yb1  1  0.833125  0.250000  0.787791  1
  Yb  Yb2  1  0.050392  0.750000  0.501367  1
  Yb  Yb3  1  0.366829  0.250000  0.700119  1
  Yb  Yb4  1  0.182076  0.039603  0.931257  1
  Yb  Yb5  1  0.550392  0.250000  0.998633  1
  Yb  Yb6  1  0.866829  0.750000  0.799881  1
  Yb  Yb7  1  0.333125  0.750000  0.712209  1
  Yb  Yb8  1  0.317924  0.460397  0.431257  1
  Yb  Yb9  1  0.666875  0.250000  0.287791  1
  Yb  Yb10  1  0.449608  0.750000  0.001367  1
  Yb  Yb11  1  0.682076  0.539603  0.568743  1
  Yb  Yb12  1  0.949608  0.250000  0.498633  1
  Yb  Yb13  1  0.133171  0.250000  0.200119  1
  Yb  Yb14  1  0.166875  0.750000  0.212209  1
  Yb  Yb15  1  0.182076  0.460397  0.931257  1
  Yb  Yb16  1  0.817924  0.960397  0.068743  1
  Yb  Yb17  1  0.682076  0.960397  0.568743  1
  Yb  Yb18  1  0.317924  0.039603  0.431257  1
  Yb  Yb19  1  0.633171  0.750000  0.299881  1
  Bi  Bi20  1  0.066839  0.011367  0.672422  1
  Bi  Bi21  1  0.933161  0.988633  0.327578  1
  Bi  Bi22  1  0.066839  0.488633  0.672422  1
  Bi  Bi23  1  0.566839  0.988633  0.827578  1
  Bi  Bi24  1  0.433161  0.011367  0.172422  1
  Bi  Bi25  1  0.433161  0.488633  0.172422  1
  Bi  Bi26  1  0.566839  0.511367  0.827578  1
  Bi  Bi27  1  0.933161  0.511367  0.327578  1
  P  P28  1  0.422905  0.750000  0.486117  1
  P  P29  1  0.577095  0.250000  0.513883  1
  P  P30  1  0.077095  0.750000  0.986117  1
  P  P31  1  0.922905  0.250000  0.013883  1
