# generated using pymatgen
data_Pu3Zr(Nb3Si4)2
_symmetry_space_group_name_H-M   'P 1'
_cell_length_a   7.00198577
_cell_length_b   7.00270281
_cell_length_c   12.93420600
_cell_angle_alpha   90.07937314
_cell_angle_beta   90.10943670
_cell_angle_gamma   90.00885671
_symmetry_Int_Tables_number   1
_chemical_formula_structural   Pu3Zr(Nb3Si4)2
_chemical_formula_sum   'Pu6 Zr2 Nb12 Si16'
_cell_volume   634.19889145
_cell_formula_units_Z   2
loop_
 _symmetry_equiv_pos_site_id
 _symmetry_equiv_pos_as_xyz
  1  'x, y, z'
loop_
 _atom_site_type_symbol
 _atom_site_label
 _atom_site_symmetry_multiplicity
 _atom_site_fract_x
 _atom_site_fract_y
 _atom_site_fract_z
 _atom_site_occupancy
  Pu  Pu0  1  0.994648  0.668311  0.028831  1
  Pu  Pu1  1  0.000372  0.338540  0.533627  1
  Pu  Pu2  1  0.667893  0.992538  0.970476  1
  Pu  Pu3  1  0.160974  0.501715  0.780800  1
  Pu  Pu4  1  0.833283  0.491276  0.283584  1
  Pu  Pu5  1  0.509985  0.168931  0.218076  1
  Zr  Zr6  1  0.502416  0.842358  0.715568  1
  Zr  Zr7  1  0.341671  0.995661  0.468344  1
  Nb  Nb8  1  0.344761  0.507648  0.377847  1
  Nb  Nb9  1  0.846990  0.996644  0.377065  1
  Nb  Nb10  1  0.006907  0.154903  0.126850  1
  Nb  Nb11  1  0.993042  0.847115  0.625600  1
  Nb  Nb12  1  0.651447  0.493073  0.873209  1
  Nb  Nb13  1  0.500377  0.346449  0.625706  1
  Nb  Nb14  1  0.494584  0.655225  0.124651  1
  Nb  Nb15  1  0.154472  0.002162  0.872524  1
  Nb  Nb16  1  0.667693  0.670684  0.500610  1
  Nb  Nb17  1  0.828228  0.168534  0.748499  1
  Nb  Nb18  1  0.171265  0.830295  0.250992  1
  Nb  Nb19  1  0.330879  0.329643  0.998239  1
  Si  Si20  1  0.045370  0.706224  0.436230  1
  Si  Si21  1  0.957034  0.294190  0.935364  1
  Si  Si22  1  0.699168  0.043040  0.564343  1
  Si  Si23  1  0.202743  0.458305  0.185501  1
  Si  Si24  1  0.790828  0.546056  0.685476  1
  Si  Si25  1  0.456830  0.196977  0.813793  1
  Si  Si26  1  0.542512  0.798855  0.315167  1
  Si  Si27  1  0.297903  0.958005  0.064131  1
  Si  Si28  1  0.862535  0.794277  0.814986  1
  Si  Si29  1  0.138680  0.202308  0.320958  1
  Si  Si30  1  0.796745  0.866193  0.185308  1
  Si  Si31  1  0.294989  0.638397  0.570277  1
  Si  Si32  1  0.707441  0.370244  0.064995  1
  Si  Si33  1  0.625100  0.289361  0.434579  1
  Si  Si34  1  0.369394  0.708082  0.928838  1
  Si  Si35  1  0.210844  0.127783  0.678959  1
