# generated using pymatgen
data_Ca5(GaP3)2
_symmetry_space_group_name_H-M   'P 1'
_cell_length_a   12.83239300
_cell_length_b   11.15665600
_cell_length_c   4.03780300
_cell_angle_alpha   90.00000000
_cell_angle_beta   90.00000000
_cell_angle_gamma   90.00000000
_symmetry_Int_Tables_number   1
_chemical_formula_structural   Ca5(GaP3)2
_chemical_formula_sum   'Ca10 Ga4 P12'
_cell_volume   578.07850420
_cell_formula_units_Z   2
loop_
 _symmetry_equiv_pos_site_id
 _symmetry_equiv_pos_as_xyz
  1  'x, y, z'
loop_
 _atom_site_type_symbol
 _atom_site_label
 _atom_site_symmetry_multiplicity
 _atom_site_fract_x
 _atom_site_fract_y
 _atom_site_fract_z
 _atom_site_occupancy
  Ca  Ca0  1  0.500000  0.000000  0.500001  1
  Ca  Ca1  1  0.753523  0.087850  0.500001  1
  Ca  Ca2  1  0.014119  0.175658  0.500001  1
  Ca  Ca3  1  0.514118  0.324343  0.500001  1
  Ca  Ca4  1  0.253523  0.412151  0.500001  1
  Ca  Ca5  1  0.000000  0.500001  0.500001  1
  Ca  Ca6  1  0.746477  0.587850  0.500001  1
  Ca  Ca7  1  0.485880  0.675658  0.500001  1
  Ca  Ca8  1  0.985881  0.824342  0.500001  1
  Ca  Ca9  1  0.246477  0.912150  0.500001  1
  Ga  Ga10  1  0.213104  0.172456  0.000000  1
  Ga  Ga11  1  0.713105  0.327545  0.000000  1
  Ga  Ga12  1  0.286896  0.672456  0.000000  1
  Ga  Ga13  1  0.786895  0.827545  0.000000  1
  P  P14  1  0.913006  0.016981  0.000000  1
  P  P15  1  0.599101  0.157614  0.000000  1
  P  P16  1  0.099101  0.342387  0.000000  1
  P  P17  1  0.413006  0.483019  0.000000  1
  P  P18  1  0.586994  0.516980  0.000000  1
  P  P19  1  0.900899  0.657613  0.000000  1
  P  P20  1  0.400898  0.842386  0.000000  1
  P  P21  1  0.086994  0.983019  0.000000  1
  P  P22  1  0.317295  0.160708  0.500001  1
  P  P23  1  0.817296  0.339292  0.500001  1
  P  P24  1  0.182704  0.660708  0.500001  1
  P  P25  1  0.682704  0.839292  0.500001  1
