# generated using pymatgen
data_Zr5Nb3P4
_symmetry_space_group_name_H-M   'P 1'
_cell_length_a   3.58777400
_cell_length_b   6.96658797
_cell_length_c   8.46876769
_cell_angle_alpha   89.79020030
_cell_angle_beta   90.00000000
_cell_angle_gamma   90.00000000
_symmetry_Int_Tables_number   1
_chemical_formula_structural   Zr5Nb3P4
_chemical_formula_sum   'Zr5 Nb3 P4'
_cell_volume   211.67156081
_cell_formula_units_Z   1
loop_
 _symmetry_equiv_pos_site_id
 _symmetry_equiv_pos_as_xyz
  1  'x, y, z'
loop_
 _atom_site_type_symbol
 _atom_site_label
 _atom_site_symmetry_multiplicity
 _atom_site_fract_x
 _atom_site_fract_y
 _atom_site_fract_z
 _atom_site_occupancy
  Zr  Zr0  1  0.250000  0.139544  0.060889  1
  Zr  Zr1  1  0.250000  0.535371  0.829646  1
  Zr  Zr2  1  0.750000  0.965285  0.333876  1
  Zr  Zr3  1  0.250000  0.032183  0.666790  1
  Zr  Zr4  1  0.750000  0.473006  0.173899  1
  Nb  Nb5  1  0.750000  0.853875  0.937810  1
  Nb  Nb6  1  0.250000  0.640037  0.440526  1
  Nb  Nb7  1  0.750000  0.363374  0.559961  1
  P  P8  1  0.750000  0.737292  0.641472  1
  P  P9  1  0.250000  0.760956  0.141692  1
  P  P10  1  0.750000  0.236198  0.850678  1
  P  P11  1  0.250000  0.262881  0.362764  1
