# generated using pymatgen
data_Ce3Sc4USb20
_symmetry_space_group_name_H-M   'P 1'
_cell_length_a   4.20430800
_cell_length_b   13.04320413
_cell_length_c   14.19674800
_cell_angle_alpha   78.72773889
_cell_angle_beta   90.00000000
_cell_angle_gamma   90.00000000
_symmetry_Int_Tables_number   1
_chemical_formula_structural   Ce3Sc4USb20
_chemical_formula_sum   'Ce3 Sc4 U1 Sb20'
_cell_volume   763.49822241
_cell_formula_units_Z   1
loop_
 _symmetry_equiv_pos_site_id
 _symmetry_equiv_pos_as_xyz
  1  'x, y, z'
loop_
 _atom_site_type_symbol
 _atom_site_label
 _atom_site_symmetry_multiplicity
 _atom_site_fract_x
 _atom_site_fract_y
 _atom_site_fract_z
 _atom_site_occupancy
  Ce  Ce0  1  0.750000  0.333384  0.423023  1
  Ce  Ce1  1  0.250000  0.953807  0.354614  1
  Ce  Ce2  1  0.750000  0.045234  0.644773  1
  Sc  Sc3  1  0.250000  0.391303  0.775417  1
  Sc  Sc4  1  0.750000  0.608162  0.225464  1
  Sc  Sc5  1  0.250000  0.655957  0.860683  1
  Sc  Sc6  1  0.750000  0.345704  0.138297  1
  U  U7  1  0.250000  0.666821  0.577915  1
  Sb  Sb8  1  0.250000  0.148141  0.779890  1
  Sb  Sb9  1  0.750000  0.850980  0.220053  1
  Sb  Sb10  1  0.250000  0.145119  0.483055  1
  Sb  Sb11  1  0.750000  0.849498  0.516637  1
  Sb  Sb12  1  0.250000  0.162861  0.154520  1
  Sb  Sb13  1  0.750000  0.837762  0.845173  1
  Sb  Sb14  1  0.250000  0.423442  0.976547  1
  Sb  Sb15  1  0.750000  0.578128  0.022933  1
  Sb  Sb16  1  0.750000  0.033251  0.915183  1
  Sb  Sb17  1  0.250000  0.966955  0.085186  1
  Sb  Sb18  1  0.750000  0.147469  0.305410  1
  Sb  Sb19  1  0.250000  0.850984  0.693079  1
  Sb  Sb20  1  0.750000  0.277692  0.938335  1
  Sb  Sb21  1  0.250000  0.723089  0.062204  1
  Sb  Sb22  1  0.750000  0.288355  0.662031  1
  Sb  Sb23  1  0.250000  0.711574  0.340065  1
  Sb  Sb24  1  0.750000  0.572399  0.737910  1
  Sb  Sb25  1  0.250000  0.430007  0.258495  1
  Sb  Sb26  1  0.750000  0.572988  0.446272  1
  Sb  Sb27  1  0.250000  0.428932  0.556836  1
