# generated using pymatgen
data_Tb3Mn3CoNi5P6
_symmetry_space_group_name_H-M   'P 1'
_cell_length_a   3.76887900
_cell_length_b   10.52597400
_cell_length_c   12.39971200
_cell_angle_alpha   90.00000000
_cell_angle_beta   90.00000000
_cell_angle_gamma   90.00000000
_symmetry_Int_Tables_number   1
_chemical_formula_structural   Tb3Mn3CoNi5P6
_chemical_formula_sum   'Tb6 Mn6 Co2 Ni10 P12'
_cell_volume   491.91049202
_cell_formula_units_Z   2
loop_
 _symmetry_equiv_pos_site_id
 _symmetry_equiv_pos_as_xyz
  1  'x, y, z'
loop_
 _atom_site_type_symbol
 _atom_site_label
 _atom_site_symmetry_multiplicity
 _atom_site_fract_x
 _atom_site_fract_y
 _atom_site_fract_z
 _atom_site_occupancy
  Tb  Tb0  1  0.000000  0.500000  0.520772  1
  Tb  Tb1  1  0.500000  0.000000  0.479228  1
  Tb  Tb2  1  0.500000  0.817027  0.209497  1
  Tb  Tb3  1  0.500000  0.182973  0.209497  1
  Tb  Tb4  1  0.000000  0.682973  0.790503  1
  Tb  Tb5  1  0.000000  0.317027  0.790503  1
  Mn  Mn6  1  0.500000  0.500000  0.156914  1
  Mn  Mn7  1  0.000000  0.000000  0.843086  1
  Mn  Mn8  1  0.500000  0.332280  0.996612  1
  Mn  Mn9  1  0.500000  0.667720  0.996612  1
  Mn  Mn10  1  0.000000  0.167720  0.003388  1
  Mn  Mn11  1  0.000000  0.832280  0.003388  1
  Co  Co12  1  0.000000  0.500000  0.984650  1
  Co  Co13  1  0.500000  0.000000  0.015350  1
  Ni  Ni14  1  0.500000  0.500000  0.701381  1
  Ni  Ni15  1  0.000000  0.000000  0.298619  1
  Ni  Ni16  1  0.500000  0.301454  0.428650  1
  Ni  Ni17  1  0.500000  0.698546  0.428650  1
  Ni  Ni18  1  0.000000  0.198546  0.571350  1
  Ni  Ni19  1  0.000000  0.801454  0.571350  1
  Ni  Ni20  1  0.500000  0.880001  0.710266  1
  Ni  Ni21  1  0.500000  0.119999  0.710266  1
  Ni  Ni22  1  0.000000  0.619999  0.289734  1
  Ni  Ni23  1  0.000000  0.380001  0.289734  1
  P  P24  1  0.500000  0.500000  0.880502  1
  P  P25  1  0.000000  0.000000  0.119498  1
  P  P26  1  0.500000  0.500000  0.345880  1
  P  P27  1  0.000000  0.000000  0.654120  1
  P  P28  1  0.500000  0.312670  0.614136  1
  P  P29  1  0.500000  0.687330  0.614136  1
  P  P30  1  0.000000  0.187330  0.385864  1
  P  P31  1  0.000000  0.812670  0.385864  1
  P  P32  1  0.500000  0.847089  0.892973  1
  P  P33  1  0.500000  0.152911  0.892973  1
  P  P34  1  0.000000  0.652911  0.107027  1
  P  P35  1  0.000000  0.347089  0.107027  1
