# generated using pymatgen
data_Zr6Zn19BAu4
_symmetry_space_group_name_H-M   'P 1'
_cell_length_a   8.85270131
_cell_length_b   8.86512704
_cell_length_c   8.84226400
_cell_angle_alpha   59.99239142
_cell_angle_beta   59.97405399
_cell_angle_gamma   59.87564758
_symmetry_Int_Tables_number   1
_chemical_formula_structural   Zr6Zn19BAu4
_chemical_formula_sum   'Zr6 Zn19 B1 Au4'
_cell_volume   490.10535773
_cell_formula_units_Z   1
loop_
 _symmetry_equiv_pos_site_id
 _symmetry_equiv_pos_as_xyz
  1  'x, y, z'
loop_
 _atom_site_type_symbol
 _atom_site_label
 _atom_site_symmetry_multiplicity
 _atom_site_fract_x
 _atom_site_fract_y
 _atom_site_fract_z
 _atom_site_occupancy
  Zr  Zr0  1  0.692174  0.308773  0.307826  1
  Zr  Zr1  1  0.307826  0.691227  0.692174  1
  Zr  Zr2  1  0.309579  0.690421  0.309579  1
  Zr  Zr3  1  0.690421  0.309579  0.690421  1
  Zr  Zr4  1  0.311248  0.311224  0.688752  1
  Zr  Zr5  1  0.688752  0.688776  0.311248  1
  Zn  Zn6  1  0.120754  0.123705  0.121431  1
  Zn  Zn7  1  0.879246  0.876295  0.878569  1
  Zn  Zn8  1  0.120768  0.122206  0.633325  1
  Zn  Zn9  1  0.121431  0.634113  0.120754  1
  Zn  Zn10  1  0.879232  0.877794  0.366675  1
  Zn  Zn11  1  0.878569  0.365887  0.879246  1
  Zn  Zn12  1  0.633325  0.123704  0.120768  1
  Zn  Zn13  1  0.366675  0.876296  0.879232  1
  Zn  Zn14  1  0.000000  0.500000  0.000000  1
  Zn  Zn15  1  0.000000  0.000000  0.500000  1
  Zn  Zn16  1  0.500000  0.500000  0.000000  1
  Zn  Zn17  1  0.337183  0.337510  0.326382  1
  Zn  Zn18  1  0.662817  0.662490  0.673618  1
  Zn  Zn19  1  0.330420  0.339401  0.999853  1
  Zn  Zn20  1  0.326382  0.998926  0.337183  1
  Zn  Zn21  1  0.669580  0.660599  0.000147  1
  Zn  Zn22  1  0.673618  0.001074  0.662817  1
  Zn  Zn23  1  0.999853  0.330326  0.330420  1
  Zn  Zn24  1  0.000147  0.669674  0.669580  1
  B  B25  1  0.500000  0.500000  0.500000  1
  Au  Au26  1  0.500000  0.000000  0.000000  1
  Au  Au27  1  0.000000  0.500000  0.500000  1
  Au  Au28  1  0.500000  0.000000  0.500000  1
  Au  Au29  1  0.000000  0.000000  0.000000  1
