# generated using pymatgen
data_Ta5Ti7Al8(CoN)4
_symmetry_space_group_name_H-M   'P 1'
_cell_length_a   8.08047501
_cell_length_b   8.08365886
_cell_length_c   8.07004926
_cell_angle_alpha   60.02914228
_cell_angle_beta   60.02241764
_cell_angle_gamma   59.93515133
_symmetry_Int_Tables_number   1
_chemical_formula_structural   Ta5Ti7Al8(CoN)4
_chemical_formula_sum   'Ta5 Ti7 Al8 Co4 N4'
_cell_volume   372.70198883
_cell_formula_units_Z   1
loop_
 _symmetry_equiv_pos_site_id
 _symmetry_equiv_pos_as_xyz
  1  'x, y, z'
loop_
 _atom_site_type_symbol
 _atom_site_label
 _atom_site_symmetry_multiplicity
 _atom_site_fract_x
 _atom_site_fract_y
 _atom_site_fract_z
 _atom_site_occupancy
  Ta  Ta0  1  0.939655  0.560369  0.559113  1
  Ta  Ta1  1  0.561429  0.938654  0.941041  1
  Ta  Ta2  1  0.939944  0.939472  0.560782  1
  Ta  Ta3  1  0.688543  0.311785  0.689754  1
  Ta  Ta4  1  0.938155  0.562152  0.939769  1
  Ti  Ti5  1  0.562575  0.937621  0.560366  1
  Ti  Ti6  1  0.313409  0.686724  0.689182  1
  Ti  Ti7  1  0.687757  0.313050  0.311356  1
  Ti  Ti8  1  0.313351  0.687071  0.311037  1
  Ti  Ti9  1  0.688655  0.687680  0.312011  1
  Ti  Ti10  1  0.312594  0.311903  0.688262  1
  Ti  Ti11  1  0.561685  0.561028  0.939121  1
  Al  Al12  1  0.919571  0.917676  0.918755  1
  Al  Al13  1  0.002382  0.333345  0.330367  1
  Al  Al14  1  0.333303  0.001432  0.333546  1
  Al  Al15  1  0.330217  0.333931  0.003247  1
  Al  Al16  1  0.916417  0.246554  0.919509  1
  Al  Al17  1  0.916240  0.919584  0.245619  1
  Al  Al18  1  0.247567  0.916506  0.916635  1
  Al  Al19  1  0.333760  0.331798  0.332436  1
  Co  Co20  1  0.125484  0.124121  0.124920  1
  Co  Co21  1  0.623917  0.125477  0.123228  1
  Co  Co22  1  0.123792  0.624912  0.126549  1
  Co  Co23  1  0.123233  0.126429  0.624532  1
  N  N24  1  0.621264  0.629554  0.625674  1
  N  N25  1  0.132747  0.622341  0.621646  1
  N  N26  1  0.620985  0.126552  0.621882  1
  N  N27  1  0.621371  0.622277  0.129661  1
