# generated using pymatgen
data_La10Sb9I
_symmetry_space_group_name_H-M   'P 1'
_cell_length_a   8.00851259
_cell_length_b   9.28568275
_cell_length_c   10.33023200
_cell_angle_alpha   102.85592264
_cell_angle_beta   97.44016353
_cell_angle_gamma   106.91741152
_symmetry_Int_Tables_number   1
_chemical_formula_structural   La10Sb9I
_chemical_formula_sum   'La10 Sb9 I1'
_cell_volume   700.82688105
_cell_formula_units_Z   1
loop_
 _symmetry_equiv_pos_site_id
 _symmetry_equiv_pos_as_xyz
  1  'x, y, z'
loop_
 _atom_site_type_symbol
 _atom_site_label
 _atom_site_symmetry_multiplicity
 _atom_site_fract_x
 _atom_site_fract_y
 _atom_site_fract_z
 _atom_site_occupancy
  La  La0  1  0.903148  0.545419  0.787809  1
  La  La1  1  0.699764  0.149566  0.400073  1
  La  La2  1  0.487833  0.755517  0.997007  1
  La  La3  1  0.695573  0.651840  0.411437  1
  La  La4  1  0.301957  0.351650  0.602181  1
  La  La5  1  0.111148  0.962856  0.203225  1
  La  La6  1  0.489188  0.236287  0.994780  1
  La  La7  1  0.302073  0.849972  0.599029  1
  La  La8  1  0.111261  0.444670  0.202825  1
  La  La9  1  0.898129  0.052387  0.801854  1
  Sb  Sb10  1  0.599999  0.201710  0.701885  1
  Sb  Sb11  1  0.398735  0.798238  0.298507  1
  Sb  Sb12  1  0.799813  0.099851  0.101191  1
  Sb  Sb13  1  0.201904  0.401712  0.901232  1
  Sb  Sb14  1  0.602332  0.700919  0.704825  1
  Sb  Sb15  1  0.405177  0.302198  0.300335  1
  Sb  Sb16  1  0.192662  0.896661  0.897747  1
  Sb  Sb17  1  0.999861  0.500197  0.495640  1
  Sb  Sb18  1  0.999697  0.998050  0.498072  1
  I  I19  1  0.799746  0.600300  0.100344  1
