# generated using pymatgen
data_YbNp(Si7Ir3)2
_symmetry_space_group_name_H-M   'P 1'
_cell_length_a   8.05087531
_cell_length_b   8.05087571
_cell_length_c   8.05087530
_cell_angle_alpha   56.73357971
_cell_angle_beta   56.73357565
_cell_angle_gamma   56.73358794
_symmetry_Int_Tables_number   1
_chemical_formula_structural   YbNp(Si7Ir3)2
_chemical_formula_sum   'Yb1 Np1 Si14 Ir6'
_cell_volume   341.16265943
_cell_formula_units_Z   1
loop_
 _symmetry_equiv_pos_site_id
 _symmetry_equiv_pos_as_xyz
  1  'x, y, z'
loop_
 _atom_site_type_symbol
 _atom_site_label
 _atom_site_symmetry_multiplicity
 _atom_site_fract_x
 _atom_site_fract_y
 _atom_site_fract_z
 _atom_site_occupancy
  Yb  Yb0  1  0.000000  0.000000  0.000000  1
  Np  Np1  1  0.500000  0.500000  0.500000  1
  Si  Si2  1  0.348189  0.172417  0.566153  1
  Si  Si3  1  0.566153  0.348189  0.172417  1
  Si  Si4  1  0.172417  0.566153  0.348189  1
  Si  Si5  1  0.065091  0.673409  0.852971  1
  Si  Si6  1  0.852971  0.065091  0.673409  1
  Si  Si7  1  0.673409  0.852971  0.065091  1
  Si  Si8  1  0.651811  0.827583  0.433847  1
  Si  Si9  1  0.433847  0.651811  0.827583  1
  Si  Si10  1  0.827583  0.433847  0.651811  1
  Si  Si11  1  0.934909  0.326591  0.147029  1
  Si  Si12  1  0.147029  0.934909  0.326591  1
  Si  Si13  1  0.326591  0.147029  0.934909  1
  Si  Si14  1  0.250462  0.250462  0.250462  1
  Si  Si15  1  0.749538  0.749538  0.749538  1
  Ir  Ir16  1  0.928247  0.567105  0.252246  1
  Ir  Ir17  1  0.252246  0.928247  0.567105  1
  Ir  Ir18  1  0.567105  0.252246  0.928247  1
  Ir  Ir19  1  0.747754  0.071753  0.432895  1
  Ir  Ir20  1  0.432895  0.747754  0.071753  1
  Ir  Ir21  1  0.071753  0.432895  0.747754  1
