# generated using pymatgen
data_Ho2Lu3Bi3C
_symmetry_space_group_name_H-M   'P 1'
_cell_length_a   9.08242700
_cell_length_b   9.08242767
_cell_length_c   6.39418600
_cell_angle_alpha   90.00000000
_cell_angle_beta   90.00000000
_cell_angle_gamma   120.00000119
_symmetry_Int_Tables_number   1
_chemical_formula_structural   Ho2Lu3Bi3C
_chemical_formula_sum   'Ho4 Lu6 Bi6 C2'
_cell_volume   456.79333214
_cell_formula_units_Z   2
loop_
 _symmetry_equiv_pos_site_id
 _symmetry_equiv_pos_as_xyz
  1  'x, y, z'
loop_
 _atom_site_type_symbol
 _atom_site_label
 _atom_site_symmetry_multiplicity
 _atom_site_fract_x
 _atom_site_fract_y
 _atom_site_fract_z
 _atom_site_occupancy
  Ho  Ho0  1  0.666667  0.333333  0.500000  1
  Ho  Ho1  1  0.333333  0.666667  0.500000  1
  Ho  Ho2  1  0.333333  0.666667  0.000000  1
  Ho  Ho3  1  0.666667  0.333333  0.000000  1
  Lu  Lu4  1  0.796892  0.796892  0.250000  1
  Lu  Lu5  1  0.203108  0.000000  0.250000  1
  Lu  Lu6  1  0.000000  0.203108  0.250000  1
  Lu  Lu7  1  0.203108  0.203108  0.750000  1
  Lu  Lu8  1  0.796892  0.000000  0.750000  1
  Lu  Lu9  1  0.000000  0.796892  0.750000  1
  Bi  Bi10  1  0.397778  0.397778  0.250000  1
  Bi  Bi11  1  0.602222  0.000000  0.250000  1
  Bi  Bi12  1  0.000000  0.602222  0.250000  1
  Bi  Bi13  1  0.602222  0.602222  0.750000  1
  Bi  Bi14  1  0.397778  0.000000  0.750000  1
  Bi  Bi15  1  0.000000  0.397778  0.750000  1
  C  C16  1  0.000000  0.000000  0.500000  1
  C  C17  1  0.000000  0.000000  0.000000  1
