# generated using pymatgen
data_Er2B4Ru5
_symmetry_space_group_name_H-M   'P 1'
_cell_length_a   3.05078400
_cell_length_b   8.80394900
_cell_length_c   10.18616700
_cell_angle_alpha   90.00000000
_cell_angle_beta   90.00000000
_cell_angle_gamma   90.00000000
_symmetry_Int_Tables_number   1
_chemical_formula_structural   Er2B4Ru5
_chemical_formula_sum   'Er4 B8 Ru10'
_cell_volume   273.58971700
_cell_formula_units_Z   2
loop_
 _symmetry_equiv_pos_site_id
 _symmetry_equiv_pos_as_xyz
  1  'x, y, z'
loop_
 _atom_site_type_symbol
 _atom_site_label
 _atom_site_symmetry_multiplicity
 _atom_site_fract_x
 _atom_site_fract_y
 _atom_site_fract_z
 _atom_site_occupancy
  Er  Er0  1  0.500000  0.659632  0.817632  1
  Er  Er1  1  0.500000  0.340368  0.182368  1
  Er  Er2  1  0.500000  0.159632  0.682368  1
  Er  Er3  1  0.500000  0.840368  0.317632  1
  B  B4  1  0.500000  0.852898  0.600249  1
  B  B5  1  0.500000  0.147102  0.399751  1
  B  B6  1  0.500000  0.352898  0.899751  1
  B  B7  1  0.500000  0.647102  0.100249  1
  B  B8  1  0.500000  0.966108  0.912771  1
  B  B9  1  0.500000  0.033892  0.087229  1
  B  B10  1  0.500000  0.466108  0.587229  1
  B  B11  1  0.500000  0.533892  0.412771  1
  Ru  Ru12  1  0.000000  0.407069  0.738601  1
  Ru  Ru13  1  0.000000  0.592931  0.261399  1
  Ru  Ru14  1  0.000000  0.907069  0.761399  1
  Ru  Ru15  1  0.000000  0.092931  0.238601  1
  Ru  Ru16  1  0.000000  0.000000  0.500000  1
  Ru  Ru17  1  0.000000  0.500000  0.000000  1
  Ru  Ru18  1  0.000000  0.661236  0.546780  1
  Ru  Ru19  1  0.000000  0.338764  0.453220  1
  Ru  Ru20  1  0.000000  0.161236  0.953220  1
  Ru  Ru21  1  0.000000  0.838764  0.046780  1
