# generated using pymatgen
data_Ca(TiAl10)2
_symmetry_space_group_name_H-M   'P 1'
_cell_length_a   10.38991000
_cell_length_b   10.38991142
_cell_length_c   10.38991100
_cell_angle_alpha   59.99999815
_cell_angle_beta   59.99999999
_cell_angle_gamma   59.99999950
_symmetry_Int_Tables_number   1
_chemical_formula_structural   Ca(TiAl10)2
_chemical_formula_sum   'Ca2 Ti4 Al40'
_cell_volume   793.08630817
_cell_formula_units_Z   2
loop_
 _symmetry_equiv_pos_site_id
 _symmetry_equiv_pos_as_xyz
  1  'x, y, z'
loop_
 _atom_site_type_symbol
 _atom_site_label
 _atom_site_symmetry_multiplicity
 _atom_site_fract_x
 _atom_site_fract_y
 _atom_site_fract_z
 _atom_site_occupancy
  Ca  Ca0  1  0.125000  0.125000  0.125000  1
  Ca  Ca1  1  0.875000  0.875000  0.875000  1
  Ti  Ti2  1  0.000000  0.500000  0.500000  1
  Ti  Ti3  1  0.500000  0.500000  0.000000  1
  Ti  Ti4  1  0.500000  0.500000  0.500000  1
  Ti  Ti5  1  0.500000  0.000000  0.500000  1
  Al  Al6  1  0.763768  0.486232  0.486232  1
  Al  Al7  1  0.500000  0.000000  0.000000  1
  Al  Al8  1  0.513768  0.236232  0.513768  1
  Al  Al9  1  0.000000  0.500000  0.000000  1
  Al  Al10  1  0.236232  0.236232  0.513768  1
  Al  Al11  1  0.486232  0.763768  0.763768  1
  Al  Al12  1  0.486232  0.486232  0.763768  1
  Al  Al13  1  0.000000  0.000000  0.000000  1
  Al  Al14  1  0.675309  0.943853  0.675309  1
  Al  Al15  1  0.324691  0.056147  0.324691  1
  Al  Al16  1  0.675309  0.675309  0.943853  1
  Al  Al17  1  0.943853  0.205530  0.675309  1
  Al  Al18  1  0.324691  0.056147  0.794470  1
  Al  Al19  1  0.513768  0.513768  0.236232  1
  Al  Al20  1  0.675309  0.675309  0.205530  1
  Al  Al21  1  0.943853  0.675309  0.205530  1
  Al  Al22  1  0.794470  0.324691  0.056147  1
  Al  Al23  1  0.056147  0.324691  0.794470  1
  Al  Al24  1  0.056147  0.324691  0.324691  1
  Al  Al25  1  0.513768  0.236232  0.236232  1
  Al  Al26  1  0.943853  0.675309  0.675309  1
  Al  Al27  1  0.324691  0.324691  0.056147  1
  Al  Al28  1  0.056147  0.794470  0.324691  1
  Al  Al29  1  0.205530  0.675309  0.675309  1
  Al  Al30  1  0.205530  0.943853  0.675309  1
  Al  Al31  1  0.236232  0.513768  0.236232  1
  Al  Al32  1  0.324691  0.324691  0.794470  1
  Al  Al33  1  0.205530  0.675309  0.943853  1
  Al  Al34  1  0.236232  0.513768  0.513768  1
  Al  Al35  1  0.675309  0.205530  0.675309  1
  Al  Al36  1  0.794470  0.324691  0.324691  1
  Al  Al37  1  0.763768  0.486232  0.763768  1
  Al  Al38  1  0.675309  0.205530  0.943853  1
  Al  Al39  1  0.675309  0.943853  0.205530  1
  Al  Al40  1  0.324691  0.794470  0.056147  1
  Al  Al41  1  0.763768  0.763768  0.486232  1
  Al  Al42  1  0.486232  0.763768  0.486232  1
  Al  Al43  1  0.794470  0.056147  0.324691  1
  Al  Al44  1  0.324691  0.794470  0.324691  1
  Al  Al45  1  0.000000  0.000000  0.500000  1
