# generated using pymatgen
data_CsUSbO6
_symmetry_space_group_name_H-M   'P 1'
_cell_length_a   7.70579457
_cell_length_b   7.70579399
_cell_length_c   7.70579402
_cell_angle_alpha   122.46904204
_cell_angle_beta   117.73416360
_cell_angle_gamma   89.87316225
_symmetry_Int_Tables_number   1
_chemical_formula_structural   CsUSbO6
_chemical_formula_sum   'Cs2 U2 Sb2 O12'
_cell_volume   322.35753201
_cell_formula_units_Z   2
loop_
 _symmetry_equiv_pos_site_id
 _symmetry_equiv_pos_as_xyz
  1  'x, y, z'
loop_
 _atom_site_type_symbol
 _atom_site_label
 _atom_site_symmetry_multiplicity
 _atom_site_fract_x
 _atom_site_fract_y
 _atom_site_fract_z
 _atom_site_occupancy
  Cs  Cs0  1  0.621114  0.883767  0.237347  1
  Cs  Cs1  1  0.353580  0.116233  0.737347  1
  U  U2  1  0.998281  0.499637  0.998644  1
  U  U3  1  0.499007  0.500363  0.498644  1
  Sb  Sb4  1  0.998815  0.500000  0.498815  1
  Sb  Sb5  1  0.998815  0.000000  0.998815  1
  O  O6  1  0.067893  0.817534  0.750359  1
  O  O7  1  0.681067  0.432590  0.748478  1
  O  O8  1  0.694309  0.820054  0.763322  1
  O  O9  1  0.055140  0.431635  0.735277  1
  O  O10  1  0.055140  0.819863  0.123505  1
  O  O11  1  0.694309  0.430987  0.374255  1
  O  O12  1  0.932826  0.182466  0.250359  1
  O  O13  1  0.315888  0.567410  0.248478  1
  O  O14  1  0.303641  0.180137  0.235277  1
  O  O15  1  0.943267  0.569013  0.263322  1
  O  O16  1  0.943267  0.179946  0.874255  1
  O  O17  1  0.303641  0.568365  0.623505  1
