# generated using pymatgen
data_Dy4Er8Ni5Sn
_symmetry_space_group_name_H-M   'P 1'
_cell_length_a   8.25861062
_cell_length_b   8.25860998
_cell_length_c   8.25861029
_cell_angle_alpha   107.07709701
_cell_angle_beta   109.76480964
_cell_angle_gamma   111.60352871
_symmetry_Int_Tables_number   1
_chemical_formula_structural   Dy4Er8Ni5Sn
_chemical_formula_sum   'Dy4 Er8 Ni5 Sn1'
_cell_volume   432.92825696
_cell_formula_units_Z   1
loop_
 _symmetry_equiv_pos_site_id
 _symmetry_equiv_pos_as_xyz
  1  'x, y, z'
loop_
 _atom_site_type_symbol
 _atom_site_label
 _atom_site_symmetry_multiplicity
 _atom_site_fract_x
 _atom_site_fract_y
 _atom_site_fract_z
 _atom_site_occupancy
  Dy  Dy0  1  0.476244  0.294211  0.182033  1
  Dy  Dy1  1  0.112178  0.294211  0.817967  1
  Dy  Dy2  1  0.887822  0.705789  0.182033  1
  Dy  Dy3  1  0.523756  0.705789  0.817967  1
  Er  Er4  1  0.306384  0.628352  0.321968  1
  Er  Er5  1  0.306384  0.984417  0.678032  1
  Er  Er6  1  0.693616  0.371648  0.678032  1
  Er  Er7  1  0.693616  0.015583  0.321968  1
  Er  Er8  1  0.191051  0.211937  0.402988  1
  Er  Er9  1  0.808949  0.788063  0.597012  1
  Er  Er10  1  0.191051  0.788063  0.979112  1
  Er  Er11  1  0.808949  0.211937  0.020888  1
  Ni  Ni12  1  0.500000  0.625402  0.125402  1
  Ni  Ni13  1  0.500000  0.374598  0.874598  1
  Ni  Ni14  1  0.364302  0.000000  0.364302  1
  Ni  Ni15  1  0.635698  0.000000  0.635698  1
  Ni  Ni16  1  0.000000  0.000000  0.000000  1
  Sn  Sn17  1  0.000000  0.500000  0.500000  1
