# generated using pymatgen
data_Ca9SmTaNbN10
_symmetry_space_group_name_H-M   'P 1'
_cell_length_a   6.96898976
_cell_length_b   6.94594467
_cell_length_c   8.93323226
_cell_angle_alpha   80.66732545
_cell_angle_beta   80.41888505
_cell_angle_gamma   59.81491905
_symmetry_Int_Tables_number   1
_chemical_formula_structural   Ca9SmTaNbN10
_chemical_formula_sum   'Ca9 Sm1 Ta1 Nb1 N10'
_cell_volume   367.01010123
_cell_formula_units_Z   1
loop_
 _symmetry_equiv_pos_site_id
 _symmetry_equiv_pos_as_xyz
  1  'x, y, z'
loop_
 _atom_site_type_symbol
 _atom_site_label
 _atom_site_symmetry_multiplicity
 _atom_site_fract_x
 _atom_site_fract_y
 _atom_site_fract_z
 _atom_site_occupancy
  Ca  Ca0  1  0.870673  0.869944  0.827517  1
  Ca  Ca1  1  0.740269  0.743014  0.519985  1
  Ca  Ca2  1  0.754165  0.248697  0.503656  1
  Ca  Ca3  1  0.622591  0.138597  0.155921  1
  Ca  Ca4  1  0.363402  0.871610  0.837757  1
  Ca  Ca5  1  0.250720  0.755441  0.508230  1
  Ca  Ca6  1  0.244033  0.244331  0.489815  1
  Ca  Ca7  1  0.141945  0.139644  0.166904  1
  Ca  Ca8  1  0.135980  0.628300  0.153915  1
  Sm  Sm9  1  0.879332  0.349678  0.833975  1
  Ta  Ta10  1  0.631155  0.629992  0.221334  1
  Nb  Nb11  1  0.372515  0.366419  0.774076  1
  N  N12  1  0.914122  0.466528  0.320296  1
  N  N13  1  0.988584  0.011976  0.013875  1
  N  N14  1  0.681830  0.675842  0.999409  1
  N  N15  1  0.543361  0.532269  0.695734  1
  N  N16  1  0.465856  0.913648  0.322873  1
  N  N17  1  0.540134  0.083642  0.675317  1
  N  N18  1  0.463576  0.467474  0.300747  1
  N  N19  1  0.318056  0.317718  0.993590  1
  N  N20  1  0.054871  0.072794  0.652018  1
  N  N21  1  0.085116  0.534727  0.678861  1
