# generated using pymatgen
data_Lu3Zr5(Si4Ru3)4
_symmetry_space_group_name_H-M   'P 1'
_cell_length_a   9.99307580
_cell_length_b   9.99239963
_cell_length_c   13.48367593
_cell_angle_alpha   53.63016057
_cell_angle_beta   126.33628827
_cell_angle_gamma   148.71868398
_symmetry_Int_Tables_number   1
_chemical_formula_structural   Lu3Zr5(Si4Ru3)4
_chemical_formula_sum   'Lu3 Zr5 Si16 Ru12'
_cell_volume   550.96585199
_cell_formula_units_Z   1
loop_
 _symmetry_equiv_pos_site_id
 _symmetry_equiv_pos_as_xyz
  1  'x, y, z'
loop_
 _atom_site_type_symbol
 _atom_site_label
 _atom_site_symmetry_multiplicity
 _atom_site_fract_x
 _atom_site_fract_y
 _atom_site_fract_z
 _atom_site_occupancy
  Lu  Lu0  1  0.559711  0.703858  0.354669  1
  Lu  Lu1  1  0.701229  0.558744  0.143861  1
  Lu  Lu2  1  0.440487  0.296603  0.645870  1
  Zr  Zr3  1  0.293188  0.444811  0.848934  1
  Zr  Zr4  1  0.295844  0.960213  0.365266  1
  Zr  Zr5  1  0.960845  0.296232  0.134905  1
  Zr  Zr6  1  0.705272  0.038629  0.636620  1
  Zr  Zr7  1  0.039839  0.704563  0.864495  1
  Si  Si8  1  0.571985  0.914949  0.434627  1
  Si  Si9  1  0.916761  0.572762  0.066437  1
  Si  Si10  1  0.428332  0.085558  0.565510  1
  Si  Si11  1  0.084184  0.425777  0.934104  1
  Si  Si12  1  0.387482  0.858370  0.103214  1
  Si  Si13  1  0.858029  0.386827  0.396993  1
  Si  Si14  1  0.613117  0.141083  0.897130  1
  Si  Si15  1  0.141044  0.611595  0.603107  1
  Si  Si16  1  0.253677  0.024785  0.107541  1
  Si  Si17  1  0.022685  0.251567  0.391986  1
  Si  Si18  1  0.747484  0.973790  0.892977  1
  Si  Si19  1  0.977566  0.748646  0.608851  1
  Si  Si20  1  0.376365  0.375784  0.250397  1
  Si  Si21  1  0.619189  0.621409  0.751088  1
  Si  Si22  1  0.876947  0.876645  0.249891  1
  Si  Si23  1  0.125778  0.126821  0.750791  1
  Ru  Ru24  1  0.647032  0.168006  0.218814  1
  Ru  Ru25  1  0.167924  0.646672  0.281399  1
  Ru  Ru26  1  0.354663  0.830231  0.781521  1
  Ru  Ru27  1  0.831652  0.353321  0.719600  1
  Ru  Ru28  1  0.513402  0.758051  0.068422  1
  Ru  Ru29  1  0.759063  0.514397  0.430407  1
  Ru  Ru30  1  0.486856  0.242499  0.931351  1
  Ru  Ru31  1  0.239700  0.485557  0.567049  1
  Ru  Ru32  1  0.139779  0.097839  0.414565  1
  Ru  Ru33  1  0.099974  0.141508  0.084951  1
  Ru  Ru34  1  0.859069  0.901294  0.587194  1
  Ru  Ru35  1  0.903844  0.860603  0.915455  1
