# generated using pymatgen
data_UTa2Co9
_symmetry_space_group_name_H-M   'P 1'
_cell_length_a   7.00987192
_cell_length_b   7.00987232
_cell_length_c   7.00987360
_cell_angle_alpha   43.72597556
_cell_angle_beta   43.72597136
_cell_angle_gamma   43.72596827
_symmetry_Int_Tables_number   1
_chemical_formula_structural   UTa2Co9
_chemical_formula_sum   'U1 Ta2 Co9'
_cell_volume   149.38920204
_cell_formula_units_Z   1
loop_
 _symmetry_equiv_pos_site_id
 _symmetry_equiv_pos_as_xyz
  1  'x, y, z'
loop_
 _atom_site_type_symbol
 _atom_site_label
 _atom_site_symmetry_multiplicity
 _atom_site_fract_x
 _atom_site_fract_y
 _atom_site_fract_z
 _atom_site_occupancy
  U  U0  1  0.000000  0.000000  0.000000  1
  Ta  Ta1  1  0.218899  0.218899  0.218899  1
  Ta  Ta2  1  0.781101  0.781101  0.781101  1
  Co  Co3  1  0.500000  0.500000  0.000000  1
  Co  Co4  1  0.500000  0.000000  0.500000  1
  Co  Co5  1  0.000000  0.500000  0.500000  1
  Co  Co6  1  0.236627  0.715480  0.715480  1
  Co  Co7  1  0.715480  0.715480  0.236627  1
  Co  Co8  1  0.715480  0.236627  0.715480  1
  Co  Co9  1  0.284520  0.763373  0.284520  1
  Co  Co10  1  0.763373  0.284520  0.284520  1
  Co  Co11  1  0.284520  0.284520  0.763373  1
