# generated using pymatgen
data_Pr3GaPt3Pb2
_symmetry_space_group_name_H-M   'P 1'
_cell_length_a   7.65469700
_cell_length_b   7.75826671
_cell_length_c   4.14841300
_cell_angle_alpha   90.00000000
_cell_angle_beta   90.00000000
_cell_angle_gamma   119.55936011
_symmetry_Int_Tables_number   1
_chemical_formula_structural   Pr3GaPt3Pb2
_chemical_formula_sum   'Pr3 Ga1 Pt3 Pb2'
_cell_volume   214.29725087
_cell_formula_units_Z   1
loop_
 _symmetry_equiv_pos_site_id
 _symmetry_equiv_pos_as_xyz
  1  'x, y, z'
loop_
 _atom_site_type_symbol
 _atom_site_label
 _atom_site_symmetry_multiplicity
 _atom_site_fract_x
 _atom_site_fract_y
 _atom_site_fract_z
 _atom_site_occupancy
  Pr  Pr0  1  0.590354  0.597263  0.000000  1
  Pr  Pr1  1  0.422629  0.000000  0.000000  1
  Pr  Pr2  1  0.993089  0.402737  0.000000  1
  Ga  Ga3  1  0.746662  0.000000  0.500000  1
  Pt  Pt4  1  0.671848  0.317837  0.500000  1
  Pt  Pt5  1  0.971853  0.000000  0.000000  1
  Pt  Pt6  1  0.354010  0.682163  0.500000  1
  Pb  Pb7  1  0.998515  0.747476  0.500000  1
  Pb  Pb8  1  0.251039  0.252524  0.500000  1
