# generated using pymatgen
data_Eu2Zn25Cu
_symmetry_space_group_name_H-M   'P 1'
_cell_length_a   8.61706731
_cell_length_b   8.61706747
_cell_length_c   8.61706800
_cell_angle_alpha   59.99999795
_cell_angle_beta   59.99999736
_cell_angle_gamma   59.99999883
_symmetry_Int_Tables_number   1
_chemical_formula_structural   Eu2Zn25Cu
_chemical_formula_sum   'Eu2 Zn25 Cu1'
_cell_volume   452.44259200
_cell_formula_units_Z   1
loop_
 _symmetry_equiv_pos_site_id
 _symmetry_equiv_pos_as_xyz
  1  'x, y, z'
loop_
 _atom_site_type_symbol
 _atom_site_label
 _atom_site_symmetry_multiplicity
 _atom_site_fract_x
 _atom_site_fract_y
 _atom_site_fract_z
 _atom_site_occupancy
  Eu  Eu0  1  0.250000  0.250000  0.250000  1
  Eu  Eu1  1  0.750000  0.750000  0.750000  1
  Zn  Zn2  1  0.000000  0.000000  0.000000  1
  Zn  Zn3  1  0.797422  0.559038  0.202578  1
  Zn  Zn4  1  0.202578  0.440962  0.797422  1
  Zn  Zn5  1  0.559038  0.797422  0.440962  1
  Zn  Zn6  1  0.440962  0.202578  0.559038  1
  Zn  Zn7  1  0.301312  0.941960  0.698688  1
  Zn  Zn8  1  0.698688  0.058040  0.301312  1
  Zn  Zn9  1  0.941960  0.301312  0.058040  1
  Zn  Zn10  1  0.058040  0.698688  0.941960  1
  Zn  Zn11  1  0.202578  0.797422  0.559038  1
  Zn  Zn12  1  0.797422  0.202578  0.440962  1
  Zn  Zn13  1  0.440962  0.559038  0.797422  1
  Zn  Zn14  1  0.559038  0.440962  0.202578  1
  Zn  Zn15  1  0.698688  0.301312  0.941960  1
  Zn  Zn16  1  0.301312  0.698688  0.058040  1
  Zn  Zn17  1  0.058040  0.941960  0.301312  1
  Zn  Zn18  1  0.941960  0.058040  0.698688  1
  Zn  Zn19  1  0.559038  0.202578  0.797422  1
  Zn  Zn20  1  0.440962  0.797422  0.202578  1
  Zn  Zn21  1  0.797422  0.440962  0.559038  1
  Zn  Zn22  1  0.202578  0.559038  0.440962  1
  Zn  Zn23  1  0.941960  0.698688  0.301312  1
  Zn  Zn24  1  0.058040  0.301312  0.698688  1
  Zn  Zn25  1  0.301312  0.058040  0.941960  1
  Zn  Zn26  1  0.698688  0.941960  0.058040  1
  Cu  Cu27  1  0.500000  0.500000  0.500000  1
