# generated using pymatgen
data_Pr2MnFe3P7(Ir3Ru)2
_symmetry_space_group_name_H-M   'P 1'
_cell_length_a   9.40634700
_cell_length_b   9.40634672
_cell_length_c   3.93211800
_cell_angle_alpha   90.00000000
_cell_angle_beta   90.00000000
_cell_angle_gamma   119.99999044
_symmetry_Int_Tables_number   1
_chemical_formula_structural   Pr2MnFe3P7(Ir3Ru)2
_chemical_formula_sum   'Pr2 Mn1 Fe3 P7 Ir6 Ru2'
_cell_volume   301.30004352
_cell_formula_units_Z   1
loop_
 _symmetry_equiv_pos_site_id
 _symmetry_equiv_pos_as_xyz
  1  'x, y, z'
loop_
 _atom_site_type_symbol
 _atom_site_label
 _atom_site_symmetry_multiplicity
 _atom_site_fract_x
 _atom_site_fract_y
 _atom_site_fract_z
 _atom_site_occupancy
  Pr  Pr0  1  0.331699  0.663605  0.000000  1
  Pr  Pr1  1  0.667442  0.333395  0.500000  1
  Mn  Mn2  1  0.214163  0.118369  0.500000  1
  Fe  Fe3  1  0.157869  0.891178  0.000000  1
  Fe  Fe4  1  0.106343  0.269453  0.000000  1
  Fe  Fe5  1  0.734835  0.843334  0.000000  1
  P  P6  1  0.403872  0.108168  0.000000  1
  P  P7  1  0.892259  0.297409  0.000000  1
  P  P8  1  0.701741  0.596201  0.000000  1
  P  P9  1  0.116597  0.723291  0.500000  1
  P  P10  1  0.277015  0.390129  0.500000  1
  P  P11  1  0.605885  0.883912  0.500000  1
  P  P12  1  0.002123  0.002857  0.000000  1
  Ir  Ir13  1  0.429046  0.365151  0.000000  1
  Ir  Ir14  1  0.635396  0.059739  0.000000  1
  Ir  Ir15  1  0.937513  0.574891  0.000000  1
  Ir  Ir16  1  0.385717  0.948815  0.500000  1
  Ir  Ir17  1  0.051707  0.438992  0.500000  1
  Ir  Ir18  1  0.562709  0.617160  0.500000  1
  Ru  Ru19  1  0.874446  0.087294  0.500000  1
  Ru  Ru20  1  0.911623  0.786655  0.500000  1
