# generated using pymatgen
data_Hf6Zn20Ni3Ge
_symmetry_space_group_name_H-M   'P 1'
_cell_length_a   8.68452691
_cell_length_b   8.68452728
_cell_length_c   8.64606104
_cell_angle_alpha   59.75317336
_cell_angle_beta   59.75316966
_cell_angle_gamma   59.64049725
_symmetry_Int_Tables_number   1
_chemical_formula_structural   Hf6Zn20Ni3Ge
_chemical_formula_sum   'Hf6 Zn20 Ni3 Ge1'
_cell_volume   458.12103231
_cell_formula_units_Z   1
loop_
 _symmetry_equiv_pos_site_id
 _symmetry_equiv_pos_as_xyz
  1  'x, y, z'
loop_
 _atom_site_type_symbol
 _atom_site_label
 _atom_site_symmetry_multiplicity
 _atom_site_fract_x
 _atom_site_fract_y
 _atom_site_fract_z
 _atom_site_occupancy
  Hf  Hf0  1  0.711134  0.285362  0.288873  1
  Hf  Hf1  1  0.288866  0.714638  0.711127  1
  Hf  Hf2  1  0.285362  0.711134  0.288873  1
  Hf  Hf3  1  0.714638  0.288866  0.711127  1
  Hf  Hf4  1  0.289766  0.289766  0.706063  1
  Hf  Hf5  1  0.710234  0.710234  0.293937  1
  Zn  Zn6  1  0.118524  0.118524  0.117789  1
  Zn  Zn7  1  0.881476  0.881476  0.882211  1
  Zn  Zn8  1  0.125031  0.125031  0.638099  1
  Zn  Zn9  1  0.114732  0.640961  0.130216  1
  Zn  Zn10  1  0.874969  0.874969  0.361901  1
  Zn  Zn11  1  0.885268  0.359039  0.869784  1
  Zn  Zn12  1  0.640961  0.114732  0.130216  1
  Zn  Zn13  1  0.359039  0.885268  0.869784  1
  Zn  Zn14  1  0.500000  0.000000  0.000000  1
  Zn  Zn15  1  0.000000  0.500000  0.000000  1
  Zn  Zn16  1  0.000000  0.000000  0.500000  1
  Zn  Zn17  1  0.500000  0.500000  0.000000  1
  Zn  Zn18  1  0.332220  0.332220  0.341390  1
  Zn  Zn19  1  0.667780  0.667780  0.658610  1
  Zn  Zn20  1  0.336299  0.336299  0.991746  1
  Zn  Zn21  1  0.338755  0.993646  0.339835  1
  Zn  Zn22  1  0.663701  0.663701  0.008254  1
  Zn  Zn23  1  0.661245  0.006354  0.660165  1
  Zn  Zn24  1  0.993646  0.338755  0.339835  1
  Zn  Zn25  1  0.006354  0.661245  0.660165  1
  Ni  Ni26  1  0.000000  0.500000  0.500000  1
  Ni  Ni27  1  0.500000  0.000000  0.500000  1
  Ni  Ni28  1  0.000000  0.000000  0.000000  1
  Ge  Ge29  1  0.500000  0.500000  0.500000  1
