# generated using pymatgen
data_Gd9Al(Co2Au)2
_symmetry_space_group_name_H-M   'P 1'
_cell_length_a   8.74679127
_cell_length_b   8.74679092
_cell_length_c   8.74679100
_cell_angle_alpha   129.39679497
_cell_angle_beta   129.39679314
_cell_angle_gamma   74.37294576
_symmetry_Int_Tables_number   1
_chemical_formula_structural   Gd9Al(Co2Au)2
_chemical_formula_sum   'Gd9 Al1 Co4 Au2'
_cell_volume   389.51210181
_cell_formula_units_Z   1
loop_
 _symmetry_equiv_pos_site_id
 _symmetry_equiv_pos_as_xyz
  1  'x, y, z'
loop_
 _atom_site_type_symbol
 _atom_site_label
 _atom_site_symmetry_multiplicity
 _atom_site_fract_x
 _atom_site_fract_y
 _atom_site_fract_z
 _atom_site_occupancy
  Gd  Gd0  1  0.500000  0.500000  0.000000  1
  Gd  Gd1  1  0.815359  0.285793  0.844740  1
  Gd  Gd2  1  0.184641  0.714207  0.155261  1
  Gd  Gd3  1  0.441054  0.970619  0.155261  1
  Gd  Gd4  1  0.285793  0.441054  0.470435  1
  Gd  Gd5  1  0.029381  0.184641  0.470435  1
  Gd  Gd6  1  0.558946  0.029381  0.844739  1
  Gd  Gd7  1  0.714207  0.558946  0.529565  1
  Gd  Gd8  1  0.970619  0.815359  0.529565  1
  Al  Al9  1  0.000000  0.000000  0.000000  1
  Co  Co10  1  0.123130  0.633809  0.756941  1
  Co  Co11  1  0.876870  0.366191  0.243059  1
  Co  Co12  1  0.633809  0.876870  0.510679  1
  Co  Co13  1  0.366191  0.123130  0.489321  1
  Au  Au14  1  0.260039  0.260039  0.000000  1
  Au  Au15  1  0.739961  0.739961  0.000000  1
