# generated using pymatgen
data_Eu6Cd32Rh
_symmetry_space_group_name_H-M   'P 1'
_cell_length_a   9.81191700
_cell_length_b   9.81191700
_cell_length_c   9.81191700
_cell_angle_alpha   90.00000000
_cell_angle_beta   90.00000000
_cell_angle_gamma   90.00000000
_symmetry_Int_Tables_number   1
_chemical_formula_structural   Eu6Cd32Rh
_chemical_formula_sum   'Eu6 Cd32 Rh1'
_cell_volume   944.62970297
_cell_formula_units_Z   1
loop_
 _symmetry_equiv_pos_site_id
 _symmetry_equiv_pos_as_xyz
  1  'x, y, z'
loop_
 _atom_site_type_symbol
 _atom_site_label
 _atom_site_symmetry_multiplicity
 _atom_site_fract_x
 _atom_site_fract_y
 _atom_site_fract_z
 _atom_site_occupancy
  Eu  Eu0  1  0.206423  0.000000  0.500000  1
  Eu  Eu1  1  0.793577  0.000000  0.500000  1
  Eu  Eu2  1  0.500000  0.206423  0.000000  1
  Eu  Eu3  1  0.500000  0.793577  0.000000  1
  Eu  Eu4  1  0.000000  0.500000  0.206423  1
  Eu  Eu5  1  0.000000  0.500000  0.793577  1
  Cd  Cd6  1  0.322880  0.500000  0.000000  1
  Cd  Cd7  1  0.677120  0.500000  0.000000  1
  Cd  Cd8  1  0.000000  0.322880  0.500000  1
  Cd  Cd9  1  0.000000  0.677120  0.500000  1
  Cd  Cd10  1  0.500000  0.000000  0.322880  1
  Cd  Cd11  1  0.500000  0.000000  0.677120  1
  Cd  Cd12  1  0.282610  0.282610  0.282610  1
  Cd  Cd13  1  0.717390  0.717390  0.717390  1
  Cd  Cd14  1  0.717390  0.717390  0.282610  1
  Cd  Cd15  1  0.717390  0.282610  0.717390  1
  Cd  Cd16  1  0.282610  0.282610  0.717390  1
  Cd  Cd17  1  0.282610  0.717390  0.282610  1
  Cd  Cd18  1  0.282610  0.717390  0.717390  1
  Cd  Cd19  1  0.717390  0.282610  0.282610  1
  Cd  Cd20  1  0.260761  0.500000  0.500000  1
  Cd  Cd21  1  0.739239  0.500000  0.500000  1
  Cd  Cd22  1  0.500000  0.260761  0.500000  1
  Cd  Cd23  1  0.500000  0.739239  0.500000  1
  Cd  Cd24  1  0.500000  0.500000  0.260761  1
  Cd  Cd25  1  0.500000  0.500000  0.739239  1
  Cd  Cd26  1  0.000000  0.150381  0.257514  1
  Cd  Cd27  1  0.000000  0.849619  0.742486  1
  Cd  Cd28  1  0.000000  0.849619  0.257514  1
  Cd  Cd29  1  0.000000  0.150381  0.742486  1
  Cd  Cd30  1  0.257514  0.000000  0.150381  1
  Cd  Cd31  1  0.742486  0.000000  0.849619  1
  Cd  Cd32  1  0.257514  0.000000  0.849619  1
  Cd  Cd33  1  0.742486  0.000000  0.150381  1
  Cd  Cd34  1  0.150381  0.257514  0.000000  1
  Cd  Cd35  1  0.849619  0.742486  0.000000  1
  Cd  Cd36  1  0.150381  0.742486  0.000000  1
  Cd  Cd37  1  0.849619  0.257514  0.000000  1
  Rh  Rh38  1  0.000000  0.000000  0.000000  1
