# generated using pymatgen
data_HoTm15(Ga3Co)2
_symmetry_space_group_name_H-M   'P 1'
_cell_length_a   9.89196200
_cell_length_b   9.89196117
_cell_length_c   6.84426400
_cell_angle_alpha   90.00000000
_cell_angle_beta   90.00000000
_cell_angle_gamma   119.99999610
_symmetry_Int_Tables_number   1
_chemical_formula_structural   HoTm15(Ga3Co)2
_chemical_formula_sum   'Ho1 Tm15 Ga6 Co2'
_cell_volume   579.99232132
_cell_formula_units_Z   1
loop_
 _symmetry_equiv_pos_site_id
 _symmetry_equiv_pos_as_xyz
  1  'x, y, z'
loop_
 _atom_site_type_symbol
 _atom_site_label
 _atom_site_symmetry_multiplicity
 _atom_site_fract_x
 _atom_site_fract_y
 _atom_site_fract_z
 _atom_site_occupancy
  Ho  Ho0  1  0.000000  0.000000  0.730927  1
  Tm  Tm1  1  0.173793  0.826207  0.509299  1
  Tm  Tm2  1  0.652415  0.826207  0.509299  1
  Tm  Tm3  1  0.173793  0.347585  0.509299  1
  Tm  Tm4  1  0.826180  0.173820  0.010816  1
  Tm  Tm5  1  0.347640  0.173820  0.010816  1
  Tm  Tm6  1  0.826180  0.652360  0.010816  1
  Tm  Tm7  1  0.333333  0.666667  0.829584  1
  Tm  Tm8  1  0.666667  0.333333  0.328583  1
  Tm  Tm9  1  0.464175  0.535825  0.207359  1
  Tm  Tm10  1  0.071648  0.535825  0.207359  1
  Tm  Tm11  1  0.464175  0.928352  0.207359  1
  Tm  Tm12  1  0.535855  0.464145  0.707453  1
  Tm  Tm13  1  0.928290  0.464145  0.707453  1
  Tm  Tm14  1  0.535855  0.071710  0.707453  1
  Tm  Tm15  1  0.000000  0.000000  0.231616  1
  Ga  Ga16  1  0.163404  0.836596  0.961330  1
  Ga  Ga17  1  0.673191  0.836596  0.961330  1
  Ga  Ga18  1  0.163404  0.326809  0.961330  1
  Ga  Ga19  1  0.836637  0.163363  0.459422  1
  Ga  Ga20  1  0.326727  0.163363  0.459422  1
  Ga  Ga21  1  0.836637  0.673273  0.459422  1
  Co  Co22  1  0.333333  0.666667  0.443771  1
  Co  Co23  1  0.666667  0.333333  0.942521  1
