# generated using pymatgen
data_YbYCo6GeB3
_symmetry_space_group_name_H-M   'P 1'
_cell_length_a   5.15324501
_cell_length_b   5.15370938
_cell_length_c   12.20120701
_cell_angle_alpha   90.00086703
_cell_angle_beta   89.99829914
_cell_angle_gamma   119.99702587
_symmetry_Int_Tables_number   1
_chemical_formula_structural   YbYCo6GeB3
_chemical_formula_sum   'Yb2 Y2 Co12 Ge2 B6'
_cell_volume   280.63844042
_cell_formula_units_Z   2
loop_
 _symmetry_equiv_pos_site_id
 _symmetry_equiv_pos_as_xyz
  1  'x, y, z'
loop_
 _atom_site_type_symbol
 _atom_site_label
 _atom_site_symmetry_multiplicity
 _atom_site_fract_x
 _atom_site_fract_y
 _atom_site_fract_z
 _atom_site_occupancy
  Yb  Yb0  1  0.000036  0.000000  0.000074  1
  Yb  Yb1  1  0.999995  0.000000  0.499890  1
  Y  Y2  1  0.999939  0.000000  0.260360  1
  Y  Y3  1  0.000028  0.000000  0.739644  1
  Co  Co4  1  0.499964  0.000000  0.157144  1
  Co  Co5  1  0.499985  0.499998  0.157190  1
  Co  Co6  1  0.999987  0.500002  0.157190  1
  Co  Co7  1  0.500028  0.000000  0.842884  1
  Co  Co8  1  0.500022  0.500027  0.842832  1
  Co  Co9  1  0.999996  0.499973  0.842832  1
  Co  Co10  1  0.500009  0.000000  0.385756  1
  Co  Co11  1  0.499972  0.500008  0.385698  1
  Co  Co12  1  0.999964  0.499992  0.385698  1
  Co  Co13  1  0.499942  0.000000  0.614251  1
  Co  Co14  1  0.500033  0.500014  0.614260  1
  Co  Co15  1  0.000016  0.499986  0.614260  1
  Ge  Ge16  1  0.333256  0.666572  0.000029  1
  Ge  Ge17  1  0.666683  0.333428  0.000029  1
  B  B18  1  0.333282  0.666577  0.499978  1
  B  B19  1  0.666703  0.333423  0.499978  1
  B  B20  1  0.333274  0.666605  0.268196  1
  B  B21  1  0.666669  0.333395  0.268196  1
  B  B22  1  0.666651  0.333285  0.731817  1
  B  B23  1  0.333367  0.666715  0.731817  1
