# generated using pymatgen
data_LiDyHo15In3Rh4
_symmetry_space_group_name_H-M   'P 1'
_cell_length_a   9.61532205
_cell_length_b   9.61532129
_cell_length_c   9.61489225
_cell_angle_alpha   59.87561010
_cell_angle_beta   59.87561188
_cell_angle_gamma   59.88535775
_symmetry_Int_Tables_number   1
_chemical_formula_structural   LiDyHo15In3Rh4
_chemical_formula_sum   'Li1 Dy1 Ho15 In3 Rh4'
_cell_volume   626.84720016
_cell_formula_units_Z   1
loop_
 _symmetry_equiv_pos_site_id
 _symmetry_equiv_pos_as_xyz
  1  'x, y, z'
loop_
 _atom_site_type_symbol
 _atom_site_label
 _atom_site_symmetry_multiplicity
 _atom_site_fract_x
 _atom_site_fract_y
 _atom_site_fract_z
 _atom_site_occupancy
  Li  Li0  1  0.822072  0.822072  0.821988  1
  Dy  Dy1  1  0.187506  0.187506  0.812591  1
  Ho  Ho2  1  0.599559  0.599559  0.201957  1
  Ho  Ho3  1  0.440889  0.059656  0.440635  1
  Ho  Ho4  1  0.440677  0.440677  0.059833  1
  Ho  Ho5  1  0.813186  0.185888  0.813417  1
  Ho  Ho6  1  0.187561  0.812389  0.187824  1
  Ho  Ho7  1  0.436487  0.063266  0.063289  1
  Ho  Ho8  1  0.185888  0.813186  0.813417  1
  Ho  Ho9  1  0.063266  0.436487  0.063289  1
  Ho  Ho10  1  0.813545  0.813545  0.185680  1
  Ho  Ho11  1  0.202030  0.599809  0.599493  1
  Ho  Ho12  1  0.059656  0.440889  0.440635  1
  Ho  Ho13  1  0.063282  0.063282  0.436460  1
  Ho  Ho14  1  0.812389  0.187561  0.187824  1
  Ho  Ho15  1  0.599809  0.202030  0.599493  1
  Ho  Ho16  1  0.600064  0.600064  0.600090  1
  In  In17  1  0.833142  0.833142  0.503372  1
  In  In18  1  0.503547  0.832919  0.833177  1
  In  In19  1  0.832919  0.503547  0.833177  1
  Rh  Rh20  1  0.392933  0.823292  0.392910  1
  Rh  Rh21  1  0.393255  0.393255  0.393195  1
  Rh  Rh22  1  0.823292  0.392933  0.392910  1
  Rh  Rh23  1  0.393047  0.393047  0.823349  1
