# generated using pymatgen
data_CeLu2(CoSi)2
_symmetry_space_group_name_H-M   'P 1'
_cell_length_a   5.33933100
_cell_length_b   7.68858100
_cell_length_c   12.42565700
_cell_angle_alpha   90.00000000
_cell_angle_beta   90.00000000
_cell_angle_gamma   90.00000000
_symmetry_Int_Tables_number   1
_chemical_formula_structural   CeLu2(CoSi)2
_chemical_formula_sum   'Ce4 Lu8 Co8 Si8'
_cell_volume   510.09656616
_cell_formula_units_Z   4
loop_
 _symmetry_equiv_pos_site_id
 _symmetry_equiv_pos_as_xyz
  1  'x, y, z'
loop_
 _atom_site_type_symbol
 _atom_site_label
 _atom_site_symmetry_multiplicity
 _atom_site_fract_x
 _atom_site_fract_y
 _atom_site_fract_z
 _atom_site_occupancy
  Ce  Ce0  1  0.842577  0.597519  0.591258  1
  Ce  Ce1  1  0.842577  0.902481  0.408742  1
  Ce  Ce2  1  0.157423  0.097519  0.908742  1
  Ce  Ce3  1  0.157423  0.402481  0.091258  1
  Lu  Lu4  1  0.353178  0.747041  0.748152  1
  Lu  Lu5  1  0.353178  0.752959  0.251848  1
  Lu  Lu6  1  0.646822  0.247041  0.751848  1
  Lu  Lu7  1  0.646822  0.252959  0.248152  1
  Lu  Lu8  1  0.150160  0.390886  0.397183  1
  Lu  Lu9  1  0.150160  0.109114  0.602817  1
  Lu  Lu10  1  0.849840  0.890886  0.102817  1
  Lu  Lu11  1  0.849840  0.609114  0.897183  1
  Co  Co12  1  0.383076  0.034023  0.406673  1
  Co  Co13  1  0.383076  0.465977  0.593327  1
  Co  Co14  1  0.616924  0.534023  0.093327  1
  Co  Co15  1  0.616924  0.965977  0.906673  1
  Co  Co16  1  0.372136  0.037208  0.085664  1
  Co  Co17  1  0.372136  0.462792  0.914336  1
  Co  Co18  1  0.627864  0.537208  0.414336  1
  Co  Co19  1  0.627864  0.962792  0.585664  1
  Si  Si20  1  0.629384  0.250000  0.500000  1
  Si  Si21  1  0.370616  0.750000  0.000000  1
  Si  Si22  1  0.345441  0.750000  0.500000  1
  Si  Si23  1  0.654559  0.250000  0.000000  1
  Si  Si24  1  0.842490  0.898004  0.747649  1
  Si  Si25  1  0.842490  0.601996  0.252351  1
  Si  Si26  1  0.157510  0.398004  0.752351  1
  Si  Si27  1  0.157510  0.101996  0.247649  1
