# generated using pymatgen
data_Y13Th3Mg3CdRh4
_symmetry_space_group_name_H-M   'P 1'
_cell_length_a   9.79245072
_cell_length_b   9.80606095
_cell_length_c   9.80606031
_cell_angle_alpha   59.96042091
_cell_angle_beta   59.89926890
_cell_angle_gamma   59.89926732
_symmetry_Int_Tables_number   1
_chemical_formula_structural   Y13Th3Mg3CdRh4
_chemical_formula_sum   'Y13 Th3 Mg3 Cd1 Rh4'
_cell_volume   664.61929697
_cell_formula_units_Z   1
loop_
 _symmetry_equiv_pos_site_id
 _symmetry_equiv_pos_as_xyz
  1  'x, y, z'
loop_
 _atom_site_type_symbol
 _atom_site_label
 _atom_site_symmetry_multiplicity
 _atom_site_fract_x
 _atom_site_fract_y
 _atom_site_fract_z
 _atom_site_occupancy
  Y  Y0  1  0.199228  0.601530  0.601530  1
  Y  Y1  1  0.061213  0.438384  0.438384  1
  Y  Y2  1  0.435782  0.063387  0.063387  1
  Y  Y3  1  0.437016  0.062218  0.437454  1
  Y  Y4  1  0.062037  0.437297  0.062139  1
  Y  Y5  1  0.437016  0.437454  0.062218  1
  Y  Y6  1  0.062037  0.062139  0.437297  1
  Y  Y7  1  0.184064  0.815680  0.815680  1
  Y  Y8  1  0.815309  0.184954  0.184954  1
  Y  Y9  1  0.816141  0.183291  0.816189  1
  Y  Y10  1  0.186219  0.814360  0.184863  1
  Y  Y11  1  0.816141  0.816189  0.183291  1
  Y  Y12  1  0.186219  0.184863  0.814360  1
  Th  Th13  1  0.594844  0.597378  0.597378  1
  Th  Th14  1  0.597388  0.599912  0.205185  1
  Th  Th15  1  0.597388  0.205185  0.599912  1
  Mg  Mg16  1  0.829644  0.829524  0.510929  1
  Mg  Mg17  1  0.829644  0.510929  0.829524  1
  Mg  Mg18  1  0.510123  0.829561  0.829561  1
  Cd  Cd19  1  0.833088  0.830348  0.830348  1
  Rh  Rh20  1  0.397653  0.392563  0.392563  1
  Rh  Rh21  1  0.398245  0.390688  0.817829  1
  Rh  Rh22  1  0.398245  0.817829  0.390688  1
  Rh  Rh23  1  0.815318  0.394335  0.394335  1
