# generated using pymatgen
data_Sm7Y(Er3Si4)4
_symmetry_space_group_name_H-M   'P 1'
_cell_length_a   7.68718727
_cell_length_b   7.68596709
_cell_length_c   14.22299200
_cell_angle_alpha   90.00376457
_cell_angle_beta   89.93957517
_cell_angle_gamma   89.94100087
_symmetry_Int_Tables_number   1
_chemical_formula_structural   Sm7Y(Er3Si4)4
_chemical_formula_sum   'Sm7 Y1 Er12 Si16'
_cell_volume   840.34278402
_cell_formula_units_Z   1
loop_
 _symmetry_equiv_pos_site_id
 _symmetry_equiv_pos_as_xyz
  1  'x, y, z'
loop_
 _atom_site_type_symbol
 _atom_site_label
 _atom_site_symmetry_multiplicity
 _atom_site_fract_x
 _atom_site_fract_y
 _atom_site_fract_z
 _atom_site_occupancy
  Sm  Sm0  1  0.991942  0.640271  0.042263  1
  Sm  Sm1  1  0.007918  0.359628  0.542354  1
  Sm  Sm2  1  0.640503  0.992080  0.957516  1
  Sm  Sm3  1  0.140424  0.507808  0.792117  1
  Sm  Sm4  1  0.859701  0.492255  0.292965  1
  Sm  Sm5  1  0.507364  0.139875  0.207673  1
  Sm  Sm6  1  0.492459  0.859785  0.707257  1
  Y  Y7  1  0.360071  0.007946  0.457741  1
  Er  Er8  1  0.361125  0.490486  0.375902  1
  Er  Er9  1  0.861542  0.008881  0.374651  1
  Er  Er10  1  0.991792  0.138443  0.126107  1
  Er  Er11  1  0.008774  0.862250  0.625183  1
  Er  Er12  1  0.638565  0.508451  0.875240  1
  Er  Er13  1  0.490725  0.362126  0.624119  1
  Er  Er14  1  0.508741  0.638631  0.124594  1
  Er  Er15  1  0.138744  0.990825  0.874106  1
  Er  Er16  1  0.683097  0.684149  0.499897  1
  Er  Er17  1  0.816558  0.182782  0.749710  1
  Er  Er18  1  0.183510  0.816822  0.250307  1
  Er  Er19  1  0.316871  0.316944  0.000022  1
  Si  Si20  1  0.064160  0.710198  0.438228  1
  Si  Si21  1  0.936701  0.290407  0.938349  1
  Si  Si22  1  0.707573  0.062567  0.561230  1
  Si  Si23  1  0.209336  0.436217  0.188521  1
  Si  Si24  1  0.790948  0.563207  0.688169  1
  Si  Si25  1  0.436939  0.209083  0.811673  1
  Si  Si26  1  0.562012  0.791690  0.312151  1
  Si  Si27  1  0.290784  0.936543  0.061582  1
  Si  Si28  1  0.845879  0.797367  0.811216  1
  Si  Si29  1  0.155506  0.200722  0.312546  1
  Si  Si30  1  0.797261  0.845684  0.188692  1
  Si  Si31  1  0.298781  0.656540  0.560519  1
  Si  Si32  1  0.702394  0.345293  0.061124  1
  Si  Si33  1  0.653310  0.297260  0.438830  1
  Si  Si34  1  0.345595  0.702116  0.938752  1
  Si  Si35  1  0.202396  0.154669  0.688693  1
