# generated using pymatgen
data_Zr8Co2MoPt
_symmetry_space_group_name_H-M   'P 1'
_cell_length_a   8.72734644
_cell_length_b   8.72732358
_cell_length_c   8.72145100
_cell_angle_alpha   60.02248790
_cell_angle_beta   60.02258204
_cell_angle_gamma   59.97337761
_symmetry_Int_Tables_number   1
_chemical_formula_structural   Zr8Co2MoPt
_chemical_formula_sum   'Zr16 Co4 Mo2 Pt2'
_cell_volume   469.78307987
_cell_formula_units_Z   2
loop_
 _symmetry_equiv_pos_site_id
 _symmetry_equiv_pos_as_xyz
  1  'x, y, z'
loop_
 _atom_site_type_symbol
 _atom_site_label
 _atom_site_symmetry_multiplicity
 _atom_site_fract_x
 _atom_site_fract_y
 _atom_site_fract_z
 _atom_site_occupancy
  Zr  Zr0  1  0.046541  0.649534  0.651946  1
  Zr  Zr1  1  0.649634  0.046638  0.651848  1
  Zr  Zr2  1  0.649495  0.649325  0.051383  1
  Zr  Zr3  1  0.649533  0.649360  0.649752  1
  Zr  Zr4  1  0.797630  0.797622  0.202406  1
  Zr  Zr5  1  0.201944  0.202162  0.797972  1
  Zr  Zr6  1  0.800463  0.196993  0.804218  1
  Zr  Zr7  1  0.196868  0.800413  0.198510  1
  Zr  Zr8  1  0.196898  0.800439  0.804205  1
  Zr  Zr9  1  0.800440  0.196961  0.198377  1
  Zr  Zr10  1  0.437142  0.437101  0.062912  1
  Zr  Zr11  1  0.063855  0.063881  0.436108  1
  Zr  Zr12  1  0.436462  0.071672  0.433710  1
  Zr  Zr13  1  0.071668  0.436428  0.058159  1
  Zr  Zr14  1  0.071646  0.436459  0.433736  1
  Zr  Zr15  1  0.436431  0.071693  0.058157  1
  Co  Co16  1  0.421181  0.857967  0.860408  1
  Co  Co17  1  0.857984  0.421184  0.860398  1
  Co  Co18  1  0.858131  0.858122  0.420166  1
  Co  Co19  1  0.858121  0.858115  0.863571  1
  Mo  Mo20  1  0.417453  0.417448  0.745901  1
  Mo  Mo21  1  0.417461  0.417458  0.419132  1
  Pt  Pt22  1  0.749753  0.413267  0.418513  1
  Pt  Pt23  1  0.413264  0.749756  0.418513  1
