# generated using pymatgen
data_CeCuAsP
_symmetry_space_group_name_H-M   'P 1'
_cell_length_a   3.90805200
_cell_length_b   3.90342200
_cell_length_c   9.77977500
_cell_angle_alpha   90.00000000
_cell_angle_beta   90.00000000
_cell_angle_gamma   90.00000000
_symmetry_Int_Tables_number   1
_chemical_formula_structural   CeCuAsP
_chemical_formula_sum   'Ce2 Cu2 As2 P2'
_cell_volume   149.18827846
_cell_formula_units_Z   2
loop_
 _symmetry_equiv_pos_site_id
 _symmetry_equiv_pos_as_xyz
  1  'x, y, z'
loop_
 _atom_site_type_symbol
 _atom_site_label
 _atom_site_symmetry_multiplicity
 _atom_site_fract_x
 _atom_site_fract_y
 _atom_site_fract_z
 _atom_site_occupancy
  Ce  Ce0  1  0.250001  0.250001  0.240503  1
  Ce  Ce1  1  0.749999  0.749999  0.759497  1
  Cu  Cu2  1  0.749999  0.250001  0.500339  1
  Cu  Cu3  1  0.250001  0.749999  0.499661  1
  As  As4  1  0.749999  0.250001  0.000068  1
  As  As5  1  0.250001  0.749999  0.999932  1
  P  P6  1  0.749999  0.749999  0.352196  1
  P  P7  1  0.250001  0.250001  0.647805  1
