# generated using pymatgen
data_Nd4Ga18IrPtRh4
_symmetry_space_group_name_H-M   'P 1'
_cell_length_a   7.66263828
_cell_length_b   7.66263926
_cell_length_c   9.61318439
_cell_angle_alpha   89.99964881
_cell_angle_beta   89.99964707
_cell_angle_gamma   119.58885734
_symmetry_Int_Tables_number   1
_chemical_formula_structural   Nd4Ga18IrPtRh4
_chemical_formula_sum   'Nd4 Ga18 Ir1 Pt1 Rh4'
_cell_volume   490.83893049
_cell_formula_units_Z   1
loop_
 _symmetry_equiv_pos_site_id
 _symmetry_equiv_pos_as_xyz
  1  'x, y, z'
loop_
 _atom_site_type_symbol
 _atom_site_label
 _atom_site_symmetry_multiplicity
 _atom_site_fract_x
 _atom_site_fract_y
 _atom_site_fract_z
 _atom_site_occupancy
  Nd  Nd0  1  0.996323  0.667871  0.249765  1
  Nd  Nd1  1  0.001326  0.330441  0.750549  1
  Nd  Nd2  1  0.669559  0.998674  0.249451  1
  Nd  Nd3  1  0.332129  0.003677  0.750235  1
  Ga  Ga4  1  0.341095  0.547688  0.251323  1
  Ga  Ga5  1  0.659896  0.456513  0.746397  1
  Ga  Ga6  1  0.543487  0.340104  0.253603  1
  Ga  Ga7  1  0.452312  0.658905  0.748677  1
  Ga  Ga8  1  0.006329  0.334232  0.079986  1
  Ga  Ga9  1  0.001475  0.669213  0.920524  1
  Ga  Ga10  1  0.998328  0.665158  0.577893  1
  Ga  Ga11  1  0.334842  0.001672  0.422107  1
  Ga  Ga12  1  0.002646  0.335066  0.421797  1
  Ga  Ga13  1  0.664934  0.997354  0.578203  1
  Ga  Ga14  1  0.665768  0.993671  0.920014  1
  Ga  Ga15  1  0.330787  0.998525  0.079476  1
  Ga  Ga16  1  0.331763  0.332160  0.559099  1
  Ga  Ga17  1  0.667840  0.668237  0.440901  1
  Ga  Ga18  1  0.666898  0.669948  0.061742  1
  Ga  Ga19  1  0.330052  0.333102  0.938258  1
  Ga  Ga20  1  0.127061  0.125592  0.250293  1
  Ga  Ga21  1  0.874408  0.872939  0.749707  1
  Ir  Ir22  1  0.329301  0.670699  0.000000  1
  Pt  Pt23  1  0.671499  0.328501  0.000000  1
  Rh  Rh24  1  0.328997  0.671003  0.500000  1
  Rh  Rh25  1  0.670947  0.329053  0.500000  1
  Rh  Rh26  1  0.000474  0.999526  0.000000  1
  Rh  Rh27  1  0.999524  0.000476  0.500000  1
