# generated using pymatgen
data_YTa2Nb4InCl18
_symmetry_space_group_name_H-M   'P 1'
_cell_length_a   10.19887370
_cell_length_b   10.19529205
_cell_length_c   10.19178507
_cell_angle_alpha   55.30804444
_cell_angle_beta   55.31162286
_cell_angle_gamma   55.31487034
_symmetry_Int_Tables_number   1
_chemical_formula_structural   YTa2Nb4InCl18
_chemical_formula_sum   'Y1 Ta2 Nb4 In1 Cl18'
_cell_volume   667.71521376
_cell_formula_units_Z   1
loop_
 _symmetry_equiv_pos_site_id
 _symmetry_equiv_pos_as_xyz
  1  'x, y, z'
loop_
 _atom_site_type_symbol
 _atom_site_label
 _atom_site_symmetry_multiplicity
 _atom_site_fract_x
 _atom_site_fract_y
 _atom_site_fract_z
 _atom_site_occupancy
  Y  Y0  1  0.497730  0.498519  0.498197  1
  Ta  Ta1  1  0.800967  0.148771  0.913012  1
  Ta  Ta2  1  0.913349  0.800682  0.148754  1
  Nb  Nb3  1  0.149437  0.912906  0.799932  1
  Nb  Nb4  1  0.201459  0.851191  0.086251  1
  Nb  Nb5  1  0.086622  0.201216  0.851007  1
  Nb  Nb6  1  0.851486  0.086296  0.200993  1
  In  In7  1  0.220395  0.220215  0.221818  1
  Cl  Cl8  1  0.860334  0.413121  0.726711  1
  Cl  Cl9  1  0.726523  0.860303  0.413297  1
  Cl  Cl10  1  0.415052  0.725314  0.862197  1
  Cl  Cl11  1  0.134669  0.585548  0.275381  1
  Cl  Cl12  1  0.275440  0.137850  0.583904  1
  Cl  Cl13  1  0.585336  0.275291  0.134852  1
  Cl  Cl14  1  0.533632  0.339662  0.806998  1
  Cl  Cl15  1  0.806124  0.534000  0.340229  1
  Cl  Cl16  1  0.342196  0.805216  0.530273  1
  Cl  Cl17  1  0.465953  0.657936  0.197818  1
  Cl  Cl18  1  0.197514  0.466208  0.658437  1
  Cl  Cl19  1  0.658181  0.197959  0.465593  1
  Cl  Cl20  1  0.662443  0.938903  0.072482  1
  Cl  Cl21  1  0.071148  0.659895  0.941883  1
  Cl  Cl22  1  0.936178  0.074802  0.661834  1
  Cl  Cl23  1  0.339820  0.062095  0.927107  1
  Cl  Cl24  1  0.927169  0.339980  0.062120  1
  Cl  Cl25  1  0.061983  0.927258  0.340060  1
