# generated using pymatgen
data_KHg2F8
_symmetry_space_group_name_H-M   'P 1'
_cell_length_a   7.40261294
_cell_length_b   7.37909533
_cell_length_c   6.09269320
_cell_angle_alpha   111.22549104
_cell_angle_beta   111.34389595
_cell_angle_gamma   46.75044623
_symmetry_Int_Tables_number   1
_chemical_formula_structural   KHg2F8
_chemical_formula_sum   'K1 Hg2 F8'
_cell_volume   222.65025982
_cell_formula_units_Z   1
loop_
 _symmetry_equiv_pos_site_id
 _symmetry_equiv_pos_as_xyz
  1  'x, y, z'
loop_
 _atom_site_type_symbol
 _atom_site_label
 _atom_site_symmetry_multiplicity
 _atom_site_fract_x
 _atom_site_fract_y
 _atom_site_fract_z
 _atom_site_occupancy
  K  K0  1  0.780167  0.219808  0.000445  1
  Hg  Hg1  1  0.503327  0.004239  0.257335  1
  Hg  Hg2  1  0.995583  0.496817  0.742545  1
  F  F3  1  0.882940  0.740753  0.056637  1
  F  F4  1  0.482543  0.732289  0.199517  1
  F  F5  1  0.535045  0.265880  0.304022  1
  F  F6  1  0.088577  0.278693  0.413974  1
  F  F7  1  0.721751  0.912615  0.587695  1
  F  F8  1  0.735542  0.463857  0.693527  1
  F  F9  1  0.265500  0.519562  0.801979  1
  F  F10  1  0.257886  0.116633  0.942322  1
