# generated using pymatgen
data_Mn7CrPbO16
_symmetry_space_group_name_H-M   'P 1'
_cell_length_a   5.92420515
_cell_length_b   7.14444675
_cell_length_c   7.20258694
_cell_angle_alpha   87.68968867
_cell_angle_beta   77.90211374
_cell_angle_gamma   77.74854829
_symmetry_Int_Tables_number   1
_chemical_formula_structural   Mn7CrPbO16
_chemical_formula_sum   'Mn7 Cr1 Pb1 O16'
_cell_volume   291.28894138
_cell_formula_units_Z   1
loop_
 _symmetry_equiv_pos_site_id
 _symmetry_equiv_pos_as_xyz
  1  'x, y, z'
loop_
 _atom_site_type_symbol
 _atom_site_label
 _atom_site_symmetry_multiplicity
 _atom_site_fract_x
 _atom_site_fract_y
 _atom_site_fract_z
 _atom_site_occupancy
  Mn  Mn0  1  0.077313  0.511105  0.182251  1
  Mn  Mn1  1  0.166930  0.815723  0.514709  1
  Mn  Mn2  1  0.665134  0.820186  0.520236  1
  Mn  Mn3  1  0.335229  0.186326  0.475832  1
  Mn  Mn4  1  0.835464  0.183530  0.486074  1
  Mn  Mn5  1  0.432169  0.484085  0.816142  1
  Mn  Mn6  1  0.926474  0.487887  0.817368  1
  Cr  Cr7  1  0.577629  0.520439  0.183032  1
  Pb  Pb8  1  0.062685  0.978970  0.022989  1
  O  O9  1  0.841707  0.648406  0.046698  1
  O  O10  1  0.312347  0.653248  0.050126  1
  O  O11  1  0.976661  0.703708  0.380984  1
  O  O12  1  0.479668  0.712837  0.384763  1
  O  O13  1  0.854018  0.952531  0.644860  1
  O  O14  1  0.345106  0.956239  0.642396  1
  O  O15  1  0.332784  0.373727  0.284236  1
  O  O16  1  0.845097  0.365971  0.283615  1
  O  O17  1  0.170355  0.625793  0.710240  1
  O  O18  1  0.665935  0.630974  0.715987  1
  O  O19  1  0.138231  0.033895  0.345051  1
  O  O20  1  0.661175  0.044027  0.357370  1
  O  O21  1  0.020097  0.294142  0.621371  1
  O  O22  1  0.529803  0.302009  0.618096  1
  O  O23  1  0.175082  0.353260  0.949916  1
  O  O24  1  0.680008  0.360982  0.945654  1
