# generated using pymatgen
data_Sc6Sn6Ir3PtRh2
_symmetry_space_group_name_H-M   'P 1'
_cell_length_a   7.54674400
_cell_length_b   7.54674362
_cell_length_c   7.02734500
_cell_angle_alpha   90.00000000
_cell_angle_beta   90.00000000
_cell_angle_gamma   120.00001045
_symmetry_Int_Tables_number   1
_chemical_formula_structural   Sc6Sn6Ir3PtRh2
_chemical_formula_sum   'Sc6 Sn6 Ir3 Pt1 Rh2'
_cell_volume   346.60998975
_cell_formula_units_Z   1
loop_
 _symmetry_equiv_pos_site_id
 _symmetry_equiv_pos_as_xyz
  1  'x, y, z'
loop_
 _atom_site_type_symbol
 _atom_site_label
 _atom_site_symmetry_multiplicity
 _atom_site_fract_x
 _atom_site_fract_y
 _atom_site_fract_z
 _atom_site_occupancy
  Sc  Sc0  1  0.395830  0.997426  0.248803  1
  Sc  Sc1  1  0.601596  0.604170  0.248803  1
  Sc  Sc2  1  0.002574  0.398404  0.248803  1
  Sc  Sc3  1  0.395325  0.996396  0.751170  1
  Sc  Sc4  1  0.601071  0.604675  0.751170  1
  Sc  Sc5  1  0.003604  0.398929  0.751170  1
  Sn  Sn6  1  0.280237  0.278922  0.999931  1
  Sn  Sn7  1  0.998686  0.719763  0.999931  1
  Sn  Sn8  1  0.002453  0.734180  0.499921  1
  Sn  Sn9  1  0.731726  0.997547  0.499921  1
  Sn  Sn10  1  0.265820  0.268274  0.499921  1
  Sn  Sn11  1  0.721078  0.001314  0.999931  1
  Ir  Ir12  1  0.666667  0.333333  0.999273  1
  Ir  Ir13  1  0.333333  0.666667  0.498997  1
  Ir  Ir14  1  0.333333  0.666667  0.001177  1
  Pt  Pt15  1  0.666667  0.333333  0.501259  1
  Rh  Rh16  1  0.000000  0.000000  0.764871  1
  Rh  Rh17  1  0.000000  0.000000  0.234945  1
