# generated using pymatgen
data_CaY3Tm4(B6Ru)4
_symmetry_space_group_name_H-M   'P 1'
_cell_length_a   3.63871700
_cell_length_b   9.10977959
_cell_length_c   11.50844100
_cell_angle_alpha   89.91275124
_cell_angle_beta   90.00000000
_cell_angle_gamma   90.00000000
_symmetry_Int_Tables_number   1
_chemical_formula_structural   CaY3Tm4(B6Ru)4
_chemical_formula_sum   'Ca1 Y3 Tm4 B24 Ru4'
_cell_volume   381.48032245
_cell_formula_units_Z   1
loop_
 _symmetry_equiv_pos_site_id
 _symmetry_equiv_pos_as_xyz
  1  'x, y, z'
loop_
 _atom_site_type_symbol
 _atom_site_label
 _atom_site_symmetry_multiplicity
 _atom_site_fract_x
 _atom_site_fract_y
 _atom_site_fract_z
 _atom_site_occupancy
  Ca  Ca0  1  0.000000  0.322139  0.413976  1
  Y  Y1  1  0.000000  0.676566  0.585064  1
  Y  Y2  1  0.000000  0.822020  0.086243  1
  Y  Y3  1  0.000000  0.178452  0.914532  1
  Tm  Tm4  1  0.000000  0.944058  0.371203  1
  Tm  Tm5  1  0.000000  0.057891  0.628022  1
  Tm  Tm6  1  0.000000  0.442993  0.129506  1
  Tm  Tm7  1  0.000000  0.556198  0.872218  1
  B  B8  1  0.500000  0.554642  0.432268  1
  B  B9  1  0.500000  0.445744  0.568030  1
  B  B10  1  0.500000  0.053613  0.066744  1
  B  B11  1  0.500000  0.945464  0.932178  1
  B  B12  1  0.500000  0.749347  0.418659  1
  B  B13  1  0.500000  0.251291  0.581722  1
  B  B14  1  0.500000  0.248522  0.080819  1
  B  B15  1  0.500000  0.750833  0.919074  1
  B  B16  1  0.500000  0.791835  0.265988  1
  B  B17  1  0.500000  0.209292  0.734379  1
  B  B18  1  0.500000  0.290238  0.233312  1
  B  B19  1  0.500000  0.708945  0.766367  1
  B  B20  1  0.500000  0.631187  0.185467  1
  B  B21  1  0.500000  0.369430  0.815627  1
  B  B22  1  0.500000  0.130252  0.314036  1
  B  B23  1  0.500000  0.869347  0.684919  1
  B  B24  1  0.500000  0.983016  0.212153  1
  B  B25  1  0.500000  0.016750  0.786840  1
  B  B26  1  0.500000  0.483616  0.287090  1
  B  B27  1  0.500000  0.516765  0.713440  1
  B  B28  1  0.500000  0.605508  0.029249  1
  B  B29  1  0.500000  0.394754  0.971380  1
  B  B30  1  0.500000  0.102233  0.471760  1
  B  B31  1  0.500000  0.896599  0.528490  1
  Ru  Ru32  1  0.000000  0.640198  0.319642  1
  Ru  Ru33  1  0.000000  0.361616  0.681322  1
  Ru  Ru34  1  0.000000  0.136978  0.177990  1
  Ru  Ru35  1  0.000000  0.861668  0.820294  1
