# generated using pymatgen
data_Eu6Al23SiOs8
_symmetry_space_group_name_H-M   'P 1'
_cell_length_a   8.88780200
_cell_length_b   8.88780209
_cell_length_c   9.76730100
_cell_angle_alpha   90.00000000
_cell_angle_beta   90.00000000
_cell_angle_gamma   119.99999221
_symmetry_Int_Tables_number   1
_chemical_formula_structural   Eu6Al23SiOs8
_chemical_formula_sum   'Eu6 Al23 Si1 Os8'
_cell_volume   668.18078720
_cell_formula_units_Z   1
loop_
 _symmetry_equiv_pos_site_id
 _symmetry_equiv_pos_as_xyz
  1  'x, y, z'
loop_
 _atom_site_type_symbol
 _atom_site_label
 _atom_site_symmetry_multiplicity
 _atom_site_fract_x
 _atom_site_fract_y
 _atom_site_fract_z
 _atom_site_occupancy
  Eu  Eu0  1  0.193969  0.387940  0.249415  1
  Eu  Eu1  1  0.806809  0.613617  0.750813  1
  Eu  Eu2  1  0.612060  0.806031  0.249415  1
  Eu  Eu3  1  0.386383  0.193191  0.750813  1
  Eu  Eu4  1  0.193969  0.806031  0.249415  1
  Eu  Eu5  1  0.806809  0.193191  0.750813  1
  Al  Al6  1  0.666667  0.333333  0.993693  1
  Al  Al7  1  0.666667  0.333333  0.505479  1
  Al  Al8  1  0.333333  0.666667  0.497249  1
  Al  Al9  1  0.162360  0.324722  0.572438  1
  Al  Al10  1  0.837118  0.674235  0.426830  1
  Al  Al11  1  0.675278  0.837640  0.572438  1
  Al  Al12  1  0.837061  0.674122  0.072441  1
  Al  Al13  1  0.325765  0.162882  0.426830  1
  Al  Al14  1  0.163867  0.327735  0.925750  1
  Al  Al15  1  0.162360  0.837640  0.572438  1
  Al  Al16  1  0.325878  0.162939  0.072441  1
  Al  Al17  1  0.837118  0.162882  0.426830  1
  Al  Al18  1  0.672265  0.836133  0.925750  1
  Al  Al19  1  0.837061  0.162939  0.072441  1
  Al  Al20  1  0.163867  0.836133  0.925750  1
  Al  Al21  1  0.561804  0.123607  0.249363  1
  Al  Al22  1  0.437604  0.875209  0.748345  1
  Al  Al23  1  0.876393  0.438196  0.249363  1
  Al  Al24  1  0.124791  0.562396  0.748345  1
  Al  Al25  1  0.561804  0.438196  0.249363  1
  Al  Al26  1  0.437604  0.562396  0.748345  1
  Al  Al27  1  0.000000  0.000000  0.249237  1
  Al  Al28  1  0.000000  0.000000  0.748934  1
  Si  Si29  1  0.333333  0.666667  0.020759  1
  Os  Os30  1  0.494938  0.989876  0.001128  1
  Os  Os31  1  0.010124  0.505062  0.001128  1
  Os  Os32  1  0.500083  0.000167  0.498994  1
  Os  Os33  1  0.494938  0.505062  0.001128  1
  Os  Os34  1  0.999833  0.499917  0.498994  1
  Os  Os35  1  0.500083  0.499917  0.498994  1
  Os  Os36  1  0.000000  0.000000  0.999419  1
  Os  Os37  1  0.000000  0.000000  0.498683  1
