# generated using pymatgen
data_Cs2Al6InF21
_symmetry_space_group_name_H-M   'P 1'
_cell_length_a   7.10384992
_cell_length_b   7.10385060
_cell_length_c   10.91562595
_cell_angle_alpha   71.19369469
_cell_angle_beta   71.19369582
_cell_angle_gamma   60.06262555
_symmetry_Int_Tables_number   1
_chemical_formula_structural   Cs2Al6InF21
_chemical_formula_sum   'Cs2 Al6 In1 F21'
_cell_volume   443.02706996
_cell_formula_units_Z   1
loop_
 _symmetry_equiv_pos_site_id
 _symmetry_equiv_pos_as_xyz
  1  'x, y, z'
loop_
 _atom_site_type_symbol
 _atom_site_label
 _atom_site_symmetry_multiplicity
 _atom_site_fract_x
 _atom_site_fract_y
 _atom_site_fract_z
 _atom_site_occupancy
  Cs  Cs0  1  0.137279  0.128166  0.602614  1
  Cs  Cs1  1  0.871834  0.862721  0.397386  1
  Al  Al2  1  0.461414  0.922471  0.178669  1
  Al  Al3  1  0.077529  0.538586  0.821331  1
  Al  Al4  1  0.965033  0.416287  0.179800  1
  Al  Al5  1  0.462732  0.415884  0.178808  1
  Al  Al6  1  0.584116  0.537268  0.821192  1
  Al  Al7  1  0.583713  0.034967  0.820200  1
  In  In8  1  0.505695  0.494305  0.500000  1
  F  F9  1  0.680749  0.571154  0.647726  1
  F  F10  1  0.428846  0.319251  0.352274  1
  F  F11  1  0.169375  0.497277  0.187774  1
  F  F12  1  0.502723  0.830625  0.812226  1
  F  F13  1  0.863013  0.448834  0.846296  1
  F  F14  1  0.515917  0.958252  0.999753  1
  F  F15  1  0.755740  0.346727  0.165164  1
  F  F16  1  0.100415  0.597483  0.648309  1
  F  F17  1  0.870980  0.826667  0.829618  1
  F  F18  1  0.751755  0.706958  0.181370  1
  F  F19  1  0.653273  0.244260  0.834836  1
  F  F20  1  0.490429  0.509571  0.000000  1
  F  F21  1  0.907604  0.342114  0.354748  1
  F  F22  1  0.299319  0.618675  0.804033  1
  F  F23  1  0.402517  0.899585  0.351691  1
  F  F24  1  0.293042  0.248245  0.818630  1
  F  F25  1  0.551166  0.136987  0.153704  1
  F  F26  1  0.381325  0.700681  0.195967  1
  F  F27  1  0.173333  0.129020  0.170382  1
  F  F28  1  0.041748  0.484083  0.000247  1
  F  F29  1  0.657886  0.092396  0.645252  1
