# generated using pymatgen
data_Pr3Bi(Pb2O7)2
_symmetry_space_group_name_H-M   'P 1'
_cell_length_a   7.81939934
_cell_length_b   7.81940158
_cell_length_c   7.78490969
_cell_angle_alpha   59.85333262
_cell_angle_beta   59.85332163
_cell_angle_gamma   59.99999984
_symmetry_Int_Tables_number   1
_chemical_formula_structural   Pr3Bi(Pb2O7)2
_chemical_formula_sum   'Pr3 Bi1 Pb4 O14'
_cell_volume   335.82970785
_cell_formula_units_Z   1
loop_
 _symmetry_equiv_pos_site_id
 _symmetry_equiv_pos_as_xyz
  1  'x, y, z'
loop_
 _atom_site_type_symbol
 _atom_site_label
 _atom_site_symmetry_multiplicity
 _atom_site_fract_x
 _atom_site_fract_y
 _atom_site_fract_z
 _atom_site_occupancy
  Pr  Pr0  1  0.125000  0.625000  0.125000  1
  Pr  Pr1  1  0.625000  0.125000  0.125000  1
  Pr  Pr2  1  0.125000  0.125000  0.125000  1
  Bi  Bi3  1  0.125000  0.125000  0.625000  1
  Pb  Pb4  1  0.625000  0.625000  0.125000  1
  Pb  Pb5  1  0.625000  0.125000  0.625000  1
  Pb  Pb6  1  0.125000  0.625000  0.625000  1
  Pb  Pb7  1  0.625000  0.625000  0.625000  1
  O  O8  1  0.249750  0.249750  0.250751  1
  O  O9  1  0.000250  0.000250  0.999249  1
  O  O10  1  0.534513  0.966899  0.531689  1
  O  O11  1  0.281767  0.718385  0.281463  1
  O  O12  1  0.531615  0.531615  0.968537  1
  O  O13  1  0.966899  0.534513  0.531689  1
  O  O14  1  0.531615  0.968233  0.968537  1
  O  O15  1  0.966899  0.966899  0.531689  1
  O  O16  1  0.968233  0.531615  0.968537  1
  O  O17  1  0.718385  0.281767  0.281463  1
  O  O18  1  0.283101  0.715487  0.718311  1
  O  O19  1  0.715487  0.283101  0.718311  1
  O  O20  1  0.283101  0.283101  0.718311  1
  O  O21  1  0.718385  0.718385  0.281463  1
