# generated using pymatgen
data_Ho10In3Bi2Sb
_symmetry_space_group_name_H-M   'P 1'
_cell_length_a   8.98719500
_cell_length_b   8.97432018
_cell_length_c   6.57351700
_cell_angle_alpha   90.00000000
_cell_angle_beta   90.00000000
_cell_angle_gamma   120.10155241
_symmetry_Int_Tables_number   1
_chemical_formula_structural   Ho10In3Bi2Sb
_chemical_formula_sum   'Ho10 In3 Bi2 Sb1'
_cell_volume   458.67896013
_cell_formula_units_Z   1
loop_
 _symmetry_equiv_pos_site_id
 _symmetry_equiv_pos_as_xyz
  1  'x, y, z'
loop_
 _atom_site_type_symbol
 _atom_site_label
 _atom_site_symmetry_multiplicity
 _atom_site_fract_x
 _atom_site_fract_y
 _atom_site_fract_z
 _atom_site_occupancy
  Ho  Ho0  1  0.330812  0.665434  0.001063  1
  Ho  Ho1  1  0.662045  0.336340  0.499577  1
  Ho  Ho2  1  0.662045  0.336340  0.000423  1
  Ho  Ho3  1  0.330812  0.665434  0.498937  1
  Ho  Ho4  1  0.760751  0.996307  0.750000  1
  Ho  Ho5  1  0.765276  0.757686  0.250000  1
  Ho  Ho6  1  0.007069  0.240102  0.250000  1
  Ho  Ho7  1  0.002522  0.766892  0.750000  1
  Ho  Ho8  1  0.241938  0.234574  0.750000  1
  Ho  Ho9  1  0.234887  0.000320  0.250000  1
  In  In10  1  0.397606  0.999835  0.750000  1
  In  In11  1  0.395564  0.397550  0.250000  1
  In  In12  1  0.998569  0.602256  0.250000  1
  Bi  Bi13  1  0.996179  0.390938  0.750000  1
  Bi  Bi14  1  0.608080  0.001091  0.250000  1
  Sb  Sb15  1  0.605842  0.608900  0.750000  1
