# generated using pymatgen
data_CeSiRh2Au
_symmetry_space_group_name_H-M   'P 1'
_cell_length_a   4.03431200
_cell_length_b   4.03431200
_cell_length_c   11.28401800
_cell_angle_alpha   90.00000000
_cell_angle_beta   90.00000000
_cell_angle_gamma   90.00000000
_symmetry_Int_Tables_number   1
_chemical_formula_structural   CeSiRh2Au
_chemical_formula_sum   'Ce2 Si2 Rh4 Au2'
_cell_volume   183.65499063
_cell_formula_units_Z   2
loop_
 _symmetry_equiv_pos_site_id
 _symmetry_equiv_pos_as_xyz
  1  'x, y, z'
loop_
 _atom_site_type_symbol
 _atom_site_label
 _atom_site_symmetry_multiplicity
 _atom_site_fract_x
 _atom_site_fract_y
 _atom_site_fract_z
 _atom_site_occupancy
  Ce  Ce0  1  0.500000  0.000000  0.744998  1
  Ce  Ce1  1  0.000000  0.500000  0.255002  1
  Si  Si2  1  0.500000  0.000000  0.112140  1
  Si  Si3  1  0.000000  0.500000  0.887860  1
  Rh  Rh4  1  0.000000  0.500000  0.681905  1
  Rh  Rh5  1  0.500000  0.000000  0.318095  1
  Rh  Rh6  1  0.000000  0.000000  0.000000  1
  Rh  Rh7  1  0.500000  0.500000  0.000000  1
  Au  Au8  1  0.500000  0.500000  0.500000  1
  Au  Au9  1  0.000000  0.000000  0.500000  1
