# generated using pymatgen
data_La4BeB15Ru14
_symmetry_space_group_name_H-M   'P 1'
_cell_length_a   6.48953003
_cell_length_b   6.51557703
_cell_length_c   10.15456500
_cell_angle_alpha   90.00000000
_cell_angle_beta   90.00000000
_cell_angle_gamma   90.01144570
_symmetry_Int_Tables_number   1
_chemical_formula_structural   La4BeB15Ru14
_chemical_formula_sum   'La4 Be1 B15 Ru14'
_cell_volume   429.36579671
_cell_formula_units_Z   1
loop_
 _symmetry_equiv_pos_site_id
 _symmetry_equiv_pos_as_xyz
  1  'x, y, z'
loop_
 _atom_site_type_symbol
 _atom_site_label
 _atom_site_symmetry_multiplicity
 _atom_site_fract_x
 _atom_site_fract_y
 _atom_site_fract_z
 _atom_site_occupancy
  La  La0  1  0.733508  0.879611  0.000851  1
  La  La1  1  0.123629  0.735499  0.498481  1
  La  La2  1  0.876371  0.264501  0.498481  1
  La  La3  1  0.266492  0.120389  0.000851  1
  Be  Be4  1  0.500000  0.500000  0.349294  1
  B  B5  1  0.500000  0.000000  0.589587  1
  B  B6  1  0.500000  0.000000  0.410354  1
  B  B7  1  0.896029  0.278451  0.171790  1
  B  B8  1  0.102708  0.722221  0.829434  1
  B  B9  1  0.500000  0.500000  0.840778  1
  B  B10  1  0.275845  0.100367  0.672571  1
  B  B11  1  0.103971  0.721549  0.171790  1
  B  B12  1  0.278890  0.104880  0.327351  1
  B  B13  1  0.897292  0.277779  0.829434  1
  B  B14  1  0.500000  0.500000  0.655681  1
  B  B15  1  0.500000  0.500000  0.158061  1
  B  B16  1  0.000000  0.500000  0.910589  1
  B  B17  1  0.724155  0.899633  0.672571  1
  B  B18  1  0.721110  0.895120  0.327351  1
  B  B19  1  0.000000  0.500000  0.087485  1
  Ru  Ru20  1  0.205310  0.398972  0.753378  1
  Ru  Ru21  1  0.389410  0.276513  0.504404  1
  Ru  Ru22  1  0.399970  0.797743  0.250121  1
  Ru  Ru23  1  0.202522  0.397610  0.243423  1
  Ru  Ru24  1  0.610590  0.723487  0.504404  1
  Ru  Ru25  1  0.600590  0.205143  0.747616  1
  Ru  Ru26  1  0.285415  0.600379  0.999140  1
  Ru  Ru27  1  0.714585  0.399621  0.999140  1
  Ru  Ru28  1  0.797478  0.602390  0.243423  1
  Ru  Ru29  1  0.794690  0.601028  0.753378  1
  Ru  Ru30  1  0.399410  0.794857  0.747616  1
  Ru  Ru31  1  0.000000  0.000000  0.248824  1
  Ru  Ru32  1  0.600030  0.202257  0.250121  1
  Ru  Ru33  1  0.000000  0.000000  0.752225  1
