# generated using pymatgen
data_Li2Y3TiRh3
_symmetry_space_group_name_H-M   'P 1'
_cell_length_a   7.23548088
_cell_length_b   7.15361690
_cell_length_c   3.96810300
_cell_angle_alpha   90.00000000
_cell_angle_beta   90.00000000
_cell_angle_gamma   119.62643288
_symmetry_Int_Tables_number   1
_chemical_formula_structural   Li2Y3TiRh3
_chemical_formula_sum   'Li2 Y3 Ti1 Rh3'
_cell_volume   178.53739314
_cell_formula_units_Z   1
loop_
 _symmetry_equiv_pos_site_id
 _symmetry_equiv_pos_as_xyz
  1  'x, y, z'
loop_
 _atom_site_type_symbol
 _atom_site_label
 _atom_site_symmetry_multiplicity
 _atom_site_fract_x
 _atom_site_fract_y
 _atom_site_fract_z
 _atom_site_occupancy
  Li  Li0  1  0.242077  0.003254  0.000000  1
  Li  Li1  1  0.757923  0.761178  0.000000  1
  Y  Y2  1  0.000000  0.602549  0.500000  1
  Y  Y3  1  0.422840  0.412600  0.500000  1
  Y  Y4  1  0.577160  0.989761  0.500000  1
  Ti  Ti5  1  0.000000  0.243317  0.000000  1
  Rh  Rh6  1  0.308458  0.630750  0.000000  1
  Rh  Rh7  1  0.000000  0.034301  0.500000  1
  Rh  Rh8  1  0.691542  0.322289  0.000000  1
