# generated using pymatgen
data_Y4Mn3Fe(Co4P3)4
_symmetry_space_group_name_H-M   'P 1'
_cell_length_a   3.65155100
_cell_length_b   10.29392722
_cell_length_c   11.78300940
_cell_angle_alpha   90.05590659
_cell_angle_beta   90.00000000
_cell_angle_gamma   90.00000000
_symmetry_Int_Tables_number   1
_chemical_formula_structural   Y4Mn3Fe(Co4P3)4
_chemical_formula_sum   'Y4 Mn3 Fe1 Co16 P12'
_cell_volume   442.90897595
_cell_formula_units_Z   1
loop_
 _symmetry_equiv_pos_site_id
 _symmetry_equiv_pos_as_xyz
  1  'x, y, z'
loop_
 _atom_site_type_symbol
 _atom_site_label
 _atom_site_symmetry_multiplicity
 _atom_site_fract_x
 _atom_site_fract_y
 _atom_site_fract_z
 _atom_site_occupancy
  Y  Y0  1  0.250000  0.917854  0.203841  1
  Y  Y1  1  0.750000  0.081869  0.796783  1
  Y  Y2  1  0.750000  0.419250  0.296285  1
  Y  Y3  1  0.250000  0.582641  0.704518  1
  Mn  Mn4  1  0.750000  0.207627  0.511360  1
  Mn  Mn5  1  0.750000  0.288144  0.010778  1
  Mn  Mn6  1  0.250000  0.711167  0.987858  1
  Fe  Fe7  1  0.250000  0.790698  0.487964  1
  Co  Co8  1  0.250000  0.093233  0.987902  1
  Co  Co9  1  0.750000  0.905856  0.011453  1
  Co  Co10  1  0.750000  0.594346  0.512287  1
  Co  Co11  1  0.250000  0.406345  0.488202  1
  Co  Co12  1  0.250000  0.278307  0.677111  1
  Co  Co13  1  0.750000  0.721828  0.323386  1
  Co  Co14  1  0.750000  0.778777  0.823704  1
  Co  Co15  1  0.250000  0.220665  0.175109  1
  Co  Co16  1  0.250000  0.617372  0.198814  1
  Co  Co17  1  0.750000  0.383655  0.801217  1
  Co  Co18  1  0.750000  0.117170  0.301149  1
  Co  Co19  1  0.250000  0.881758  0.698268  1
  Co  Co20  1  0.250000  0.034122  0.433249  1
  Co  Co21  1  0.750000  0.965170  0.567425  1
  Co  Co22  1  0.750000  0.533391  0.067830  1
  Co  Co23  1  0.250000  0.466391  0.932534  1
  P  P24  1  0.250000  0.079625  0.613971  1
  P  P25  1  0.750000  0.918989  0.387522  1
  P  P26  1  0.750000  0.581555  0.888306  1
  P  P27  1  0.250000  0.418744  0.112225  1
  P  P28  1  0.250000  0.230055  0.366378  1
  P  P29  1  0.750000  0.769276  0.631417  1
  P  P30  1  0.750000  0.729959  0.131591  1
  P  P31  1  0.250000  0.270113  0.868653  1
  P  P32  1  0.250000  0.898056  0.891310  1
  P  P33  1  0.750000  0.101065  0.107617  1
  P  P34  1  0.750000  0.401497  0.609147  1
  P  P35  1  0.250000  0.603428  0.392837  1
