# generated using pymatgen
data_Ac2Lu3Si4
_symmetry_space_group_name_H-M   'P 1'
_cell_length_a   7.61755600
_cell_length_b   7.91569800
_cell_length_c   14.87063000
_cell_angle_alpha   90.00000000
_cell_angle_beta   90.00000000
_cell_angle_gamma   90.00000000
_symmetry_Int_Tables_number   1
_chemical_formula_structural   Ac2Lu3Si4
_chemical_formula_sum   'Ac8 Lu12 Si16'
_cell_volume   896.67330436
_cell_formula_units_Z   4
loop_
 _symmetry_equiv_pos_site_id
 _symmetry_equiv_pos_as_xyz
  1  'x, y, z'
loop_
 _atom_site_type_symbol
 _atom_site_label
 _atom_site_symmetry_multiplicity
 _atom_site_fract_x
 _atom_site_fract_y
 _atom_site_fract_z
 _atom_site_occupancy
  Ac  Ac0  1  0.012519  0.171235  0.402207  1
  Ac  Ac1  1  0.512519  0.328765  0.402207  1
  Ac  Ac2  1  0.487481  0.671235  0.902207  1
  Ac  Ac3  1  0.487481  0.671235  0.597793  1
  Ac  Ac4  1  0.987481  0.828765  0.597793  1
  Ac  Ac5  1  0.987481  0.828765  0.902207  1
  Ac  Ac6  1  0.512519  0.328765  0.097793  1
  Ac  Ac7  1  0.012519  0.171235  0.097793  1
  Lu  Lu8  1  0.328658  0.174735  0.625186  1
  Lu  Lu9  1  0.671342  0.825265  0.374814  1
  Lu  Lu10  1  0.658443  0.000494  0.750000  1
  Lu  Lu11  1  0.171342  0.674735  0.374814  1
  Lu  Lu12  1  0.828658  0.325265  0.874814  1
  Lu  Lu13  1  0.828658  0.325265  0.625186  1
  Lu  Lu14  1  0.841557  0.500494  0.250000  1
  Lu  Lu15  1  0.341557  0.999506  0.250000  1
  Lu  Lu16  1  0.328658  0.174735  0.874814  1
  Lu  Lu17  1  0.171342  0.674735  0.125186  1
  Lu  Lu18  1  0.671342  0.825265  0.125186  1
  Lu  Lu19  1  0.158443  0.499506  0.750000  1
  Si  Si20  1  0.290541  0.884586  0.750000  1
  Si  Si21  1  0.468366  0.631408  0.250000  1
  Si  Si22  1  0.031634  0.131408  0.750000  1
  Si  Si23  1  0.531634  0.368592  0.750000  1
  Si  Si24  1  0.148084  0.463836  0.540212  1
  Si  Si25  1  0.968366  0.868592  0.250000  1
  Si  Si26  1  0.709459  0.115414  0.250000  1
  Si  Si27  1  0.851916  0.536164  0.040212  1
  Si  Si28  1  0.351916  0.963836  0.040212  1
  Si  Si29  1  0.148084  0.463836  0.959788  1
  Si  Si30  1  0.648084  0.036164  0.540212  1
  Si  Si31  1  0.351916  0.963836  0.459788  1
  Si  Si32  1  0.851916  0.536164  0.459788  1
  Si  Si33  1  0.790541  0.615414  0.750000  1
  Si  Si34  1  0.209459  0.384586  0.250000  1
  Si  Si35  1  0.648084  0.036164  0.959788  1
