# generated using pymatgen
data_Yb3Hg5Pd
_symmetry_space_group_name_H-M   'P 1'
_cell_length_a   8.18977100
_cell_length_b   8.18977011
_cell_length_c   3.82337500
_cell_angle_alpha   90.00000000
_cell_angle_beta   90.00000000
_cell_angle_gamma   119.99999955
_symmetry_Int_Tables_number   1
_chemical_formula_structural   Yb3Hg5Pd
_chemical_formula_sum   'Yb3 Hg5 Pd1'
_cell_volume   222.08590652
_cell_formula_units_Z   1
loop_
 _symmetry_equiv_pos_site_id
 _symmetry_equiv_pos_as_xyz
  1  'x, y, z'
loop_
 _atom_site_type_symbol
 _atom_site_label
 _atom_site_symmetry_multiplicity
 _atom_site_fract_x
 _atom_site_fract_y
 _atom_site_fract_z
 _atom_site_occupancy
  Yb  Yb0  1  0.379951  0.408351  0.500000  1
  Yb  Yb1  1  0.591649  0.971601  0.500000  1
  Yb  Yb2  1  0.028399  0.620049  0.500000  1
  Hg  Hg3  1  0.704967  0.714405  0.000000  1
  Hg  Hg4  1  0.285595  0.990562  0.000000  1
  Hg  Hg5  1  0.009438  0.295033  0.000000  1
  Hg  Hg6  1  0.666667  0.333333  0.000000  1
  Hg  Hg7  1  0.000000  0.000000  0.500000  1
  Pd  Pd8  1  0.333333  0.666667  0.000000  1
