# generated using pymatgen
data_ScPa3Ga20Pt11
_symmetry_space_group_name_H-M   'P 1'
_cell_length_a   4.25377984
_cell_length_b   10.85260981
_cell_length_c   13.70084573
_cell_angle_alpha   82.06872174
_cell_angle_beta   80.96061077
_cell_angle_gamma   78.54185413
_symmetry_Int_Tables_number   1
_chemical_formula_structural   ScPa3Ga20Pt11
_chemical_formula_sum   'Sc1 Pa3 Ga20 Pt11'
_cell_volume   608.45356897
_cell_formula_units_Z   1
loop_
 _symmetry_equiv_pos_site_id
 _symmetry_equiv_pos_as_xyz
  1  'x, y, z'
loop_
 _atom_site_type_symbol
 _atom_site_label
 _atom_site_symmetry_multiplicity
 _atom_site_fract_x
 _atom_site_fract_y
 _atom_site_fract_z
 _atom_site_occupancy
  Sc  Sc0  1  0.121466  0.090135  0.666333  1
  Pa  Pa1  1  0.876851  0.915320  0.331570  1
  Pa  Pa2  1  0.773735  0.626905  0.822991  1
  Pa  Pa3  1  0.227225  0.372593  0.176648  1
  Ga  Ga4  1  0.016787  0.065030  0.904198  1
  Ga  Ga5  1  0.987286  0.936165  0.087062  1
  Ga  Ga6  1  0.061397  0.678750  0.194725  1
  Ga  Ga7  1  0.939068  0.318966  0.804654  1
  Ga  Ga8  1  0.103460  0.340535  0.454185  1
  Ga  Ga9  1  0.896842  0.656585  0.547152  1
  Ga  Ga10  1  0.197228  0.606965  0.996381  1
  Ga  Ga11  1  0.803052  0.391954  0.003083  1
  Ga  Ga12  1  0.259976  0.781545  0.697523  1
  Ga  Ga13  1  0.735332  0.224874  0.306207  1
  Ga  Ga14  1  0.299423  0.903836  0.497345  1
  Ga  Ga15  1  0.696182  0.098050  0.509630  1
  Ga  Ga16  1  0.389733  0.520265  0.698146  1
  Ga  Ga17  1  0.611177  0.478673  0.302479  1
  Ga  Ga18  1  0.396548  0.200751  0.000800  1
  Ga  Ga19  1  0.602807  0.799348  0.998759  1
  Ga  Ga20  1  0.546582  0.275816  0.631159  1
  Ga  Ga21  1  0.455491  0.717026  0.372906  1
  Ga  Ga22  1  0.640439  0.933791  0.790071  1
  Ga  Ga23  1  0.360676  0.071365  0.202647  1
  Pt  Pt24  1  0.502669  0.494987  0.499848  1
  Pt  Pt25  1  0.026213  0.577762  0.372095  1
  Pt  Pt26  1  0.974232  0.421779  0.628708  1
  Pt  Pt27  1  0.147125  0.825872  0.886432  1
  Pt  Pt28  1  0.850041  0.175324  0.117638  1
  Pt  Pt29  1  0.242424  0.126625  0.389768  1
  Pt  Pt30  1  0.760528  0.870934  0.607797  1
  Pt  Pt31  1  0.344494  0.424120  0.889136  1
  Pt  Pt32  1  0.654355  0.576652  0.110935  1
  Pt  Pt33  1  0.509262  0.166224  0.817020  1
  Pt  Pt34  1  0.489893  0.834479  0.183970  1
