# generated using pymatgen
data_Zr3Ti9Sn9Au
_symmetry_space_group_name_H-M   'P 1'
_cell_length_a   9.36406700
_cell_length_b   9.41381227
_cell_length_c   5.77390772
_cell_angle_alpha   90.23139642
_cell_angle_beta   90.00000000
_cell_angle_gamma   119.82535415
_symmetry_Int_Tables_number   1
_chemical_formula_structural   Zr3Ti9Sn9Au
_chemical_formula_sum   'Zr3 Ti9 Sn9 Au1'
_cell_volume   441.55765214
_cell_formula_units_Z   1
loop_
 _symmetry_equiv_pos_site_id
 _symmetry_equiv_pos_as_xyz
  1  'x, y, z'
loop_
 _atom_site_type_symbol
 _atom_site_label
 _atom_site_symmetry_multiplicity
 _atom_site_fract_x
 _atom_site_fract_y
 _atom_site_fract_z
 _atom_site_occupancy
  Zr  Zr0  1  0.849458  0.698916  0.745252  1
  Zr  Zr1  1  0.140393  0.841752  0.255557  1
  Zr  Zr2  1  0.701359  0.841752  0.255557  1
  Ti  Ti3  1  0.314216  0.144780  0.753489  1
  Ti  Ti4  1  0.830564  0.144780  0.753489  1
  Ti  Ti5  1  0.160038  0.320077  0.238117  1
  Ti  Ti6  1  0.501443  0.002886  0.505430  1
  Ti  Ti7  1  0.492071  0.493530  0.999667  1
  Ti  Ti8  1  0.001459  0.493530  0.999667  1
  Ti  Ti9  1  0.000086  0.497371  0.499978  1
  Ti  Ti10  1  0.501982  0.003965  0.998959  1
  Ti  Ti11  1  0.497286  0.497371  0.499978  1
  Sn  Sn12  1  0.197897  0.395794  0.742212  1
  Sn  Sn13  1  0.797744  0.202489  0.252967  1
  Sn  Sn14  1  0.404745  0.202489  0.252967  1
  Sn  Sn15  1  0.583099  0.790730  0.753428  1
  Sn  Sn16  1  0.207631  0.790730  0.753428  1
  Sn  Sn17  1  0.787056  0.574111  0.246194  1
  Sn  Sn18  1  0.666534  0.333066  0.751859  1
  Sn  Sn19  1  0.334339  0.668679  0.250157  1
  Sn  Sn20  1  0.009002  0.018003  0.991741  1
  Au  Au21  1  0.021599  0.043198  0.499909  1
