# generated using pymatgen
data_Nd3Y3Al6V4O24
_symmetry_space_group_name_H-M   'P 1'
_cell_length_a   10.78259424
_cell_length_b   10.78259400
_cell_length_c   10.78259358
_cell_angle_alpha   109.07801946
_cell_angle_beta   109.59313488
_cell_angle_gamma   109.74325893
_symmetry_Int_Tables_number   1
_chemical_formula_structural   Nd3Y3Al6V4O24
_chemical_formula_sum   'Nd6 Y6 Al12 V8 O48'
_cell_volume   965.00990393
_cell_formula_units_Z   2
loop_
 _symmetry_equiv_pos_site_id
 _symmetry_equiv_pos_as_xyz
  1  'x, y, z'
loop_
 _atom_site_type_symbol
 _atom_site_label
 _atom_site_symmetry_multiplicity
 _atom_site_fract_x
 _atom_site_fract_y
 _atom_site_fract_z
 _atom_site_occupancy
  Nd  Nd0  1  0.250000  0.374531  0.124531  1
  Nd  Nd1  1  0.750000  0.625141  0.875141  1
  Nd  Nd2  1  0.750000  0.125469  0.375469  1
  Nd  Nd3  1  0.125149  0.250000  0.375149  1
  Nd  Nd4  1  0.374851  0.750000  0.124851  1
  Nd  Nd5  1  0.250000  0.874859  0.624859  1
  Y  Y6  1  0.874979  0.750000  0.624979  1
  Y  Y7  1  0.625021  0.250000  0.875021  1
  Y  Y8  1  0.375423  0.125423  0.250000  1
  Y  Y9  1  0.624916  0.874916  0.750000  1
  Y  Y10  1  0.124577  0.374577  0.750000  1
  Y  Y11  1  0.875084  0.625084  0.250000  1
  Al  Al12  1  0.250000  0.625181  0.375181  1
  Al  Al13  1  0.750000  0.375091  0.625091  1
  Al  Al14  1  0.750000  0.874819  0.124819  1
  Al  Al15  1  0.377101  0.250000  0.627101  1
  Al  Al16  1  0.627362  0.750000  0.377362  1
  Al  Al17  1  0.250000  0.124909  0.874909  1
  Al  Al18  1  0.122899  0.750000  0.872899  1
  Al  Al19  1  0.872638  0.250000  0.122638  1
  Al  Al20  1  0.625083  0.375083  0.250000  1
  Al  Al21  1  0.375056  0.625056  0.750000  1
  Al  Al22  1  0.874917  0.124917  0.750000  1
  Al  Al23  1  0.124944  0.874944  0.250000  1
  V  V24  1  0.999281  0.999726  0.998096  1
  V  V25  1  0.501630  0.001184  0.501904  1
  V  V26  1  0.998370  0.500274  0.499555  1
  V  V27  1  0.499524  0.001023  0.999232  1
  V  V28  1  0.500719  0.498816  0.000445  1
  V  V29  1  0.501790  0.500292  0.500768  1
  V  V30  1  0.000476  0.999708  0.501499  1
  V  V31  1  0.998210  0.498977  0.998501  1
  O  O32  1  0.480053  0.376234  0.295689  1
  O  O33  1  0.520039  0.623182  0.704669  1
  O  O34  1  0.580545  0.184364  0.204311  1
  O  O35  1  0.919455  0.123766  0.603819  1
  O  O36  1  0.294195  0.480850  0.381458  1
  O  O37  1  0.316954  0.920526  0.297676  1
  O  O38  1  0.418513  0.815369  0.795331  1
  O  O39  1  0.081487  0.876818  0.396856  1
  O  O40  1  0.711086  0.522653  0.619717  1
  O  O41  1  0.684757  0.082982  0.706866  1
  O  O42  1  0.019947  0.315636  0.896181  1
  O  O43  1  0.205805  0.587263  0.186655  1
  O  O44  1  0.122850  0.019277  0.202324  1
  O  O45  1  0.979961  0.684631  0.103144  1
  O  O46  1  0.788914  0.408631  0.811567  1
  O  O47  1  0.876116  0.977891  0.793134  1
  O  O48  1  0.599392  0.912737  0.118542  1
  O  O49  1  0.183046  0.480723  0.603573  1
  O  O50  1  0.402936  0.091369  0.880283  1
  O  O51  1  0.815243  0.522109  0.398225  1
  O  O52  1  0.900608  0.019150  0.313345  1
  O  O53  1  0.377150  0.579474  0.896427  1
  O  O54  1  0.097064  0.977347  0.688433  1
  O  O55  1  0.623884  0.417018  0.101775  1
  O  O56  1  0.381724  0.292654  0.480504  1
  O  O57  1  0.587946  0.899752  0.382524  1
  O  O58  1  0.625869  0.708184  0.524845  1
  O  O59  1  0.418817  0.102520  0.625141  1
  O  O60  1  0.118276  0.598780  0.910929  1
  O  O61  1  0.017229  0.205423  0.117476  1
  O  O62  1  0.874131  0.398975  0.082314  1
  O  O63  1  0.977378  0.793676  0.874859  1
  O  O64  1  0.312150  0.901220  0.019496  1
  O  O65  1  0.912054  0.294577  0.311806  1
  O  O66  1  0.683339  0.101025  0.975155  1
  O  O67  1  0.081183  0.706324  0.683702  1
  O  O68  1  0.187850  0.207346  0.589071  1
  O  O69  1  0.482771  0.600248  0.188194  1
  O  O70  1  0.816661  0.791816  0.417686  1
  O  O71  1  0.522622  0.397480  0.816298  1
  O  O72  1  0.289777  0.312161  0.910195  1
  O  O73  1  0.710313  0.687924  0.090576  1
  O  O74  1  0.210223  0.120419  0.022385  1
  O  O75  1  0.789687  0.880263  0.977611  1
  O  O76  1  0.901966  0.379581  0.589805  1
  O  O77  1  0.097348  0.619737  0.409424  1
  O  O78  1  0.598034  0.187839  0.477615  1
  O  O79  1  0.402652  0.812076  0.522389  1
