# generated using pymatgen
data_EuB4
_symmetry_space_group_name_H-M   'P 1'
_cell_length_a   7.23703700
_cell_length_b   7.23703700
_cell_length_c   4.13762200
_cell_angle_alpha   90.00000000
_cell_angle_beta   90.00000000
_cell_angle_gamma   90.00000000
_symmetry_Int_Tables_number   1
_chemical_formula_structural   EuB4
_chemical_formula_sum   'Eu4 B16'
_cell_volume   216.70672975
_cell_formula_units_Z   4
loop_
 _symmetry_equiv_pos_site_id
 _symmetry_equiv_pos_as_xyz
  1  'x, y, z'
loop_
 _atom_site_type_symbol
 _atom_site_label
 _atom_site_symmetry_multiplicity
 _atom_site_fract_x
 _atom_site_fract_y
 _atom_site_fract_z
 _atom_site_occupancy
  Eu  Eu0  1  0.815227  0.315227  0.000000  1
  Eu  Eu1  1  0.315227  0.184773  0.000000  1
  Eu  Eu2  1  0.684773  0.815227  0.000000  1
  Eu  Eu3  1  0.184773  0.684773  0.000000  1
  B  B4  1  0.537607  0.325589  0.500000  1
  B  B5  1  0.825589  0.037608  0.500000  1
  B  B6  1  0.037608  0.174411  0.500000  1
  B  B7  1  0.325589  0.462393  0.500000  1
  B  B8  1  0.674411  0.537607  0.500000  1
  B  B9  1  0.500000  0.500000  0.795375  1
  B  B10  1  0.962393  0.825589  0.500000  1
  B  B11  1  0.587050  0.087050  0.500000  1
  B  B12  1  0.412950  0.912950  0.500000  1
  B  B13  1  0.087050  0.412950  0.500000  1
  B  B14  1  0.462393  0.674411  0.500000  1
  B  B15  1  0.174411  0.962393  0.500000  1
  B  B16  1  0.000000  0.000000  0.795375  1
  B  B17  1  0.500000  0.500000  0.204625  1
  B  B18  1  0.912950  0.587050  0.500000  1
  B  B19  1  0.000000  0.000000  0.204625  1
