# generated using pymatgen
data_Sr2LaHg(Pt2O7)2
_symmetry_space_group_name_H-M   'P 1'
_cell_length_a   7.41116136
_cell_length_b   7.52325243
_cell_length_c   7.52325260
_cell_angle_alpha   59.62842708
_cell_angle_beta   59.52765382
_cell_angle_gamma   59.52765892
_symmetry_Int_Tables_number   1
_chemical_formula_structural   Sr2LaHg(Pt2O7)2
_chemical_formula_sum   'Sr2 La1 Hg1 Pt4 O14'
_cell_volume   293.64859557
_cell_formula_units_Z   1
loop_
 _symmetry_equiv_pos_site_id
 _symmetry_equiv_pos_as_xyz
  1  'x, y, z'
loop_
 _atom_site_type_symbol
 _atom_site_label
 _atom_site_symmetry_multiplicity
 _atom_site_fract_x
 _atom_site_fract_y
 _atom_site_fract_z
 _atom_site_occupancy
  Sr  Sr0  1  0.125000  0.625000  0.125000  1
  Sr  Sr1  1  0.125000  0.125000  0.625000  1
  La  La2  1  0.125000  0.125000  0.125000  1
  Hg  Hg3  1  0.625000  0.125000  0.125000  1
  Pt  Pt4  1  0.625000  0.625000  0.125000  1
  Pt  Pt5  1  0.625000  0.625000  0.625000  1
  Pt  Pt6  1  0.625000  0.125000  0.625000  1
  Pt  Pt7  1  0.125000  0.625000  0.625000  1
  O  O8  1  0.706189  0.301819  0.301819  1
  O  O9  1  0.700444  0.694955  0.301626  1
  O  O10  1  0.293730  0.708561  0.296453  1
  O  O11  1  0.965204  0.018016  0.018016  1
  O  O12  1  0.700444  0.301626  0.694955  1
  O  O13  1  0.953704  0.548214  0.548214  1
  O  O14  1  0.296296  0.701786  0.701786  1
  O  O15  1  0.549556  0.948374  0.555045  1
  O  O16  1  0.284796  0.231984  0.231984  1
  O  O17  1  0.956270  0.541439  0.953547  1
  O  O18  1  0.549556  0.555045  0.948374  1
  O  O19  1  0.956270  0.953547  0.541439  1
  O  O20  1  0.543811  0.948181  0.948181  1
  O  O21  1  0.293730  0.296453  0.708561  1
