# generated using pymatgen
data_CaTb5(Nd7Pb8)2
_symmetry_space_group_name_H-M   'P 1'
_cell_length_a   8.36824600
_cell_length_b   8.47038752
_cell_length_c   16.10041900
_cell_angle_alpha   90.01841228
_cell_angle_beta   89.99950703
_cell_angle_gamma   90.00807667
_symmetry_Int_Tables_number   1
_chemical_formula_structural   CaTb5(Nd7Pb8)2
_chemical_formula_sum   'Ca1 Tb5 Nd14 Pb16'
_cell_volume   1141.23444199
_cell_formula_units_Z   1
loop_
 _symmetry_equiv_pos_site_id
 _symmetry_equiv_pos_as_xyz
  1  'x, y, z'
loop_
 _atom_site_type_symbol
 _atom_site_label
 _atom_site_symmetry_multiplicity
 _atom_site_fract_x
 _atom_site_fract_y
 _atom_site_fract_z
 _atom_site_occupancy
  Ca  Ca0  1  0.704206  0.996903  0.250846  1
  Tb  Tb1  1  0.629606  0.159262  0.623677  1
  Tb  Tb2  1  0.129316  0.342010  0.876923  1
  Tb  Tb3  1  0.795493  0.495498  0.750026  1
  Tb  Tb4  1  0.295769  0.004026  0.749965  1
  Tb  Tb5  1  0.203164  0.503620  0.249142  1
  Nd  Nd6  1  0.373294  0.840158  0.117673  1
  Nd  Nd7  1  0.871339  0.660885  0.382199  1
  Nd  Nd8  1  0.375813  0.838810  0.380323  1
  Nd  Nd9  1  0.873366  0.661786  0.119775  1
  Nd  Nd10  1  0.626374  0.160246  0.879576  1
  Nd  Nd11  1  0.126461  0.341208  0.619996  1
  Nd  Nd12  1  0.472354  0.678767  0.599566  1
  Nd  Nd13  1  0.971717  0.821950  0.899941  1
  Nd  Nd14  1  0.527307  0.319557  0.098004  1
  Nd  Nd15  1  0.026467  0.178284  0.402135  1
  Nd  Nd16  1  0.525539  0.318141  0.403001  1
  Nd  Nd17  1  0.024041  0.179703  0.096940  1
  Nd  Nd18  1  0.473741  0.677844  0.899722  1
  Nd  Nd19  1  0.973662  0.823162  0.600757  1
  Pb  Pb20  1  0.713782  0.967420  0.461847  1
  Pb  Pb21  1  0.213872  0.530287  0.041485  1
  Pb  Pb22  1  0.281097  0.038582  0.954677  1
  Pb  Pb23  1  0.781511  0.462342  0.545503  1
  Pb  Pb24  1  0.292272  0.036368  0.545019  1
  Pb  Pb25  1  0.791921  0.464757  0.954707  1
  Pb  Pb26  1  0.713921  0.964508  0.041944  1
  Pb  Pb27  1  0.214288  0.532512  0.454711  1
  Pb  Pb28  1  0.432443  0.375000  0.749734  1
  Pb  Pb29  1  0.932766  0.124966  0.750208  1
  Pb  Pb30  1  0.567974  0.616858  0.249296  1
  Pb  Pb31  1  0.070872  0.878502  0.250664  1
  Pb  Pb32  1  0.662111  0.849471  0.749141  1
  Pb  Pb33  1  0.162243  0.651292  0.750832  1
  Pb  Pb34  1  0.330764  0.151729  0.249637  1
  Pb  Pb35  1  0.839132  0.353584  0.250412  1
