# generated using pymatgen
data_Gd3CdP6N13
_symmetry_space_group_name_H-M   'P 1'
_cell_length_a   7.31638040
_cell_length_b   7.31638099
_cell_length_c   7.31638300
_cell_angle_alpha   108.87979399
_cell_angle_beta   108.87978729
_cell_angle_gamma   108.87978516
_symmetry_Int_Tables_number   1
_chemical_formula_structural   Gd3CdP6N13
_chemical_formula_sum   'Gd3 Cd1 P6 N13'
_cell_volume   307.91072562
_cell_formula_units_Z   1
loop_
 _symmetry_equiv_pos_site_id
 _symmetry_equiv_pos_as_xyz
  1  'x, y, z'
loop_
 _atom_site_type_symbol
 _atom_site_label
 _atom_site_symmetry_multiplicity
 _atom_site_fract_x
 _atom_site_fract_y
 _atom_site_fract_z
 _atom_site_occupancy
  Gd  Gd0  1  0.703527  0.011996  0.011996  1
  Gd  Gd1  1  0.011996  0.011996  0.703527  1
  Gd  Gd2  1  0.011996  0.703527  0.011996  1
  Cd  Cd3  1  0.275564  0.275564  0.275564  1
  P  P4  1  0.254939  0.760534  0.509833  1
  P  P5  1  0.760534  0.254939  0.509833  1
  P  P6  1  0.760534  0.509833  0.254939  1
  P  P7  1  0.254939  0.509833  0.760534  1
  P  P8  1  0.509833  0.760534  0.254939  1
  P  P9  1  0.509833  0.254939  0.760534  1
  N  N10  1  0.846349  0.846349  0.846349  1
  N  N11  1  0.747547  0.315501  0.315501  1
  N  N12  1  0.315501  0.747547  0.315501  1
  N  N13  1  0.279252  0.580341  0.580341  1
  N  N14  1  0.580341  0.580341  0.279252  1
  N  N15  1  0.404829  0.732478  0.003429  1
  N  N16  1  0.003429  0.732478  0.404829  1
  N  N17  1  0.580341  0.279252  0.580341  1
  N  N18  1  0.732478  0.003429  0.404829  1
  N  N19  1  0.404829  0.003429  0.732478  1
  N  N20  1  0.732478  0.404829  0.003429  1
  N  N21  1  0.315501  0.315501  0.747547  1
  N  N22  1  0.003429  0.404829  0.732478  1
