# generated using pymatgen
data_DyYTh(B2C)3
_symmetry_space_group_name_H-M   'P 1'
_cell_length_a   5.29596384
_cell_length_b   5.29596563
_cell_length_c   5.29596502
_cell_angle_alpha   77.43797117
_cell_angle_beta   77.43796794
_cell_angle_gamma   77.43794894
_symmetry_Int_Tables_number   1
_chemical_formula_structural   DyYTh(B2C)3
_chemical_formula_sum   'Dy1 Y1 Th1 B6 C3'
_cell_volume   139.23436443
_cell_formula_units_Z   1
loop_
 _symmetry_equiv_pos_site_id
 _symmetry_equiv_pos_as_xyz
  1  'x, y, z'
loop_
 _atom_site_type_symbol
 _atom_site_label
 _atom_site_symmetry_multiplicity
 _atom_site_fract_x
 _atom_site_fract_y
 _atom_site_fract_z
 _atom_site_occupancy
  Dy  Dy0  1  0.310619  0.310619  0.310619  1
  Y  Y1  1  0.689119  0.689119  0.689119  1
  Th  Th2  1  0.000018  0.000018  0.000018  1
  B  B3  1  0.499862  0.773590  0.226459  1
  B  B4  1  0.226459  0.499862  0.773590  1
  B  B5  1  0.773590  0.226459  0.499862  1
  B  B6  1  0.499862  0.226459  0.773590  1
  B  B7  1  0.226459  0.773590  0.499862  1
  B  B8  1  0.773590  0.499862  0.226459  1
  C  C9  1  0.000297  0.000297  0.499830  1
  C  C10  1  0.000297  0.499830  0.000297  1
  C  C11  1  0.499830  0.000297  0.000297  1
