# generated using pymatgen
data_La4Zn2As5
_symmetry_space_group_name_H-M   'P 1'
_cell_length_a   4.34559300
_cell_length_b   4.34559331
_cell_length_c   17.76066500
_cell_angle_alpha   90.00000000
_cell_angle_beta   90.00000000
_cell_angle_gamma   120.00000526
_symmetry_Int_Tables_number   1
_chemical_formula_structural   La4Zn2As5
_chemical_formula_sum   'La4 Zn2 As5'
_cell_volume   290.46108787
_cell_formula_units_Z   1
loop_
 _symmetry_equiv_pos_site_id
 _symmetry_equiv_pos_as_xyz
  1  'x, y, z'
loop_
 _atom_site_type_symbol
 _atom_site_label
 _atom_site_symmetry_multiplicity
 _atom_site_fract_x
 _atom_site_fract_y
 _atom_site_fract_z
 _atom_site_occupancy
  La  La0  1  0.666667  0.333333  0.899533  1
  La  La1  1  0.333333  0.666667  0.100467  1
  La  La2  1  0.000000  0.000000  0.700223  1
  La  La3  1  0.000000  0.000000  0.299777  1
  Zn  Zn4  1  0.666667  0.333333  0.445950  1
  Zn  Zn5  1  0.333333  0.666667  0.554050  1
  As  As6  1  0.666667  0.333333  0.591531  1
  As  As7  1  0.333333  0.666667  0.408469  1
  As  As8  1  0.666667  0.333333  0.204261  1
  As  As9  1  0.333333  0.666667  0.795739  1
  As  As10  1  0.000000  0.000000  0.000000  1
