# generated using pymatgen
data_TbY3(CuRh)2
_symmetry_space_group_name_H-M   'P 1'
_cell_length_a   4.38913900
_cell_length_b   5.53423713
_cell_length_c   7.13474357
_cell_angle_alpha   89.68337836
_cell_angle_beta   90.00000000
_cell_angle_gamma   90.00000000
_symmetry_Int_Tables_number   1
_chemical_formula_structural   TbY3(CuRh)2
_chemical_formula_sum   'Tb1 Y3 Cu2 Rh2'
_cell_volume   173.30409952
_cell_formula_units_Z   1
loop_
 _symmetry_equiv_pos_site_id
 _symmetry_equiv_pos_as_xyz
  1  'x, y, z'
loop_
 _atom_site_type_symbol
 _atom_site_label
 _atom_site_symmetry_multiplicity
 _atom_site_fract_x
 _atom_site_fract_y
 _atom_site_fract_z
 _atom_site_occupancy
  Tb  Tb0  1  0.500000  0.609003  0.817527  1
  Y  Y1  1  0.000000  0.119993  0.681138  1
  Y  Y2  1  0.000000  0.880050  0.181839  1
  Y  Y3  1  0.500000  0.390553  0.317520  1
  Cu  Cu4  1  0.500000  0.884138  0.462781  1
  Cu  Cu5  1  0.500000  0.115113  0.963682  1
  Rh  Rh6  1  0.000000  0.613170  0.539264  1
  Rh  Rh7  1  0.000000  0.387979  0.036250  1
