# generated using pymatgen
data_Tb3Y5MgHgIr2
_symmetry_space_group_name_H-M   'P 1'
_cell_length_a   9.67966531
_cell_length_b   9.69943938
_cell_length_c   9.74247184
_cell_angle_alpha   59.75237402
_cell_angle_beta   59.86635195
_cell_angle_gamma   59.87888970
_symmetry_Int_Tables_number   1
_chemical_formula_structural   Tb3Y5MgHgIr2
_chemical_formula_sum   'Tb6 Y10 Mg2 Hg2 Ir4'
_cell_volume   644.32659117
_cell_formula_units_Z   2
loop_
 _symmetry_equiv_pos_site_id
 _symmetry_equiv_pos_as_xyz
  1  'x, y, z'
loop_
 _atom_site_type_symbol
 _atom_site_label
 _atom_site_symmetry_multiplicity
 _atom_site_fract_x
 _atom_site_fract_y
 _atom_site_fract_z
 _atom_site_occupancy
  Tb  Tb0  1  0.347005  0.349208  0.350534  1
  Tb  Tb1  1  0.350212  0.347813  0.952173  1
  Tb  Tb2  1  0.348176  0.958320  0.347167  1
  Tb  Tb3  1  0.958594  0.348156  0.349679  1
  Tb  Tb4  1  0.810983  0.189930  0.188451  1
  Tb  Tb5  1  0.187908  0.810721  0.809914  1
  Y  Y6  1  0.189532  0.810744  0.189063  1
  Y  Y7  1  0.811155  0.186991  0.809755  1
  Y  Y8  1  0.192456  0.192372  0.807069  1
  Y  Y9  1  0.811691  0.811474  0.185479  1
  Y  Y10  1  0.940382  0.564182  0.562278  1
  Y  Y11  1  0.562965  0.939783  0.934592  1
  Y  Y12  1  0.561859  0.942984  0.560592  1
  Y  Y13  1  0.941199  0.561658  0.935967  1
  Y  Y14  1  0.561245  0.561641  0.939194  1
  Y  Y15  1  0.938283  0.938532  0.560561  1
  Mg  Mg16  1  0.572813  0.572033  0.580233  1
  Mg  Mg17  1  0.572542  0.573533  0.271354  1
  Hg  Hg18  1  0.588097  0.245468  0.583537  1
  Hg  Hg19  1  0.245261  0.588068  0.582382  1
  Ir  Ir20  1  0.141490  0.144141  0.141196  1
  Ir  Ir21  1  0.144868  0.141606  0.576058  1
  Ir  Ir22  1  0.145571  0.575502  0.139911  1
  Ir  Ir23  1  0.575712  0.145142  0.142864  1
