# generated using pymatgen
data_Zr5BPb3
_symmetry_space_group_name_H-M   'P 1'
_cell_length_a   8.71620546
_cell_length_b   8.70406639
_cell_length_c   5.90380100
_cell_angle_alpha   90.00000000
_cell_angle_beta   90.00000000
_cell_angle_gamma   119.95393915
_symmetry_Int_Tables_number   1
_chemical_formula_structural   Zr5BPb3
_chemical_formula_sum   'Zr10 B2 Pb6'
_cell_volume   388.07295911
_cell_formula_units_Z   2
loop_
 _symmetry_equiv_pos_site_id
 _symmetry_equiv_pos_as_xyz
  1  'x, y, z'
loop_
 _atom_site_type_symbol
 _atom_site_label
 _atom_site_symmetry_multiplicity
 _atom_site_fract_x
 _atom_site_fract_y
 _atom_site_fract_z
 _atom_site_occupancy
  Zr  Zr0  1  0.667217  0.333399  0.999764  1
  Zr  Zr1  1  0.332783  0.666183  0.999764  1
  Zr  Zr2  1  0.332783  0.666183  0.500236  1
  Zr  Zr3  1  0.667217  0.333399  0.500236  1
  Zr  Zr4  1  0.777209  0.776937  0.750000  1
  Zr  Zr5  1  0.222791  0.999727  0.750000  1
  Zr  Zr6  1  0.000000  0.223505  0.750000  1
  Zr  Zr7  1  0.222796  0.223267  0.250000  1
  Zr  Zr8  1  0.777204  0.000471  0.250000  1
  Zr  Zr9  1  0.000000  0.776478  0.250000  1
  B  B10  1  0.000000  0.000019  0.000002  1
  B  B11  1  0.000000  0.000019  0.499998  1
  Pb  Pb12  1  0.000000  0.398776  0.250000  1
  Pb  Pb13  1  0.398823  0.398088  0.750000  1
  Pb  Pb14  1  0.601177  0.999265  0.750000  1
  Pb  Pb15  1  0.000000  0.601657  0.750000  1
  Pb  Pb16  1  0.601903  0.602266  0.250000  1
  Pb  Pb17  1  0.398097  0.000363  0.250000  1
