# generated using pymatgen
data_CeHfB6Os
_symmetry_space_group_name_H-M   'P 1'
_cell_length_a   3.59043500
_cell_length_b   9.06404200
_cell_length_c   11.46392300
_cell_angle_alpha   90.00000000
_cell_angle_beta   90.00000000
_cell_angle_gamma   90.00000000
_symmetry_Int_Tables_number   1
_chemical_formula_structural   CeHfB6Os
_chemical_formula_sum   'Ce4 Hf4 B24 Os4'
_cell_volume   373.08023223
_cell_formula_units_Z   4
loop_
 _symmetry_equiv_pos_site_id
 _symmetry_equiv_pos_as_xyz
  1  'x, y, z'
loop_
 _atom_site_type_symbol
 _atom_site_label
 _atom_site_symmetry_multiplicity
 _atom_site_fract_x
 _atom_site_fract_y
 _atom_site_fract_z
 _atom_site_occupancy
  Ce  Ce0  1  0.000000  0.323779  0.413871  1
  Ce  Ce1  1  0.000000  0.676221  0.586129  1
  Ce  Ce2  1  0.000000  0.823779  0.086129  1
  Ce  Ce3  1  0.000000  0.176221  0.913871  1
  Hf  Hf4  1  0.000000  0.945675  0.374941  1
  Hf  Hf5  1  0.000000  0.054325  0.625059  1
  Hf  Hf6  1  0.000000  0.445675  0.125059  1
  Hf  Hf7  1  0.000000  0.554325  0.874941  1
  B  B8  1  0.500000  0.554731  0.432734  1
  B  B9  1  0.500000  0.445269  0.567266  1
  B  B10  1  0.500000  0.054731  0.067266  1
  B  B11  1  0.500000  0.945269  0.932734  1
  B  B12  1  0.500000  0.753597  0.418247  1
  B  B13  1  0.500000  0.246403  0.581753  1
  B  B14  1  0.500000  0.253597  0.081753  1
  B  B15  1  0.500000  0.746403  0.918247  1
  B  B16  1  0.500000  0.796354  0.264639  1
  B  B17  1  0.500000  0.203646  0.735361  1
  B  B18  1  0.500000  0.296354  0.235361  1
  B  B19  1  0.500000  0.703646  0.764639  1
  B  B20  1  0.500000  0.630580  0.182238  1
  B  B21  1  0.500000  0.369420  0.817762  1
  B  B22  1  0.500000  0.130580  0.317762  1
  B  B23  1  0.500000  0.869420  0.682238  1
  B  B24  1  0.500000  0.982107  0.214959  1
  B  B25  1  0.500000  0.017893  0.785041  1
  B  B26  1  0.500000  0.482107  0.285041  1
  B  B27  1  0.500000  0.517893  0.714959  1
  B  B28  1  0.500000  0.600340  0.026931  1
  B  B29  1  0.500000  0.399660  0.973069  1
  B  B30  1  0.500000  0.100340  0.473069  1
  B  B31  1  0.500000  0.899660  0.526931  1
  Os  Os32  1  0.000000  0.642844  0.318562  1
  Os  Os33  1  0.000000  0.357156  0.681438  1
  Os  Os34  1  0.000000  0.142844  0.181438  1
  Os  Os35  1  0.000000  0.857156  0.818562  1
