# generated using pymatgen
data_Tm4B16MoW3
_symmetry_space_group_name_H-M   'P 1'
_cell_length_a   3.60177100
_cell_length_b   6.00533640
_cell_length_c   11.60576680
_cell_angle_alpha   90.00723431
_cell_angle_beta   90.00000000
_cell_angle_gamma   90.00000000
_symmetry_Int_Tables_number   1
_chemical_formula_structural   Tm4B16MoW3
_chemical_formula_sum   'Tm4 B16 Mo1 W3'
_cell_volume   251.03095216
_cell_formula_units_Z   1
loop_
 _symmetry_equiv_pos_site_id
 _symmetry_equiv_pos_as_xyz
  1  'x, y, z'
loop_
 _atom_site_type_symbol
 _atom_site_label
 _atom_site_symmetry_multiplicity
 _atom_site_fract_x
 _atom_site_fract_y
 _atom_site_fract_z
 _atom_site_occupancy
  Tm  Tm0  1  0.000000  0.627353  0.350884  1
  Tm  Tm1  1  0.000000  0.373138  0.649398  1
  Tm  Tm2  1  0.000000  0.127301  0.149275  1
  Tm  Tm3  1  0.000000  0.872766  0.850206  1
  B  B4  1  0.500000  0.788259  0.186896  1
  B  B5  1  0.500000  0.211530  0.812723  1
  B  B6  1  0.500000  0.288254  0.313239  1
  B  B7  1  0.500000  0.712556  0.686534  1
  B  B8  1  0.500000  0.867685  0.031745  1
  B  B9  1  0.500000  0.132447  0.967809  1
  B  B10  1  0.500000  0.367980  0.468640  1
  B  B11  1  0.500000  0.632702  0.532338  1
  B  B12  1  0.500000  0.884948  0.452481  1
  B  B13  1  0.500000  0.114319  0.548303  1
  B  B14  1  0.500000  0.385258  0.047677  1
  B  B15  1  0.500000  0.614784  0.951964  1
  B  B16  1  0.500000  0.976214  0.305970  1
  B  B17  1  0.500000  0.022759  0.694136  1
  B  B18  1  0.500000  0.476487  0.194072  1
  B  B19  1  0.500000  0.523618  0.805586  1
  Mo  Mo20  1  0.000000  0.869043  0.584649  1
  W  W21  1  0.000000  0.631395  0.084916  1
  W  W22  1  0.000000  0.368493  0.914969  1
  W  W23  1  0.000000  0.130709  0.415592  1
