# generated using pymatgen
data_Tc3RuPb4O13
_symmetry_space_group_name_H-M   'P 1'
_cell_length_a   7.40812992
_cell_length_b   7.42109935
_cell_length_c   7.42109900
_cell_angle_alpha   59.99999712
_cell_angle_beta   59.94206739
_cell_angle_gamma   59.94206727
_symmetry_Int_Tables_number   1
_chemical_formula_structural   Tc3RuPb4O13
_chemical_formula_sum   'Tc3 Ru1 Pb4 O13'
_cell_volume   288.23665395
_cell_formula_units_Z   1
loop_
 _symmetry_equiv_pos_site_id
 _symmetry_equiv_pos_as_xyz
  1  'x, y, z'
loop_
 _atom_site_type_symbol
 _atom_site_label
 _atom_site_symmetry_multiplicity
 _atom_site_fract_x
 _atom_site_fract_y
 _atom_site_fract_z
 _atom_site_occupancy
  Tc  Tc0  1  0.872548  0.376183  0.875634  1
  Tc  Tc1  1  0.872548  0.875634  0.376183  1
  Tc  Tc2  1  0.872548  0.875634  0.875634  1
  Ru  Ru3  1  0.374089  0.875303  0.875303  1
  Pb  Pb4  1  0.879566  0.373478  0.373478  1
  Pb  Pb5  1  0.369022  0.375618  0.375618  1
  Pb  Pb6  1  0.369022  0.375618  0.879741  1
  Pb  Pb7  1  0.369022  0.879741  0.375618  1
  O  O8  1  0.196719  0.801235  0.801235  1
  O  O9  1  0.196719  0.801235  0.200811  1
  O  O10  1  0.560086  0.940610  0.940610  1
  O  O11  1  0.560086  0.940610  0.558693  1
  O  O12  1  0.948961  0.942763  0.554138  1
  O  O13  1  0.801209  0.803943  0.197424  1
  O  O14  1  0.560086  0.558693  0.940610  1
  O  O15  1  0.801209  0.197424  0.803943  1
  O  O16  1  0.801209  0.197424  0.197424  1
  O  O17  1  0.948961  0.554138  0.942763  1
  O  O18  1  0.948961  0.554138  0.554138  1
  O  O19  1  0.196719  0.200811  0.801235  1
  O  O20  1  0.500707  0.499764  0.499764  1
