# generated using pymatgen
data_Re3Tc(BW)8
_symmetry_space_group_name_H-M   'P 1'
_cell_length_a   3.11585700
_cell_length_b   7.57139746
_cell_length_c   9.69771360
_cell_angle_alpha   90.04017094
_cell_angle_beta   90.00000000
_cell_angle_gamma   90.00000000
_symmetry_Int_Tables_number   1
_chemical_formula_structural   Re3Tc(BW)8
_chemical_formula_sum   'Re3 Tc1 B8 W8'
_cell_volume   228.78250469
_cell_formula_units_Z   1
loop_
 _symmetry_equiv_pos_site_id
 _symmetry_equiv_pos_as_xyz
  1  'x, y, z'
loop_
 _atom_site_type_symbol
 _atom_site_label
 _atom_site_symmetry_multiplicity
 _atom_site_fract_x
 _atom_site_fract_y
 _atom_site_fract_z
 _atom_site_occupancy
  Re  Re0  1  0.500000  0.622843  0.395435  1
  Re  Re1  1  0.500000  0.377076  0.604860  1
  Re  Re2  1  0.000000  0.877330  0.895314  1
  Tc  Tc3  1  0.000000  0.123412  0.105401  1
  B  B4  1  0.500000  0.115983  0.460086  1
  B  B5  1  0.500000  0.884197  0.539721  1
  B  B6  1  0.000000  0.384090  0.960169  1
  B  B7  1  0.000000  0.615634  0.040078  1
  B  B8  1  0.500000  0.123989  0.266649  1
  B  B9  1  0.500000  0.876081  0.732698  1
  B  B10  1  0.000000  0.375618  0.767692  1
  B  B11  1  0.000000  0.624046  0.232340  1
  W  W12  1  0.500000  0.811075  0.130001  1
  W  W13  1  0.500000  0.188508  0.870139  1
  W  W14  1  0.000000  0.689091  0.630239  1
  W  W15  1  0.000000  0.310963  0.369382  1
  W  W16  1  0.500000  0.576265  0.861967  1
  W  W17  1  0.500000  0.423491  0.138072  1
  W  W18  1  0.000000  0.924108  0.361467  1
  W  W19  1  0.000000  0.076203  0.638292  1
