# generated using pymatgen
data_Ti8Al14AsIr3Rh4
_symmetry_space_group_name_H-M   'P 1'
_cell_length_a   8.65004997
_cell_length_b   8.65611007
_cell_length_c   8.65004968
_cell_angle_alpha   120.01543865
_cell_angle_beta   119.86205857
_cell_angle_gamma   90.08603612
_symmetry_Int_Tables_number   1
_chemical_formula_structural   Ti8Al14AsIr3Rh4
_chemical_formula_sum   'Ti8 Al14 As1 Ir3 Rh4'
_cell_volume   458.48116629
_cell_formula_units_Z   1
loop_
 _symmetry_equiv_pos_site_id
 _symmetry_equiv_pos_as_xyz
  1  'x, y, z'
loop_
 _atom_site_type_symbol
 _atom_site_label
 _atom_site_symmetry_multiplicity
 _atom_site_fract_x
 _atom_site_fract_y
 _atom_site_fract_z
 _atom_site_occupancy
  Ti  Ti0  1  0.795298  0.295390  0.085709  1
  Ti  Ti1  1  0.209680  0.295390  0.500092  1
  Ti  Ti2  1  0.204390  0.705876  0.501486  1
  Ti  Ti3  1  0.211119  0.710996  0.914234  1
  Ti  Ti4  1  0.796763  0.710996  0.499877  1
  Ti  Ti5  1  0.790692  0.289317  0.498625  1
  Ti  Ti6  1  0.379350  0.122804  0.743454  1
  Ti  Ti7  1  0.380559  0.637586  0.257026  1
  Al  Al8  1  0.159294  0.339309  0.180015  1
  Al  Al9  1  0.157909  0.978892  0.820983  1
  Al  Al10  1  0.153988  0.341879  0.815674  1
  Al  Al11  1  0.526203  0.341879  0.187891  1
  Al  Al12  1  0.839905  0.658883  0.818979  1
  Al  Al13  1  0.840622  0.020452  0.179830  1
  Al  Al14  1  0.839165  0.659189  0.177215  1
  Al  Al15  1  0.481974  0.659189  0.820024  1
  Al  Al16  1  0.380099  0.119706  0.260393  1
  Al  Al17  1  0.859314  0.119706  0.739605  1
  Al  Al18  1  0.620314  0.879436  0.259121  1
  Al  Al19  1  0.620389  0.360818  0.740428  1
  Al  Al20  1  0.620456  0.879057  0.740686  1
  Al  Al21  1  0.138370  0.879057  0.258600  1
  As  As22  1  0.998079  0.498138  0.500059  1
  Ir  Ir23  1  0.001740  0.000226  0.501826  1
  Ir  Ir24  1  0.498400  0.000226  0.998486  1
  Ir  Ir25  1  0.497345  0.497399  0.000054  1
  Rh  Rh26  1  0.499025  0.499746  0.499186  1
  Rh  Rh27  1  0.000560  0.499746  0.000721  1
  Rh  Rh28  1  0.000340  0.000323  0.999983  1
  Rh  Rh29  1  0.498650  0.998388  0.499738  1
