# generated using pymatgen
data_HoLu5Bi2Mo
_symmetry_space_group_name_H-M   'P 1'
_cell_length_a   8.15022300
_cell_length_b   8.14311840
_cell_length_c   4.34702400
_cell_angle_alpha   90.00000000
_cell_angle_beta   90.00000000
_cell_angle_gamma   120.02886922
_symmetry_Int_Tables_number   1
_chemical_formula_structural   HoLu5Bi2Mo
_chemical_formula_sum   'Ho1 Lu5 Bi2 Mo1'
_cell_volume   249.77933143
_cell_formula_units_Z   1
loop_
 _symmetry_equiv_pos_site_id
 _symmetry_equiv_pos_as_xyz
  1  'x, y, z'
loop_
 _atom_site_type_symbol
 _atom_site_label
 _atom_site_symmetry_multiplicity
 _atom_site_fract_x
 _atom_site_fract_y
 _atom_site_fract_z
 _atom_site_occupancy
  Ho  Ho0  1  0.611850  0.000000  0.500000  1
  Lu  Lu1  1  0.235509  0.000000  0.000000  1
  Lu  Lu2  1  0.999660  0.615375  0.500000  1
  Lu  Lu3  1  0.384286  0.384625  0.500000  1
  Lu  Lu4  1  0.766012  0.764995  0.000000  1
  Lu  Lu5  1  0.001017  0.235005  0.000000  1
  Bi  Bi6  1  0.332310  0.665062  0.000000  1
  Bi  Bi7  1  0.667248  0.334938  0.000000  1
  Mo  Mo8  1  0.002105  0.000000  0.500000  1
