# generated using pymatgen
data_Dy2ErZn4InPt4
_symmetry_space_group_name_H-M   'P 1'
_cell_length_a   4.17874100
_cell_length_b   6.87272058
_cell_length_c   8.06396977
_cell_angle_alpha   87.39176748
_cell_angle_beta   90.00000000
_cell_angle_gamma   90.00000000
_symmetry_Int_Tables_number   1
_chemical_formula_structural   Dy2ErZn4InPt4
_chemical_formula_sum   'Dy2 Er1 Zn4 In1 Pt4'
_cell_volume   231.35180300
_cell_formula_units_Z   1
loop_
 _symmetry_equiv_pos_site_id
 _symmetry_equiv_pos_as_xyz
  1  'x, y, z'
loop_
 _atom_site_type_symbol
 _atom_site_label
 _atom_site_symmetry_multiplicity
 _atom_site_fract_x
 _atom_site_fract_y
 _atom_site_fract_z
 _atom_site_occupancy
  Dy  Dy0  1  0.250000  0.535338  0.187304  1
  Dy  Dy1  1  0.750000  0.963732  0.669508  1
  Er  Er2  1  0.750000  0.458235  0.821440  1
  Zn  Zn3  1  0.250000  0.637175  0.561235  1
  Zn  Zn4  1  0.250000  0.136043  0.943579  1
  Zn  Zn5  1  0.750000  0.365213  0.440338  1
  Zn  Zn6  1  0.750000  0.865651  0.056030  1
  In  In7  1  0.250000  0.040253  0.322018  1
  Pt  Pt8  1  0.250000  0.256235  0.625388  1
  Pt  Pt9  1  0.250000  0.753948  0.870424  1
  Pt  Pt10  1  0.750000  0.747736  0.373064  1
  Pt  Pt11  1  0.750000  0.240441  0.129673  1
