# generated using pymatgen
data_NaSe27
_symmetry_space_group_name_H-M   'P 1'
_cell_length_a   15.04767791
_cell_length_b   15.04767847
_cell_length_c   15.04767786
_cell_angle_alpha   118.58300518
_cell_angle_beta   118.58300278
_cell_angle_gamma   118.58300486
_symmetry_Int_Tables_number   1
_chemical_formula_structural   NaSe27
_chemical_formula_sum   'Na1 Se27'
_cell_volume   1046.25039039
_cell_formula_units_Z   1
loop_
 _symmetry_equiv_pos_site_id
 _symmetry_equiv_pos_as_xyz
  1  'x, y, z'
loop_
 _atom_site_type_symbol
 _atom_site_label
 _atom_site_symmetry_multiplicity
 _atom_site_fract_x
 _atom_site_fract_y
 _atom_site_fract_z
 _atom_site_occupancy
  Na  Na0  1  0.447064  0.447064  0.447064  1
  Se  Se1  1  0.014834  0.637737  0.637737  1
  Se  Se2  1  0.637737  0.637737  0.014834  1
  Se  Se3  1  0.637737  0.014834  0.637737  1
  Se  Se4  1  0.255752  0.886985  0.741846  1
  Se  Se5  1  0.886985  0.741846  0.255752  1
  Se  Se6  1  0.741846  0.255752  0.886985  1
  Se  Se7  1  0.886985  0.255752  0.741846  1
  Se  Se8  1  0.255752  0.741846  0.886985  1
  Se  Se9  1  0.741846  0.886985  0.255752  1
  Se  Se10  1  0.081335  0.623221  0.419480  1
  Se  Se11  1  0.623221  0.419480  0.081335  1
  Se  Se12  1  0.419480  0.081335  0.623221  1
  Se  Se13  1  0.623221  0.081335  0.419480  1
  Se  Se14  1  0.081335  0.419480  0.623221  1
  Se  Se15  1  0.419480  0.623221  0.081335  1
  Se  Se16  1  0.363891  0.743090  0.596701  1
  Se  Se17  1  0.743090  0.596701  0.363891  1
  Se  Se18  1  0.596701  0.363891  0.743090  1
  Se  Se19  1  0.743090  0.363891  0.596701  1
  Se  Se20  1  0.363891  0.596701  0.743090  1
  Se  Se21  1  0.596701  0.743090  0.363891  1
  Se  Se22  1  0.176548  0.430448  0.430448  1
  Se  Se23  1  0.430448  0.430448  0.176548  1
  Se  Se24  1  0.430448  0.176548  0.430448  1
  Se  Se25  1  0.014140  0.916771  0.916771  1
  Se  Se26  1  0.916771  0.916771  0.014140  1
  Se  Se27  1  0.916771  0.014140  0.916771  1
