# generated using pymatgen
data_Ce3In3NiPt2
_symmetry_space_group_name_H-M   'P 1'
_cell_length_a   7.67487526
_cell_length_b   7.67487562
_cell_length_c   4.01870200
_cell_angle_alpha   90.00000000
_cell_angle_beta   90.00000000
_cell_angle_gamma   119.99038058
_symmetry_Int_Tables_number   1
_chemical_formula_structural   Ce3In3NiPt2
_chemical_formula_sum   'Ce3 In3 Ni1 Pt2'
_cell_volume   205.02234439
_cell_formula_units_Z   1
loop_
 _symmetry_equiv_pos_site_id
 _symmetry_equiv_pos_as_xyz
  1  'x, y, z'
loop_
 _atom_site_type_symbol
 _atom_site_label
 _atom_site_symmetry_multiplicity
 _atom_site_fract_x
 _atom_site_fract_y
 _atom_site_fract_z
 _atom_site_occupancy
  Ce  Ce0  1  0.586331  0.999988  0.500000  1
  Ce  Ce1  1  0.413802  0.413803  0.500000  1
  Ce  Ce2  1  0.999989  0.586331  0.500000  1
  In  In3  1  0.243119  0.000194  0.000000  1
  In  In4  1  0.000194  0.243120  0.000000  1
  In  In5  1  0.756805  0.756805  0.000000  1
  Ni  Ni6  1  0.999752  0.999753  0.500000  1
  Pt  Pt7  1  0.666881  0.333224  0.000000  1
  Pt  Pt8  1  0.333224  0.666879  0.000000  1
