# generated using pymatgen
data_Dy3YCo19P12Os
_symmetry_space_group_name_H-M   'P 1'
_cell_length_a   3.66783500
_cell_length_b   10.30663553
_cell_length_c   11.74378104
_cell_angle_alpha   89.88206070
_cell_angle_beta   90.00000000
_cell_angle_gamma   90.00000000
_symmetry_Int_Tables_number   1
_chemical_formula_structural   Dy3YCo19P12Os
_chemical_formula_sum   'Dy3 Y1 Co19 P12 Os1'
_cell_volume   443.94966631
_cell_formula_units_Z   1
loop_
 _symmetry_equiv_pos_site_id
 _symmetry_equiv_pos_as_xyz
  1  'x, y, z'
loop_
 _atom_site_type_symbol
 _atom_site_label
 _atom_site_symmetry_multiplicity
 _atom_site_fract_x
 _atom_site_fract_y
 _atom_site_fract_z
 _atom_site_occupancy
  Dy  Dy0  1  0.250000  0.916320  0.202294  1
  Dy  Dy1  1  0.750000  0.083435  0.797365  1
  Dy  Dy2  1  0.750000  0.414410  0.295595  1
  Y  Y3  1  0.250000  0.581778  0.702396  1
  Co  Co4  1  0.750000  0.215820  0.509212  1
  Co  Co5  1  0.750000  0.283818  0.008684  1
  Co  Co6  1  0.250000  0.716608  0.991607  1
  Co  Co7  1  0.250000  0.093395  0.988479  1
  Co  Co8  1  0.750000  0.906750  0.011455  1
  Co  Co9  1  0.750000  0.592134  0.510550  1
  Co  Co10  1  0.250000  0.406681  0.487875  1
  Co  Co11  1  0.250000  0.279413  0.677236  1
  Co  Co12  1  0.750000  0.721441  0.323278  1
  Co  Co13  1  0.750000  0.777464  0.823316  1
  Co  Co14  1  0.250000  0.221597  0.176243  1
  Co  Co15  1  0.250000  0.616876  0.198552  1
  Co  Co16  1  0.750000  0.383414  0.801975  1
  Co  Co17  1  0.750000  0.117130  0.300729  1
  Co  Co18  1  0.250000  0.886030  0.701334  1
  Co  Co19  1  0.250000  0.035272  0.432733  1
  Co  Co20  1  0.750000  0.966466  0.568064  1
  Co  Co21  1  0.750000  0.532067  0.068555  1
  Co  Co22  1  0.250000  0.467802  0.932286  1
  P  P23  1  0.250000  0.083220  0.612836  1
  P  P24  1  0.750000  0.921252  0.385930  1
  P  P25  1  0.750000  0.580693  0.888544  1
  P  P26  1  0.250000  0.418424  0.111759  1
  P  P27  1  0.250000  0.230025  0.369212  1
  P  P28  1  0.750000  0.770684  0.633383  1
  P  P29  1  0.750000  0.728790  0.129188  1
  P  P30  1  0.250000  0.271266  0.870181  1
  P  P31  1  0.250000  0.898808  0.892853  1
  P  P32  1  0.750000  0.102093  0.108190  1
  P  P33  1  0.750000  0.397065  0.608994  1
  P  P34  1  0.250000  0.595257  0.388584  1
  Os  Os35  1  0.250000  0.786300  0.490533  1
