# generated using pymatgen
data_Zr10TiBi2Sb3
_symmetry_space_group_name_H-M   'P 1'
_cell_length_a   5.62431118
_cell_length_b   8.50499345
_cell_length_c   8.51423278
_cell_angle_alpha   96.26973157
_cell_angle_beta   109.28631742
_cell_angle_gamma   70.69191154
_symmetry_Int_Tables_number   1
_chemical_formula_structural   Zr10TiBi2Sb3
_chemical_formula_sum   'Zr10 Ti1 Bi2 Sb3'
_cell_volume   362.79767590
_cell_formula_units_Z   1
loop_
 _symmetry_equiv_pos_site_id
 _symmetry_equiv_pos_as_xyz
  1  'x, y, z'
loop_
 _atom_site_type_symbol
 _atom_site_label
 _atom_site_symmetry_multiplicity
 _atom_site_fract_x
 _atom_site_fract_y
 _atom_site_fract_z
 _atom_site_occupancy
  Zr  Zr0  1  0.407126  0.864745  0.703657  1
  Zr  Zr1  1  0.568215  0.135255  0.296343  1
  Zr  Zr2  1  0.937763  0.289692  0.143930  1
  Zr  Zr3  1  0.083525  0.710308  0.856070  1
  Zr  Zr4  1  0.706167  0.710308  0.143930  1
  Zr  Zr5  1  0.272545  0.289692  0.856070  1
  Zr  Zr6  1  0.796530  0.135255  0.703657  1
  Zr  Zr7  1  0.228129  0.864745  0.296343  1
  Zr  Zr8  1  0.247977  0.500000  0.500000  1
  Zr  Zr9  1  0.752023  0.500000  0.500000  1
  Ti  Ti10  1  0.250000  0.000000  0.000000  1
  Bi  Bi11  1  0.334869  0.500000  0.169739  1
  Bi  Bi12  1  0.665131  0.500000  0.830261  1
  Sb  Sb13  1  0.837467  0.825066  0.500000  1
  Sb  Sb14  1  0.162533  0.174934  0.500000  1
  Sb  Sb15  1  0.750000  0.000000  0.000000  1
