# generated using pymatgen
data_Tm4MgNi2Au
_symmetry_space_group_name_H-M   'P 1'
_cell_length_a   8.33802576
_cell_length_b   8.33802561
_cell_length_c   8.33802549
_cell_angle_alpha   128.34789247
_cell_angle_beta   128.34787816
_cell_angle_gamma   76.06214025
_symmetry_Int_Tables_number   1
_chemical_formula_structural   Tm4MgNi2Au
_chemical_formula_sum   'Tm8 Mg2 Ni4 Au2'
_cell_volume   346.62047989
_cell_formula_units_Z   2
loop_
 _symmetry_equiv_pos_site_id
 _symmetry_equiv_pos_as_xyz
  1  'x, y, z'
loop_
 _atom_site_type_symbol
 _atom_site_label
 _atom_site_symmetry_multiplicity
 _atom_site_fract_x
 _atom_site_fract_y
 _atom_site_fract_z
 _atom_site_occupancy
  Tm  Tm0  1  0.802849  0.302849  0.838748  1
  Tm  Tm1  1  0.197151  0.697151  0.161252  1
  Tm  Tm2  1  0.464101  0.964101  0.161252  1
  Tm  Tm3  1  0.302849  0.464101  0.500000  1
  Tm  Tm4  1  0.035899  0.197151  0.500000  1
  Tm  Tm5  1  0.535899  0.035899  0.838748  1
  Tm  Tm6  1  0.697151  0.535899  0.500000  1
  Tm  Tm7  1  0.964101  0.802849  0.500000  1
  Mg  Mg8  1  0.000000  0.000000  0.000000  1
  Mg  Mg9  1  0.500000  0.500000  0.000000  1
  Ni  Ni10  1  0.127344  0.627344  0.754687  1
  Ni  Ni11  1  0.872656  0.372656  0.245313  1
  Ni  Ni12  1  0.627344  0.872656  0.500000  1
  Ni  Ni13  1  0.372656  0.127344  0.500000  1
  Au  Au14  1  0.250000  0.250000  0.000000  1
  Au  Au15  1  0.750000  0.750000  0.000000  1
