# generated using pymatgen
data_Mn3BeAs2Rh3
_symmetry_space_group_name_H-M   'P 1'
_cell_length_a   6.47679700
_cell_length_b   6.47679698
_cell_length_c   3.47597000
_cell_angle_alpha   90.00000000
_cell_angle_beta   90.00000000
_cell_angle_gamma   119.99999501
_symmetry_Int_Tables_number   1
_chemical_formula_structural   Mn3BeAs2Rh3
_chemical_formula_sum   'Mn3 Be1 As2 Rh3'
_cell_volume   126.27786838
_cell_formula_units_Z   1
loop_
 _symmetry_equiv_pos_site_id
 _symmetry_equiv_pos_as_xyz
  1  'x, y, z'
loop_
 _atom_site_type_symbol
 _atom_site_label
 _atom_site_symmetry_multiplicity
 _atom_site_fract_x
 _atom_site_fract_y
 _atom_site_fract_z
 _atom_site_occupancy
  Mn  Mn0  1  0.389798  0.389798  0.500000  1
  Mn  Mn1  1  0.610202  0.000000  0.500000  1
  Mn  Mn2  1  0.000000  0.610202  0.500000  1
  Be  Be3  1  0.000000  0.000000  0.500000  1
  As  As4  1  0.666667  0.333333  0.000000  1
  As  As5  1  0.333333  0.666667  0.000000  1
  Rh  Rh6  1  0.751487  0.751487  0.000000  1
  Rh  Rh7  1  0.248513  0.000000  0.000000  1
  Rh  Rh8  1  0.000000  0.248513  0.000000  1
