# generated using pymatgen
data_Dy7Ho9MgHg3Ir4
_symmetry_space_group_name_H-M   'P 1'
_cell_length_a   9.60259954
_cell_length_b   9.58287486
_cell_length_c   9.59298300
_cell_angle_alpha   59.96510439
_cell_angle_beta   60.03312567
_cell_angle_gamma   60.03384158
_symmetry_Int_Tables_number   1
_chemical_formula_structural   Dy7Ho9MgHg3Ir4
_chemical_formula_sum   'Dy7 Ho9 Mg1 Hg3 Ir4'
_cell_volume   624.35004112
_cell_formula_units_Z   1
loop_
 _symmetry_equiv_pos_site_id
 _symmetry_equiv_pos_as_xyz
  1  'x, y, z'
loop_
 _atom_site_type_symbol
 _atom_site_label
 _atom_site_symmetry_multiplicity
 _atom_site_fract_x
 _atom_site_fract_y
 _atom_site_fract_z
 _atom_site_occupancy
  Dy  Dy0  1  0.808461  0.809394  0.191073  1
  Dy  Dy1  1  0.937825  0.561152  0.561891  1
  Dy  Dy2  1  0.560490  0.939156  0.937760  1
  Dy  Dy3  1  0.560490  0.939156  0.562595  1
  Dy  Dy4  1  0.937825  0.561152  0.939131  1
  Dy  Dy5  1  0.560885  0.562431  0.938343  1
  Dy  Dy6  1  0.937256  0.939827  0.561459  1
  Ho  Ho7  1  0.349857  0.348138  0.346955  1
  Ho  Ho8  1  0.349857  0.348138  0.955049  1
  Ho  Ho9  1  0.350444  0.954028  0.347764  1
  Ho  Ho10  1  0.943838  0.352320  0.351920  1
  Ho  Ho11  1  0.808250  0.190328  0.191639  1
  Ho  Ho12  1  0.186400  0.811523  0.812431  1
  Ho  Ho13  1  0.186400  0.811523  0.189646  1
  Ho  Ho14  1  0.808250  0.190328  0.809783  1
  Ho  Ho15  1  0.187099  0.188814  0.812043  1
  Mg  Mg16  1  0.284269  0.571651  0.572040  1
  Hg  Hg17  1  0.581823  0.586656  0.586993  1
  Hg  Hg18  1  0.581823  0.586656  0.244527  1
  Hg  Hg19  1  0.582102  0.243606  0.587146  1
  Ir  Ir20  1  0.140097  0.143531  0.142234  1
  Ir  Ir21  1  0.140097  0.143531  0.574139  1
  Ir  Ir22  1  0.141111  0.574084  0.142402  1
  Ir  Ir23  1  0.575049  0.142878  0.141037  1
