# generated using pymatgen
data_Nd4OsRu7
_symmetry_space_group_name_H-M   'P 1'
_cell_length_a   5.24955406
_cell_length_b   5.24955516
_cell_length_c   9.18330200
_cell_angle_alpha   90.00000000
_cell_angle_beta   90.00000000
_cell_angle_gamma   116.41551976
_symmetry_Int_Tables_number   1
_chemical_formula_structural   Nd4OsRu7
_chemical_formula_sum   'Nd4 Os1 Ru7'
_cell_volume   226.64891433
_cell_formula_units_Z   1
loop_
 _symmetry_equiv_pos_site_id
 _symmetry_equiv_pos_as_xyz
  1  'x, y, z'
loop_
 _atom_site_type_symbol
 _atom_site_label
 _atom_site_symmetry_multiplicity
 _atom_site_fract_x
 _atom_site_fract_y
 _atom_site_fract_z
 _atom_site_occupancy
  Nd  Nd0  1  0.330752  0.669248  0.433803  1
  Nd  Nd1  1  0.664311  0.335689  0.566299  1
  Nd  Nd2  1  0.664311  0.335689  0.933701  1
  Nd  Nd3  1  0.330752  0.669248  0.066197  1
  Os  Os4  1  0.840332  0.159668  0.250000  1
  Ru  Ru5  1  0.992342  0.007658  0.499794  1
  Ru  Ru6  1  0.992342  0.007658  0.000206  1
  Ru  Ru7  1  0.831118  0.649012  0.250000  1
  Ru  Ru8  1  0.350988  0.168882  0.250000  1
  Ru  Ru9  1  0.172737  0.827263  0.750000  1
  Ru  Ru10  1  0.164893  0.334879  0.750000  1
  Ru  Ru11  1  0.665121  0.835107  0.750000  1
