# generated using pymatgen
data_Y2Tm4ZrCo17P12
_symmetry_space_group_name_H-M   'P 1'
_cell_length_a   3.69468100
_cell_length_b   10.55915400
_cell_length_c   12.25564800
_cell_angle_alpha   90.00000000
_cell_angle_beta   90.00000000
_cell_angle_gamma   90.00000000
_symmetry_Int_Tables_number   1
_chemical_formula_structural   Y2Tm4ZrCo17P12
_chemical_formula_sum   'Y2 Tm4 Zr1 Co17 P12'
_cell_volume   478.12598810
_cell_formula_units_Z   1
loop_
 _symmetry_equiv_pos_site_id
 _symmetry_equiv_pos_as_xyz
  1  'x, y, z'
loop_
 _atom_site_type_symbol
 _atom_site_label
 _atom_site_symmetry_multiplicity
 _atom_site_fract_x
 _atom_site_fract_y
 _atom_site_fract_z
 _atom_site_occupancy
  Y  Y0  1  0.000000  0.500000  0.529661  1
  Y  Y1  1  0.500000  0.000000  0.477095  1
  Tm  Tm2  1  0.500000  0.821912  0.207331  1
  Tm  Tm3  1  0.500000  0.178088  0.207331  1
  Tm  Tm4  1  0.000000  0.682738  0.796199  1
  Tm  Tm5  1  0.000000  0.317262  0.796199  1
  Zr  Zr6  1  0.500000  0.500000  0.154220  1
  Co  Co7  1  0.000000  0.000000  0.836534  1
  Co  Co8  1  0.500000  0.500000  0.704144  1
  Co  Co9  1  0.000000  0.000000  0.294938  1
  Co  Co10  1  0.000000  0.500000  0.982963  1
  Co  Co11  1  0.500000  0.000000  0.013830  1
  Co  Co12  1  0.500000  0.326646  0.987687  1
  Co  Co13  1  0.500000  0.673354  0.987687  1
  Co  Co14  1  0.000000  0.161450  0.001394  1
  Co  Co15  1  0.000000  0.838550  0.001394  1
  Co  Co16  1  0.500000  0.294006  0.434489  1
  Co  Co17  1  0.500000  0.705994  0.434489  1
  Co  Co18  1  0.000000  0.202139  0.570749  1
  Co  Co19  1  0.000000  0.797861  0.570749  1
  Co  Co20  1  0.500000  0.879782  0.708079  1
  Co  Co21  1  0.500000  0.120218  0.708079  1
  Co  Co22  1  0.000000  0.623530  0.296914  1
  Co  Co23  1  0.000000  0.376470  0.296914  1
  P  P24  1  0.500000  0.500000  0.881185  1
  P  P25  1  0.000000  0.000000  0.116819  1
  P  P26  1  0.500000  0.500000  0.361804  1
  P  P27  1  0.000000  0.000000  0.654903  1
  P  P28  1  0.500000  0.309146  0.619131  1
  P  P29  1  0.500000  0.690854  0.619131  1
  P  P30  1  0.000000  0.188133  0.385464  1
  P  P31  1  0.000000  0.811867  0.385464  1
  P  P32  1  0.500000  0.852038  0.888070  1
  P  P33  1  0.500000  0.147962  0.888070  1
  P  P34  1  0.000000  0.666026  0.100445  1
  P  P35  1  0.000000  0.333974  0.100445  1
