# generated using pymatgen
data_Ce2Nd4HfScSb10
_symmetry_space_group_name_H-M   'P 1'
_cell_length_a   9.50196309
_cell_length_b   9.48487883
_cell_length_c   6.31497005
_cell_angle_alpha   90.00757264
_cell_angle_beta   89.98488194
_cell_angle_gamma   120.05960496
_symmetry_Int_Tables_number   1
_chemical_formula_structural   Ce2Nd4HfScSb10
_chemical_formula_sum   'Ce2 Nd4 Hf1 Sc1 Sb10'
_cell_volume   492.59032646
_cell_formula_units_Z   1
loop_
 _symmetry_equiv_pos_site_id
 _symmetry_equiv_pos_as_xyz
  1  'x, y, z'
loop_
 _atom_site_type_symbol
 _atom_site_label
 _atom_site_symmetry_multiplicity
 _atom_site_fract_x
 _atom_site_fract_y
 _atom_site_fract_z
 _atom_site_occupancy
  Ce  Ce0  1  0.618466  0.000000  0.250387  1
  Ce  Ce1  1  0.381534  0.000000  0.749613  1
  Nd  Nd2  1  0.999905  0.616829  0.249705  1
  Nd  Nd3  1  0.000095  0.383171  0.750295  1
  Nd  Nd4  1  0.383076  0.383171  0.249705  1
  Nd  Nd5  1  0.616924  0.616829  0.750295  1
  Hf  Hf6  1  0.000000  0.000000  0.500000  1
  Sc  Sc7  1  0.000000  0.000000  0.000000  1
  Sb  Sb8  1  0.265886  0.000000  0.251603  1
  Sb  Sb9  1  0.734114  0.000000  0.748397  1
  Sb  Sb10  1  0.999645  0.261793  0.250939  1
  Sb  Sb11  1  0.000355  0.738207  0.749061  1
  Sb  Sb12  1  0.737852  0.738207  0.250939  1
  Sb  Sb13  1  0.262148  0.261793  0.749061  1
  Sb  Sb14  1  0.334719  0.669439  0.000000  1
  Sb  Sb15  1  0.665281  0.330561  0.000000  1
  Sb  Sb16  1  0.665204  0.330407  0.500000  1
  Sb  Sb17  1  0.334796  0.669593  0.500000  1
