# generated using pymatgen
data_Ho2Er2ReB16Rh2W
_symmetry_space_group_name_H-M   'P 1'
_cell_length_a   3.57362700
_cell_length_b   5.97468920
_cell_length_c   11.57905678
_cell_angle_alpha   90.26065618
_cell_angle_beta   90.00000000
_cell_angle_gamma   90.00000000
_symmetry_Int_Tables_number   1
_chemical_formula_structural   Ho2Er2ReB16Rh2W
_chemical_formula_sum   'Ho2 Er2 Re1 B16 Rh2 W1'
_cell_volume   247.22547980
_cell_formula_units_Z   1
loop_
 _symmetry_equiv_pos_site_id
 _symmetry_equiv_pos_as_xyz
  1  'x, y, z'
loop_
 _atom_site_type_symbol
 _atom_site_label
 _atom_site_symmetry_multiplicity
 _atom_site_fract_x
 _atom_site_fract_y
 _atom_site_fract_z
 _atom_site_occupancy
  Ho  Ho0  1  0.000000  0.128812  0.353594  1
  Ho  Ho1  1  0.000000  0.870781  0.647399  1
  Er  Er2  1  0.000000  0.629049  0.151920  1
  Er  Er3  1  0.000000  0.372774  0.848327  1
  Re  Re4  1  0.000000  0.869670  0.913287  1
  B  B5  1  0.500000  0.974611  0.194372  1
  B  B6  1  0.500000  0.022908  0.805914  1
  B  B7  1  0.500000  0.478317  0.307611  1
  B  B8  1  0.500000  0.523302  0.692873  1
  B  B9  1  0.500000  0.787555  0.314308  1
  B  B10  1  0.500000  0.211068  0.686219  1
  B  B11  1  0.500000  0.291389  0.188254  1
  B  B12  1  0.500000  0.711274  0.812972  1
  B  B13  1  0.500000  0.864071  0.469445  1
  B  B14  1  0.500000  0.135725  0.530926  1
  B  B15  1  0.500000  0.368114  0.030269  1
  B  B16  1  0.500000  0.634341  0.966857  1
  B  B17  1  0.500000  0.883220  0.045771  1
  B  B18  1  0.500000  0.113175  0.951036  1
  B  B19  1  0.500000  0.386805  0.452998  1
  B  B20  1  0.500000  0.613144  0.547534  1
  Rh  Rh21  1  0.000000  0.639995  0.407118  1
  Rh  Rh22  1  0.000000  0.358593  0.594686  1
  W  W23  1  0.000000  0.131306  0.086309  1
