# generated using pymatgen
data_Sr3Li7In5
_symmetry_space_group_name_H-M   'P 1'
_cell_length_a   10.13675399
_cell_length_b   10.13675315
_cell_length_c   8.27413692
_cell_angle_alpha   90.31634765
_cell_angle_beta   89.68365467
_cell_angle_gamma   119.36219532
_symmetry_Int_Tables_number   1
_chemical_formula_structural   Sr3Li7In5
_chemical_formula_sum   'Sr6 Li14 In10'
_cell_volume   740.96499212
_cell_formula_units_Z   2
loop_
 _symmetry_equiv_pos_site_id
 _symmetry_equiv_pos_as_xyz
  1  'x, y, z'
loop_
 _atom_site_type_symbol
 _atom_site_label
 _atom_site_symmetry_multiplicity
 _atom_site_fract_x
 _atom_site_fract_y
 _atom_site_fract_z
 _atom_site_occupancy
  Sr  Sr0  1  0.520658  0.044979  0.245479  1
  Sr  Sr1  1  0.479342  0.955021  0.754521  1
  Sr  Sr2  1  0.955021  0.479342  0.245479  1
  Sr  Sr3  1  0.044979  0.520658  0.754521  1
  Sr  Sr4  1  0.525931  0.474069  0.250831  1
  Sr  Sr5  1  0.474069  0.525931  0.749169  1
  Li  Li6  1  0.000000  0.000000  0.000000  1
  Li  Li7  1  0.000000  0.000000  0.500000  1
  Li  Li8  1  0.838460  0.161540  0.573774  1
  Li  Li9  1  0.161540  0.838460  0.426226  1
  Li  Li10  1  0.891093  0.790905  0.247304  1
  Li  Li11  1  0.108907  0.209095  0.752696  1
  Li  Li12  1  0.209095  0.108907  0.247304  1
  Li  Li13  1  0.790905  0.891093  0.752696  1
  Li  Li14  1  0.892204  0.107796  0.252514  1
  Li  Li15  1  0.107796  0.892204  0.747486  1
  Li  Li16  1  0.331405  0.668595  0.072527  1
  Li  Li17  1  0.668595  0.331405  0.927473  1
  Li  Li18  1  0.662109  0.337891  0.576469  1
  Li  Li19  1  0.337891  0.662109  0.423531  1
  In  In20  1  0.171755  0.341275  0.062162  1
  In  In21  1  0.828245  0.658725  0.937838  1
  In  In22  1  0.658725  0.828245  0.062162  1
  In  In23  1  0.837472  0.665156  0.558555  1
  In  In24  1  0.341275  0.171755  0.937838  1
  In  In25  1  0.162528  0.334844  0.441445  1
  In  In26  1  0.167539  0.832461  0.069010  1
  In  In27  1  0.334844  0.162528  0.558555  1
  In  In28  1  0.832461  0.167539  0.930990  1
  In  In29  1  0.665156  0.837472  0.441445  1
