# generated using pymatgen
data_Li8Tb3Dy5SnBi4Pb3
_symmetry_space_group_name_H-M   'P 1'
_cell_length_a   9.59633200
_cell_length_b   9.59732690
_cell_length_c   7.23630313
_cell_angle_alpha   89.91334842
_cell_angle_beta   89.99990447
_cell_angle_gamma   119.99679128
_symmetry_Int_Tables_number   1
_chemical_formula_structural   Li8Tb3Dy5SnBi4Pb3
_chemical_formula_sum   'Li8 Tb3 Dy5 Sn1 Bi4 Pb3'
_cell_volume   577.18669822
_cell_formula_units_Z   1
loop_
 _symmetry_equiv_pos_site_id
 _symmetry_equiv_pos_as_xyz
  1  'x, y, z'
loop_
 _atom_site_type_symbol
 _atom_site_label
 _atom_site_symmetry_multiplicity
 _atom_site_fract_x
 _atom_site_fract_y
 _atom_site_fract_z
 _atom_site_occupancy
  Li  Li0  1  0.166864  0.333727  0.267519  1
  Li  Li1  1  0.169300  0.833608  0.277188  1
  Li  Li2  1  0.664308  0.833608  0.277188  1
  Li  Li3  1  0.831605  0.663212  0.776236  1
  Li  Li4  1  0.831054  0.168919  0.783544  1
  Li  Li5  1  0.337865  0.168919  0.783543  1
  Li  Li6  1  0.333716  0.667431  0.680998  1
  Li  Li7  1  0.665391  0.330783  0.185430  1
  Tb  Tb8  1  0.513328  0.026657  0.493811  1
  Tb  Tb9  1  0.507932  0.484971  0.493586  1
  Tb  Tb10  1  0.977039  0.484970  0.493587  1
  Dy  Dy11  1  0.491882  0.983763  0.996603  1
  Dy  Dy12  1  0.491058  0.506845  0.994679  1
  Dy  Dy13  1  0.015788  0.506845  0.994679  1
  Dy  Dy14  1  0.002249  0.004499  0.499464  1
  Dy  Dy15  1  0.000871  0.001740  0.004910  1
  Sn  Sn16  1  0.667173  0.334346  0.760652  1
  Bi  Bi17  1  0.166539  0.333078  0.738874  1
  Bi  Bi18  1  0.166040  0.833549  0.736957  1
  Bi  Bi19  1  0.667510  0.833549  0.736957  1
  Bi  Bi20  1  0.833479  0.666957  0.237944  1
  Pb  Pb21  1  0.833827  0.166170  0.235410  1
  Pb  Pb22  1  0.332345  0.166174  0.235409  1
  Pb  Pb23  1  0.332839  0.665678  0.256827  1
