# generated using pymatgen
data_Na2CdSnAu2
_symmetry_space_group_name_H-M   'P 1'
_cell_length_a   4.54648000
_cell_length_b   7.70029000
_cell_length_c   8.34219600
_cell_angle_alpha   90.00000000
_cell_angle_beta   90.00000000
_cell_angle_gamma   90.00000000
_symmetry_Int_Tables_number   1
_chemical_formula_structural   Na2CdSnAu2
_chemical_formula_sum   'Na4 Cd2 Sn2 Au4'
_cell_volume   292.05372899
_cell_formula_units_Z   2
loop_
 _symmetry_equiv_pos_site_id
 _symmetry_equiv_pos_as_xyz
  1  'x, y, z'
loop_
 _atom_site_type_symbol
 _atom_site_label
 _atom_site_symmetry_multiplicity
 _atom_site_fract_x
 _atom_site_fract_y
 _atom_site_fract_z
 _atom_site_occupancy
  Na  Na0  1  0.250000  0.015397  0.828314  1
  Na  Na1  1  0.250000  0.515397  0.671686  1
  Na  Na2  1  0.750000  0.482193  0.327155  1
  Na  Na3  1  0.750000  0.982193  0.172845  1
  Cd  Cd4  1  0.250000  0.661205  0.067421  1
  Cd  Cd5  1  0.250000  0.161205  0.432579  1
  Sn  Sn6  1  0.750000  0.849493  0.561471  1
  Sn  Sn7  1  0.750000  0.349493  0.938529  1
  Au  Au8  1  0.750000  0.707544  0.864208  1
  Au  Au9  1  0.250000  0.284168  0.117721  1
  Au  Au10  1  0.250000  0.784168  0.382279  1
  Au  Au11  1  0.750000  0.207544  0.635792  1
