# generated using pymatgen
data_Sm3Er3(BiO7)2
_symmetry_space_group_name_H-M   'P 1'
_cell_length_a   6.59260510
_cell_length_b   6.59675289
_cell_length_c   7.74705625
_cell_angle_alpha   106.93668025
_cell_angle_beta   89.81704673
_cell_angle_gamma   98.96507297
_symmetry_Int_Tables_number   1
_chemical_formula_structural   Sm3Er3(BiO7)2
_chemical_formula_sum   'Sm3 Er3 Bi2 O14'
_cell_volume   318.04966831
_cell_formula_units_Z   1
loop_
 _symmetry_equiv_pos_site_id
 _symmetry_equiv_pos_as_xyz
  1  'x, y, z'
loop_
 _atom_site_type_symbol
 _atom_site_label
 _atom_site_symmetry_multiplicity
 _atom_site_fract_x
 _atom_site_fract_y
 _atom_site_fract_z
 _atom_site_occupancy
  Sm  Sm0  1  0.727908  0.461163  0.115262  1
  Sm  Sm1  1  0.736481  0.478651  0.616928  1
  Sm  Sm2  1  0.262012  0.522676  0.385654  1
  Er  Er3  1  0.461957  0.005115  0.251701  1
  Er  Er4  1  0.536028  0.993360  0.747862  1
  Er  Er5  1  0.273153  0.539231  0.883443  1
  Bi  Bi6  1  0.001442  0.002102  0.501671  1
  Bi  Bi7  1  0.002425  0.000486  0.998801  1
  O  O8  1  0.441901  0.652962  0.162715  1
  O  O9  1  0.545063  0.345373  0.831480  1
  O  O10  1  0.304323  0.924346  0.952177  1
  O  O11  1  0.697645  0.070368  0.047435  1
  O  O12  1  0.301699  0.929858  0.513782  1
  O  O13  1  0.700053  0.069845  0.485539  1
  O  O14  1  0.543410  0.357478  0.343891  1
  O  O15  1  0.452690  0.642418  0.661781  1
  O  O16  1  0.931648  0.665985  0.953893  1
  O  O17  1  0.078368  0.333398  0.038480  1
  O  O18  1  0.074618  0.348192  0.624227  1
  O  O19  1  0.928972  0.654929  0.382906  1
  O  O20  1  0.872003  0.907226  0.726085  1
  O  O21  1  0.126201  0.094837  0.274285  1
