# generated using pymatgen
data_Yb3Sc(Ga8Pt3)3
_symmetry_space_group_name_H-M   'P 1'
_cell_length_a   7.48342305
_cell_length_b   7.54195831
_cell_length_c   13.43504766
_cell_angle_alpha   84.60672341
_cell_angle_beta   79.45114771
_cell_angle_gamma   60.30444994
_symmetry_Int_Tables_number   1
_chemical_formula_structural   Yb3Sc(Ga8Pt3)3
_chemical_formula_sum   'Yb3 Sc1 Ga24 Pt9'
_cell_volume   647.54886467
_cell_formula_units_Z   1
loop_
 _symmetry_equiv_pos_site_id
 _symmetry_equiv_pos_as_xyz
  1  'x, y, z'
loop_
 _atom_site_type_symbol
 _atom_site_label
 _atom_site_symmetry_multiplicity
 _atom_site_fract_x
 _atom_site_fract_y
 _atom_site_fract_z
 _atom_site_occupancy
  Yb  Yb0  1  0.396634  0.167135  0.810869  1
  Yb  Yb1  1  0.602896  0.832392  0.190531  1
  Yb  Yb2  1  0.731437  0.499423  0.811419  1
  Sc  Sc3  1  0.268846  0.501867  0.187495  1
  Ga  Ga4  1  0.687090  0.832719  0.939977  1
  Ga  Ga5  1  0.314402  0.168806  0.063830  1
  Ga  Ga6  1  0.146905  0.832150  0.557853  1
  Ga  Ga7  1  0.854017  0.167456  0.440072  1
  Ga  Ga8  1  0.479679  0.167071  0.554883  1
  Ga  Ga9  1  0.522052  0.832932  0.443724  1
  Ga  Ga10  1  0.224293  0.167811  0.317356  1
  Ga  Ga11  1  0.777628  0.835650  0.678836  1
  Ga  Ga12  1  0.435016  0.505176  0.677473  1
  Ga  Ga13  1  0.561410  0.496447  0.319632  1
  Ga  Ga14  1  0.106437  0.161713  0.676541  1
  Ga  Ga15  1  0.897928  0.834710  0.318129  1
  Ga  Ga16  1  0.358575  0.495512  0.941214  1
  Ga  Ga17  1  0.635879  0.504201  0.063425  1
  Ga  Ga18  1  0.018599  0.168985  0.946647  1
  Ga  Ga19  1  0.981190  0.824909  0.060205  1
  Ga  Ga20  1  0.186379  0.498857  0.443081  1
  Ga  Ga21  1  0.813864  0.501301  0.555003  1
  Ga  Ga22  1  0.728340  0.171243  0.181613  1
  Ga  Ga23  1  0.266233  0.835754  0.819325  1
  Ga  Ga24  1  0.062547  0.627894  0.818312  1
  Ga  Ga25  1  0.943050  0.371902  0.182373  1
  Ga  Ga26  1  0.854670  0.042030  0.817326  1
  Ga  Ga27  1  0.144867  0.954282  0.182984  1
  Pt  Pt28  1  0.116873  0.493979  0.639357  1
  Pt  Pt29  1  0.882002  0.506600  0.359923  1
  Pt  Pt30  1  0.662500  0.166639  0.000308  1
  Pt  Pt31  1  0.338258  0.832324  0.001678  1
  Pt  Pt32  1  0.541906  0.165309  0.359953  1
  Pt  Pt33  1  0.459153  0.833662  0.639144  1
  Pt  Pt34  1  0.778109  0.175404  0.636076  1
  Pt  Pt35  1  0.221840  0.826936  0.362823  1
  Pt  Pt36  1  0.998497  0.498824  0.000610  1
