# generated using pymatgen
data_LuAg(NO3)4
_symmetry_space_group_name_H-M   'P 1'
_cell_length_a   8.09576873
_cell_length_b   8.04341800
_cell_length_c   8.12018454
_cell_angle_alpha   90.00000000
_cell_angle_beta   87.81946860
_cell_angle_gamma   90.00000000
_symmetry_Int_Tables_number   1
_chemical_formula_structural   LuAg(NO3)4
_chemical_formula_sum   'Lu2 Ag2 N8 O24'
_cell_volume   528.38447133
_cell_formula_units_Z   2
loop_
 _symmetry_equiv_pos_site_id
 _symmetry_equiv_pos_as_xyz
  1  'x, y, z'
loop_
 _atom_site_type_symbol
 _atom_site_label
 _atom_site_symmetry_multiplicity
 _atom_site_fract_x
 _atom_site_fract_y
 _atom_site_fract_z
 _atom_site_occupancy
  Lu  Lu0  1  0.000000  0.500000  0.000000  1
  Lu  Lu1  1  0.000000  0.000000  0.500000  1
  Ag  Ag2  1  0.500000  0.500000  0.500000  1
  Ag  Ag3  1  0.500000  0.000000  0.000000  1
  N  N4  1  0.686655  0.152819  0.336583  1
  N  N5  1  0.686655  0.347181  0.836583  1
  N  N6  1  0.844026  0.811363  0.825469  1
  N  N7  1  0.844026  0.688637  0.325469  1
  N  N8  1  0.155974  0.188637  0.174531  1
  N  N9  1  0.155974  0.311363  0.674531  1
  N  N10  1  0.313345  0.652819  0.163417  1
  N  N11  1  0.313345  0.847181  0.663417  1
  O  O12  1  0.573581  0.244143  0.821144  1
  O  O13  1  0.573581  0.255857  0.321144  1
  O  O14  1  0.707722  0.469016  0.740696  1
  O  O15  1  0.707722  0.030984  0.240696  1
  O  O16  1  0.735279  0.702910  0.436050  1
  O  O17  1  0.735279  0.797090  0.936050  1
  O  O18  1  0.788758  0.329452  0.956527  1
  O  O19  1  0.788758  0.170548  0.456527  1
  O  O20  1  0.835040  0.923360  0.714980  1
  O  O21  1  0.835040  0.576640  0.214980  1
  O  O22  1  0.969256  0.713365  0.819052  1
  O  O23  1  0.969256  0.786635  0.319052  1
  O  O24  1  0.030744  0.213365  0.680948  1
  O  O25  1  0.030744  0.286635  0.180948  1
  O  O26  1  0.164960  0.423360  0.785020  1
  O  O27  1  0.164960  0.076640  0.285020  1
  O  O28  1  0.211242  0.670548  0.043473  1
  O  O29  1  0.211242  0.829452  0.543473  1
  O  O30  1  0.264721  0.202910  0.063950  1
  O  O31  1  0.264721  0.297090  0.563950  1
  O  O32  1  0.292278  0.530984  0.259304  1
  O  O33  1  0.292278  0.969016  0.759304  1
  O  O34  1  0.426419  0.744143  0.678856  1
  O  O35  1  0.426419  0.755857  0.178856  1
