# generated using pymatgen
data_Y12Th4MgFe3CoAg3
_symmetry_space_group_name_H-M   'P 1'
_cell_length_a   9.66260864
_cell_length_b   9.68414651
_cell_length_c   9.68414800
_cell_angle_alpha   60.00000176
_cell_angle_beta   59.92623987
_cell_angle_gamma   59.92623950
_symmetry_Int_Tables_number   1
_chemical_formula_structural   Y12Th4MgFe3CoAg3
_chemical_formula_sum   'Y12 Th4 Mg1 Fe3 Co1 Ag3'
_cell_volume   640.05467950
_cell_formula_units_Z   1
loop_
 _symmetry_equiv_pos_site_id
 _symmetry_equiv_pos_as_xyz
  1  'x, y, z'
loop_
 _atom_site_type_symbol
 _atom_site_label
 _atom_site_symmetry_multiplicity
 _atom_site_fract_x
 _atom_site_fract_y
 _atom_site_fract_z
 _atom_site_occupancy
  Y  Y0  1  0.810176  0.190100  0.190100  1
  Y  Y1  1  0.186616  0.812298  0.812298  1
  Y  Y2  1  0.186616  0.812298  0.188788  1
  Y  Y3  1  0.810176  0.190100  0.809625  1
  Y  Y4  1  0.186616  0.188788  0.812298  1
  Y  Y5  1  0.810176  0.809625  0.190100  1
  Y  Y6  1  0.933790  0.562012  0.562012  1
  Y  Y7  1  0.557670  0.939495  0.939495  1
  Y  Y8  1  0.557670  0.939495  0.563342  1
  Y  Y9  1  0.933790  0.562012  0.942187  1
  Y  Y10  1  0.557670  0.563342  0.939495  1
  Y  Y11  1  0.933790  0.942187  0.562012  1
  Th  Th12  1  0.342562  0.344352  0.344352  1
  Th  Th13  1  0.342562  0.344352  0.968737  1
  Th  Th14  1  0.342562  0.968737  0.344352  1
  Th  Th15  1  0.967923  0.344026  0.344026  1
  Mg  Mg16  1  0.278928  0.573690  0.573690  1
  Fe  Fe17  1  0.149429  0.143412  0.143412  1
  Fe  Fe18  1  0.149429  0.143412  0.563747  1
  Fe  Fe19  1  0.149429  0.563747  0.143412  1
  Co  Co20  1  0.567660  0.144113  0.144113  1
  Ag  Ag21  1  0.581587  0.582902  0.582902  1
  Ag  Ag22  1  0.581587  0.582902  0.252607  1
  Ag  Ag23  1  0.581587  0.252607  0.582902  1
