# generated using pymatgen
data_Dy12InCo3Ni2
_symmetry_space_group_name_H-M   'P 1'
_cell_length_a   8.28056307
_cell_length_b   8.28056346
_cell_length_c   8.28056370
_cell_angle_alpha   110.82697193
_cell_angle_beta   110.37950344
_cell_angle_gamma   107.23048699
_symmetry_Int_Tables_number   1
_chemical_formula_structural   Dy12InCo3Ni2
_chemical_formula_sum   'Dy12 In1 Co3 Ni2'
_cell_volume   436.57094336
_cell_formula_units_Z   1
loop_
 _symmetry_equiv_pos_site_id
 _symmetry_equiv_pos_as_xyz
  1  'x, y, z'
loop_
 _atom_site_type_symbol
 _atom_site_label
 _atom_site_symmetry_multiplicity
 _atom_site_fract_x
 _atom_site_fract_y
 _atom_site_fract_z
 _atom_site_occupancy
  Dy  Dy0  1  0.816731  0.706036  0.522768  1
  Dy  Dy1  1  0.185547  0.292591  0.478138  1
  Dy  Dy2  1  0.185547  0.707409  0.892956  1
  Dy  Dy3  1  0.816731  0.293964  0.110695  1
  Dy  Dy4  1  0.680585  0.377004  0.692265  1
  Dy  Dy5  1  0.315261  0.622996  0.303580  1
  Dy  Dy6  1  0.680585  0.988320  0.303580  1
  Dy  Dy7  1  0.315261  0.011680  0.692265  1
  Dy  Dy8  1  0.592749  0.785436  0.807313  1
  Dy  Dy9  1  0.404881  0.212246  0.192636  1
  Dy  Dy10  1  0.980390  0.787754  0.192636  1
  Dy  Dy11  1  0.021877  0.214564  0.807313  1
  In  In12  1  0.500752  0.500000  0.000752  1
  Co  Co13  1  0.369938  0.000000  0.369938  1
  Co  Co14  1  0.115672  0.613937  0.501735  1
  Co  Co15  1  0.887797  0.386063  0.501735  1
  Ni  Ni16  1  0.630419  0.000000  0.630419  1
  Ni  Ni17  1  0.999277  0.000000  0.999277  1
