# generated using pymatgen
data_Zr6Al16Cu2Tc4Pd
_symmetry_space_group_name_H-M   'P 1'
_cell_length_a   8.71183658
_cell_length_b   8.71183630
_cell_length_c   8.87871600
_cell_angle_alpha   59.36429158
_cell_angle_beta   59.36429265
_cell_angle_gamma   61.27141420
_symmetry_Int_Tables_number   1
_chemical_formula_structural   Zr6Al16Cu2Tc4Pd
_chemical_formula_sum   'Zr6 Al16 Cu2 Tc4 Pd1'
_cell_volume   476.13433111
_cell_formula_units_Z   1
loop_
 _symmetry_equiv_pos_site_id
 _symmetry_equiv_pos_as_xyz
  1  'x, y, z'
loop_
 _atom_site_type_symbol
 _atom_site_label
 _atom_site_symmetry_multiplicity
 _atom_site_fract_x
 _atom_site_fract_y
 _atom_site_fract_z
 _atom_site_occupancy
  Zr  Zr0  1  0.679428  0.679428  0.320572  1
  Zr  Zr1  1  0.286194  0.713806  0.286194  1
  Zr  Zr2  1  0.713806  0.286194  0.286194  1
  Zr  Zr3  1  0.320572  0.320572  0.679428  1
  Zr  Zr4  1  0.713806  0.286194  0.713806  1
  Zr  Zr5  1  0.286194  0.713806  0.713806  1
  Al  Al6  1  0.872876  0.872876  0.366079  1
  Al  Al7  1  0.888171  0.366079  0.872876  1
  Al  Al8  1  0.366079  0.888171  0.872876  1
  Al  Al9  1  0.872876  0.872876  0.888171  1
  Al  Al10  1  0.127124  0.127124  0.633921  1
  Al  Al11  1  0.111829  0.633921  0.127124  1
  Al  Al12  1  0.633921  0.111829  0.127124  1
  Al  Al13  1  0.127124  0.127124  0.111829  1
  Al  Al14  1  0.660539  0.660539  0.012662  1
  Al  Al15  1  0.666260  0.012662  0.660539  1
  Al  Al16  1  0.012662  0.666260  0.660539  1
  Al  Al17  1  0.660539  0.660539  0.666260  1
  Al  Al18  1  0.339461  0.339461  0.987338  1
  Al  Al19  1  0.333740  0.987338  0.339461  1
  Al  Al20  1  0.987338  0.333740  0.339461  1
  Al  Al21  1  0.339461  0.339461  0.333740  1
  Cu  Cu22  1  0.000000  0.000000  0.500000  1
  Cu  Cu23  1  0.500000  0.500000  0.000000  1
  Tc  Tc24  1  0.500000  0.000000  0.500000  1
  Tc  Tc25  1  0.000000  0.500000  0.500000  1
  Tc  Tc26  1  0.000000  0.500000  0.000000  1
  Tc  Tc27  1  0.500000  0.000000  0.000000  1
  Pd  Pd28  1  0.000000  0.000000  0.000000  1
