# generated using pymatgen
data_La4Tb8Tc3Rh
_symmetry_space_group_name_H-M   'P 1'
_cell_length_a   6.48363100
_cell_length_b   7.39908188
_cell_length_c   9.49264600
_cell_angle_alpha   90.00000000
_cell_angle_beta   90.00000000
_cell_angle_gamma   89.92122271
_symmetry_Int_Tables_number   1
_chemical_formula_structural   La4Tb8Tc3Rh
_chemical_formula_sum   'La4 Tb8 Tc3 Rh1'
_cell_volume   455.38948499
_cell_formula_units_Z   1
loop_
 _symmetry_equiv_pos_site_id
 _symmetry_equiv_pos_as_xyz
  1  'x, y, z'
loop_
 _atom_site_type_symbol
 _atom_site_label
 _atom_site_symmetry_multiplicity
 _atom_site_fract_x
 _atom_site_fract_y
 _atom_site_fract_z
 _atom_site_occupancy
  La  La0  1  0.870691  0.555069  0.250000  1
  La  La1  1  0.627704  0.051181  0.250000  1
  La  La2  1  0.128442  0.444266  0.750000  1
  La  La3  1  0.363281  0.950183  0.750000  1
  Tb  Tb4  1  0.330763  0.673531  0.069486  1
  Tb  Tb5  1  0.164371  0.175492  0.432544  1
  Tb  Tb6  1  0.663957  0.324767  0.563926  1
  Tb  Tb7  1  0.836285  0.828287  0.934891  1
  Tb  Tb8  1  0.663957  0.324767  0.936074  1
  Tb  Tb9  1  0.836285  0.828287  0.565109  1
  Tb  Tb10  1  0.330763  0.673531  0.430514  1
  Tb  Tb11  1  0.164371  0.175492  0.067456  1
  Tc  Tc12  1  0.027361  0.873949  0.250000  1
  Tc  Tc13  1  0.470282  0.376658  0.250000  1
  Tc  Tc14  1  0.970197  0.126762  0.750000  1
  Rh  Rh15  1  0.551290  0.617776  0.750000  1
