# generated using pymatgen
data_SmSn6RuRh3
_symmetry_space_group_name_H-M   'P 1'
_cell_length_a   6.93084823
_cell_length_b   6.92304336
_cell_length_c   6.98963577
_cell_angle_alpha   119.58949537
_cell_angle_beta   119.62639970
_cell_angle_gamma   90.16801130
_symmetry_Int_Tables_number   1
_chemical_formula_structural   SmSn6RuRh3
_chemical_formula_sum   'Sm1 Sn6 Ru1 Rh3'
_cell_volume   239.59520639
_cell_formula_units_Z   1
loop_
 _symmetry_equiv_pos_site_id
 _symmetry_equiv_pos_as_xyz
  1  'x, y, z'
loop_
 _atom_site_type_symbol
 _atom_site_label
 _atom_site_symmetry_multiplicity
 _atom_site_fract_x
 _atom_site_fract_y
 _atom_site_fract_z
 _atom_site_occupancy
  Sm  Sm0  1  0.996447  0.003479  0.000000  1
  Sn  Sn1  1  0.995932  0.495947  0.498510  1
  Sn  Sn2  1  0.469484  0.464366  0.338884  1
  Sn  Sn3  1  0.533344  0.872460  0.000000  1
  Sn  Sn4  1  0.872684  0.533561  0.000000  1
  Sn  Sn5  1  0.130600  0.125482  0.661116  1
  Sn  Sn6  1  0.497422  0.997437  0.501490  1
  Ru  Ru7  1  0.601767  0.244924  0.000000  1
  Rh  Rh8  1  0.395964  0.397152  0.633996  1
  Rh  Rh9  1  0.761968  0.763155  0.366004  1
  Rh  Rh10  1  0.244387  0.602037  0.000000  1
