# generated using pymatgen
data_Sc5ReBWC6
_symmetry_space_group_name_H-M   'P 1'
_cell_length_a   7.93600647
_cell_length_b   7.93600761
_cell_length_c   3.22666200
_cell_angle_alpha   90.00000000
_cell_angle_beta   90.00000000
_cell_angle_gamma   120.51393623
_symmetry_Int_Tables_number   1
_chemical_formula_structural   Sc5ReBWC6
_chemical_formula_sum   'Sc5 Re1 B1 W1 C6'
_cell_volume   175.07160406
_cell_formula_units_Z   1
loop_
 _symmetry_equiv_pos_site_id
 _symmetry_equiv_pos_as_xyz
  1  'x, y, z'
loop_
 _atom_site_type_symbol
 _atom_site_label
 _atom_site_symmetry_multiplicity
 _atom_site_fract_x
 _atom_site_fract_y
 _atom_site_fract_z
 _atom_site_occupancy
  Sc  Sc0  1  0.087717  0.333433  0.500000  1
  Sc  Sc1  1  0.330794  0.084428  0.500000  1
  Sc  Sc2  1  0.498526  0.501474  0.000000  1
  Sc  Sc3  1  0.915572  0.669206  0.500000  1
  Sc  Sc4  1  0.666567  0.912283  0.500000  1
  Re  Re5  1  0.286629  0.713371  0.000000  1
  B  B6  1  0.999605  0.000395  0.000000  1
  W  W7  1  0.713817  0.286183  0.000000  1
  C  C8  1  0.001696  0.500368  0.000000  1
  C  C9  1  0.499632  0.998304  0.000000  1
  C  C10  1  0.187410  0.186518  0.000000  1
  C  C11  1  0.813482  0.812590  0.000000  1
  C  C12  1  0.618904  0.381096  0.500000  1
  C  C13  1  0.379649  0.620351  0.500000  1
