# generated using pymatgen
data_Tb5Zr3(ReB6)4
_symmetry_space_group_name_H-M   'P 1'
_cell_length_a   3.63963600
_cell_length_b   9.09358405
_cell_length_c   11.48975512
_cell_angle_alpha   90.01465206
_cell_angle_beta   90.00000000
_cell_angle_gamma   90.00000000
_symmetry_Int_Tables_number   1
_chemical_formula_structural   Tb5Zr3(ReB6)4
_chemical_formula_sum   'Tb5 Zr3 Re4 B24'
_cell_volume   380.28027220
_cell_formula_units_Z   1
loop_
 _symmetry_equiv_pos_site_id
 _symmetry_equiv_pos_as_xyz
  1  'x, y, z'
loop_
 _atom_site_type_symbol
 _atom_site_label
 _atom_site_symmetry_multiplicity
 _atom_site_fract_x
 _atom_site_fract_y
 _atom_site_fract_z
 _atom_site_occupancy
  Tb  Tb0  1  0.000000  0.821565  0.087158  1
  Tb  Tb1  1  0.000000  0.178004  0.913600  1
  Tb  Tb2  1  0.000000  0.321119  0.413660  1
  Tb  Tb3  1  0.000000  0.679036  0.585930  1
  Tb  Tb4  1  0.000000  0.443888  0.127586  1
  Zr  Zr5  1  0.000000  0.557252  0.869738  1
  Zr  Zr6  1  0.000000  0.943771  0.373171  1
  Zr  Zr7  1  0.000000  0.056291  0.627387  1
  Re  Re8  1  0.000000  0.134686  0.182136  1
  Re  Re9  1  0.000000  0.861085  0.817691  1
  Re  Re10  1  0.000000  0.642956  0.322316  1
  Re  Re11  1  0.000000  0.360270  0.679892  1
  B  B12  1  0.500000  0.051766  0.067205  1
  B  B13  1  0.500000  0.945822  0.932691  1
  B  B14  1  0.500000  0.554445  0.433531  1
  B  B15  1  0.500000  0.446437  0.567040  1
  B  B16  1  0.500000  0.247692  0.082628  1
  B  B17  1  0.500000  0.748450  0.917119  1
  B  B18  1  0.500000  0.752658  0.418735  1
  B  B19  1  0.500000  0.248149  0.581943  1
  B  B20  1  0.500000  0.290726  0.235878  1
  B  B21  1  0.500000  0.706723  0.764184  1
  B  B22  1  0.500000  0.794359  0.266063  1
  B  B23  1  0.500000  0.206374  0.735041  1
  B  B24  1  0.500000  0.128863  0.316487  1
  B  B25  1  0.500000  0.870404  0.683687  1
  B  B26  1  0.500000  0.632568  0.185928  1
  B  B27  1  0.500000  0.369938  0.815515  1
  B  B28  1  0.500000  0.483999  0.288229  1
  B  B29  1  0.500000  0.517893  0.712992  1
  B  B30  1  0.500000  0.980700  0.214077  1
  B  B31  1  0.500000  0.018434  0.786434  1
  B  B32  1  0.500000  0.100172  0.473226  1
  B  B33  1  0.500000  0.900474  0.527603  1
  B  B34  1  0.500000  0.603080  0.024343  1
  B  B35  1  0.500000  0.399952  0.969154  1
