# generated using pymatgen
data_Pr6BPBr6
_symmetry_space_group_name_H-M   'P 1'
_cell_length_a   10.34761823
_cell_length_b   10.34761877
_cell_length_c   10.24197271
_cell_angle_alpha   109.47984633
_cell_angle_beta   109.47984390
_cell_angle_gamma   109.86828052
_symmetry_Int_Tables_number   1
_chemical_formula_structural   Pr6BPBr6
_chemical_formula_sum   'Pr12 B2 P2 Br12'
_cell_volume   839.84069841
_cell_formula_units_Z   2
loop_
 _symmetry_equiv_pos_site_id
 _symmetry_equiv_pos_as_xyz
  1  'x, y, z'
loop_
 _atom_site_type_symbol
 _atom_site_label
 _atom_site_symmetry_multiplicity
 _atom_site_fract_x
 _atom_site_fract_y
 _atom_site_fract_z
 _atom_site_occupancy
  Pr  Pr0  1  0.467608  0.490752  0.227153  1
  Pr  Pr1  1  0.763598  0.240454  0.272847  1
  Pr  Pr2  1  0.762821  0.022395  0.491788  1
  Pr  Pr3  1  0.228967  0.469394  0.491788  1
  Pr  Pr4  1  0.259546  0.736402  0.227153  1
  Pr  Pr5  1  0.030606  0.271033  0.008212  1
  Pr  Pr6  1  0.009248  0.032392  0.272847  1
  Pr  Pr7  1  0.477605  0.737179  0.008212  1
  Pr  Pr8  1  0.487643  0.237643  0.475286  1
  Pr  Pr9  1  0.019395  0.480605  0.750000  1
  Pr  Pr10  1  0.262357  0.012357  0.024714  1
  Pr  Pr11  1  0.230605  0.269395  0.750000  1
  B  B12  1  0.998799  0.248799  0.497598  1
  B  B13  1  0.251201  0.501201  0.002402  1
  P  P14  1  0.249468  0.250532  0.250000  1
  P  P15  1  0.500532  0.999468  0.250000  1
  Br  Br16  1  0.249727  0.756811  0.742543  1
  Br  Br17  1  0.514268  0.507184  0.757457  1
  Br  Br18  1  0.987394  0.742951  0.992739  1
  Br  Br19  1  0.743189  0.250273  0.757457  1
  Br  Br20  1  0.992816  0.985732  0.742543  1
  Br  Br21  1  0.250212  0.994655  0.507261  1
  Br  Br22  1  0.757049  0.512606  0.507261  1
  Br  Br23  1  0.505345  0.249788  0.992739  1
  Br  Br24  1  0.757382  0.742618  0.250000  1
  Br  Br25  1  0.744032  0.994032  0.988065  1
  Br  Br26  1  0.992618  0.507382  0.250000  1
  Br  Br27  1  0.505968  0.755968  0.511935  1
