# generated using pymatgen
data_LiMn20CrMoC6
_symmetry_space_group_name_H-M   'P 1'
_cell_length_a   7.35922872
_cell_length_b   7.35923589
_cell_length_c   7.35902524
_cell_angle_alpha   59.99777736
_cell_angle_beta   59.99753502
_cell_angle_gamma   59.99947236
_symmetry_Int_Tables_number   1
_chemical_formula_structural   LiMn20CrMoC6
_chemical_formula_sum   'Li1 Mn20 Cr1 Mo1 C6'
_cell_volume   281.80792389
_cell_formula_units_Z   1
loop_
 _symmetry_equiv_pos_site_id
 _symmetry_equiv_pos_as_xyz
  1  'x, y, z'
loop_
 _atom_site_type_symbol
 _atom_site_label
 _atom_site_symmetry_multiplicity
 _atom_site_fract_x
 _atom_site_fract_y
 _atom_site_fract_z
 _atom_site_occupancy
  Li  Li0  1  0.999949  0.000012  0.000050  1
  Mn  Mn1  1  0.857205  0.380954  0.380928  1
  Mn  Mn2  1  0.380971  0.857215  0.380910  1
  Mn  Mn3  1  0.380949  0.380916  0.857190  1
  Mn  Mn4  1  0.380927  0.380903  0.380932  1
  Mn  Mn5  1  0.154914  0.615001  0.615041  1
  Mn  Mn6  1  0.615019  0.154899  0.615041  1
  Mn  Mn7  1  0.615047  0.615046  0.154896  1
  Mn  Mn8  1  0.615052  0.615045  0.615017  1
  Mn  Mn9  1  0.658678  0.000638  0.000662  1
  Mn  Mn10  1  0.658700  0.000624  0.340028  1
  Mn  Mn11  1  0.658671  0.340040  0.000644  1
  Mn  Mn12  1  0.000642  0.658701  0.340004  1
  Mn  Mn13  1  0.000658  0.658674  0.000671  1
  Mn  Mn14  1  0.340038  0.658661  0.000652  1
  Mn  Mn15  1  0.000661  0.340032  0.658670  1
  Mn  Mn16  1  0.340034  0.000653  0.658684  1
  Mn  Mn17  1  0.000655  0.000652  0.658656  1
  Mn  Mn18  1  0.340005  0.000661  0.000647  1
  Mn  Mn19  1  0.000671  0.339992  0.000653  1
  Mn  Mn20  1  0.000655  0.000647  0.340003  1
  Cr  Cr21  1  0.249926  0.250036  0.250025  1
  Mo  Mo22  1  0.749913  0.750020  0.749992  1
  C  C23  1  0.727998  0.271990  0.272006  1
  C  C24  1  0.727978  0.272032  0.727992  1
  C  C25  1  0.727988  0.727988  0.272034  1
  C  C26  1  0.272049  0.727986  0.727995  1
  C  C27  1  0.272013  0.727991  0.271990  1
  C  C28  1  0.272033  0.271991  0.727985  1
