# generated using pymatgen
data_TmLuGa5Rh3
_symmetry_space_group_name_H-M   'P 1'
_cell_length_a   8.57985490
_cell_length_b   8.57985537
_cell_length_c   5.63198016
_cell_angle_alpha   70.82240472
_cell_angle_beta   70.82239813
_cell_angle_gamma   97.80082804
_symmetry_Int_Tables_number   1
_chemical_formula_structural   TmLuGa5Rh3
_chemical_formula_sum   'Tm2 Lu2 Ga10 Rh6'
_cell_volume   355.79224680
_cell_formula_units_Z   2
loop_
 _symmetry_equiv_pos_site_id
 _symmetry_equiv_pos_as_xyz
  1  'x, y, z'
loop_
 _atom_site_type_symbol
 _atom_site_label
 _atom_site_symmetry_multiplicity
 _atom_site_fract_x
 _atom_site_fract_y
 _atom_site_fract_z
 _atom_site_occupancy
  Tm  Tm0  1  0.129282  0.421576  0.223754  1
  Tm  Tm1  1  0.578424  0.870718  0.276246  1
  Lu  Lu2  1  0.870723  0.578191  0.776370  1
  Lu  Lu3  1  0.421809  0.129277  0.723630  1
  Ga  Ga4  1  0.101027  0.265513  0.816342  1
  Ga  Ga5  1  0.734487  0.898973  0.683658  1
  Ga  Ga6  1  0.899070  0.734196  0.183793  1
  Ga  Ga7  1  0.265804  0.100930  0.316207  1
  Ga  Ga8  1  0.198924  0.801076  0.750000  1
  Ga  Ga9  1  0.800929  0.199071  0.250000  1
  Ga  Ga10  1  0.500239  0.499761  0.750000  1
  Ga  Ga11  1  0.499847  0.500153  0.250000  1
  Ga  Ga12  1  0.800589  0.199411  0.750000  1
  Ga  Ga13  1  0.199254  0.800746  0.250000  1
  Rh  Rh14  1  0.263210  0.569172  0.584301  1
  Rh  Rh15  1  0.430828  0.736790  0.915699  1
  Rh  Rh16  1  0.736299  0.430764  0.415956  1
  Rh  Rh17  1  0.569236  0.263701  0.084044  1
  Rh  Rh18  1  0.999862  0.000138  0.750000  1
  Rh  Rh19  1  0.000157  0.999843  0.250000  1
