# generated using pymatgen
data_YTm2Fe8Ru
_symmetry_space_group_name_H-M   'P 1'
_cell_length_a   5.07899903
_cell_length_b   5.07900088
_cell_length_c   8.73476386
_cell_angle_alpha   73.09805666
_cell_angle_beta   73.09805382
_cell_angle_gamma   60.00001469
_symmetry_Int_Tables_number   1
_chemical_formula_structural   YTm2Fe8Ru
_chemical_formula_sum   'Y1 Tm2 Fe8 Ru1'
_cell_volume   183.81162810
_cell_formula_units_Z   1
loop_
 _symmetry_equiv_pos_site_id
 _symmetry_equiv_pos_as_xyz
  1  'x, y, z'
loop_
 _atom_site_type_symbol
 _atom_site_label
 _atom_site_symmetry_multiplicity
 _atom_site_fract_x
 _atom_site_fract_y
 _atom_site_fract_z
 _atom_site_occupancy
  Y  Y0  1  0.000000  0.000000  0.000000  1
  Tm  Tm1  1  0.141720  0.141720  0.574839  1
  Tm  Tm2  1  0.858280  0.858280  0.425161  1
  Fe  Fe3  1  0.076727  0.582293  0.758686  1
  Fe  Fe4  1  0.582293  0.582293  0.758686  1
  Fe  Fe5  1  0.582293  0.076727  0.758686  1
  Fe  Fe6  1  0.923273  0.417707  0.241314  1
  Fe  Fe7  1  0.417707  0.417707  0.241314  1
  Fe  Fe8  1  0.417707  0.923273  0.241314  1
  Fe  Fe9  1  0.333220  0.333220  0.000340  1
  Fe  Fe10  1  0.666780  0.666780  0.999660  1
  Ru  Ru11  1  0.500000  0.500000  0.500000  1
