# generated using pymatgen
data_Sm2Pa(InPd)3
_symmetry_space_group_name_H-M   'P 1'
_cell_length_a   7.74932101
_cell_length_b   7.73565379
_cell_length_c   3.94671600
_cell_angle_alpha   90.00000000
_cell_angle_beta   90.00000000
_cell_angle_gamma   120.06270075
_symmetry_Int_Tables_number   1
_chemical_formula_structural   Sm2Pa(InPd)3
_chemical_formula_sum   'Sm2 Pa1 In3 Pd3'
_cell_volume   204.76345242
_cell_formula_units_Z   1
loop_
 _symmetry_equiv_pos_site_id
 _symmetry_equiv_pos_as_xyz
  1  'x, y, z'
loop_
 _atom_site_type_symbol
 _atom_site_label
 _atom_site_symmetry_multiplicity
 _atom_site_fract_x
 _atom_site_fract_y
 _atom_site_fract_z
 _atom_site_occupancy
  Sm  Sm0  1  0.002323  0.592926  0.500000  1
  Sm  Sm1  1  0.409416  0.407071  0.500000  1
  Pa  Pa2  1  0.588548  0.000011  0.500000  1
  In  In3  1  0.247086  0.999998  0.000000  1
  In  In4  1  0.009037  0.265272  0.000000  1
  In  In5  1  0.743763  0.734708  0.000000  1
  Pd  Pd6  1  0.983306  0.000007  0.500000  1
  Pd  Pd7  1  0.353323  0.690120  0.000000  1
  Pd  Pd8  1  0.663197  0.309887  0.000000  1
