# generated using pymatgen
data_La2SmIn3O9
_symmetry_space_group_name_H-M   'P 1'
_cell_length_a   6.58606800
_cell_length_b   6.58606869
_cell_length_c   12.53557600
_cell_angle_alpha   90.00000000
_cell_angle_beta   90.00000000
_cell_angle_gamma   119.99999652
_symmetry_Int_Tables_number   1
_chemical_formula_structural   La2SmIn3O9
_chemical_formula_sum   'La4 Sm2 In6 O18'
_cell_volume   470.89860920
_cell_formula_units_Z   2
loop_
 _symmetry_equiv_pos_site_id
 _symmetry_equiv_pos_as_xyz
  1  'x, y, z'
loop_
 _atom_site_type_symbol
 _atom_site_label
 _atom_site_symmetry_multiplicity
 _atom_site_fract_x
 _atom_site_fract_y
 _atom_site_fract_z
 _atom_site_occupancy
  La  La0  1  0.666667  0.333333  0.964310  1
  La  La1  1  0.333333  0.666667  0.464310  1
  La  La2  1  0.666667  0.333333  0.464310  1
  La  La3  1  0.333333  0.666667  0.964310  1
  Sm  Sm4  1  0.000000  0.000000  0.998387  1
  Sm  Sm5  1  0.000000  0.000000  0.498387  1
  In  In6  1  0.668403  0.668403  0.727423  1
  In  In7  1  0.000000  0.331597  0.727423  1
  In  In8  1  0.331597  0.331597  0.227423  1
  In  In9  1  0.000000  0.668403  0.227423  1
  In  In10  1  0.331597  0.000000  0.727423  1
  In  In11  1  0.668403  0.000000  0.227423  1
  O  O12  1  0.698051  0.698051  0.895647  1
  O  O13  1  0.000000  0.301949  0.895647  1
  O  O14  1  0.301949  0.301949  0.395647  1
  O  O15  1  0.000000  0.698051  0.395647  1
  O  O16  1  0.301949  0.000000  0.895647  1
  O  O17  1  0.698051  0.000000  0.395647  1
  O  O18  1  0.649834  0.649834  0.559370  1
  O  O19  1  0.000000  0.350166  0.559370  1
  O  O20  1  0.350166  0.350166  0.059370  1
  O  O21  1  0.000000  0.649834  0.059370  1
  O  O22  1  0.350166  0.000000  0.559370  1
  O  O23  1  0.649834  0.000000  0.059370  1
  O  O24  1  0.000000  0.000000  0.697627  1
  O  O25  1  0.000000  0.000000  0.197627  1
  O  O26  1  0.666667  0.333333  0.746968  1
  O  O27  1  0.333333  0.666667  0.246968  1
  O  O28  1  0.666667  0.333333  0.246968  1
  O  O29  1  0.333333  0.666667  0.746968  1
