# generated using pymatgen
data_Dy2YAl12(OsRh)2
_symmetry_space_group_name_H-M   'P 1'
_cell_length_a   8.79099300
_cell_length_b   8.85431105
_cell_length_c   9.56929100
_cell_angle_alpha   90.00000000
_cell_angle_beta   90.00000000
_cell_angle_gamma   119.76372045
_symmetry_Int_Tables_number   1
_chemical_formula_structural   Dy2YAl12(OsRh)2
_chemical_formula_sum   'Dy4 Y2 Al24 Os4 Rh4'
_cell_volume   646.59479142
_cell_formula_units_Z   2
loop_
 _symmetry_equiv_pos_site_id
 _symmetry_equiv_pos_as_xyz
  1  'x, y, z'
loop_
 _atom_site_type_symbol
 _atom_site_label
 _atom_site_symmetry_multiplicity
 _atom_site_fract_x
 _atom_site_fract_y
 _atom_site_fract_z
 _atom_site_occupancy
  Dy  Dy0  1  0.613680  0.812371  0.250000  1
  Dy  Dy1  1  0.386320  0.187629  0.750000  1
  Dy  Dy2  1  0.198689  0.812371  0.250000  1
  Dy  Dy3  1  0.801311  0.187629  0.750000  1
  Y  Y4  1  0.191398  0.382797  0.250000  1
  Y  Y5  1  0.808602  0.617203  0.750000  1
  Al  Al6  1  0.333747  0.667494  0.023873  1
  Al  Al7  1  0.666253  0.332506  0.976127  1
  Al  Al8  1  0.666253  0.332506  0.523873  1
  Al  Al9  1  0.333747  0.667494  0.476127  1
  Al  Al10  1  0.162766  0.325534  0.577685  1
  Al  Al11  1  0.837234  0.674466  0.422315  1
  Al  Al12  1  0.672375  0.836827  0.576674  1
  Al  Al13  1  0.837234  0.674466  0.077685  1
  Al  Al14  1  0.327625  0.163173  0.423326  1
  Al  Al15  1  0.162766  0.325534  0.922315  1
  Al  Al16  1  0.164451  0.836827  0.576674  1
  Al  Al17  1  0.327625  0.163173  0.076674  1
  Al  Al18  1  0.835549  0.163173  0.423326  1
  Al  Al19  1  0.672375  0.836827  0.923326  1
  Al  Al20  1  0.835549  0.163173  0.076674  1
  Al  Al21  1  0.164451  0.836827  0.923326  1
  Al  Al22  1  0.563298  0.126596  0.250000  1
  Al  Al23  1  0.436702  0.873404  0.750000  1
  Al  Al24  1  0.877894  0.439780  0.250000  1
  Al  Al25  1  0.122106  0.560220  0.750000  1
  Al  Al26  1  0.561887  0.439780  0.250000  1
  Al  Al27  1  0.438113  0.560220  0.750000  1
  Al  Al28  1  0.001128  0.002255  0.250000  1
  Al  Al29  1  0.998872  0.997745  0.750000  1
  Os  Os30  1  0.500000  0.000000  0.000000  1
  Os  Os31  1  0.500000  0.000000  0.500000  1
  Os  Os32  1  0.000000  0.000000  0.000000  1
  Os  Os33  1  0.000000  0.000000  0.500000  1
  Rh  Rh34  1  0.000000  0.500000  0.000000  1
  Rh  Rh35  1  0.500000  0.500000  0.000000  1
  Rh  Rh36  1  0.000000  0.500000  0.500000  1
  Rh  Rh37  1  0.500000  0.500000  0.500000  1
