# generated using pymatgen
data_Tc3OsO8
_symmetry_space_group_name_H-M   'P 1'
_cell_length_a   4.81043038
_cell_length_b   5.53478915
_cell_length_c   5.58868511
_cell_angle_alpha   62.05098075
_cell_angle_beta   90.03947633
_cell_angle_gamma   90.03852097
_symmetry_Int_Tables_number   1
_chemical_formula_structural   Tc3OsO8
_chemical_formula_sum   'Tc3 Os1 O8'
_cell_volume   131.44216101
_cell_formula_units_Z   1
loop_
 _symmetry_equiv_pos_site_id
 _symmetry_equiv_pos_as_xyz
  1  'x, y, z'
loop_
 _atom_site_type_symbol
 _atom_site_label
 _atom_site_symmetry_multiplicity
 _atom_site_fract_x
 _atom_site_fract_y
 _atom_site_fract_z
 _atom_site_occupancy
  Tc  Tc0  1  0.005529  0.265002  0.720063  1
  Tc  Tc1  1  0.494826  0.265700  0.218594  1
  Tc  Tc2  1  0.994678  0.735090  0.279962  1
  Os  Os3  1  0.505162  0.737516  0.777949  1
  O  O4  1  0.213009  0.608174  0.623308  1
  O  O5  1  0.190690  0.104862  0.086818  1
  O  O6  1  0.807585  0.894684  0.912476  1
  O  O7  1  0.690471  0.894156  0.414926  1
  O  O8  1  0.309934  0.103871  0.587831  1
  O  O9  1  0.287868  0.606822  0.123693  1
  O  O10  1  0.712424  0.391709  0.877610  1
  O  O11  1  0.787824  0.392415  0.376771  1
