# generated using pymatgen
data_Ti10ZnGaSn6
_symmetry_space_group_name_H-M   'P 1'
_cell_length_a   8.25646700
_cell_length_b   8.25646897
_cell_length_c   5.56535900
_cell_angle_alpha   90.00000000
_cell_angle_beta   90.00000000
_cell_angle_gamma   120.00001214
_symmetry_Int_Tables_number   1
_chemical_formula_structural   Ti10ZnGaSn6
_chemical_formula_sum   'Ti10 Zn1 Ga1 Sn6'
_cell_volume   328.55824144
_cell_formula_units_Z   1
loop_
 _symmetry_equiv_pos_site_id
 _symmetry_equiv_pos_as_xyz
  1  'x, y, z'
loop_
 _atom_site_type_symbol
 _atom_site_label
 _atom_site_symmetry_multiplicity
 _atom_site_fract_x
 _atom_site_fract_y
 _atom_site_fract_z
 _atom_site_occupancy
  Ti  Ti0  1  0.731690  0.731690  0.748726  1
  Ti  Ti1  1  0.268310  0.000000  0.748726  1
  Ti  Ti2  1  0.000000  0.268310  0.748726  1
  Ti  Ti3  1  0.268310  0.268310  0.251274  1
  Ti  Ti4  1  0.731690  0.000000  0.251274  1
  Ti  Ti5  1  0.000000  0.731690  0.251274  1
  Ti  Ti6  1  0.666667  0.333333  0.000000  1
  Ti  Ti7  1  0.333333  0.666667  0.000000  1
  Ti  Ti8  1  0.333333  0.666667  0.500000  1
  Ti  Ti9  1  0.666667  0.333333  0.500000  1
  Zn  Zn10  1  0.000000  0.000000  0.000000  1
  Ga  Ga11  1  0.000000  0.000000  0.500000  1
  Sn  Sn12  1  0.386384  0.386384  0.750024  1
  Sn  Sn13  1  0.613616  0.000000  0.750024  1
  Sn  Sn14  1  0.000000  0.613616  0.750024  1
  Sn  Sn15  1  0.613616  0.613616  0.249976  1
  Sn  Sn16  1  0.386384  0.000000  0.249976  1
  Sn  Sn17  1  0.000000  0.386384  0.249976  1
