# generated using pymatgen
data_VZn6As3O16
_symmetry_space_group_name_H-M   'P 1'
_cell_length_a   5.53036884
_cell_length_b   8.78363252
_cell_length_c   8.65244180
_cell_angle_alpha   104.67940071
_cell_angle_beta   71.27217439
_cell_angle_gamma   90.17609559
_symmetry_Int_Tables_number   1
_chemical_formula_structural   VZn6As3O16
_chemical_formula_sum   'V1 Zn6 As3 O16'
_cell_volume   383.65243184
_cell_formula_units_Z   1
loop_
 _symmetry_equiv_pos_site_id
 _symmetry_equiv_pos_as_xyz
  1  'x, y, z'
loop_
 _atom_site_type_symbol
 _atom_site_label
 _atom_site_symmetry_multiplicity
 _atom_site_fract_x
 _atom_site_fract_y
 _atom_site_fract_z
 _atom_site_occupancy
  V  V0  1  0.588306  0.032149  0.242972  1
  Zn  Zn1  1  0.965019  0.250663  0.995448  1
  Zn  Zn2  1  0.042233  0.745494  0.001073  1
  Zn  Zn3  1  0.013610  0.221499  0.378006  1
  Zn  Zn4  1  0.401705  0.284956  0.626490  1
  Zn  Zn5  1  0.975082  0.780848  0.623811  1
  Zn  Zn6  1  0.602287  0.714105  0.370606  1
  As  As7  1  0.833092  0.465680  0.759249  1
  As  As8  1  0.408654  0.963211  0.757234  1
  As  As9  1  0.170230  0.533770  0.240985  1
  O  O10  1  0.422149  0.530064  0.312216  1
  O  O11  1  0.732800  0.965134  0.693753  1
  O  O12  1  0.575790  0.469841  0.693235  1
  O  O13  1  0.261732  0.040912  0.302210  1
  O  O14  1  0.081030  0.343773  0.588322  1
  O  O15  1  0.662893  0.156305  0.418648  1
  O  O16  1  0.919650  0.654433  0.411255  1
  O  O17  1  0.332588  0.844641  0.584182  1
  O  O18  1  0.792185  0.409416  0.938384  1
  O  O19  1  0.724203  0.103952  0.073208  1
  O  O20  1  0.221570  0.592025  0.061968  1
  O  O21  1  0.265781  0.907211  0.936069  1
  O  O22  1  0.725865  0.834638  0.199624  1
  O  O23  1  0.935374  0.656156  0.793508  1
  O  O24  1  0.278215  0.155830  0.793438  1
  O  O25  1  0.067957  0.343296  0.204104  1
