# generated using pymatgen
data_YHo2Hf(Co4P3)2
_symmetry_space_group_name_H-M   'P 1'
_cell_length_a   3.71729200
_cell_length_b   10.68865500
_cell_length_c   12.39179100
_cell_angle_alpha   90.00000000
_cell_angle_beta   90.00000000
_cell_angle_gamma   90.00000000
_symmetry_Int_Tables_number   1
_chemical_formula_structural   YHo2Hf(Co4P3)2
_chemical_formula_sum   'Y2 Ho4 Hf2 Co16 P12'
_cell_volume   492.36119438
_cell_formula_units_Z   2
loop_
 _symmetry_equiv_pos_site_id
 _symmetry_equiv_pos_as_xyz
  1  'x, y, z'
loop_
 _atom_site_type_symbol
 _atom_site_label
 _atom_site_symmetry_multiplicity
 _atom_site_fract_x
 _atom_site_fract_y
 _atom_site_fract_z
 _atom_site_occupancy
  Y  Y0  1  0.000000  0.500000  0.528549  1
  Y  Y1  1  0.500000  0.000000  0.471451  1
  Ho  Ho2  1  0.500000  0.821917  0.204570  1
  Ho  Ho3  1  0.500000  0.178083  0.204570  1
  Ho  Ho4  1  0.000000  0.678083  0.795430  1
  Ho  Ho5  1  0.000000  0.321917  0.795430  1
  Hf  Hf6  1  0.500000  0.500000  0.157156  1
  Hf  Hf7  1  0.000000  0.000000  0.842844  1
  Co  Co8  1  0.000000  0.500000  0.986673  1
  Co  Co9  1  0.500000  0.000000  0.013327  1
  Co  Co10  1  0.500000  0.295087  0.432934  1
  Co  Co11  1  0.500000  0.704913  0.432934  1
  Co  Co12  1  0.000000  0.204913  0.567066  1
  Co  Co13  1  0.000000  0.795087  0.567066  1
  Co  Co14  1  0.500000  0.877648  0.703204  1
  Co  Co15  1  0.500000  0.122352  0.703204  1
  Co  Co16  1  0.000000  0.622352  0.296796  1
  Co  Co17  1  0.000000  0.377648  0.296796  1
  Co  Co18  1  0.500000  0.332096  0.993297  1
  Co  Co19  1  0.500000  0.667904  0.993297  1
  Co  Co20  1  0.000000  0.167904  0.006703  1
  Co  Co21  1  0.000000  0.832096  0.006703  1
  Co  Co22  1  0.500000  0.500000  0.703703  1
  Co  Co23  1  0.000000  0.000000  0.296297  1
  P  P24  1  0.500000  0.309999  0.616021  1
  P  P25  1  0.500000  0.690001  0.616021  1
  P  P26  1  0.000000  0.190001  0.383979  1
  P  P27  1  0.000000  0.809999  0.383979  1
  P  P28  1  0.500000  0.500000  0.883318  1
  P  P29  1  0.000000  0.000000  0.116682  1
  P  P30  1  0.500000  0.838400  0.893034  1
  P  P31  1  0.500000  0.161600  0.893034  1
  P  P32  1  0.000000  0.661600  0.106966  1
  P  P33  1  0.000000  0.338400  0.106966  1
  P  P34  1  0.500000  0.500000  0.361422  1
  P  P35  1  0.000000  0.000000  0.638578  1
