# generated using pymatgen
data_Hf9AlZnRe3
_symmetry_space_group_name_H-M   'P 1'
_cell_length_a   8.70407700
_cell_length_b   8.70390954
_cell_length_c   8.43977500
_cell_angle_alpha   90.00000000
_cell_angle_beta   90.00000000
_cell_angle_gamma   120.00284070
_symmetry_Int_Tables_number   1
_chemical_formula_structural   Hf9AlZnRe3
_chemical_formula_sum   'Hf18 Al2 Zn2 Re6'
_cell_volume   553.71483760
_cell_formula_units_Z   2
loop_
 _symmetry_equiv_pos_site_id
 _symmetry_equiv_pos_as_xyz
  1  'x, y, z'
loop_
 _atom_site_type_symbol
 _atom_site_label
 _atom_site_symmetry_multiplicity
 _atom_site_fract_x
 _atom_site_fract_y
 _atom_site_fract_z
 _atom_site_occupancy
  Hf  Hf0  1  0.192981  0.807022  0.446483  1
  Hf  Hf1  1  0.192975  0.385955  0.446462  1
  Hf  Hf2  1  0.614044  0.807027  0.446465  1
  Hf  Hf3  1  0.807019  0.192978  0.553517  1
  Hf  Hf4  1  0.807025  0.614045  0.553538  1
  Hf  Hf5  1  0.385956  0.192973  0.553535  1
  Hf  Hf6  1  0.807019  0.192978  0.946483  1
  Hf  Hf7  1  0.807025  0.614045  0.946462  1
  Hf  Hf8  1  0.385956  0.192973  0.946465  1
  Hf  Hf9  1  0.192981  0.807022  0.053517  1
  Hf  Hf10  1  0.192975  0.385955  0.053538  1
  Hf  Hf11  1  0.614044  0.807027  0.053535  1
  Hf  Hf12  1  0.542881  0.457116  0.250000  1
  Hf  Hf13  1  0.542882  0.085760  0.250000  1
  Hf  Hf14  1  0.914237  0.457111  0.250000  1
  Hf  Hf15  1  0.457119  0.542884  0.750000  1
  Hf  Hf16  1  0.457118  0.914240  0.750000  1
  Hf  Hf17  1  0.085763  0.542889  0.750000  1
  Al  Al18  1  0.000000  0.000000  0.500000  1
  Al  Al19  1  0.000000  0.000000  0.000000  1
  Zn  Zn20  1  0.333334  0.666669  0.250000  1
  Zn  Zn21  1  0.666666  0.333331  0.750000  1
  Re  Re22  1  0.886205  0.113793  0.250000  1
  Re  Re23  1  0.886140  0.772278  0.250000  1
  Re  Re24  1  0.227668  0.113832  0.250000  1
  Re  Re25  1  0.113795  0.886207  0.750000  1
  Re  Re26  1  0.113860  0.227722  0.750000  1
  Re  Re27  1  0.772332  0.886168  0.750000  1
