# generated using pymatgen
data_Tb5ReWC7
_symmetry_space_group_name_H-M   'P 1'
_cell_length_a   8.43153140
_cell_length_b   8.43153017
_cell_length_c   3.44443900
_cell_angle_alpha   90.00000000
_cell_angle_beta   90.00000000
_cell_angle_gamma   123.01503546
_symmetry_Int_Tables_number   1
_chemical_formula_structural   Tb5ReWC7
_chemical_formula_sum   'Tb5 Re1 W1 C7'
_cell_volume   205.32826063
_cell_formula_units_Z   1
loop_
 _symmetry_equiv_pos_site_id
 _symmetry_equiv_pos_as_xyz
  1  'x, y, z'
loop_
 _atom_site_type_symbol
 _atom_site_label
 _atom_site_symmetry_multiplicity
 _atom_site_fract_x
 _atom_site_fract_y
 _atom_site_fract_z
 _atom_site_occupancy
  Tb  Tb0  1  0.498809  0.501191  0.000000  1
  Tb  Tb1  1  0.074454  0.333199  0.500000  1
  Tb  Tb2  1  0.927931  0.668795  0.500000  1
  Tb  Tb3  1  0.666801  0.925546  0.500000  1
  Tb  Tb4  1  0.331205  0.072069  0.500000  1
  Re  Re5  1  0.287162  0.712838  0.000000  1
  W  W6  1  0.713527  0.286473  0.000000  1
  C  C7  1  0.626379  0.373621  0.500000  1
  C  C8  1  0.371315  0.628685  0.500000  1
  C  C9  1  0.000046  0.999954  0.000000  1
  C  C10  1  0.169038  0.167896  0.000000  1
  C  C11  1  0.832104  0.830962  0.000000  1
  C  C12  1  0.001353  0.500123  0.000000  1
  C  C13  1  0.499877  0.998647  0.000000  1
