# generated using pymatgen
data_ErTm19Ir5Pt7
_symmetry_space_group_name_H-M   'P 1'
_cell_length_a   10.90002250
_cell_length_b   10.89969907
_cell_length_c   6.29276601
_cell_angle_alpha   90.02231083
_cell_angle_beta   90.03055412
_cell_angle_gamma   90.24044764
_symmetry_Int_Tables_number   1
_chemical_formula_structural   ErTm19Ir5Pt7
_chemical_formula_sum   'Er1 Tm19 Ir5 Pt7'
_cell_volume   747.61768447
_cell_formula_units_Z   1
loop_
 _symmetry_equiv_pos_site_id
 _symmetry_equiv_pos_as_xyz
  1  'x, y, z'
loop_
 _atom_site_type_symbol
 _atom_site_label
 _atom_site_symmetry_multiplicity
 _atom_site_fract_x
 _atom_site_fract_y
 _atom_site_fract_z
 _atom_site_occupancy
  Er  Er0  1  0.295156  0.086065  0.373713  1
  Tm  Tm1  1  0.295657  0.908548  0.874463  1
  Tm  Tm2  1  0.703976  0.086553  0.873664  1
  Tm  Tm3  1  0.703994  0.912411  0.373022  1
  Tm  Tm4  1  0.583263  0.793039  0.872187  1
  Tm  Tm5  1  0.587278  0.204871  0.374852  1
  Tm  Tm6  1  0.411044  0.792700  0.378137  1
  Tm  Tm7  1  0.412681  0.203526  0.874476  1
  Tm  Tm8  1  0.206886  0.416728  0.627824  1
  Tm  Tm9  1  0.207138  0.589034  0.121824  1
  Tm  Tm10  1  0.795176  0.412996  0.125118  1
  Tm  Tm11  1  0.796526  0.587488  0.625477  1
  Tm  Tm12  1  0.913984  0.704551  0.126076  1
  Tm  Tm13  1  0.913486  0.296069  0.626296  1
  Tm  Tm14  1  0.091294  0.704350  0.625562  1
  Tm  Tm15  1  0.087406  0.296141  0.126840  1
  Tm  Tm16  1  0.999192  0.999830  0.500594  1
  Tm  Tm17  1  0.000027  0.000528  0.999509  1
  Tm  Tm18  1  0.497974  0.500632  0.999488  1
  Tm  Tm19  1  0.499440  0.502063  0.500551  1
  Ir  Ir20  1  0.346818  0.653171  0.749982  1
  Ir  Ir21  1  0.500195  0.999772  0.120882  1
  Ir  Ir22  1  0.500055  0.999882  0.619823  1
  Ir  Ir23  1  0.999994  0.500242  0.880268  1
  Ir  Ir24  1  0.000044  0.500134  0.378964  1
  Pt  Pt25  1  0.846128  0.153954  0.249983  1
  Pt  Pt26  1  0.844781  0.846425  0.750981  1
  Pt  Pt27  1  0.153278  0.155379  0.749803  1
  Pt  Pt28  1  0.152677  0.846830  0.249833  1
  Pt  Pt29  1  0.653529  0.346514  0.750003  1
  Pt  Pt30  1  0.655161  0.654280  0.249464  1
  Pt  Pt31  1  0.345765  0.345296  0.250340  1
