# generated using pymatgen
data_Zr6FeSi12Rh5
_symmetry_space_group_name_H-M   'P 1'
_cell_length_a   9.97796687
_cell_length_b   9.96698601
_cell_length_c   9.95963401
_cell_angle_alpha   148.63520112
_cell_angle_beta   133.69114963
_cell_angle_gamma   57.04297030
_symmetry_Int_Tables_number   1
_chemical_formula_structural   Zr6FeSi12Rh5
_chemical_formula_sum   'Zr6 Fe1 Si12 Rh5'
_cell_volume   369.99649298
_cell_formula_units_Z   1
loop_
 _symmetry_equiv_pos_site_id
 _symmetry_equiv_pos_as_xyz
  1  'x, y, z'
loop_
 _atom_site_type_symbol
 _atom_site_label
 _atom_site_symmetry_multiplicity
 _atom_site_fract_x
 _atom_site_fract_y
 _atom_site_fract_z
 _atom_site_occupancy
  Zr  Zr0  1  0.848540  0.594294  0.254209  1
  Zr  Zr1  1  0.151460  0.405706  0.745791  1
  Zr  Zr2  1  0.660069  0.402541  0.251914  1
  Zr  Zr3  1  0.339931  0.597459  0.748086  1
  Zr  Zr4  1  0.137952  0.140114  0.999877  1
  Zr  Zr5  1  0.862048  0.859886  0.000123  1
  Fe  Fe6  1  0.000000  0.000000  0.500000  1
  Si  Si7  1  0.488565  0.140956  0.356862  1
  Si  Si8  1  0.511435  0.859044  0.643138  1
  Si  Si9  1  0.210881  0.871964  0.365578  1
  Si  Si10  1  0.789119  0.128036  0.634422  1
  Si  Si11  1  0.709059  0.722210  0.025237  1
  Si  Si12  1  0.290941  0.277790  0.974763  1
  Si  Si13  1  0.499119  0.719232  0.219191  1
  Si  Si14  1  0.500881  0.280768  0.780809  1
  Si  Si15  1  0.000062  0.271940  0.271992  1
  Si  Si16  1  0.202112  0.719277  0.505876  1
  Si  Si17  1  0.999938  0.728060  0.728008  1
  Si  Si18  1  0.797888  0.280723  0.494124  1
  Rh  Rh19  1  0.745575  0.999874  0.742235  1
  Rh  Rh20  1  0.500000  0.500000  0.500000  1
  Rh  Rh21  1  0.500000  0.000000  0.000000  1
  Rh  Rh22  1  0.254425  0.000126  0.257765  1
  Rh  Rh23  1  0.000000  0.500000  0.000000  1
