# generated using pymatgen
data_HfZrMn3Re
_symmetry_space_group_name_H-M   'P 1'
_cell_length_a   5.11037254
_cell_length_b   5.11037209
_cell_length_c   5.02549484
_cell_angle_alpha   59.43970056
_cell_angle_beta   59.43971550
_cell_angle_gamma   59.99998470
_symmetry_Int_Tables_number   1
_chemical_formula_structural   HfZrMn3Re
_chemical_formula_sum   'Hf1 Zr1 Mn3 Re1'
_cell_volume   92.01073949
_cell_formula_units_Z   1
loop_
 _symmetry_equiv_pos_site_id
 _symmetry_equiv_pos_as_xyz
  1  'x, y, z'
loop_
 _atom_site_type_symbol
 _atom_site_label
 _atom_site_symmetry_multiplicity
 _atom_site_fract_x
 _atom_site_fract_y
 _atom_site_fract_z
 _atom_site_occupancy
  Hf  Hf0  1  0.250347  0.250347  0.248961  1
  Zr  Zr1  1  0.999882  0.999882  0.000354  1
  Mn  Mn2  1  0.624749  0.125401  0.625101  1
  Mn  Mn3  1  0.125401  0.624749  0.625101  1
  Mn  Mn4  1  0.624749  0.624749  0.625101  1
  Re  Re5  1  0.624873  0.624873  0.125380  1
