# generated using pymatgen
data_Hf4Fe9P12Ru11
_symmetry_space_group_name_H-M   'P 1'
_cell_length_a   3.75118100
_cell_length_b   10.40806664
_cell_length_c   11.97951825
_cell_angle_alpha   90.09618792
_cell_angle_beta   90.00000000
_cell_angle_gamma   90.00000000
_symmetry_Int_Tables_number   1
_chemical_formula_structural   Hf4Fe9P12Ru11
_chemical_formula_sum   'Hf4 Fe9 P12 Ru11'
_cell_volume   467.71018330
_cell_formula_units_Z   1
loop_
 _symmetry_equiv_pos_site_id
 _symmetry_equiv_pos_as_xyz
  1  'x, y, z'
loop_
 _atom_site_type_symbol
 _atom_site_label
 _atom_site_symmetry_multiplicity
 _atom_site_fract_x
 _atom_site_fract_y
 _atom_site_fract_z
 _atom_site_occupancy
  Hf  Hf0  1  0.250000  0.579716  0.708375  1
  Hf  Hf1  1  0.250000  0.916605  0.210832  1
  Hf  Hf2  1  0.750000  0.422665  0.292061  1
  Hf  Hf3  1  0.750000  0.079320  0.790840  1
  Fe  Fe4  1  0.750000  0.728093  0.325061  1
  Fe  Fe5  1  0.250000  0.883136  0.698789  1
  Fe  Fe6  1  0.250000  0.621124  0.201787  1
  Fe  Fe7  1  0.750000  0.112506  0.299321  1
  Fe  Fe8  1  0.750000  0.385038  0.799247  1
  Fe  Fe9  1  0.250000  0.462591  0.934965  1
  Fe  Fe10  1  0.250000  0.037023  0.432644  1
  Fe  Fe11  1  0.750000  0.538622  0.068043  1
  Fe  Fe12  1  0.750000  0.961756  0.564265  1
  P  P13  1  0.250000  0.434880  0.115858  1
  P  P14  1  0.250000  0.066871  0.613231  1
  P  P15  1  0.750000  0.567502  0.886855  1
  P  P16  1  0.750000  0.925375  0.383532  1
  P  P17  1  0.250000  0.269773  0.865764  1
  P  P18  1  0.250000  0.230221  0.365667  1
  P  P19  1  0.750000  0.730195  0.142602  1
  P  P20  1  0.750000  0.769943  0.633939  1
  P  P21  1  0.250000  0.604483  0.382756  1
  P  P22  1  0.250000  0.898647  0.884641  1
  P  P23  1  0.750000  0.400883  0.614088  1
  P  P24  1  0.750000  0.099827  0.115583  1
  Ru  Ru25  1  0.250000  0.706084  0.991084  1
  Ru  Ru26  1  0.250000  0.795594  0.484929  1
  Ru  Ru27  1  0.750000  0.294060  0.009130  1
  Ru  Ru28  1  0.750000  0.205650  0.508088  1
  Ru  Ru29  1  0.250000  0.407491  0.478488  1
  Ru  Ru30  1  0.250000  0.093081  0.979161  1
  Ru  Ru31  1  0.750000  0.596551  0.517714  1
  Ru  Ru32  1  0.750000  0.903910  0.023723  1
  Ru  Ru33  1  0.250000  0.230535  0.177174  1
  Ru  Ru34  1  0.250000  0.270091  0.676351  1
  Ru  Ru35  1  0.750000  0.770158  0.823414  1
