# generated using pymatgen
data_Lu5P12Ru16Pt3
_symmetry_space_group_name_H-M   'P 1'
_cell_length_a   12.55540500
_cell_length_b   12.55540639
_cell_length_c   3.96635100
_cell_angle_alpha   90.00000000
_cell_angle_beta   90.00000000
_cell_angle_gamma   119.99999898
_symmetry_Int_Tables_number   1
_chemical_formula_structural   Lu5P12Ru16Pt3
_chemical_formula_sum   'Lu5 P12 Ru16 Pt3'
_cell_volume   541.48107331
_cell_formula_units_Z   1
loop_
 _symmetry_equiv_pos_site_id
 _symmetry_equiv_pos_as_xyz
  1  'x, y, z'
loop_
 _atom_site_type_symbol
 _atom_site_label
 _atom_site_symmetry_multiplicity
 _atom_site_fract_x
 _atom_site_fract_y
 _atom_site_fract_z
 _atom_site_occupancy
  Lu  Lu0  1  0.181493  0.181493  0.500000  1
  Lu  Lu1  1  0.818507  0.000000  0.500000  1
  Lu  Lu2  1  0.000000  0.818507  0.500000  1
  Lu  Lu3  1  0.333333  0.666667  0.000000  1
  Lu  Lu4  1  0.666667  0.333333  0.000000  1
  P  P5  1  0.816209  0.816209  0.000000  1
  P  P6  1  0.183791  0.000000  0.000000  1
  P  P7  1  0.000000  0.183791  0.000000  1
  P  P8  1  0.180435  0.481230  0.500000  1
  P  P9  1  0.518770  0.699206  0.500000  1
  P  P10  1  0.300794  0.819565  0.500000  1
  P  P11  1  0.699206  0.518770  0.500000  1
  P  P12  1  0.819565  0.300794  0.500000  1
  P  P13  1  0.481230  0.180435  0.500000  1
  P  P14  1  0.364446  0.364446  0.000000  1
  P  P15  1  0.635554  0.000000  0.000000  1
  P  P16  1  0.000000  0.635554  0.000000  1
  Ru  Ru17  1  0.712229  0.712229  0.500000  1
  Ru  Ru18  1  0.287771  0.000000  0.500000  1
  Ru  Ru19  1  0.000000  0.287771  0.500000  1
  Ru  Ru20  1  0.185127  0.377779  0.000000  1
  Ru  Ru21  1  0.622221  0.807348  0.000000  1
  Ru  Ru22  1  0.192652  0.814873  0.000000  1
  Ru  Ru23  1  0.807348  0.622221  0.000000  1
  Ru  Ru24  1  0.814873  0.192652  0.000000  1
  Ru  Ru25  1  0.377779  0.185127  0.000000  1
  Ru  Ru26  1  0.369020  0.494669  0.500000  1
  Ru  Ru27  1  0.505331  0.874350  0.500000  1
  Ru  Ru28  1  0.125650  0.630980  0.500000  1
  Ru  Ru29  1  0.874350  0.505331  0.500000  1
  Ru  Ru30  1  0.630980  0.125650  0.500000  1
  Ru  Ru31  1  0.494669  0.369020  0.500000  1
  Ru  Ru32  1  0.000000  0.000000  0.000000  1
  Pt  Pt33  1  0.551533  0.551533  0.000000  1
  Pt  Pt34  1  0.448467  0.000000  0.000000  1
  Pt  Pt35  1  0.000000  0.448467  0.000000  1
