# generated using pymatgen
data_Y2ThAlIn2Pd3
_symmetry_space_group_name_H-M   'P 1'
_cell_length_a   7.59932670
_cell_length_b   7.59932767
_cell_length_c   3.98236600
_cell_angle_alpha   90.00000000
_cell_angle_beta   90.00000000
_cell_angle_gamma   120.45282535
_symmetry_Int_Tables_number   1
_chemical_formula_structural   Y2ThAlIn2Pd3
_chemical_formula_sum   'Y2 Th1 Al1 In2 Pd3'
_cell_volume   198.25414562
_cell_formula_units_Z   1
loop_
 _symmetry_equiv_pos_site_id
 _symmetry_equiv_pos_as_xyz
  1  'x, y, z'
loop_
 _atom_site_type_symbol
 _atom_site_label
 _atom_site_symmetry_multiplicity
 _atom_site_fract_x
 _atom_site_fract_y
 _atom_site_fract_z
 _atom_site_occupancy
  Y  Y0  1  0.590903  0.994549  0.500000  1
  Y  Y1  1  0.994549  0.590903  0.500000  1
  Th  Th2  1  0.419684  0.419684  0.500000  1
  Al  Al3  1  0.761252  0.761252  0.000000  1
  In  In4  1  0.251382  0.989679  0.000000  1
  In  In5  1  0.989679  0.251382  0.000000  1
  Pd  Pd6  1  0.662467  0.347850  0.000000  1
  Pd  Pd7  1  0.347850  0.662467  0.000000  1
  Pd  Pd8  1  0.982234  0.982234  0.500000  1
