# generated using pymatgen
data_HoEr3Co8(PRu)12
_symmetry_space_group_name_H-M   'P 1'
_cell_length_a   3.78033000
_cell_length_b   10.61625101
_cell_length_c   12.07924701
_cell_angle_alpha   90.00354961
_cell_angle_beta   90.00000000
_cell_angle_gamma   90.00000000
_symmetry_Int_Tables_number   1
_chemical_formula_structural   HoEr3Co8(PRu)12
_chemical_formula_sum   'Ho1 Er3 Co8 P12 Ru12'
_cell_volume   484.77559972
_cell_formula_units_Z   1
loop_
 _symmetry_equiv_pos_site_id
 _symmetry_equiv_pos_as_xyz
  1  'x, y, z'
loop_
 _atom_site_type_symbol
 _atom_site_label
 _atom_site_symmetry_multiplicity
 _atom_site_fract_x
 _atom_site_fract_y
 _atom_site_fract_z
 _atom_site_occupancy
  Ho  Ho0  1  0.250000  0.584567  0.706676  1
  Er  Er1  1  0.250000  0.915438  0.206679  1
  Er  Er2  1  0.750000  0.415405  0.293364  1
  Er  Er3  1  0.750000  0.084530  0.793352  1
  Co  Co4  1  0.250000  0.888327  0.696165  1
  Co  Co5  1  0.250000  0.611731  0.196203  1
  Co  Co6  1  0.750000  0.111736  0.303815  1
  Co  Co7  1  0.750000  0.388097  0.803964  1
  Co  Co8  1  0.250000  0.462801  0.934895  1
  Co  Co9  1  0.250000  0.037128  0.434753  1
  Co  Co10  1  0.750000  0.537126  0.065331  1
  Co  Co11  1  0.750000  0.962961  0.565154  1
  P  P12  1  0.250000  0.425805  0.113277  1
  P  P13  1  0.250000  0.074175  0.613179  1
  P  P14  1  0.750000  0.574233  0.887060  1
  P  P15  1  0.750000  0.925855  0.386749  1
  P  P16  1  0.250000  0.271275  0.871608  1
  P  P17  1  0.250000  0.228693  0.371596  1
  P  P18  1  0.750000  0.728763  0.128378  1
  P  P19  1  0.750000  0.771481  0.628295  1
  P  P20  1  0.250000  0.600624  0.386461  1
  P  P21  1  0.250000  0.899336  0.886467  1
  P  P22  1  0.750000  0.399139  0.613400  1
  P  P23  1  0.750000  0.100663  0.113526  1
  Ru  Ru24  1  0.250000  0.706271  0.986446  1
  Ru  Ru25  1  0.250000  0.793758  0.486435  1
  Ru  Ru26  1  0.750000  0.293680  0.013571  1
  Ru  Ru27  1  0.750000  0.206222  0.513503  1
  Ru  Ru28  1  0.250000  0.405555  0.485411  1
  Ru  Ru29  1  0.250000  0.094368  0.985462  1
  Ru  Ru30  1  0.750000  0.594388  0.514214  1
  Ru  Ru31  1  0.750000  0.905644  0.014572  1
  Ru  Ru32  1  0.250000  0.224102  0.180952  1
  Ru  Ru33  1  0.250000  0.275815  0.680945  1
  Ru  Ru34  1  0.750000  0.776145  0.819134  1
  Ru  Ru35  1  0.750000  0.724160  0.319009  1
