# generated using pymatgen
data_Ba4Pr8V3Cr5O28
_symmetry_space_group_name_H-M   'P 1'
_cell_length_a   5.67423100
_cell_length_b   5.66157498
_cell_length_c   20.40553302
_cell_angle_alpha   90.03103040
_cell_angle_beta   90.05871329
_cell_angle_gamma   90.00114704
_symmetry_Int_Tables_number   1
_chemical_formula_structural   Ba4Pr8V3Cr5O28
_chemical_formula_sum   'Ba4 Pr8 V3 Cr5 O28'
_cell_volume   655.52902785
_cell_formula_units_Z   1
loop_
 _symmetry_equiv_pos_site_id
 _symmetry_equiv_pos_as_xyz
  1  'x, y, z'
loop_
 _atom_site_type_symbol
 _atom_site_label
 _atom_site_symmetry_multiplicity
 _atom_site_fract_x
 _atom_site_fract_y
 _atom_site_fract_z
 _atom_site_occupancy
  Ba  Ba0  1  0.252879  0.253209  0.998378  1
  Ba  Ba1  1  0.746897  0.745892  0.998452  1
  Ba  Ba2  1  0.751942  0.244925  0.501120  1
  Ba  Ba3  1  0.244854  0.752292  0.501124  1
  Pr  Pr4  1  0.269279  0.267157  0.182585  1
  Pr  Pr5  1  0.731860  0.734560  0.182742  1
  Pr  Pr6  1  0.768644  0.236332  0.318355  1
  Pr  Pr7  1  0.236029  0.767840  0.318435  1
  Pr  Pr8  1  0.764259  0.235484  0.681922  1
  Pr  Pr9  1  0.235302  0.764014  0.681910  1
  Pr  Pr10  1  0.264279  0.264146  0.817705  1
  Pr  Pr11  1  0.735215  0.735549  0.817654  1
  V  V12  1  0.752770  0.248700  0.099887  1
  V  V13  1  0.248272  0.752379  0.100217  1
  V  V14  1  0.253656  0.253335  0.400803  1
  Cr  Cr15  1  0.749389  0.749134  0.399882  1
  Cr  Cr16  1  0.251773  0.251763  0.600699  1
  Cr  Cr17  1  0.747265  0.747314  0.600309  1
  Cr  Cr18  1  0.752124  0.247584  0.899092  1
  Cr  Cr19  1  0.247740  0.752076  0.899162  1
  O  O20  1  0.768102  0.228542  0.998502  1
  O  O21  1  0.230365  0.770292  0.998073  1
  O  O22  1  0.501082  0.501197  0.096714  1
  O  O23  1  0.499715  0.000273  0.108254  1
  O  O24  1  0.001111  0.500720  0.109225  1
  O  O25  1  0.000178  0.000552  0.120667  1
  O  O26  1  0.707123  0.292150  0.205785  1
  O  O27  1  0.294669  0.708751  0.206111  1
  O  O28  1  0.208175  0.208919  0.294472  1
  O  O29  1  0.789335  0.788770  0.295920  1
  O  O30  1  0.502361  0.502157  0.380542  1
  O  O31  1  0.500985  0.001055  0.391281  1
  O  O32  1  0.001018  0.500782  0.391490  1
  O  O33  1  0.999088  0.999344  0.402886  1
  O  O34  1  0.268135  0.268550  0.501917  1
  O  O35  1  0.727546  0.727906  0.500178  1
  O  O36  1  0.999211  0.999309  0.599145  1
  O  O37  1  0.499790  0.999593  0.609424  1
  O  O38  1  0.999487  0.499818  0.609343  1
  O  O39  1  0.499677  0.499694  0.618965  1
  O  O40  1  0.213376  0.213709  0.704299  1
  O  O41  1  0.785714  0.785382  0.704096  1
  O  O42  1  0.713538  0.285732  0.795366  1
  O  O43  1  0.286128  0.713663  0.795298  1
  O  O44  1  0.999892  0.999970  0.880681  1
  O  O45  1  0.499935  0.999898  0.890209  1
  O  O46  1  0.999782  0.499791  0.890250  1
  O  O47  1  0.500050  0.499785  0.900471  1
