# generated using pymatgen
data_LiNd3Rh2Au3
_symmetry_space_group_name_H-M   'P 1'
_cell_length_a   7.60042300
_cell_length_b   7.60042291
_cell_length_c   3.76738300
_cell_angle_alpha   90.00000000
_cell_angle_beta   90.00000000
_cell_angle_gamma   120.00000476
_symmetry_Int_Tables_number   1
_chemical_formula_structural   LiNd3Rh2Au3
_chemical_formula_sum   'Li1 Nd3 Rh2 Au3'
_cell_volume   188.47159514
_cell_formula_units_Z   1
loop_
 _symmetry_equiv_pos_site_id
 _symmetry_equiv_pos_as_xyz
  1  'x, y, z'
loop_
 _atom_site_type_symbol
 _atom_site_label
 _atom_site_symmetry_multiplicity
 _atom_site_fract_x
 _atom_site_fract_y
 _atom_site_fract_z
 _atom_site_occupancy
  Li  Li0  1  0.000000  0.000000  0.499999  1
  Nd  Nd1  1  0.417412  0.000000  0.499999  1
  Nd  Nd2  1  0.000000  0.417411  0.499999  1
  Nd  Nd3  1  0.582589  0.582588  0.499999  1
  Rh  Rh4  1  0.666668  0.333334  0.000000  1
  Rh  Rh5  1  0.333333  0.666667  0.000000  1
  Au  Au6  1  0.756898  0.000000  0.000000  1
  Au  Au7  1  0.243103  0.243102  0.000000  1
  Au  Au8  1  0.000000  0.756898  0.000000  1
