# generated using pymatgen
data_Pr7Y10Tm3Sn16
_symmetry_space_group_name_H-M   'P 1'
_cell_length_a   8.11462517
_cell_length_b   8.29744457
_cell_length_c   15.66965310
_cell_angle_alpha   90.02609267
_cell_angle_beta   90.27852915
_cell_angle_gamma   89.68240374
_symmetry_Int_Tables_number   1
_chemical_formula_structural   Pr7Y10Tm3Sn16
_chemical_formula_sum   'Pr7 Y10 Tm3 Sn16'
_cell_volume   1055.01919615
_cell_formula_units_Z   1
loop_
 _symmetry_equiv_pos_site_id
 _symmetry_equiv_pos_as_xyz
  1  'x, y, z'
loop_
 _atom_site_type_symbol
 _atom_site_label
 _atom_site_symmetry_multiplicity
 _atom_site_fract_x
 _atom_site_fract_y
 _atom_site_fract_z
 _atom_site_occupancy
  Pr  Pr0  1  0.014261  0.178716  0.598425  1
  Pr  Pr1  1  0.486174  0.677697  0.403290  1
  Pr  Pr2  1  0.985585  0.821252  0.096195  1
  Pr  Pr3  1  0.484196  0.676618  0.096371  1
  Pr  Pr4  1  0.986327  0.822214  0.403344  1
  Pr  Pr5  1  0.512923  0.322602  0.595994  1
  Pr  Pr6  1  0.014258  0.179117  0.902952  1
  Y  Y7  1  0.360365  0.835727  0.876448  1
  Y  Y8  1  0.857327  0.663945  0.623428  1
  Y  Y9  1  0.641144  0.164215  0.376156  1
  Y  Y10  1  0.138218  0.337164  0.121725  1
  Y  Y11  1  0.638472  0.164206  0.123126  1
  Y  Y12  1  0.141103  0.335887  0.377012  1
  Y  Y13  1  0.359473  0.836863  0.625083  1
  Y  Y14  1  0.860921  0.662988  0.878168  1
  Y  Y15  1  0.520211  0.322525  0.901935  1
  Y  Y16  1  0.193965  0.500985  0.751065  1
  Tm  Tm17  1  0.693350  0.997319  0.750771  1
  Tm  Tm18  1  0.805253  0.497861  0.249432  1
  Tm  Tm19  1  0.306223  0.002693  0.249632  1
  Sn  Sn20  1  0.304949  0.040089  0.041829  1
  Sn  Sn21  1  0.804993  0.459044  0.457622  1
  Sn  Sn22  1  0.694009  0.960977  0.542785  1
  Sn  Sn23  1  0.203994  0.535516  0.956281  1
  Sn  Sn24  1  0.693953  0.962970  0.956864  1
  Sn  Sn25  1  0.194119  0.542794  0.542078  1
  Sn  Sn26  1  0.306226  0.039695  0.458128  1
  Sn  Sn27  1  0.797900  0.457048  0.040577  1
  Sn  Sn28  1  0.559859  0.621615  0.750748  1
  Sn  Sn29  1  0.056850  0.876702  0.750565  1
  Sn  Sn30  1  0.440486  0.377061  0.249638  1
  Sn  Sn31  1  0.942111  0.124811  0.249214  1
  Sn  Sn32  1  0.328179  0.145465  0.752419  1
  Sn  Sn33  1  0.820264  0.356308  0.750931  1
  Sn  Sn34  1  0.676234  0.856038  0.249785  1
  Sn  Sn35  1  0.176123  0.643271  0.249986  1
