# generated using pymatgen
data_Zn3(HN4)2
_symmetry_space_group_name_H-M   'P 1'
_cell_length_a   3.41572500
_cell_length_b   7.58426697
_cell_length_c   12.06735151
_cell_angle_alpha   96.80565894
_cell_angle_beta   77.22921074
_cell_angle_gamma   86.80136180
_symmetry_Int_Tables_number   1
_chemical_formula_structural   Zn3(HN4)2
_chemical_formula_sum   'Zn3 H2 N8'
_cell_volume   301.64532202
_cell_formula_units_Z   1
loop_
 _symmetry_equiv_pos_site_id
 _symmetry_equiv_pos_as_xyz
  1  'x, y, z'
loop_
 _atom_site_type_symbol
 _atom_site_label
 _atom_site_symmetry_multiplicity
 _atom_site_fract_x
 _atom_site_fract_y
 _atom_site_fract_z
 _atom_site_occupancy
  Zn  Zn0  1  0.793219  0.936167  0.628473  1
  Zn  Zn1  1  0.293551  0.568960  0.616723  1
  Zn  Zn2  1  0.187921  0.291727  0.694612  1
  H  H3  1  0.422045  0.793754  0.491062  1
  H  H4  1  0.624029  0.141883  0.806693  1
  N  N5  1  0.640282  0.792571  0.913480  1
  N  N6  1  0.347429  0.812472  0.579463  1
  N  N7  1  0.402663  0.057464  0.304739  1
  N  N8  1  0.909039  0.445702  0.132848  1
  N  N9  1  0.906068  0.574430  0.187999  1
  N  N10  1  0.469219  0.034785  0.209365  1
  N  N11  1  0.667887  0.643943  0.899130  1
  N  N12  1  0.683005  0.170632  0.723622  1
