# generated using pymatgen
data_LaNd2Th(Al3Ir)6
_symmetry_space_group_name_H-M   'P 1'
_cell_length_a   7.64095408
_cell_length_b   7.64172374
_cell_length_c   9.59459700
_cell_angle_alpha   90.00000000
_cell_angle_beta   90.00000000
_cell_angle_gamma   119.39915091
_symmetry_Int_Tables_number   1
_chemical_formula_structural   LaNd2Th(Al3Ir)6
_chemical_formula_sum   'La1 Nd2 Th1 Al18 Ir6'
_cell_volume   488.08340173
_cell_formula_units_Z   1
loop_
 _symmetry_equiv_pos_site_id
 _symmetry_equiv_pos_as_xyz
  1  'x, y, z'
loop_
 _atom_site_type_symbol
 _atom_site_label
 _atom_site_symmetry_multiplicity
 _atom_site_fract_x
 _atom_site_fract_y
 _atom_site_fract_z
 _atom_site_occupancy
  La  La0  1  0.671755  0.994429  0.250000  1
  Nd  Nd1  1  0.003669  0.328910  0.750000  1
  Nd  Nd2  1  0.329250  0.004187  0.750000  1
  Th  Th3  1  0.995252  0.671594  0.250000  1
  Al  Al4  1  0.135122  0.133944  0.250000  1
  Al  Al5  1  0.870157  0.871294  0.750000  1
  Al  Al6  1  0.004172  0.334351  0.072542  1
  Al  Al7  1  0.997446  0.664365  0.922677  1
  Al  Al8  1  0.997446  0.664365  0.577323  1
  Al  Al9  1  0.337201  0.005174  0.427615  1
  Al  Al10  1  0.004172  0.334351  0.427458  1
  Al  Al11  1  0.664647  0.998156  0.575235  1
  Al  Al12  1  0.664647  0.998156  0.924765  1
  Al  Al13  1  0.337201  0.005174  0.072385  1
  Al  Al14  1  0.333119  0.333124  0.548583  1
  Al  Al15  1  0.663519  0.664395  0.456562  1
  Al  Al16  1  0.663519  0.664395  0.043438  1
  Al  Al17  1  0.333119  0.333124  0.951417  1
  Al  Al18  1  0.340169  0.544585  0.250000  1
  Al  Al19  1  0.658473  0.451850  0.750000  1
  Al  Al20  1  0.545066  0.341694  0.250000  1
  Al  Al21  1  0.451569  0.660153  0.750000  1
  Ir  Ir22  1  0.672646  0.330783  0.001287  1
  Ir  Ir23  1  0.327009  0.670657  0.001319  1
  Ir  Ir24  1  0.327009  0.670657  0.498681  1
  Ir  Ir25  1  0.672646  0.330783  0.498713  1
  Ir  Ir26  1  0.000001  0.997675  0.001994  1
  Ir  Ir27  1  0.000001  0.997675  0.498006  1
