# generated using pymatgen
data_Sr2Cu2Pt5
_symmetry_space_group_name_H-M   'P 1'
_cell_length_a   13.23957341
_cell_length_b   13.23957350
_cell_length_c   13.23957480
_cell_angle_alpha   24.03309880
_cell_angle_beta   24.03309839
_cell_angle_gamma   24.03310173
_symmetry_Int_Tables_number   1
_chemical_formula_structural   Sr2Cu2Pt5
_chemical_formula_sum   'Sr4 Cu4 Pt10'
_cell_volume   338.23856090
_cell_formula_units_Z   2
loop_
 _symmetry_equiv_pos_site_id
 _symmetry_equiv_pos_as_xyz
  1  'x, y, z'
loop_
 _atom_site_type_symbol
 _atom_site_label
 _atom_site_symmetry_multiplicity
 _atom_site_fract_x
 _atom_site_fract_y
 _atom_site_fract_z
 _atom_site_occupancy
  Sr  Sr0  1  0.949332  0.949332  0.949332  1
  Sr  Sr1  1  0.050668  0.050668  0.050668  1
  Sr  Sr2  1  0.851269  0.851269  0.851269  1
  Sr  Sr3  1  0.148731  0.148731  0.148731  1
  Cu  Cu4  1  0.720619  0.720619  0.720619  1
  Cu  Cu5  1  0.279381  0.279381  0.279381  1
  Cu  Cu6  1  0.612973  0.612973  0.612973  1
  Cu  Cu7  1  0.387027  0.387027  0.387027  1
  Pt  Pt8  1  0.500000  0.500000  0.500000  1
  Pt  Pt9  1  0.500000  0.500000  0.000000  1
  Pt  Pt10  1  0.000000  0.500000  0.500000  1
  Pt  Pt11  1  0.500000  0.000000  0.500000  1
  Pt  Pt12  1  0.391478  0.893684  0.391478  1
  Pt  Pt13  1  0.391478  0.391478  0.893684  1
  Pt  Pt14  1  0.893684  0.391478  0.391478  1
  Pt  Pt15  1  0.608522  0.106316  0.608522  1
  Pt  Pt16  1  0.608522  0.608522  0.106316  1
  Pt  Pt17  1  0.106316  0.608522  0.608522  1
