# generated using pymatgen
data_Cs8YbSnI12
_symmetry_space_group_name_H-M   'P 1'
_cell_length_a   10.59920792
_cell_length_b   10.59920786
_cell_length_c   10.59920942
_cell_angle_alpha   88.85445091
_cell_angle_beta   88.85444949
_cell_angle_gamma   88.85444959
_symmetry_Int_Tables_number   1
_chemical_formula_structural   Cs8YbSnI12
_chemical_formula_sum   'Cs8 Yb1 Sn1 I12'
_cell_volume   1190.04459571
_cell_formula_units_Z   1
loop_
 _symmetry_equiv_pos_site_id
 _symmetry_equiv_pos_as_xyz
  1  'x, y, z'
loop_
 _atom_site_type_symbol
 _atom_site_label
 _atom_site_symmetry_multiplicity
 _atom_site_fract_x
 _atom_site_fract_y
 _atom_site_fract_z
 _atom_site_occupancy
  Cs  Cs0  1  0.249595  0.249595  0.249595  1
  Cs  Cs1  1  0.750405  0.750405  0.750405  1
  Cs  Cs2  1  0.869755  0.630884  0.250620  1
  Cs  Cs3  1  0.630884  0.250620  0.869755  1
  Cs  Cs4  1  0.250620  0.869755  0.630884  1
  Cs  Cs5  1  0.130245  0.369116  0.749380  1
  Cs  Cs6  1  0.369116  0.749380  0.130245  1
  Cs  Cs7  1  0.749380  0.130245  0.369116  1
  Yb  Yb8  1  0.500000  0.500000  0.500000  1
  Sn  Sn9  1  0.000000  0.000000  0.000000  1
  I  I10  1  0.215281  0.557533  0.433049  1
  I  I11  1  0.058825  0.708251  0.931473  1
  I  I12  1  0.931473  0.058825  0.708251  1
  I  I13  1  0.784719  0.442467  0.566951  1
  I  I14  1  0.708251  0.931473  0.058825  1
  I  I15  1  0.442467  0.566951  0.784719  1
  I  I16  1  0.566951  0.784719  0.442467  1
  I  I17  1  0.557533  0.433049  0.215281  1
  I  I18  1  0.068527  0.941175  0.291749  1
  I  I19  1  0.941175  0.291749  0.068527  1
  I  I20  1  0.291749  0.068527  0.941175  1
  I  I21  1  0.433049  0.215281  0.557533  1
