# generated using pymatgen
data_Tb5Er11(ZnCo)4
_symmetry_space_group_name_H-M   'P 1'
_cell_length_a   9.30581473
_cell_length_b   9.29712298
_cell_length_c   9.29799000
_cell_angle_alpha   60.00508427
_cell_angle_beta   59.97293313
_cell_angle_gamma   59.97094254
_symmetry_Int_Tables_number   1
_chemical_formula_structural   Tb5Er11(ZnCo)4
_chemical_formula_sum   'Tb5 Er11 Zn4 Co4'
_cell_volume   568.60331127
_cell_formula_units_Z   1
loop_
 _symmetry_equiv_pos_site_id
 _symmetry_equiv_pos_as_xyz
  1  'x, y, z'
loop_
 _atom_site_type_symbol
 _atom_site_label
 _atom_site_symmetry_multiplicity
 _atom_site_fract_x
 _atom_site_fract_y
 _atom_site_fract_z
 _atom_site_occupancy
  Tb  Tb0  1  0.811049  0.188859  0.188979  1
  Tb  Tb1  1  0.811858  0.187972  0.811209  1
  Tb  Tb2  1  0.188997  0.811084  0.188111  1
  Tb  Tb3  1  0.811829  0.811181  0.188074  1
  Tb  Tb4  1  0.189021  0.188021  0.811109  1
  Er  Er5  1  0.599511  0.600080  0.600035  1
  Er  Er6  1  0.599832  0.600034  0.200438  1
  Er  Er7  1  0.599799  0.200530  0.599996  1
  Er  Er8  1  0.200272  0.600185  0.600144  1
  Er  Er9  1  0.060002  0.439921  0.439863  1
  Er  Er10  1  0.439872  0.060116  0.060155  1
  Er  Er11  1  0.439488  0.059744  0.440431  1
  Er  Er12  1  0.060234  0.440458  0.059890  1
  Er  Er13  1  0.439446  0.440467  0.059821  1
  Er  Er14  1  0.060235  0.059868  0.440434  1
  Er  Er15  1  0.189149  0.810861  0.810764  1
  Zn  Zn16  1  0.827165  0.826788  0.826721  1
  Zn  Zn17  1  0.826648  0.826746  0.519959  1
  Zn  Zn18  1  0.826669  0.519948  0.826706  1
  Zn  Zn19  1  0.519310  0.826786  0.826724  1
  Co  Co20  1  0.391871  0.391754  0.391773  1
  Co  Co21  1  0.391565  0.392381  0.824494  1
  Co  Co22  1  0.391572  0.824465  0.392396  1
  Co  Co23  1  0.824607  0.391753  0.391773  1
