# generated using pymatgen
data_Mg3Zn(WO3)8
_symmetry_space_group_name_H-M   'P 1'
_cell_length_a   6.64720615
_cell_length_b   6.63172923
_cell_length_c   10.71434000
_cell_angle_alpha   71.97536207
_cell_angle_beta   71.92704197
_cell_angle_gamma   90.00191649
_symmetry_Int_Tables_number   1
_chemical_formula_structural   Mg3Zn(WO3)8
_chemical_formula_sum   'Mg3 Zn1 W8 O24'
_cell_volume   424.56008321
_cell_formula_units_Z   1
loop_
 _symmetry_equiv_pos_site_id
 _symmetry_equiv_pos_as_xyz
  1  'x, y, z'
loop_
 _atom_site_type_symbol
 _atom_site_label
 _atom_site_symmetry_multiplicity
 _atom_site_fract_x
 _atom_site_fract_y
 _atom_site_fract_z
 _atom_site_occupancy
  Mg  Mg0  1  0.250209  0.750192  0.499556  1
  Mg  Mg1  1  0.749791  0.249808  0.500445  1
  Mg  Mg2  1  0.500002  0.500008  0.000002  1
  Zn  Zn3  1  0.999998  0.000001  0.999998  1
  W  W4  1  0.418048  0.918091  0.163800  1
  W  W5  1  0.917647  0.417692  0.164647  1
  W  W6  1  0.082354  0.582304  0.835354  1
  W  W7  1  0.581951  0.081911  0.836199  1
  W  W8  1  0.168663  0.168554  0.662811  1
  W  W9  1  0.667914  0.667884  0.664224  1
  W  W10  1  0.332085  0.332115  0.335776  1
  W  W11  1  0.831338  0.831444  0.337188  1
  O  O12  1  0.558609  0.749725  0.500515  1
  O  O13  1  0.059133  0.250240  0.499516  1
  O  O14  1  0.940866  0.749763  0.500486  1
  O  O15  1  0.441393  0.250278  0.499482  1
  O  O16  1  0.500016  0.190953  0.000003  1
  O  O17  1  0.000014  0.691116  0.999995  1
  O  O18  1  0.499986  0.809046  0.999996  1
  O  O19  1  0.999985  0.308882  0.000005  1
  O  O20  1  0.703809  0.911854  0.176393  1
  O  O21  1  0.206247  0.413364  0.173377  1
  O  O22  1  0.119734  0.911829  0.176382  1
  O  O23  1  0.620347  0.413312  0.173369  1
  O  O24  1  0.793759  0.586641  0.826619  1
  O  O25  1  0.296187  0.088140  0.823609  1
  O  O26  1  0.379654  0.586682  0.826635  1
  O  O27  1  0.880265  0.088175  0.823614  1
  O  O28  1  0.163466  0.869667  0.673077  1
  O  O29  1  0.663401  0.370250  0.673193  1
  O  O30  1  0.163495  0.457168  0.673099  1
  O  O31  1  0.663461  0.956511  0.673199  1
  O  O32  1  0.336591  0.629750  0.326808  1
  O  O33  1  0.836540  0.130331  0.326925  1
  O  O34  1  0.336532  0.043491  0.326799  1
  O  O35  1  0.836512  0.542830  0.326901  1
