# generated using pymatgen
data_Pa2Fe7CoB8
_symmetry_space_group_name_H-M   'P 1'
_cell_length_a   5.07557400
_cell_length_b   5.05614353
_cell_length_c   6.94505771
_cell_angle_alpha   90.05198955
_cell_angle_beta   90.00000000
_cell_angle_gamma   90.00000000
_symmetry_Int_Tables_number   1
_chemical_formula_structural   Pa2Fe7CoB8
_chemical_formula_sum   'Pa2 Fe7 Co1 B8'
_cell_volume   178.22976622
_cell_formula_units_Z   1
loop_
 _symmetry_equiv_pos_site_id
 _symmetry_equiv_pos_as_xyz
  1  'x, y, z'
loop_
 _atom_site_type_symbol
 _atom_site_label
 _atom_site_symmetry_multiplicity
 _atom_site_fract_x
 _atom_site_fract_y
 _atom_site_fract_z
 _atom_site_occupancy
  Pa  Pa0  1  0.000000  0.000088  0.999601  1
  Pa  Pa1  1  0.500000  0.502697  0.500569  1
  Fe  Fe2  1  0.257939  0.498396  0.864021  1
  Fe  Fe3  1  0.742061  0.498396  0.864021  1
  Fe  Fe4  1  0.000000  0.759465  0.364137  1
  Fe  Fe5  1  0.000000  0.243338  0.366184  1
  Fe  Fe6  1  0.241716  0.000880  0.635311  1
  Fe  Fe7  1  0.758284  0.000880  0.635311  1
  Fe  Fe8  1  0.500000  0.742232  0.135805  1
  Co  Co9  1  0.500000  0.253238  0.136218  1
  B  B10  1  0.828121  0.499725  0.158354  1
  B  B11  1  0.171879  0.499725  0.158354  1
  B  B12  1  0.000000  0.327414  0.658623  1
  B  B13  1  0.000000  0.673328  0.658324  1
  B  B14  1  0.673582  0.000944  0.342640  1
  B  B15  1  0.326418  0.000944  0.342640  1
  B  B16  1  0.500000  0.172340  0.839467  1
  B  B17  1  0.500000  0.825970  0.840419  1
