# generated using pymatgen
data_KGe6(Sb3Pt2)2
_symmetry_space_group_name_H-M   'P 1'
_cell_length_a   7.91813378
_cell_length_b   7.92946859
_cell_length_c   7.91813555
_cell_angle_alpha   109.46889766
_cell_angle_beta   109.50569796
_cell_angle_gamma   109.38123113
_symmetry_Int_Tables_number   1
_chemical_formula_structural   KGe6(Sb3Pt2)2
_chemical_formula_sum   'K1 Ge6 Sb6 Pt4'
_cell_volume   382.98093088
_cell_formula_units_Z   1
loop_
 _symmetry_equiv_pos_site_id
 _symmetry_equiv_pos_as_xyz
  1  'x, y, z'
loop_
 _atom_site_type_symbol
 _atom_site_label
 _atom_site_symmetry_multiplicity
 _atom_site_fract_x
 _atom_site_fract_y
 _atom_site_fract_z
 _atom_site_occupancy
  K  K0  1  0.009455  0.002635  0.993181  1
  Ge  Ge1  1  0.146437  0.341026  0.492753  1
  Ge  Ge2  1  0.517430  0.163512  0.360681  1
  Ge  Ge3  1  0.848274  0.341026  0.194589  1
  Ge  Ge4  1  0.636672  0.475899  0.839229  1
  Ge  Ge5  1  0.356928  0.202250  0.845323  1
  Ge  Ge6  1  0.802831  0.163512  0.646083  1
  Sb  Sb7  1  0.840874  0.642340  0.487597  1
  Sb  Sb8  1  0.341334  0.489368  0.148034  1
  Sb  Sb9  1  0.197766  0.857286  0.346714  1
  Sb  Sb10  1  0.154742  0.642340  0.801466  1
  Sb  Sb11  1  0.657200  0.807694  0.150494  1
  Sb  Sb12  1  0.510570  0.857286  0.659519  1
  Pt  Pt13  1  0.006596  0.018466  0.518292  1
  Pt  Pt14  1  0.492549  0.488446  0.508279  1
  Pt  Pt15  1  0.980166  0.488446  0.995896  1
  Pt  Pt16  1  0.500175  0.018466  0.011872  1
