# generated using pymatgen
data_NdGa2Ni2Pd
_symmetry_space_group_name_H-M   'P 1'
_cell_length_a   9.06755100
_cell_length_b   9.06755030
_cell_length_c   4.19568400
_cell_angle_alpha   90.00000000
_cell_angle_beta   90.00000000
_cell_angle_gamma   119.99999889
_symmetry_Int_Tables_number   1
_chemical_formula_structural   NdGa2Ni2Pd
_chemical_formula_sum   'Nd3 Ga6 Ni6 Pd3'
_cell_volume   298.75376606
_cell_formula_units_Z   3
loop_
 _symmetry_equiv_pos_site_id
 _symmetry_equiv_pos_as_xyz
  1  'x, y, z'
loop_
 _atom_site_type_symbol
 _atom_site_label
 _atom_site_symmetry_multiplicity
 _atom_site_fract_x
 _atom_site_fract_y
 _atom_site_fract_z
 _atom_site_occupancy
  Nd  Nd0  1  0.333333  0.666667  0.500000  1
  Nd  Nd1  1  0.666667  0.333333  0.500000  1
  Nd  Nd2  1  0.000000  0.000000  0.000000  1
  Ga  Ga3  1  0.460233  0.000000  0.000000  1
  Ga  Ga4  1  0.000000  0.460233  0.000000  1
  Ga  Ga5  1  0.539767  0.539767  0.000000  1
  Ga  Ga6  1  0.715037  0.000000  0.500000  1
  Ga  Ga7  1  0.000000  0.715037  0.500000  1
  Ga  Ga8  1  0.284963  0.284963  0.500000  1
  Ni  Ni9  1  0.224456  0.385929  0.000000  1
  Ni  Ni10  1  0.614071  0.838527  0.000000  1
  Ni  Ni11  1  0.161473  0.775544  0.000000  1
  Ni  Ni12  1  0.838527  0.614071  0.000000  1
  Ni  Ni13  1  0.775544  0.161473  0.000000  1
  Ni  Ni14  1  0.385929  0.224456  0.000000  1
  Pd  Pd15  1  0.281840  0.000000  0.500000  1
  Pd  Pd16  1  0.000000  0.281840  0.500000  1
  Pd  Pd17  1  0.718160  0.718160  0.500000  1
