# generated using pymatgen
data_K8HfAs4
_symmetry_space_group_name_H-M   'P 1'
_cell_length_a   11.00499454
_cell_length_b   11.00499480
_cell_length_c   11.00499700
_cell_angle_alpha   60.00000241
_cell_angle_beta   60.00000163
_cell_angle_gamma   60.00000360
_symmetry_Int_Tables_number   1
_chemical_formula_structural   K8HfAs4
_chemical_formula_sum   'K16 Hf2 As8'
_cell_volume   942.44199310
_cell_formula_units_Z   2
loop_
 _symmetry_equiv_pos_site_id
 _symmetry_equiv_pos_as_xyz
  1  'x, y, z'
loop_
 _atom_site_type_symbol
 _atom_site_label
 _atom_site_symmetry_multiplicity
 _atom_site_fract_x
 _atom_site_fract_y
 _atom_site_fract_z
 _atom_site_occupancy
  K  K0  1  0.625000  0.625000  0.125000  1
  K  K1  1  0.625000  0.125000  0.625000  1
  K  K2  1  0.125000  0.625000  0.625000  1
  K  K3  1  0.625000  0.625000  0.625000  1
  K  K4  1  0.028897  0.471103  0.471103  1
  K  K5  1  0.778897  0.221103  0.221103  1
  K  K6  1  0.471103  0.028897  0.471103  1
  K  K7  1  0.471103  0.471103  0.028897  1
  K  K8  1  0.028897  0.028897  0.471103  1
  K  K9  1  0.028897  0.471103  0.028897  1
  K  K10  1  0.471103  0.028897  0.028897  1
  K  K11  1  0.778897  0.221103  0.778897  1
  K  K12  1  0.221103  0.778897  0.221103  1
  K  K13  1  0.221103  0.221103  0.778897  1
  K  K14  1  0.778897  0.778897  0.221103  1
  K  K15  1  0.221103  0.778897  0.778897  1
  Hf  Hf16  1  0.750000  0.750000  0.750000  1
  Hf  Hf17  1  0.500000  0.500000  0.500000  1
  As  As18  1  0.848901  0.848901  0.453297  1
  As  As19  1  0.848901  0.453297  0.848901  1
  As  As20  1  0.401099  0.401099  0.796703  1
  As  As21  1  0.401099  0.796703  0.401099  1
  As  As22  1  0.796703  0.401099  0.401099  1
  As  As23  1  0.848901  0.848901  0.848901  1
  As  As24  1  0.453297  0.848901  0.848901  1
  As  As25  1  0.401099  0.401099  0.401099  1
