# generated using pymatgen
data_Gd2Al16TcPt8
_symmetry_space_group_name_H-M   'P 1'
_cell_length_a   11.21430590
_cell_length_b   11.21430627
_cell_length_c   11.21430700
_cell_angle_alpha   158.43091174
_cell_angle_beta   116.62624510
_cell_angle_gamma   67.78126210
_symmetry_Int_Tables_number   1
_chemical_formula_structural   Gd2Al16TcPt8
_chemical_formula_sum   'Gd2 Al16 Tc1 Pt8'
_cell_volume   460.26649898
_cell_formula_units_Z   1
loop_
 _symmetry_equiv_pos_site_id
 _symmetry_equiv_pos_as_xyz
  1  'x, y, z'
loop_
 _atom_site_type_symbol
 _atom_site_label
 _atom_site_symmetry_multiplicity
 _atom_site_fract_x
 _atom_site_fract_y
 _atom_site_fract_z
 _atom_site_occupancy
  Gd  Gd0  1  0.230507  0.230525  0.999983  1
  Gd  Gd1  1  0.769458  0.769475  0.999983  1
  Al  Al2  1  0.274479  0.391456  0.883022  1
  Al  Al3  1  0.089098  0.923465  0.165632  1
  Al  Al4  1  0.506449  0.201287  0.305161  1
  Al  Al5  1  0.242166  0.076535  0.165632  1
  Al  Al6  1  0.907598  0.415607  0.491991  1
  Al  Al7  1  0.723718  0.598899  0.124820  1
  Al  Al8  1  0.901240  0.208746  0.692495  1
  Al  Al9  1  0.483749  0.791254  0.692495  1
  Al  Al10  1  0.387379  0.000000  0.387379  1
  Al  Al11  1  0.626974  0.000000  0.626974  1
  Al  Al12  1  0.491567  0.608544  0.883022  1
  Al  Al13  1  0.103874  0.798713  0.305161  1
  Al  Al14  1  0.907153  0.085737  0.821416  1
  Al  Al15  1  0.735680  0.914263  0.821416  1
  Al  Al16  1  0.525920  0.401101  0.124820  1
  Al  Al17  1  0.076384  0.584393  0.491991  1
  Tc  Tc18  1  0.785042  0.500000  0.285042  1
  Pt  Pt19  1  0.025331  0.343479  0.681852  1
  Pt  Pt20  1  0.627122  0.124625  0.502497  1
  Pt  Pt21  1  0.252852  0.500000  0.752852  1
  Pt  Pt22  1  0.377871  0.875375  0.502497  1
  Pt  Pt23  1  0.985696  0.000000  0.985696  1
  Pt  Pt24  1  0.647629  0.335468  0.312160  1
  Pt  Pt25  1  0.338373  0.656521  0.681852  1
  Pt  Pt26  1  0.976691  0.664532  0.312160  1
