# generated using pymatgen
data_TbYb(Ga4Ni)2
_symmetry_space_group_name_H-M   'P 1'
_cell_length_a   7.91256059
_cell_length_b   7.91255976
_cell_length_c   6.55650700
_cell_angle_alpha   90.00000000
_cell_angle_beta   90.00000000
_cell_angle_gamma   149.74639183
_symmetry_Int_Tables_number   1
_chemical_formula_structural   TbYb(Ga4Ni)2
_chemical_formula_sum   'Tb1 Yb1 Ga8 Ni2'
_cell_volume   206.81841430
_cell_formula_units_Z   1
loop_
 _symmetry_equiv_pos_site_id
 _symmetry_equiv_pos_as_xyz
  1  'x, y, z'
loop_
 _atom_site_type_symbol
 _atom_site_label
 _atom_site_symmetry_multiplicity
 _atom_site_fract_x
 _atom_site_fract_y
 _atom_site_fract_z
 _atom_site_occupancy
  Tb  Tb0  1  0.621721  0.378279  0.750000  1
  Yb  Yb1  1  0.376766  0.623234  0.250000  1
  Ga  Ga2  1  0.186412  0.813588  0.448032  1
  Ga  Ga3  1  0.816344  0.183656  0.548731  1
  Ga  Ga4  1  0.999266  0.000734  0.003392  1
  Ga  Ga5  1  0.999266  0.000734  0.496608  1
  Ga  Ga6  1  0.568572  0.431428  0.250000  1
  Ga  Ga7  1  0.429823  0.570177  0.750000  1
  Ga  Ga8  1  0.186412  0.813588  0.051968  1
  Ga  Ga9  1  0.816344  0.183656  0.951269  1
  Ni  Ni10  1  0.722560  0.277440  0.250000  1
  Ni  Ni11  1  0.276515  0.723485  0.750000  1
