# generated using pymatgen
data_HfZr3Ta2(B2Ru5)2
_symmetry_space_group_name_H-M   'P 1'
_cell_length_a   9.50077443
_cell_length_b   9.50077443
_cell_length_c   3.11011700
_cell_angle_alpha   90.00000000
_cell_angle_beta   90.00000000
_cell_angle_gamma   90.08190820
_symmetry_Int_Tables_number   1
_chemical_formula_structural   HfZr3Ta2(B2Ru5)2
_chemical_formula_sum   'Hf1 Zr3 Ta2 B4 Ru10'
_cell_volume   280.73353687
_cell_formula_units_Z   1
loop_
 _symmetry_equiv_pos_site_id
 _symmetry_equiv_pos_as_xyz
  1  'x, y, z'
loop_
 _atom_site_type_symbol
 _atom_site_label
 _atom_site_symmetry_multiplicity
 _atom_site_fract_x
 _atom_site_fract_y
 _atom_site_fract_z
 _atom_site_occupancy
  Hf  Hf0  1  0.675962  0.175962  0.000000  1
  Zr  Zr1  1  0.824012  0.675878  0.000000  1
  Zr  Zr2  1  0.175878  0.324012  0.000000  1
  Zr  Zr3  1  0.324370  0.824370  0.000000  1
  Ta  Ta4  1  0.500167  0.499596  0.000000  1
  Ta  Ta5  1  0.999596  0.000167  0.000000  1
  B  B6  1  0.621105  0.879069  0.000000  1
  B  B7  1  0.379069  0.121105  0.000000  1
  B  B8  1  0.121185  0.621185  0.000000  1
  B  B9  1  0.878507  0.378507  0.000000  1
  Ru  Ru10  1  0.570446  0.718356  0.500000  1
  Ru  Ru11  1  0.430467  0.281570  0.500000  1
  Ru  Ru12  1  0.070461  0.781744  0.500000  1
  Ru  Ru13  1  0.928444  0.217905  0.500000  1
  Ru  Ru14  1  0.281744  0.570461  0.500000  1
  Ru  Ru15  1  0.717905  0.428444  0.500000  1
  Ru  Ru16  1  0.218356  0.070446  0.500000  1
  Ru  Ru17  1  0.781570  0.930467  0.500000  1
  Ru  Ru18  1  0.500910  0.000910  0.500000  1
  Ru  Ru19  1  0.999845  0.499845  0.500000  1
