# generated using pymatgen
data_ScNb5B4Os3Ru7
_symmetry_space_group_name_H-M   'P 1'
_cell_length_a   9.46090552
_cell_length_b   9.51992623
_cell_length_c   3.04791900
_cell_angle_alpha   90.00000000
_cell_angle_beta   90.00000000
_cell_angle_gamma   89.85241976
_symmetry_Int_Tables_number   1
_chemical_formula_structural   ScNb5B4Os3Ru7
_chemical_formula_sum   'Sc1 Nb5 B4 Os3 Ru7'
_cell_volume   274.51638350
_cell_formula_units_Z   1
loop_
 _symmetry_equiv_pos_site_id
 _symmetry_equiv_pos_as_xyz
  1  'x, y, z'
loop_
 _atom_site_type_symbol
 _atom_site_label
 _atom_site_symmetry_multiplicity
 _atom_site_fract_x
 _atom_site_fract_y
 _atom_site_fract_z
 _atom_site_occupancy
  Sc  Sc0  1  0.824982  0.676679  0.000000  1
  Nb  Nb1  1  0.177193  0.323548  0.000000  1
  Nb  Nb2  1  0.324444  0.822498  0.000000  1
  Nb  Nb3  1  0.676414  0.176984  0.000000  1
  Nb  Nb4  1  0.501609  0.500989  0.000000  1
  Nb  Nb5  1  0.998181  0.000658  0.000000  1
  B  B6  1  0.622902  0.877207  0.000000  1
  B  B7  1  0.378485  0.121005  0.000000  1
  B  B8  1  0.118738  0.621405  0.000000  1
  B  B9  1  0.878921  0.380004  0.000000  1
  Os  Os10  1  0.564154  0.721969  0.500000  1
  Os  Os11  1  0.427231  0.280963  0.500000  1
  Os  Os12  1  0.077565  0.782296  0.500000  1
  Ru  Ru13  1  0.929536  0.218932  0.500000  1
  Ru  Ru14  1  0.281725  0.568021  0.500000  1
  Ru  Ru15  1  0.717544  0.423512  0.500000  1
  Ru  Ru16  1  0.217767  0.071116  0.500000  1
  Ru  Ru17  1  0.779520  0.935021  0.500000  1
  Ru  Ru18  1  0.499514  0.001688  0.500000  1
  Ru  Ru19  1  0.003572  0.495500  0.500000  1
