# generated using pymatgen
data_Tb3Y9ZnInCo4
_symmetry_space_group_name_H-M   'P 1'
_cell_length_a   8.37485909
_cell_length_b   8.38100155
_cell_length_c   8.37485724
_cell_angle_alpha   111.61115700
_cell_angle_beta   110.20785435
_cell_angle_gamma   106.60593745
_symmetry_Int_Tables_number   1
_chemical_formula_structural   Tb3Y9ZnInCo4
_chemical_formula_sum   'Tb3 Y9 Zn1 In1 Co4'
_cell_volume   451.76443021
_cell_formula_units_Z   1
loop_
 _symmetry_equiv_pos_site_id
 _symmetry_equiv_pos_as_xyz
  1  'x, y, z'
loop_
 _atom_site_type_symbol
 _atom_site_label
 _atom_site_symmetry_multiplicity
 _atom_site_fract_x
 _atom_site_fract_y
 _atom_site_fract_z
 _atom_site_occupancy
  Tb  Tb0  1  0.685351  0.379997  0.694648  1
  Tb  Tb1  1  0.314667  0.008108  0.693440  1
  Tb  Tb2  1  0.685217  0.990727  0.305511  1
  Y  Y3  1  0.424603  0.222809  0.200798  1
  Y  Y4  1  0.575398  0.776896  0.798543  1
  Y  Y5  1  0.022012  0.222809  0.798206  1
  Y  Y6  1  0.978353  0.776896  0.201499  1
  Y  Y7  1  0.185597  0.288089  0.473276  1
  Y  Y8  1  0.814379  0.711903  0.526447  1
  Y  Y9  1  0.185456  0.711903  0.897525  1
  Y  Y10  1  0.814811  0.288089  0.102490  1
  Y  Y11  1  0.314768  0.619312  0.304543  1
  Zn  Zn12  1  0.000112  0.000664  0.000553  1
  In  In13  1  0.499784  0.500168  0.000383  1
  Co  Co14  1  0.378955  0.001046  0.379475  1
  Co  Co15  1  0.621571  0.001046  0.622092  1
  Co  Co16  1  0.110779  0.611433  0.500652  1
  Co  Co17  1  0.888184  0.388105  0.499921  1
