# generated using pymatgen
data_Tm2Al6Si4Pt
_symmetry_space_group_name_H-M   'P 1'
_cell_length_a   4.15853932
_cell_length_b   4.15683460
_cell_length_c   16.91098036
_cell_angle_alpha   97.05968614
_cell_angle_beta   89.95034390
_cell_angle_gamma   119.98641750
_symmetry_Int_Tables_number   1
_chemical_formula_structural   Tm2Al6Si4Pt
_chemical_formula_sum   'Tm2 Al6 Si4 Pt1'
_cell_volume   250.65524707
_cell_formula_units_Z   1
loop_
 _symmetry_equiv_pos_site_id
 _symmetry_equiv_pos_as_xyz
  1  'x, y, z'
loop_
 _atom_site_type_symbol
 _atom_site_label
 _atom_site_symmetry_multiplicity
 _atom_site_fract_x
 _atom_site_fract_y
 _atom_site_fract_z
 _atom_site_occupancy
  Tm  Tm0  1  0.434008  0.868482  0.302955  1
  Tm  Tm1  1  0.565993  0.131519  0.697045  1
  Al  Al2  1  0.682644  0.365478  0.048314  1
  Al  Al3  1  0.051320  0.101818  0.152317  1
  Al  Al4  1  0.814314  0.629261  0.444208  1
  Al  Al5  1  0.185686  0.370740  0.555792  1
  Al  Al6  1  0.948680  0.898183  0.847683  1
  Al  Al7  1  0.317357  0.634522  0.951686  1
  Si  Si8  1  0.735324  0.470204  0.205084  1
  Si  Si9  1  0.134447  0.269151  0.403854  1
  Si  Si10  1  0.865553  0.730850  0.596147  1
  Si  Si11  1  0.264676  0.529797  0.794916  1
  Pt  Pt12  1  0.000000  0.000000  0.000000  1
