# generated using pymatgen
data_Sr2BeReN4
_symmetry_space_group_name_H-M   'P 1'
_cell_length_a   5.71661100
_cell_length_b   6.25472015
_cell_length_c   7.26791287
_cell_angle_alpha   67.15731284
_cell_angle_beta   90.00000000
_cell_angle_gamma   90.00000000
_symmetry_Int_Tables_number   1
_chemical_formula_structural   Sr2BeReN4
_chemical_formula_sum   'Sr4 Be2 Re2 N8'
_cell_volume   239.48953271
_cell_formula_units_Z   2
loop_
 _symmetry_equiv_pos_site_id
 _symmetry_equiv_pos_as_xyz
  1  'x, y, z'
loop_
 _atom_site_type_symbol
 _atom_site_label
 _atom_site_symmetry_multiplicity
 _atom_site_fract_x
 _atom_site_fract_y
 _atom_site_fract_z
 _atom_site_occupancy
  Sr  Sr0  1  0.250000  0.258187  0.057454  1
  Sr  Sr1  1  0.750000  0.741813  0.942546  1
  Sr  Sr2  1  0.750000  0.839184  0.412938  1
  Sr  Sr3  1  0.250000  0.160816  0.587062  1
  Be  Be4  1  0.750000  0.361860  0.383014  1
  Be  Be5  1  0.250000  0.638140  0.616986  1
  Re  Re6  1  0.250000  0.691187  0.222099  1
  Re  Re7  1  0.750000  0.308813  0.777901  1
  N  N8  1  0.485613  0.495252  0.721485  1
  N  N9  1  0.985613  0.504748  0.278515  1
  N  N10  1  0.514387  0.504748  0.278515  1
  N  N11  1  0.014387  0.495252  0.721485  1
  N  N12  1  0.750000  0.131508  0.607277  1
  N  N13  1  0.250000  0.868492  0.392723  1
  N  N14  1  0.750000  0.113718  0.037833  1
  N  N15  1  0.250000  0.886282  0.962167  1
