# generated using pymatgen
data_TbDy3Mn4(CuO5)4
_symmetry_space_group_name_H-M   'P 1'
_cell_length_a   5.65192200
_cell_length_b   7.52329610
_cell_length_c   8.47434211
_cell_angle_alpha   89.98133275
_cell_angle_beta   90.00000000
_cell_angle_gamma   90.00000000
_symmetry_Int_Tables_number   1
_chemical_formula_structural   TbDy3Mn4(CuO5)4
_chemical_formula_sum   'Tb1 Dy3 Mn4 Cu4 O20'
_cell_volume   360.33818300
_cell_formula_units_Z   1
loop_
 _symmetry_equiv_pos_site_id
 _symmetry_equiv_pos_as_xyz
  1  'x, y, z'
loop_
 _atom_site_type_symbol
 _atom_site_label
 _atom_site_symmetry_multiplicity
 _atom_site_fract_x
 _atom_site_fract_y
 _atom_site_fract_z
 _atom_site_occupancy
  Tb  Tb0  1  0.000000  0.351882  0.674189  1
  Dy  Dy1  1  0.000000  0.648556  0.325631  1
  Dy  Dy2  1  0.000000  0.851530  0.825757  1
  Dy  Dy3  1  0.000000  0.148391  0.174270  1
  Mn  Mn4  1  0.259609  0.500053  0.000113  1
  Mn  Mn5  1  0.740401  0.999870  0.499954  1
  Mn  Mn6  1  0.740391  0.500053  0.000113  1
  Mn  Mn7  1  0.259599  0.999870  0.499954  1
  Cu  Cu8  1  0.500000  0.071250  0.849851  1
  Cu  Cu9  1  0.500000  0.928549  0.150248  1
  Cu  Cu10  1  0.500000  0.571582  0.650238  1
  Cu  Cu11  1  0.500000  0.428626  0.349556  1
  O  O12  1  0.241684  0.904613  0.286711  1
  O  O13  1  0.242037  0.094751  0.713316  1
  O  O14  1  0.758337  0.404636  0.213287  1
  O  O15  1  0.757953  0.595792  0.786914  1
  O  O16  1  0.757963  0.094751  0.713316  1
  O  O17  1  0.758316  0.904613  0.286711  1
  O  O18  1  0.242047  0.595792  0.786914  1
  O  O19  1  0.241663  0.404636  0.213287  1
  O  O20  1  0.500000  0.347326  0.938493  1
  O  O21  1  0.500000  0.652699  0.061512  1
  O  O22  1  0.500000  0.847268  0.561435  1
  O  O23  1  0.500000  0.152703  0.438543  1
  O  O24  1  0.272394  0.000014  0.000025  1
  O  O25  1  0.727122  0.500340  0.499682  1
  O  O26  1  0.727606  0.000014  0.000025  1
  O  O27  1  0.272878  0.500340  0.499682  1
  O  O28  1  0.000000  0.164366  0.447809  1
  O  O29  1  0.000000  0.835149  0.551719  1
  O  O30  1  0.000000  0.664803  0.051720  1
  O  O31  1  0.000000  0.335183  0.949024  1
