# generated using pymatgen
data_Cs2Ge4O9
_symmetry_space_group_name_H-M   'P 1'
_cell_length_a   5.18073140
_cell_length_b   9.38209373
_cell_length_c   13.29629442
_cell_angle_alpha   69.26491005
_cell_angle_beta   89.68926784
_cell_angle_gamma   89.60498638
_symmetry_Int_Tables_number   1
_chemical_formula_structural   Cs2Ge4O9
_chemical_formula_sum   'Cs4 Ge8 O18'
_cell_volume   604.40235504
_cell_formula_units_Z   2
loop_
 _symmetry_equiv_pos_site_id
 _symmetry_equiv_pos_as_xyz
  1  'x, y, z'
loop_
 _atom_site_type_symbol
 _atom_site_label
 _atom_site_symmetry_multiplicity
 _atom_site_fract_x
 _atom_site_fract_y
 _atom_site_fract_z
 _atom_site_occupancy
  Cs  Cs0  1  0.247131  0.938671  0.146295  1
  Cs  Cs1  1  0.732449  0.567348  0.354767  1
  Cs  Cs2  1  0.267552  0.432652  0.645233  1
  Cs  Cs3  1  0.752870  0.061330  0.853704  1
  Ge  Ge4  1  0.698603  0.658329  0.061697  1
  Ge  Ge5  1  0.195558  0.435353  0.143670  1
  Ge  Ge6  1  0.202120  0.185936  0.394456  1
  Ge  Ge7  1  0.295415  0.828609  0.453137  1
  Ge  Ge8  1  0.704584  0.171390  0.546863  1
  Ge  Ge9  1  0.797879  0.814064  0.605544  1
  Ge  Ge10  1  0.804443  0.564648  0.856330  1
  Ge  Ge11  1  0.301400  0.341671  0.938302  1
  O  O12  1  0.268341  0.301111  0.081656  1
  O  O13  1  0.764691  0.812281  0.096139  1
  O  O14  1  0.362670  0.609625  0.094141  1
  O  O15  1  0.860598  0.479356  0.131674  1
  O  O16  1  0.267771  0.355020  0.283248  1
  O  O17  1  0.281277  0.024391  0.360974  1
  O  O18  1  0.219636  0.702277  0.392730  1
  O  O19  1  0.866944  0.183758  0.423498  1
  O  O20  1  0.370739  0.205568  0.503777  1
  O  O21  1  0.629262  0.794432  0.496222  1
  O  O22  1  0.133055  0.816242  0.576503  1
  O  O23  1  0.780365  0.297723  0.607269  1
  O  O24  1  0.718725  0.975609  0.639027  1
  O  O25  1  0.732230  0.644980  0.716751  1
  O  O26  1  0.139400  0.520644  0.868326  1
  O  O27  1  0.637330  0.390376  0.905858  1
  O  O28  1  0.235308  0.187720  0.903861  1
  O  O29  1  0.731658  0.698887  0.918345  1
