# generated using pymatgen
data_Sc7(NbSn2)5
_symmetry_space_group_name_H-M   'P 1'
_cell_length_a   10.78470532
_cell_length_b   10.81038546
_cell_length_c   10.81038499
_cell_angle_alpha   149.11381475
_cell_angle_beta   131.53169818
_cell_angle_gamma   58.60834706
_symmetry_Int_Tables_number   1
_chemical_formula_structural   Sc7(NbSn2)5
_chemical_formula_sum   'Sc7 Nb5 Sn10'
_cell_volume   480.50946193
_cell_formula_units_Z   1
loop_
 _symmetry_equiv_pos_site_id
 _symmetry_equiv_pos_as_xyz
  1  'x, y, z'
loop_
 _atom_site_type_symbol
 _atom_site_label
 _atom_site_symmetry_multiplicity
 _atom_site_fract_x
 _atom_site_fract_y
 _atom_site_fract_z
 _atom_site_occupancy
  Sc  Sc0  1  0.319592  0.563054  0.756538  1
  Sc  Sc1  1  0.197100  0.935804  0.261296  1
  Sc  Sc2  1  0.800309  0.064153  0.736156  1
  Sc  Sc3  1  0.258645  0.147787  0.110858  1
  Sc  Sc4  1  0.742011  0.853690  0.888321  1
  Sc  Sc5  1  0.035508  0.647048  0.388460  1
  Sc  Sc6  1  0.971026  0.355488  0.615538  1
  Nb  Nb7  1  0.310085  0.557260  0.252208  1
  Nb  Nb8  1  0.692607  0.442439  0.751485  1
  Nb  Nb9  1  0.692607  0.941122  0.250167  1
  Nb  Nb10  1  0.310085  0.057877  0.752825  1
  Nb  Nb11  1  0.671705  0.436711  0.234994  1
  Sn  Sn12  1  0.591293  0.290117  0.301175  1
  Sn  Sn13  1  0.416296  0.712256  0.704039  1
  Sn  Sn14  1  0.991000  0.788312  0.202688  1
  Sn  Sn15  1  0.011321  0.212084  0.799237  1
  Sn  Sn16  1  0.992049  0.248243  0.246009  1
  Sn  Sn17  1  0.992049  0.746040  0.743806  1
  Sn  Sn18  1  0.467084  0.070688  0.396395  1
  Sn  Sn19  1  0.534028  0.930653  0.603376  1
  Sn  Sn20  1  0.671085  0.569546  0.101539  1
  Sn  Sn21  1  0.332517  0.429629  0.902888  1
