# generated using pymatgen
data_Zr10AlZnSb6
_symmetry_space_group_name_H-M   'P 1'
_cell_length_a   8.68743600
_cell_length_b   8.68743527
_cell_length_c   5.88220800
_cell_angle_alpha   90.00000000
_cell_angle_beta   90.00000000
_cell_angle_gamma   119.99999518
_symmetry_Int_Tables_number   1
_chemical_formula_structural   Zr10AlZnSb6
_chemical_formula_sum   'Zr10 Al1 Zn1 Sb6'
_cell_volume   384.46271627
_cell_formula_units_Z   1
loop_
 _symmetry_equiv_pos_site_id
 _symmetry_equiv_pos_as_xyz
  1  'x, y, z'
loop_
 _atom_site_type_symbol
 _atom_site_label
 _atom_site_symmetry_multiplicity
 _atom_site_fract_x
 _atom_site_fract_y
 _atom_site_fract_z
 _atom_site_occupancy
  Zr  Zr0  1  0.730151  0.730151  0.750745  1
  Zr  Zr1  1  0.269849  0.000000  0.750745  1
  Zr  Zr2  1  0.000000  0.269849  0.750745  1
  Zr  Zr3  1  0.269849  0.269849  0.249255  1
  Zr  Zr4  1  0.730151  0.000000  0.249255  1
  Zr  Zr5  1  0.000000  0.730151  0.249255  1
  Zr  Zr6  1  0.666667  0.333333  0.000000  1
  Zr  Zr7  1  0.333333  0.666667  0.000000  1
  Zr  Zr8  1  0.333333  0.666667  0.500000  1
  Zr  Zr9  1  0.666667  0.333333  0.500000  1
  Al  Al10  1  0.000000  0.000000  0.500000  1
  Zn  Zn11  1  0.000000  0.000000  0.000000  1
  Sb  Sb12  1  0.386816  0.386816  0.749974  1
  Sb  Sb13  1  0.613184  0.000000  0.749974  1
  Sb  Sb14  1  0.000000  0.613184  0.749974  1
  Sb  Sb15  1  0.613184  0.613184  0.250026  1
  Sb  Sb16  1  0.386816  0.000000  0.250026  1
  Sb  Sb17  1  0.000000  0.386816  0.250026  1
