# generated using pymatgen
data_TbDy3(LuIn5)2
_symmetry_space_group_name_H-M   'P 1'
_cell_length_a   6.54170200
_cell_length_b   10.35476903
_cell_length_c   12.18682900
_cell_angle_alpha   90.00000000
_cell_angle_beta   90.00000000
_cell_angle_gamma   90.00406142
_symmetry_Int_Tables_number   1
_chemical_formula_structural   TbDy3(LuIn5)2
_chemical_formula_sum   'Tb2 Dy6 Lu4 In20'
_cell_volume   825.50914480
_cell_formula_units_Z   2
loop_
 _symmetry_equiv_pos_site_id
 _symmetry_equiv_pos_as_xyz
  1  'x, y, z'
loop_
 _atom_site_type_symbol
 _atom_site_label
 _atom_site_symmetry_multiplicity
 _atom_site_fract_x
 _atom_site_fract_y
 _atom_site_fract_z
 _atom_site_occupancy
  Tb  Tb0  1  0.887044  0.488929  0.141933  1
  Tb  Tb1  1  0.612956  0.011071  0.641933  1
  Dy  Dy2  1  0.112969  0.988975  0.858107  1
  Dy  Dy3  1  0.387031  0.511025  0.358107  1
  Dy  Dy4  1  0.112952  0.511020  0.858045  1
  Dy  Dy5  1  0.387048  0.988980  0.358045  1
  Dy  Dy6  1  0.887172  0.011063  0.141890  1
  Dy  Dy7  1  0.612828  0.488937  0.641890  1
  Lu  Lu8  1  0.352621  0.749935  0.052177  1
  Lu  Lu9  1  0.147379  0.750065  0.552177  1
  Lu  Lu10  1  0.647398  0.249940  0.947825  1
  Lu  Lu11  1  0.852602  0.250060  0.447825  1
  In  In12  1  0.610256  0.749699  0.505679  1
  In  In13  1  0.889744  0.750301  0.005679  1
  In  In14  1  0.389574  0.250091  0.494084  1
  In  In15  1  0.110426  0.249909  0.994084  1
  In  In16  1  0.649764  0.750144  0.241621  1
  In  In17  1  0.850236  0.749856  0.741621  1
  In  In18  1  0.349959  0.250013  0.758483  1
  In  In19  1  0.150041  0.249987  0.258483  1
  In  In20  1  0.118436  0.749963  0.277852  1
  In  In21  1  0.381564  0.750037  0.777852  1
  In  In22  1  0.881965  0.250271  0.722232  1
  In  In23  1  0.618035  0.249729  0.222232  1
  In  In24  1  0.871019  0.543041  0.401374  1
  In  In25  1  0.628981  0.956959  0.901374  1
  In  In26  1  0.128729  0.042974  0.598821  1
  In  In27  1  0.371271  0.457026  0.098821  1
  In  In28  1  0.128913  0.457105  0.598803  1
  In  In29  1  0.371087  0.042895  0.098803  1
  In  In30  1  0.871122  0.956972  0.401078  1
  In  In31  1  0.628878  0.543028  0.901078  1
