# generated using pymatgen
data_Pr8YLu3In20
_symmetry_space_group_name_H-M   'P 1'
_cell_length_a   6.68585212
_cell_length_b   10.54140300
_cell_length_c   12.47257622
_cell_angle_alpha   90.00000000
_cell_angle_beta   90.02144311
_cell_angle_gamma   90.00000000
_symmetry_Int_Tables_number   1
_chemical_formula_structural   Pr8YLu3In20
_chemical_formula_sum   'Pr8 Y1 Lu3 In20'
_cell_volume   879.04542754
_cell_formula_units_Z   1
loop_
 _symmetry_equiv_pos_site_id
 _symmetry_equiv_pos_as_xyz
  1  'x, y, z'
loop_
 _atom_site_type_symbol
 _atom_site_label
 _atom_site_symmetry_multiplicity
 _atom_site_fract_x
 _atom_site_fract_y
 _atom_site_fract_z
 _atom_site_occupancy
  Pr  Pr0  1  0.888837  0.489667  0.143829  1
  Pr  Pr1  1  0.610848  0.009889  0.644143  1
  Pr  Pr2  1  0.111250  0.989653  0.856233  1
  Pr  Pr3  1  0.388580  0.510201  0.356240  1
  Pr  Pr4  1  0.111250  0.510347  0.856233  1
  Pr  Pr5  1  0.388580  0.989799  0.356240  1
  Pr  Pr6  1  0.888837  0.010333  0.143829  1
  Pr  Pr7  1  0.610848  0.490111  0.644143  1
  Y  Y8  1  0.850157  0.250000  0.439749  1
  Lu  Lu9  1  0.349119  0.750000  0.060163  1
  Lu  Lu10  1  0.150954  0.750000  0.560207  1
  Lu  Lu11  1  0.650967  0.250000  0.939907  1
  In  In12  1  0.615701  0.750000  0.502695  1
  In  In13  1  0.884359  0.750000  0.002767  1
  In  In14  1  0.382768  0.250000  0.497635  1
  In  In15  1  0.115694  0.250000  0.997163  1
  In  In16  1  0.653659  0.750000  0.243177  1
  In  In17  1  0.846408  0.750000  0.743239  1
  In  In18  1  0.346412  0.250000  0.756950  1
  In  In19  1  0.155147  0.250000  0.255828  1
  In  In20  1  0.110504  0.750000  0.283764  1
  In  In21  1  0.389533  0.750000  0.783812  1
  In  In22  1  0.889373  0.250000  0.716626  1
  In  In23  1  0.610059  0.250000  0.215336  1
  In  In24  1  0.875003  0.545715  0.404707  1
  In  In25  1  0.624893  0.955381  0.904769  1
  In  In26  1  0.125035  0.044418  0.595383  1
  In  In27  1  0.375145  0.455311  0.095187  1
  In  In28  1  0.125035  0.455582  0.595383  1
  In  In29  1  0.375145  0.044689  0.095187  1
  In  In30  1  0.875003  0.954285  0.404707  1
  In  In31  1  0.624893  0.544619  0.904769  1
