# generated using pymatgen
data_Tb4Y6FeCoSb4
_symmetry_space_group_name_H-M   'P 1'
_cell_length_a   7.92773000
_cell_length_b   8.76518700
_cell_length_c   12.26822500
_cell_angle_alpha   90.00000000
_cell_angle_beta   90.00000000
_cell_angle_gamma   90.00000000
_symmetry_Int_Tables_number   1
_chemical_formula_structural   Tb4Y6FeCoSb4
_chemical_formula_sum   'Tb8 Y12 Fe2 Co2 Sb8'
_cell_volume   852.49485966
_cell_formula_units_Z   2
loop_
 _symmetry_equiv_pos_site_id
 _symmetry_equiv_pos_as_xyz
  1  'x, y, z'
loop_
 _atom_site_type_symbol
 _atom_site_label
 _atom_site_symmetry_multiplicity
 _atom_site_fract_x
 _atom_site_fract_y
 _atom_site_fract_z
 _atom_site_occupancy
  Tb  Tb0  1  0.822710  0.967015  0.063685  1
  Tb  Tb1  1  0.322710  0.032985  0.436315  1
  Tb  Tb2  1  0.178809  0.462313  0.935671  1
  Tb  Tb3  1  0.678809  0.537687  0.564329  1
  Tb  Tb4  1  0.178809  0.037687  0.935671  1
  Tb  Tb5  1  0.678809  0.962313  0.564329  1
  Tb  Tb6  1  0.822710  0.532985  0.063685  1
  Tb  Tb7  1  0.322710  0.467015  0.436315  1
  Y  Y8  1  0.155675  0.750000  0.205683  1
  Y  Y9  1  0.655675  0.250000  0.294317  1
  Y  Y10  1  0.846059  0.250000  0.796611  1
  Y  Y11  1  0.346059  0.750000  0.703389  1
  Y  Y12  1  0.453026  0.750000  0.996922  1
  Y  Y13  1  0.953026  0.250000  0.503078  1
  Y  Y14  1  0.546166  0.250000  0.002636  1
  Y  Y15  1  0.046166  0.750000  0.497364  1
  Y  Y16  1  0.623054  0.750000  0.304848  1
  Y  Y17  1  0.123054  0.250000  0.195152  1
  Y  Y18  1  0.376528  0.250000  0.695274  1
  Y  Y19  1  0.876528  0.750000  0.804726  1
  Fe  Fe20  1  0.427953  0.750000  0.487304  1
  Fe  Fe21  1  0.927953  0.250000  0.012696  1
  Co  Co22  1  0.569063  0.250000  0.510510  1
  Co  Co23  1  0.069063  0.750000  0.989490  1
  Sb  Sb24  1  0.927528  0.992103  0.327406  1
  Sb  Sb25  1  0.427528  0.007897  0.172594  1
  Sb  Sb26  1  0.072191  0.491902  0.672819  1
  Sb  Sb27  1  0.572191  0.508098  0.827181  1
  Sb  Sb28  1  0.072191  0.008098  0.672819  1
  Sb  Sb29  1  0.572191  0.991902  0.827181  1
  Sb  Sb30  1  0.927528  0.507897  0.327406  1
  Sb  Sb31  1  0.427528  0.492103  0.172594  1
