# generated using pymatgen
data_LaPr5Al24Ir5Os3
_symmetry_space_group_name_H-M   'P 1'
_cell_length_a   8.90804000
_cell_length_b   8.94502595
_cell_length_c   9.70219196
_cell_angle_alpha   90.14357822
_cell_angle_beta   90.00000000
_cell_angle_gamma   119.86330834
_symmetry_Int_Tables_number   1
_chemical_formula_structural   LaPr5Al24Ir5Os3
_chemical_formula_sum   'La1 Pr5 Al24 Ir5 Os3'
_cell_volume   670.43857422
_cell_formula_units_Z   1
loop_
 _symmetry_equiv_pos_site_id
 _symmetry_equiv_pos_as_xyz
  1  'x, y, z'
loop_
 _atom_site_type_symbol
 _atom_site_label
 _atom_site_symmetry_multiplicity
 _atom_site_fract_x
 _atom_site_fract_y
 _atom_site_fract_z
 _atom_site_occupancy
  La  La0  1  0.190363  0.380727  0.250155  1
  Pr  Pr1  1  0.809930  0.619859  0.749840  1
  Pr  Pr2  1  0.619108  0.811246  0.250471  1
  Pr  Pr3  1  0.380921  0.188439  0.749514  1
  Pr  Pr4  1  0.192138  0.811246  0.250471  1
  Pr  Pr5  1  0.807519  0.188439  0.749514  1
  Al  Al6  1  0.334134  0.668268  0.020045  1
  Al  Al7  1  0.666694  0.333387  0.977449  1
  Al  Al8  1  0.665978  0.331955  0.522581  1
  Al  Al9  1  0.334742  0.669486  0.479960  1
  Al  Al10  1  0.163699  0.327398  0.574181  1
  Al  Al11  1  0.836153  0.672308  0.426964  1
  Al  Al12  1  0.671909  0.837188  0.574367  1
  Al  Al13  1  0.836533  0.673067  0.073787  1
  Al  Al14  1  0.328759  0.162443  0.425992  1
  Al  Al15  1  0.163342  0.326684  0.925112  1
  Al  Al16  1  0.165279  0.837188  0.574367  1
  Al  Al17  1  0.328208  0.164177  0.074321  1
  Al  Al18  1  0.833683  0.162443  0.425992  1
  Al  Al19  1  0.672441  0.835301  0.925260  1
  Al  Al20  1  0.835968  0.164177  0.074321  1
  Al  Al21  1  0.162861  0.835301  0.925260  1
  Al  Al22  1  0.563570  0.127141  0.250757  1
  Al  Al23  1  0.436331  0.872661  0.749385  1
  Al  Al24  1  0.872509  0.437318  0.249759  1
  Al  Al25  1  0.125774  0.562229  0.750227  1
  Al  Al26  1  0.564808  0.437318  0.249759  1
  Al  Al27  1  0.436457  0.562229  0.750227  1
  Al  Al28  1  0.000175  0.000348  0.250047  1
  Al  Al29  1  0.999239  0.998479  0.749932  1
  Ir  Ir30  1  0.500236  0.000472  0.999417  1
  Ir  Ir31  1  0.000345  0.500332  0.000203  1
  Ir  Ir32  1  0.499988  0.500332  0.000203  1
  Ir  Ir33  1  0.000283  0.500323  0.499780  1
  Ir  Ir34  1  0.500040  0.500323  0.499780  1
  Os  Os35  1  0.500230  0.000461  0.500659  1
  Os  Os36  1  0.999822  0.999643  0.999656  1
  Os  Os37  1  0.999831  0.999662  0.500283  1
