# generated using pymatgen
data_Dy2Si5OsRu2
_symmetry_space_group_name_H-M   'P 1'
_cell_length_a   8.27121579
_cell_length_b   8.21932736
_cell_length_c   8.21851752
_cell_angle_alpha   139.83551294
_cell_angle_beta   108.51331396
_cell_angle_gamma   85.21717201
_symmetry_Int_Tables_number   1
_chemical_formula_structural   Dy2Si5OsRu2
_chemical_formula_sum   'Dy4 Si10 Os2 Ru4'
_cell_volume   329.92987679
_cell_formula_units_Z   2
loop_
 _symmetry_equiv_pos_site_id
 _symmetry_equiv_pos_as_xyz
  1  'x, y, z'
loop_
 _atom_site_type_symbol
 _atom_site_label
 _atom_site_symmetry_multiplicity
 _atom_site_fract_x
 _atom_site_fract_y
 _atom_site_fract_z
 _atom_site_occupancy
  Dy  Dy0  1  0.898163  0.133839  0.765955  1
  Dy  Dy1  1  0.102859  0.868488  0.236003  1
  Dy  Dy2  1  0.631966  0.361020  0.269846  1
  Dy  Dy3  1  0.367838  0.637423  0.729363  1
  Si  Si4  1  0.000170  0.749989  0.749888  1
  Si  Si5  1  0.000119  0.250572  0.250394  1
  Si  Si6  1  0.701589  0.441607  0.727428  1
  Si  Si7  1  0.297405  0.028317  0.741986  1
  Si  Si8  1  0.297340  0.554981  0.268315  1
  Si  Si9  1  0.701751  0.973035  0.259416  1
  Si  Si10  1  0.242365  0.409296  0.835361  1
  Si  Si11  1  0.572973  0.900357  0.671035  1
  Si  Si12  1  0.426384  0.098126  0.326380  1
  Si  Si13  1  0.758446  0.592438  0.167968  1
  Os  Os14  1  0.762950  0.849941  0.912599  1
  Os  Os15  1  0.500816  0.248730  0.748976  1
  Ru  Ru16  1  0.956112  0.356488  0.600017  1
  Ru  Ru17  1  0.044206  0.643739  0.400679  1
  Ru  Ru18  1  0.235668  0.149467  0.086053  1
  Ru  Ru19  1  0.500881  0.752148  0.252338  1
