# generated using pymatgen
data_Er3Mg4PaRh4
_symmetry_space_group_name_H-M   'P 1'
_cell_length_a   4.01798700
_cell_length_b   7.09411279
_cell_length_c   8.66088289
_cell_angle_alpha   91.21499028
_cell_angle_beta   90.00000000
_cell_angle_gamma   90.00000000
_symmetry_Int_Tables_number   1
_chemical_formula_structural   Er3Mg4PaRh4
_chemical_formula_sum   'Er3 Mg4 Pa1 Rh4'
_cell_volume   246.81476070
_cell_formula_units_Z   1
loop_
 _symmetry_equiv_pos_site_id
 _symmetry_equiv_pos_as_xyz
  1  'x, y, z'
loop_
 _atom_site_type_symbol
 _atom_site_label
 _atom_site_symmetry_multiplicity
 _atom_site_fract_x
 _atom_site_fract_y
 _atom_site_fract_z
 _atom_site_occupancy
  Er  Er0  1  0.750000  0.460382  0.818292  1
  Er  Er1  1  0.250000  0.035495  0.331321  1
  Er  Er2  1  0.750000  0.957164  0.679064  1
  Mg  Mg3  1  0.250000  0.139520  0.939068  1
  Mg  Mg4  1  0.750000  0.882513  0.060134  1
  Mg  Mg5  1  0.250000  0.629608  0.559329  1
  Mg  Mg6  1  0.750000  0.356839  0.445514  1
  Pa  Pa7  1  0.250000  0.543451  0.173648  1
  Rh  Rh8  1  0.750000  0.732836  0.349171  1
  Rh  Rh9  1  0.250000  0.236952  0.631055  1
  Rh  Rh10  1  0.750000  0.283811  0.129382  1
  Rh  Rh11  1  0.250000  0.741428  0.884023  1
