# generated using pymatgen
data_Tb2Si2NiRu
_symmetry_space_group_name_H-M   'P 1'
_cell_length_a   4.26544500
_cell_length_b   6.96772020
_cell_length_c   7.13206129
_cell_angle_alpha   91.49559483
_cell_angle_beta   90.00000000
_cell_angle_gamma   90.00000000
_symmetry_Int_Tables_number   1
_chemical_formula_structural   Tb2Si2NiRu
_chemical_formula_sum   'Tb4 Si4 Ni2 Ru2'
_cell_volume   211.89569891
_cell_formula_units_Z   2
loop_
 _symmetry_equiv_pos_site_id
 _symmetry_equiv_pos_as_xyz
  1  'x, y, z'
loop_
 _atom_site_type_symbol
 _atom_site_label
 _atom_site_symmetry_multiplicity
 _atom_site_fract_x
 _atom_site_fract_y
 _atom_site_fract_z
 _atom_site_occupancy
  Tb  Tb0  1  0.250000  0.487834  0.180429  1
  Tb  Tb1  1  0.750000  0.512166  0.819571  1
  Tb  Tb2  1  0.750000  0.012276  0.700272  1
  Tb  Tb3  1  0.250000  0.987724  0.299728  1
  Si  Si4  1  0.250000  0.805868  0.896828  1
  Si  Si5  1  0.750000  0.194132  0.103172  1
  Si  Si6  1  0.750000  0.697911  0.402899  1
  Si  Si7  1  0.250000  0.302089  0.597101  1
  Ni  Ni8  1  0.750000  0.837362  0.075721  1
  Ni  Ni9  1  0.250000  0.162638  0.924279  1
  Ru  Ru10  1  0.250000  0.653780  0.570753  1
  Ru  Ru11  1  0.750000  0.346220  0.429247  1
