# generated using pymatgen
data_Tm12Co4BiIr
_symmetry_space_group_name_H-M   'P 1'
_cell_length_a   8.24073717
_cell_length_b   8.24073674
_cell_length_c   8.24073665
_cell_angle_alpha   110.80221955
_cell_angle_beta   111.32510872
_cell_angle_gamma   106.33167223
_symmetry_Int_Tables_number   1
_chemical_formula_structural   Tm12Co4BiIr
_chemical_formula_sum   'Tm12 Co4 Bi1 Ir1'
_cell_volume   429.82774200
_cell_formula_units_Z   1
loop_
 _symmetry_equiv_pos_site_id
 _symmetry_equiv_pos_as_xyz
  1  'x, y, z'
loop_
 _atom_site_type_symbol
 _atom_site_label
 _atom_site_symmetry_multiplicity
 _atom_site_fract_x
 _atom_site_fract_y
 _atom_site_fract_z
 _atom_site_occupancy
  Tm  Tm0  1  0.284036  0.182218  0.466253  1
  Tm  Tm1  1  0.715964  0.817782  0.533747  1
  Tm  Tm2  1  0.284036  0.817782  0.101817  1
  Tm  Tm3  1  0.715964  0.182218  0.898183  1
  Tm  Tm4  1  0.620891  0.311507  0.309384  1
  Tm  Tm5  1  0.379109  0.688493  0.690616  1
  Tm  Tm6  1  0.002124  0.311507  0.690616  1
  Tm  Tm7  1  0.997876  0.688493  0.309384  1
  Tm  Tm8  1  0.213128  0.411445  0.198318  1
  Tm  Tm9  1  0.786872  0.588555  0.801682  1
  Tm  Tm10  1  0.213128  0.014810  0.801682  1
  Tm  Tm11  1  0.786872  0.985190  0.198318  1
  Co  Co12  1  0.000000  0.376546  0.376546  1
  Co  Co13  1  0.000000  0.623454  0.623454  1
  Co  Co14  1  0.388866  0.888866  0.500000  1
  Co  Co15  1  0.611134  0.111134  0.500000  1
  Bi  Bi16  1  0.500000  0.500000  0.000000  1
  Ir  Ir17  1  0.000000  0.000000  0.000000  1
