# generated using pymatgen
data_Sm8GaPd13Pt11
_symmetry_space_group_name_H-M   'P 1'
_cell_length_a   8.45081200
_cell_length_b   8.45604800
_cell_length_c   8.45197000
_cell_angle_alpha   90.00000000
_cell_angle_beta   90.00000000
_cell_angle_gamma   90.00000000
_symmetry_Int_Tables_number   1
_chemical_formula_structural   Sm8GaPd13Pt11
_chemical_formula_sum   'Sm8 Ga1 Pd13 Pt11'
_cell_volume   603.98176478
_cell_formula_units_Z   1
loop_
 _symmetry_equiv_pos_site_id
 _symmetry_equiv_pos_as_xyz
  1  'x, y, z'
loop_
 _atom_site_type_symbol
 _atom_site_label
 _atom_site_symmetry_multiplicity
 _atom_site_fract_x
 _atom_site_fract_y
 _atom_site_fract_z
 _atom_site_occupancy
  Sm  Sm0  1  0.252157  0.252126  0.252191  1
  Sm  Sm1  1  0.747588  0.748033  0.747797  1
  Sm  Sm2  1  0.747843  0.747874  0.252191  1
  Sm  Sm3  1  0.747588  0.251967  0.747797  1
  Sm  Sm4  1  0.252412  0.251967  0.747797  1
  Sm  Sm5  1  0.252157  0.747874  0.252191  1
  Sm  Sm6  1  0.252412  0.748033  0.747797  1
  Sm  Sm7  1  0.747843  0.252126  0.252191  1
  Ga  Ga8  1  0.000000  0.000000  0.000229  1
  Pd  Pd9  1  0.000000  0.500000  0.739439  1
  Pd  Pd10  1  0.252756  0.500000  0.499927  1
  Pd  Pd11  1  0.747244  0.500000  0.499927  1
  Pd  Pd12  1  0.500000  0.252897  0.500088  1
  Pd  Pd13  1  0.500000  0.747103  0.500088  1
  Pd  Pd14  1  0.500000  0.500000  0.252984  1
  Pd  Pd15  1  0.500000  0.500000  0.747148  1
  Pd  Pd16  1  0.293825  0.000000  0.999964  1
  Pd  Pd17  1  0.706175  0.000000  0.999964  1
  Pd  Pd18  1  0.000000  0.293938  0.000015  1
  Pd  Pd19  1  0.000000  0.706062  0.000015  1
  Pd  Pd20  1  0.000000  0.000000  0.293612  1
  Pd  Pd21  1  0.000000  0.000000  0.706043  1
  Pt  Pt22  1  0.260436  0.500000  0.000060  1
  Pt  Pt23  1  0.739564  0.500000  0.000060  1
  Pt  Pt24  1  0.000000  0.260602  0.499787  1
  Pt  Pt25  1  0.500000  0.260543  0.999942  1
  Pt  Pt26  1  0.000000  0.739398  0.499787  1
  Pt  Pt27  1  0.500000  0.739457  0.999942  1
  Pt  Pt28  1  0.500000  0.000000  0.260578  1
  Pt  Pt29  1  0.260486  0.000000  0.500088  1
  Pt  Pt30  1  0.500000  0.000000  0.739544  1
  Pt  Pt31  1  0.739514  0.000000  0.500088  1
  Pt  Pt32  1  0.000000  0.500000  0.260728  1
