# generated using pymatgen
data_Lu12CdTc2Ni2Sn
_symmetry_space_group_name_H-M   'P 1'
_cell_length_a   8.30051906
_cell_length_b   8.30051966
_cell_length_c   8.30051992
_cell_angle_alpha   113.90828006
_cell_angle_beta   110.82201420
_cell_angle_gamma   103.84287485
_symmetry_Int_Tables_number   1
_chemical_formula_structural   Lu12CdTc2Ni2Sn
_chemical_formula_sum   'Lu12 Cd1 Tc2 Ni2 Sn1'
_cell_volume   436.74744512
_cell_formula_units_Z   1
loop_
 _symmetry_equiv_pos_site_id
 _symmetry_equiv_pos_as_xyz
  1  'x, y, z'
loop_
 _atom_site_type_symbol
 _atom_site_label
 _atom_site_symmetry_multiplicity
 _atom_site_fract_x
 _atom_site_fract_y
 _atom_site_fract_z
 _atom_site_occupancy
  Lu  Lu0  1  0.666133  0.848963  0.182829  1
  Lu  Lu1  1  0.333867  0.516697  0.182829  1
  Lu  Lu2  1  0.816936  0.787571  0.604507  1
  Lu  Lu3  1  0.183064  0.787571  0.970635  1
  Lu  Lu4  1  0.816936  0.212429  0.029365  1
  Lu  Lu5  1  0.183064  0.212429  0.395493  1
  Lu  Lu6  1  0.666133  0.483303  0.817171  1
  Lu  Lu7  1  0.333867  0.151037  0.817171  1
  Lu  Lu8  1  0.559926  0.259581  0.300345  1
  Lu  Lu9  1  0.440074  0.740419  0.699655  1
  Lu  Lu10  1  0.040764  0.740419  0.300345  1
  Lu  Lu11  1  0.959236  0.259581  0.699655  1
  Cd  Cd12  1  0.000000  0.500000  0.500000  1
  Tc  Tc13  1  0.322680  0.500000  0.822680  1
  Tc  Tc14  1  0.677320  0.500000  0.177320  1
  Ni  Ni15  1  0.878405  0.878405  0.000000  1
  Ni  Ni16  1  0.121595  0.121595  0.000000  1
  Sn  Sn17  1  0.500000  0.000000  0.500000  1
