# generated using pymatgen
data_PaBiF8
_symmetry_space_group_name_H-M   'P 1'
_cell_length_a   8.46033091
_cell_length_b   8.49742980
_cell_length_c   8.39698449
_cell_angle_alpha   63.45238516
_cell_angle_beta   63.71497195
_cell_angle_gamma   80.51999441
_symmetry_Int_Tables_number   1
_chemical_formula_structural   PaBiF8
_chemical_formula_sum   'Pa3 Bi3 F24'
_cell_volume   483.76710166
_cell_formula_units_Z   3
loop_
 _symmetry_equiv_pos_site_id
 _symmetry_equiv_pos_as_xyz
  1  'x, y, z'
loop_
 _atom_site_type_symbol
 _atom_site_label
 _atom_site_symmetry_multiplicity
 _atom_site_fract_x
 _atom_site_fract_y
 _atom_site_fract_z
 _atom_site_occupancy
  Pa  Pa0  1  0.629356  0.776505  0.665648  1
  Pa  Pa1  1  0.786084  0.210402  0.755576  1
  Pa  Pa2  1  0.210867  0.786497  0.261352  1
  Bi  Bi3  1  0.365764  0.235554  0.336918  1
  Bi  Bi4  1  0.224282  0.361557  0.842191  1
  Bi  Bi5  1  0.778145  0.617580  0.170433  1
  F  F6  1  0.317847  0.258773  0.607940  1
  F  F7  1  0.684125  0.748760  0.401642  1
  F  F8  1  0.727354  0.681819  0.888485  1
  F  F9  1  0.262593  0.320955  0.104602  1
  F  F10  1  0.825344  0.943555  0.936349  1
  F  F11  1  0.184803  0.048166  0.048049  1
  F  F12  1  0.047987  0.176992  0.553706  1
  F  F13  1  0.930624  0.827484  0.462745  1
  F  F14  1  0.414736  0.605211  0.744725  1
  F  F15  1  0.605857  0.398713  0.244637  1
  F  F16  1  0.506123  0.990450  0.507447  1
  F  F17  1  0.999988  0.508622  0.993737  1
  F  F18  1  0.514982  0.243792  0.786878  1
  F  F19  1  0.487082  0.759389  0.201729  1
  F  F20  1  0.740228  0.498662  0.713623  1
  F  F21  1  0.257547  0.515594  0.283204  1
  F  F22  1  0.406104  0.808543  0.915326  1
  F  F23  1  0.618877  0.181194  0.053637  1
  F  F24  1  0.176833  0.613139  0.560114  1
  F  F25  1  0.812780  0.391855  0.444341  1
  F  F26  1  0.723219  0.022109  0.649691  1
  F  F27  1  0.262555  0.963732  0.353410  1
  F  F28  1  0.965500  0.276180  0.842327  1
  F  F29  1  0.032417  0.728219  0.169539  1
