# generated using pymatgen
data_Er3Lu7Bi6
_symmetry_space_group_name_H-M   'P 1'
_cell_length_a   8.17951100
_cell_length_b   9.38840200
_cell_length_c   11.91395900
_cell_angle_alpha   90.00000000
_cell_angle_beta   90.00000000
_cell_angle_gamma   90.00000000
_symmetry_Int_Tables_number   1
_chemical_formula_structural   Er3Lu7Bi6
_chemical_formula_sum   'Er6 Lu14 Bi12'
_cell_volume   914.90314246
_cell_formula_units_Z   2
loop_
 _symmetry_equiv_pos_site_id
 _symmetry_equiv_pos_as_xyz
  1  'x, y, z'
loop_
 _atom_site_type_symbol
 _atom_site_label
 _atom_site_symmetry_multiplicity
 _atom_site_fract_x
 _atom_site_fract_y
 _atom_site_fract_z
 _atom_site_occupancy
  Er  Er0  1  0.647421  0.250000  0.783100  1
  Er  Er1  1  0.852579  0.750000  0.283099  1
  Er  Er2  1  0.311864  0.250000  0.218122  1
  Er  Er3  1  0.188136  0.750000  0.718123  1
  Er  Er4  1  0.813616  0.250000  0.281963  1
  Er  Er5  1  0.686383  0.750000  0.781964  1
  Lu  Lu6  1  0.476159  0.250000  0.488960  1
  Lu  Lu7  1  0.023840  0.750000  0.988960  1
  Lu  Lu8  1  0.976769  0.250000  0.010537  1
  Lu  Lu9  1  0.523232  0.750000  0.510537  1
  Lu  Lu10  1  0.149254  0.250000  0.717987  1
  Lu  Lu11  1  0.350746  0.750000  0.217987  1
  Lu  Lu12  1  0.192554  0.567396  0.440445  1
  Lu  Lu13  1  0.307446  0.432605  0.940445  1
  Lu  Lu14  1  0.693001  0.933016  0.058633  1
  Lu  Lu15  1  0.806999  0.066983  0.558634  1
  Lu  Lu16  1  0.806999  0.433017  0.558634  1
  Lu  Lu17  1  0.693001  0.566984  0.058633  1
  Lu  Lu18  1  0.307446  0.067395  0.940445  1
  Lu  Lu19  1  0.192554  0.932604  0.440445  1
  Bi  Bi20  1  0.066484  0.995416  0.173216  1
  Bi  Bi21  1  0.433516  0.004585  0.673216  1
  Bi  Bi22  1  0.564189  0.504810  0.325985  1
  Bi  Bi23  1  0.935811  0.495189  0.825984  1
  Bi  Bi24  1  0.935811  0.004812  0.825984  1
  Bi  Bi25  1  0.564189  0.995189  0.325985  1
  Bi  Bi26  1  0.433516  0.495416  0.673216  1
  Bi  Bi27  1  0.066484  0.504583  0.173216  1
  Bi  Bi28  1  0.095855  0.250000  0.459528  1
  Bi  Bi29  1  0.404146  0.750000  0.959528  1
  Bi  Bi30  1  0.595522  0.250000  0.043243  1
  Bi  Bi31  1  0.904478  0.750000  0.543244  1
