# generated using pymatgen
data_CsNb3InBr9
_symmetry_space_group_name_H-M   'P 1'
_cell_length_a   10.54680821
_cell_length_b   10.97908396
_cell_length_c   10.77829942
_cell_angle_alpha   121.30635054
_cell_angle_beta   93.97085073
_cell_angle_gamma   108.48871614
_symmetry_Int_Tables_number   1
_chemical_formula_structural   CsNb3InBr9
_chemical_formula_sum   'Cs2 Nb6 In2 Br18'
_cell_volume   968.21318175
_cell_formula_units_Z   2
loop_
 _symmetry_equiv_pos_site_id
 _symmetry_equiv_pos_as_xyz
  1  'x, y, z'
loop_
 _atom_site_type_symbol
 _atom_site_label
 _atom_site_symmetry_multiplicity
 _atom_site_fract_x
 _atom_site_fract_y
 _atom_site_fract_z
 _atom_site_occupancy
  Cs  Cs0  1  0.669539  0.517618  0.729753  1
  Cs  Cs1  1  0.330499  0.481860  0.269788  1
  Nb  Nb2  1  0.121363  0.897931  0.367207  1
  Nb  Nb3  1  0.878702  0.102090  0.632882  1
  Nb  Nb4  1  0.123547  0.038815  0.689783  1
  Nb  Nb5  1  0.876393  0.961272  0.310281  1
  Nb  Nb6  1  0.134710  0.221020  0.557003  1
  Nb  Nb7  1  0.865289  0.778954  0.442902  1
  In  In8  1  0.376417  0.820432  0.961022  1
  In  In9  1  0.623792  0.180129  0.039437  1
  Br  Br10  1  0.293221  0.097645  0.951169  1
  Br  Br11  1  0.706429  0.901846  0.048615  1
  Br  Br12  1  0.322720  0.522250  0.635476  1
  Br  Br13  1  0.677319  0.477758  0.364543  1
  Br  Br14  1  0.981614  0.603945  0.265372  1
  Br  Br15  1  0.018264  0.395945  0.734351  1
  Br  Br16  1  0.011641  0.225423  0.339964  1
  Br  Br17  1  0.988164  0.774550  0.659927  1
  Br  Br18  1  0.683308  0.680407  0.196394  1
  Br  Br19  1  0.316744  0.319625  0.803566  1
  Br  Br20  1  0.286073  0.756560  0.189334  1
  Br  Br21  1  0.714160  0.243663  0.810920  1
  Br  Br22  1  0.300446  0.925066  0.570170  1
  Br  Br23  1  0.699442  0.074824  0.429876  1
  Br  Br24  1  0.000276  0.168695  0.894267  1
  Br  Br25  1  0.999841  0.831641  0.105989  1
  Br  Br26  1  0.314471  0.146766  0.406943  1
  Br  Br27  1  0.685612  0.853265  0.593067  1
