# generated using pymatgen
data_Tm4AgAs5Rh7
_symmetry_space_group_name_H-M   'P 1'
_cell_length_a   7.26213196
_cell_length_b   7.26213137
_cell_length_c   7.26213162
_cell_angle_alpha   110.31997509
_cell_angle_beta   107.78673088
_cell_angle_gamma   110.31997700
_symmetry_Int_Tables_number   1
_chemical_formula_structural   Tm4AgAs5Rh7
_chemical_formula_sum   'Tm4 Ag1 As5 Rh7'
_cell_volume   294.63873342
_cell_formula_units_Z   1
loop_
 _symmetry_equiv_pos_site_id
 _symmetry_equiv_pos_as_xyz
  1  'x, y, z'
loop_
 _atom_site_type_symbol
 _atom_site_label
 _atom_site_symmetry_multiplicity
 _atom_site_fract_x
 _atom_site_fract_y
 _atom_site_fract_z
 _atom_site_occupancy
  Tm  Tm0  1  0.480013  0.485864  0.480013  1
  Tm  Tm1  1  0.994149  0.514136  0.994149  1
  Tm  Tm2  1  0.480013  0.000000  0.994149  1
  Tm  Tm3  1  0.994149  0.000000  0.480013  1
  Ag  Ag4  1  0.720817  0.000000  0.720817  1
  As  As5  1  0.677078  0.686435  0.990643  1
  As  As6  1  0.304208  0.313565  0.990643  1
  As  As7  1  0.990643  0.686435  0.677078  1
  As  As8  1  0.990643  0.313565  0.304208  1
  As  As9  1  0.345270  0.000000  0.345270  1
  Rh  Rh10  1  0.497396  0.744998  0.242394  1
  Rh  Rh11  1  0.752398  0.255002  0.497396  1
  Rh  Rh12  1  0.242394  0.744998  0.497396  1
  Rh  Rh13  1  0.244011  0.500000  0.744011  1
  Rh  Rh14  1  0.045409  0.000000  0.045409  1
  Rh  Rh15  1  0.497396  0.255002  0.752398  1
  Rh  Rh16  1  0.744011  0.500000  0.244011  1
