# generated using pymatgen
data_TaNb2N3
_symmetry_space_group_name_H-M   'P 1'
_cell_length_a   5.26407400
_cell_length_b   5.26407252
_cell_length_c   2.92342300
_cell_angle_alpha   90.00000000
_cell_angle_beta   90.00000000
_cell_angle_gamma   120.00072994
_symmetry_Int_Tables_number   1
_chemical_formula_structural   TaNb2N3
_chemical_formula_sum   'Ta1 Nb2 N3'
_cell_volume   70.15569743
_cell_formula_units_Z   1
loop_
 _symmetry_equiv_pos_site_id
 _symmetry_equiv_pos_as_xyz
  1  'x, y, z'
loop_
 _atom_site_type_symbol
 _atom_site_label
 _atom_site_symmetry_multiplicity
 _atom_site_fract_x
 _atom_site_fract_y
 _atom_site_fract_z
 _atom_site_occupancy
  Ta  Ta0  1  0.333344  0.666682  0.499999  1
  Nb  Nb1  1  0.000017  0.000017  0.000000  1
  Nb  Nb2  1  0.666685  0.333349  0.499999  1
  N  N3  1  0.390784  0.994850  0.000000  1
  N  N4  1  0.005191  0.395953  0.000000  1
  N  N5  1  0.604078  0.609248  0.000000  1
