# generated using pymatgen
data_LaEr3(Si5Pt3)2
_symmetry_space_group_name_H-M   'P 1'
_cell_length_a   8.18313819
_cell_length_b   8.19363194
_cell_length_c   8.19363213
_cell_angle_alpha   136.35633190
_cell_angle_beta   104.75563153
_cell_angle_gamma   91.26126373
_symmetry_Int_Tables_number   1
_chemical_formula_structural   LaEr3(Si5Pt3)2
_chemical_formula_sum   'La1 Er3 Si10 Pt6'
_cell_volume   348.70155814
_cell_formula_units_Z   1
loop_
 _symmetry_equiv_pos_site_id
 _symmetry_equiv_pos_as_xyz
  1  'x, y, z'
loop_
 _atom_site_type_symbol
 _atom_site_label
 _atom_site_symmetry_multiplicity
 _atom_site_fract_x
 _atom_site_fract_y
 _atom_site_fract_z
 _atom_site_occupancy
  La  La0  1  0.897697  0.129498  0.768199  1
  Er  Er1  1  0.642609  0.370239  0.272370  1
  Er  Er2  1  0.358123  0.629619  0.728504  1
  Er  Er3  1  0.099228  0.870629  0.228599  1
  Si  Si4  1  0.273348  0.521627  0.250376  1
  Si  Si5  1  0.728399  0.479042  0.749990  1
  Si  Si6  1  0.728399  0.978409  0.249358  1
  Si  Si7  1  0.273348  0.022972  0.751722  1
  Si  Si8  1  0.461250  0.111502  0.349748  1
  Si  Si9  1  0.534265  0.884358  0.649907  1
  Si  Si10  1  0.762815  0.611458  0.151357  1
  Si  Si11  1  0.239245  0.390686  0.848559  1
  Si  Si12  1  0.000163  0.248347  0.249215  1
  Si  Si13  1  0.000163  0.750948  0.751815  1
  Pt  Pt14  1  0.252410  0.137855  0.114554  1
  Pt  Pt15  1  0.747056  0.860002  0.887055  1
  Pt  Pt16  1  0.027012  0.637788  0.389224  1
  Pt  Pt17  1  0.977355  0.365919  0.611435  1
  Pt  Pt18  1  0.498556  0.249880  0.749335  1
  Pt  Pt19  1  0.498556  0.749222  0.248676  1
