# generated using pymatgen
data_Gd2Dy2Y(SiB4)2
_symmetry_space_group_name_H-M   'P 1'
_cell_length_a   7.25681606
_cell_length_b   7.25703808
_cell_length_c   8.16511603
_cell_angle_alpha   90.00943055
_cell_angle_beta   90.00262315
_cell_angle_gamma   90.01401409
_symmetry_Int_Tables_number   1
_chemical_formula_structural   Gd2Dy2Y(SiB4)2
_chemical_formula_sum   'Gd4 Dy4 Y2 Si4 B16'
_cell_volume   429.99940837
_cell_formula_units_Z   2
loop_
 _symmetry_equiv_pos_site_id
 _symmetry_equiv_pos_as_xyz
  1  'x, y, z'
loop_
 _atom_site_type_symbol
 _atom_site_label
 _atom_site_symmetry_multiplicity
 _atom_site_fract_x
 _atom_site_fract_y
 _atom_site_fract_z
 _atom_site_occupancy
  Gd  Gd0  1  0.680382  0.180428  0.225354  1
  Gd  Gd1  1  0.319391  0.819446  0.774316  1
  Gd  Gd2  1  0.319589  0.819692  0.225080  1
  Gd  Gd3  1  0.819736  0.680234  0.225040  1
  Dy  Dy4  1  0.819599  0.680226  0.777400  1
  Dy  Dy5  1  0.680480  0.180479  0.777094  1
  Dy  Dy6  1  0.180247  0.319630  0.777149  1
  Dy  Dy7  1  0.180142  0.319886  0.222160  1
  Y  Y8  1  0.000234  0.000042  0.500261  1
  Y  Y9  1  0.500091  0.500002  0.500268  1
  Si  Si10  1  0.114551  0.613304  0.501585  1
  Si  Si11  1  0.885352  0.384267  0.501786  1
  Si  Si12  1  0.384914  0.116116  0.501486  1
  Si  Si13  1  0.614948  0.886181  0.501757  1
  B  B14  1  0.172525  0.039465  0.999125  1
  B  B15  1  0.827457  0.961038  0.999621  1
  B  B16  1  0.960777  0.172649  0.999340  1
  B  B17  1  0.327597  0.538916  0.999112  1
  B  B18  1  0.039104  0.827806  0.999402  1
  B  B19  1  0.672445  0.460567  0.999638  1
  B  B20  1  0.539176  0.672309  0.999337  1
  B  B21  1  0.460765  0.327243  0.999404  1
  B  B22  1  0.090031  0.589870  0.999230  1
  B  B23  1  0.910124  0.409965  0.999371  1
  B  B24  1  0.410104  0.090054  0.999196  1
  B  B25  1  0.590028  0.910128  0.999372  1
  B  B26  1  0.000344  0.000439  0.159726  1
  B  B27  1  0.999720  0.000209  0.838839  1
  B  B28  1  0.500427  0.499569  0.838832  1
  B  B29  1  0.499717  0.499840  0.159720  1
