# generated using pymatgen
data_Pr4Tm4Tc3B24Ru
_symmetry_space_group_name_H-M   'P 1'
_cell_length_a   3.72794300
_cell_length_b   9.22192872
_cell_length_c   11.69415816
_cell_angle_alpha   89.94024630
_cell_angle_beta   90.00000000
_cell_angle_gamma   90.00000000
_symmetry_Int_Tables_number   1
_chemical_formula_structural   Pr4Tm4Tc3B24Ru
_chemical_formula_sum   'Pr4 Tm4 Tc3 B24 Ru1'
_cell_volume   402.03119380
_cell_formula_units_Z   1
loop_
 _symmetry_equiv_pos_site_id
 _symmetry_equiv_pos_as_xyz
  1  'x, y, z'
loop_
 _atom_site_type_symbol
 _atom_site_label
 _atom_site_symmetry_multiplicity
 _atom_site_fract_x
 _atom_site_fract_y
 _atom_site_fract_z
 _atom_site_occupancy
  Pr  Pr0  1  0.000000  0.322736  0.414393  1
  Pr  Pr1  1  0.000000  0.676002  0.583894  1
  Pr  Pr2  1  0.000000  0.822714  0.086523  1
  Pr  Pr3  1  0.000000  0.178169  0.915358  1
  Tm  Tm4  1  0.000000  0.942655  0.369073  1
  Tm  Tm5  1  0.000000  0.057987  0.631414  1
  Tm  Tm6  1  0.000000  0.443038  0.131241  1
  Tm  Tm7  1  0.000000  0.557445  0.868339  1
  Tc  Tc8  1  0.000000  0.639925  0.318381  1
  Tc  Tc9  1  0.000000  0.360090  0.682161  1
  Tc  Tc10  1  0.000000  0.139343  0.180850  1
  B  B11  1  0.500000  0.555609  0.429525  1
  B  B12  1  0.500000  0.444114  0.570101  1
  B  B13  1  0.500000  0.055819  0.070253  1
  B  B14  1  0.500000  0.943614  0.929533  1
  B  B15  1  0.500000  0.750553  0.415298  1
  B  B16  1  0.500000  0.248933  0.584892  1
  B  B17  1  0.500000  0.251190  0.084730  1
  B  B18  1  0.500000  0.749684  0.914823  1
  B  B19  1  0.500000  0.791619  0.265948  1
  B  B20  1  0.500000  0.208665  0.734630  1
  B  B21  1  0.500000  0.291449  0.234131  1
  B  B22  1  0.500000  0.709305  0.765602  1
  B  B23  1  0.500000  0.629177  0.185644  1
  B  B24  1  0.500000  0.371034  0.814737  1
  B  B25  1  0.500000  0.128758  0.313964  1
  B  B26  1  0.500000  0.870826  0.685953  1
  B  B27  1  0.500000  0.983755  0.213646  1
  B  B28  1  0.500000  0.014907  0.786761  1
  B  B29  1  0.500000  0.484143  0.286039  1
  B  B30  1  0.500000  0.515707  0.713473  1
  B  B31  1  0.500000  0.596359  0.026010  1
  B  B32  1  0.500000  0.404953  0.973650  1
  B  B33  1  0.500000  0.095639  0.474236  1
  B  B34  1  0.500000  0.904220  0.526606  1
  Ru  Ru35  1  0.000000  0.859867  0.818191  1
