# generated using pymatgen
data_HoU7NbS17
_symmetry_space_group_name_H-M   'P 1'
_cell_length_a   7.83621147
_cell_length_b   7.85600928
_cell_length_c   10.41440956
_cell_angle_alpha   81.05956014
_cell_angle_beta   80.90232531
_cell_angle_gamma   65.28545202
_symmetry_Int_Tables_number   1
_chemical_formula_structural   HoU7NbS17
_chemical_formula_sum   'Ho1 U7 Nb1 S17'
_cell_volume   572.21594708
_cell_formula_units_Z   1
loop_
 _symmetry_equiv_pos_site_id
 _symmetry_equiv_pos_as_xyz
  1  'x, y, z'
loop_
 _atom_site_type_symbol
 _atom_site_label
 _atom_site_symmetry_multiplicity
 _atom_site_fract_x
 _atom_site_fract_y
 _atom_site_fract_z
 _atom_site_occupancy
  Ho  Ho0  1  0.810500  0.307196  0.299109  1
  U  U1  1  0.298329  0.819392  0.299437  1
  U  U2  1  0.182419  0.700632  0.699668  1
  U  U3  1  0.699327  0.182547  0.701282  1
  U  U4  1  0.796166  0.792486  0.459496  1
  U  U5  1  0.206316  0.205865  0.538794  1
  U  U6  1  0.316971  0.319417  0.017862  1
  U  U7  1  0.681034  0.678323  0.983469  1
  Nb  Nb8  1  0.999391  0.997720  0.997482  1
  S  S9  1  0.179194  0.567443  0.464704  1
  S  S10  1  0.571411  0.173823  0.468007  1
  S  S11  1  0.824618  0.429497  0.536537  1
  S  S12  1  0.432248  0.822667  0.535023  1
  S  S13  1  0.941574  0.326317  0.030188  1
  S  S14  1  0.327189  0.942234  0.030581  1
  S  S15  1  0.059598  0.672174  0.968000  1
  S  S16  1  0.671892  0.060595  0.968486  1
  S  S17  1  0.938983  0.938122  0.233179  1
  S  S18  1  0.064654  0.064359  0.766294  1
  S  S19  1  0.788995  0.788893  0.723935  1
  S  S20  1  0.212270  0.208086  0.277403  1
  S  S21  1  0.692873  0.700646  0.246247  1
  S  S22  1  0.304123  0.304492  0.752992  1
  S  S23  1  0.475676  0.482579  0.165614  1
  S  S24  1  0.520753  0.521367  0.830809  1
  S  S25  1  0.003496  0.993127  0.505401  1
