# generated using pymatgen
data_Pr2As2Cl2O5
_symmetry_space_group_name_H-M   'P 1'
_cell_length_a   7.00411851
_cell_length_b   7.24482758
_cell_length_c   9.88776515
_cell_angle_alpha   110.54293945
_cell_angle_beta   99.82918457
_cell_angle_gamma   100.39735289
_symmetry_Int_Tables_number   1
_chemical_formula_structural   Pr2As2Cl2O5
_chemical_formula_sum   'Pr4 As4 Cl4 O10'
_cell_volume   446.95171999
_cell_formula_units_Z   2
loop_
 _symmetry_equiv_pos_site_id
 _symmetry_equiv_pos_as_xyz
  1  'x, y, z'
loop_
 _atom_site_type_symbol
 _atom_site_label
 _atom_site_symmetry_multiplicity
 _atom_site_fract_x
 _atom_site_fract_y
 _atom_site_fract_z
 _atom_site_occupancy
  Pr  Pr0  1  0.382659  0.761158  0.547801  1
  Pr  Pr1  1  0.617341  0.238842  0.452199  1
  Pr  Pr2  1  0.827085  0.731936  0.335440  1
  Pr  Pr3  1  0.172915  0.268064  0.664560  1
  As  As4  1  0.907992  0.799101  0.699092  1
  As  As5  1  0.092008  0.200899  0.300908  1
  As  As6  1  0.724856  0.234893  0.794587  1
  As  As7  1  0.275144  0.765107  0.205413  1
  Cl  Cl8  1  0.367423  0.690649  0.811257  1
  Cl  Cl9  1  0.632577  0.309351  0.188743  1
  Cl  Cl10  1  0.848417  0.755554  0.065476  1
  Cl  Cl11  1  0.151583  0.244446  0.934524  1
  O  O12  1  0.857198  0.339937  0.688286  1
  O  O13  1  0.142802  0.660063  0.311714  1
  O  O14  1  0.520555  0.837652  0.346736  1
  O  O15  1  0.479445  0.162348  0.653264  1
  O  O16  1  0.731683  0.962196  0.689470  1
  O  O17  1  0.268317  0.037804  0.310530  1
  O  O18  1  0.726295  0.604410  0.528902  1
  O  O19  1  0.273705  0.395590  0.471098  1
  O  O20  1  0.069664  0.883284  0.591264  1
  O  O21  1  0.930336  0.116716  0.408736  1
