# generated using pymatgen
data_DyEr(Al3Rh)3
_symmetry_space_group_name_H-M   'P 1'
_cell_length_a   7.54136050
_cell_length_b   7.54530212
_cell_length_c   9.46549300
_cell_angle_alpha   90.00000000
_cell_angle_beta   90.00000000
_cell_angle_gamma   119.34706055
_symmetry_Int_Tables_number   1
_chemical_formula_structural   DyEr(Al3Rh)3
_chemical_formula_sum   'Dy2 Er2 Al18 Rh6'
_cell_volume   469.48334279
_cell_formula_units_Z   2
loop_
 _symmetry_equiv_pos_site_id
 _symmetry_equiv_pos_as_xyz
  1  'x, y, z'
loop_
 _atom_site_type_symbol
 _atom_site_label
 _atom_site_symmetry_multiplicity
 _atom_site_fract_x
 _atom_site_fract_y
 _atom_site_fract_z
 _atom_site_occupancy
  Dy  Dy0  1  0.994616  0.672066  0.750000  1
  Dy  Dy1  1  0.005384  0.327934  0.250000  1
  Er  Er2  1  0.671910  0.993996  0.750000  1
  Er  Er3  1  0.328090  0.006004  0.250000  1
  Al  Al4  1  0.128849  0.128914  0.750000  1
  Al  Al5  1  0.871151  0.871086  0.250000  1
  Al  Al6  1  0.000753  0.335188  0.575490  1
  Al  Al7  1  0.999247  0.664812  0.424510  1
  Al  Al8  1  0.999247  0.664812  0.075490  1
  Al  Al9  1  0.335922  0.001084  0.925069  1
  Al  Al10  1  0.000753  0.335188  0.924510  1
  Al  Al11  1  0.664078  0.998916  0.074931  1
  Al  Al12  1  0.664078  0.998916  0.425069  1
  Al  Al13  1  0.335922  0.001084  0.574931  1
  Al  Al14  1  0.332901  0.332653  0.050669  1
  Al  Al15  1  0.667099  0.667347  0.949331  1
  Al  Al16  1  0.667099  0.667347  0.550669  1
  Al  Al17  1  0.332901  0.332653  0.449331  1
  Al  Al18  1  0.340557  0.550614  0.750000  1
  Al  Al19  1  0.659443  0.449386  0.250000  1
  Al  Al20  1  0.550257  0.339376  0.750000  1
  Al  Al21  1  0.449743  0.660624  0.250000  1
  Rh  Rh22  1  0.672159  0.327574  0.499968  1
  Rh  Rh23  1  0.327841  0.672426  0.500032  1
  Rh  Rh24  1  0.327841  0.672426  0.999968  1
  Rh  Rh25  1  0.672159  0.327574  0.000032  1
  Rh  Rh26  1  0.000000  0.000000  0.500000  1
  Rh  Rh27  1  0.000000  0.000000  0.000000  1
