# generated using pymatgen
data_Pr7Lu(GeO5)4
_symmetry_space_group_name_H-M   'P 1'
_cell_length_a   8.42854312
_cell_length_b   8.47378616
_cell_length_c   10.99809254
_cell_angle_alpha   61.64967989
_cell_angle_beta   61.23246432
_cell_angle_gamma   49.81632214
_symmetry_Int_Tables_number   1
_chemical_formula_structural   Pr7Lu(GeO5)4
_chemical_formula_sum   'Pr7 Lu1 Ge4 O20'
_cell_volume   509.95820744
_cell_formula_units_Z   1
loop_
 _symmetry_equiv_pos_site_id
 _symmetry_equiv_pos_as_xyz
  1  'x, y, z'
loop_
 _atom_site_type_symbol
 _atom_site_label
 _atom_site_symmetry_multiplicity
 _atom_site_fract_x
 _atom_site_fract_y
 _atom_site_fract_z
 _atom_site_occupancy
  Pr  Pr0  1  0.714310  0.212255  0.966460  1
  Pr  Pr1  1  0.789458  0.272150  0.539244  1
  Pr  Pr2  1  0.275445  0.796372  0.035857  1
  Pr  Pr3  1  0.208390  0.718185  0.462469  1
  Pr  Pr4  1  0.991933  0.730989  0.836073  1
  Pr  Pr5  1  0.271737  0.020525  0.655337  1
  Pr  Pr6  1  0.999652  0.271199  0.170736  1
  Lu  Lu7  1  0.749692  0.971484  0.336495  1
  Ge  Ge8  1  0.776983  0.594769  0.685374  1
  Ge  Ge9  1  0.405603  0.225498  0.811510  1
  Ge  Ge10  1  0.230788  0.404360  0.304722  1
  Ge  Ge11  1  0.589904  0.779794  0.196874  1
  O  O12  1  0.768215  0.642209  0.058758  1
  O  O13  1  0.399330  0.219283  0.423642  1
  O  O14  1  0.224756  0.363573  0.948425  1
  O  O15  1  0.644179  0.782806  0.546467  1
  O  O16  1  0.594466  0.577674  0.358518  1
  O  O17  1  0.395695  0.428225  0.128014  1
  O  O18  1  0.406406  0.417146  0.645143  1
  O  O19  1  0.584066  0.591840  0.853060  1
  O  O20  1  0.955134  0.644413  0.675938  1
  O  O21  1  0.346564  0.052544  0.825758  1
  O  O22  1  0.057164  0.334888  0.332750  1
  O  O23  1  0.652207  0.947518  0.188767  1
  O  O24  1  0.879891  0.066636  0.400773  1
  O  O25  1  0.908325  0.105229  0.117509  1
  O  O26  1  0.113284  0.921837  0.601602  1
  O  O27  1  0.075223  0.899732  0.892984  1
  O  O28  1  0.084018  0.672596  0.321494  1
  O  O29  1  0.321803  0.912317  0.186715  1
  O  O30  1  0.911015  0.330125  0.672497  1
  O  O31  1  0.674365  0.091828  0.820035  1
