# generated using pymatgen
data_Hf2Nb4Co15Si7Ni
_symmetry_space_group_name_H-M   'P 1'
_cell_length_a   7.94919390
_cell_length_b   7.94585184
_cell_length_c   7.93842029
_cell_angle_alpha   60.06186348
_cell_angle_beta   60.05374974
_cell_angle_gamma   59.91877026
_symmetry_Int_Tables_number   1
_chemical_formula_structural   Hf2Nb4Co15Si7Ni
_chemical_formula_sum   'Hf2 Nb4 Co15 Si7 Ni1'
_cell_volume   354.64493919
_cell_formula_units_Z   1
loop_
 _symmetry_equiv_pos_site_id
 _symmetry_equiv_pos_as_xyz
  1  'x, y, z'
loop_
 _atom_site_type_symbol
 _atom_site_label
 _atom_site_symmetry_multiplicity
 _atom_site_fract_x
 _atom_site_fract_y
 _atom_site_fract_z
 _atom_site_occupancy
  Hf  Hf0  1  0.204204  0.793391  0.205619  1
  Hf  Hf1  1  0.203686  0.796044  0.795266  1
  Nb  Nb2  1  0.792161  0.203759  0.202810  1
  Nb  Nb3  1  0.793989  0.795626  0.204960  1
  Nb  Nb4  1  0.204711  0.207092  0.789935  1
  Nb  Nb5  1  0.796614  0.203028  0.797579  1
  Co  Co6  1  0.502760  0.833495  0.832711  1
  Co  Co7  1  0.834326  0.499681  0.834068  1
  Co  Co8  1  0.833075  0.833503  0.501669  1
  Co  Co9  1  0.167419  0.497197  0.167947  1
  Co  Co10  1  0.167483  0.167769  0.498179  1
  Co  Co11  1  0.499796  0.166932  0.166996  1
  Co  Co12  1  0.832458  0.832200  0.832835  1
  Co  Co13  1  0.383262  0.378104  0.382328  1
  Co  Co14  1  0.139808  0.617359  0.621338  1
  Co  Co15  1  0.618638  0.145445  0.617988  1
  Co  Co16  1  0.621862  0.617465  0.142548  1
  Co  Co17  1  0.383321  0.858771  0.378916  1
  Co  Co18  1  0.383071  0.377962  0.855937  1
  Co  Co19  1  0.853252  0.381540  0.382403  1
  Co  Co20  1  0.622651  0.617462  0.618467  1
  Si  Si21  1  0.496424  0.503799  0.500059  1
  Si  Si22  1  0.998974  0.498977  0.002437  1
  Si  Si23  1  0.501204  0.001672  0.998357  1
  Si  Si24  1  0.997510  0.499713  0.500241  1
  Si  Si25  1  0.500956  0.000366  0.499950  1
  Si  Si26  1  0.996629  0.003722  0.500473  1
  Si  Si27  1  0.500934  0.499345  0.999093  1
  Ni  Ni28  1  0.168821  0.168578  0.168889  1
