# generated using pymatgen
data_La10Tc3Ni
_symmetry_space_group_name_H-M   'P 1'
_cell_length_a   9.06497890
_cell_length_b   9.11703402
_cell_length_c   7.42114706
_cell_angle_alpha   85.08519422
_cell_angle_beta   85.16552436
_cell_angle_gamma   43.38672622
_symmetry_Int_Tables_number   1
_chemical_formula_structural   La10Tc3Ni
_chemical_formula_sum   'La10 Tc3 Ni1'
_cell_volume   419.53913683
_cell_formula_units_Z   1
loop_
 _symmetry_equiv_pos_site_id
 _symmetry_equiv_pos_as_xyz
  1  'x, y, z'
loop_
 _atom_site_type_symbol
 _atom_site_label
 _atom_site_symmetry_multiplicity
 _atom_site_fract_x
 _atom_site_fract_y
 _atom_site_fract_z
 _atom_site_occupancy
  La  La0  1  0.010997  0.806397  0.908577  1
  La  La1  1  0.204312  0.986739  0.597459  1
  La  La2  1  0.983714  0.205036  0.094788  1
  La  La3  1  0.795408  0.022020  0.401281  1
  La  La4  1  0.365673  0.206319  0.823742  1
  La  La5  1  0.779843  0.639518  0.676988  1
  La  La6  1  0.643836  0.788428  0.181614  1
  La  La7  1  0.210545  0.359026  0.323548  1
  La  La8  1  0.571365  0.424866  0.746156  1
  La  La9  1  0.422197  0.580383  0.247674  1
  Tc  Tc10  1  0.387736  0.828597  0.916904  1
  Tc  Tc11  1  0.830191  0.390422  0.427364  1
  Tc  Tc12  1  0.616093  0.165617  0.076242  1
  Ni  Ni13  1  0.178088  0.596631  0.577665  1
