# generated using pymatgen
data_Dy(S8Cl)3
_symmetry_space_group_name_H-M   'P 1'
_cell_length_a   15.26296505
_cell_length_b   15.26296489
_cell_length_c   15.26296518
_cell_angle_alpha   119.24031799
_cell_angle_beta   119.24031778
_cell_angle_gamma   119.24031516
_symmetry_Int_Tables_number   1
_chemical_formula_structural   Dy(S8Cl)3
_chemical_formula_sum   'Dy1 S24 Cl3'
_cell_volume   803.55633118
_cell_formula_units_Z   1
loop_
 _symmetry_equiv_pos_site_id
 _symmetry_equiv_pos_as_xyz
  1  'x, y, z'
loop_
 _atom_site_type_symbol
 _atom_site_label
 _atom_site_symmetry_multiplicity
 _atom_site_fract_x
 _atom_site_fract_y
 _atom_site_fract_z
 _atom_site_occupancy
  Dy  Dy0  1  0.441189  0.441189  0.441189  1
  S  S1  1  0.001036  0.592576  0.592576  1
  S  S2  1  0.592576  0.592576  0.001036  1
  S  S3  1  0.592576  0.001036  0.592576  1
  S  S4  1  0.263650  0.868443  0.741034  1
  S  S5  1  0.868443  0.741034  0.263650  1
  S  S6  1  0.741034  0.263650  0.868443  1
  S  S7  1  0.868443  0.263650  0.741034  1
  S  S8  1  0.263650  0.741034  0.868443  1
  S  S9  1  0.741034  0.868443  0.263650  1
  S  S10  1  0.081392  0.603095  0.423568  1
  S  S11  1  0.603095  0.423568  0.081392  1
  S  S12  1  0.423568  0.081392  0.603095  1
  S  S13  1  0.603095  0.081392  0.423568  1
  S  S14  1  0.081392  0.423568  0.603095  1
  S  S15  1  0.423568  0.603095  0.081392  1
  S  S16  1  0.383391  0.766025  0.636703  1
  S  S17  1  0.766025  0.636703  0.383391  1
  S  S18  1  0.636703  0.383391  0.766025  1
  S  S19  1  0.766025  0.383391  0.636703  1
  S  S20  1  0.383391  0.636703  0.766025  1
  S  S21  1  0.636703  0.766025  0.383391  1
  S  S22  1  0.174789  0.447571  0.447571  1
  S  S23  1  0.447571  0.447571  0.174789  1
  S  S24  1  0.447571  0.174789  0.447571  1
  Cl  Cl25  1  0.021924  0.896634  0.896634  1
  Cl  Cl26  1  0.896634  0.896634  0.021924  1
  Cl  Cl27  1  0.896634  0.021924  0.896634  1
