# generated using pymatgen
data_Np3ZnSn2Pt3
_symmetry_space_group_name_H-M   'P 1'
_cell_length_a   7.45917350
_cell_length_b   7.41988281
_cell_length_c   4.06633200
_cell_angle_alpha   90.00000000
_cell_angle_beta   90.00000000
_cell_angle_gamma   119.82591085
_symmetry_Int_Tables_number   1
_chemical_formula_structural   Np3ZnSn2Pt3
_chemical_formula_sum   'Np3 Zn1 Sn2 Pt3'
_cell_volume   195.24521844
_cell_formula_units_Z   1
loop_
 _symmetry_equiv_pos_site_id
 _symmetry_equiv_pos_as_xyz
  1  'x, y, z'
loop_
 _atom_site_type_symbol
 _atom_site_label
 _atom_site_symmetry_multiplicity
 _atom_site_fract_x
 _atom_site_fract_y
 _atom_site_fract_z
 _atom_site_occupancy
  Np  Np0  1  0.000000  0.433101  0.500000  1
  Np  Np1  1  0.598233  0.585628  0.500000  1
  Np  Np2  1  0.401767  0.987395  0.500000  1
  Zn  Zn3  1  0.000000  0.749613  0.000000  1
  Sn  Sn4  1  0.250532  0.249460  0.000000  1
  Sn  Sn5  1  0.749468  0.998928  0.000000  1
  Pt  Pt6  1  0.323563  0.665756  0.000000  1
  Pt  Pt7  1  0.676437  0.342192  0.000000  1
  Pt  Pt8  1  0.000000  0.987925  0.500000  1
