# generated using pymatgen
data_TbPa(CoSi2)2
_symmetry_space_group_name_H-M   'P 1'
_cell_length_a   8.37449499
_cell_length_b   8.37449478
_cell_length_c   3.98668200
_cell_angle_alpha   90.00000000
_cell_angle_beta   90.00000000
_cell_angle_gamma   152.26258378
_symmetry_Int_Tables_number   1
_chemical_formula_structural   TbPa(CoSi2)2
_chemical_formula_sum   'Tb1 Pa1 Co2 Si4'
_cell_volume   130.12897585
_cell_formula_units_Z   1
loop_
 _symmetry_equiv_pos_site_id
 _symmetry_equiv_pos_as_xyz
  1  'x, y, z'
loop_
 _atom_site_type_symbol
 _atom_site_label
 _atom_site_symmetry_multiplicity
 _atom_site_fract_x
 _atom_site_fract_y
 _atom_site_fract_z
 _atom_site_occupancy
  Tb  Tb0  1  0.893359  0.106641  0.750000  1
  Pa  Pa1  1  0.108875  0.891125  0.250000  1
  Co  Co2  1  0.676130  0.323870  0.750000  1
  Co  Co3  1  0.319899  0.680101  0.250000  1
  Si  Si4  1  0.751913  0.248087  0.250000  1
  Si  Si5  1  0.250434  0.749566  0.750000  1
  Si  Si6  1  0.540238  0.459762  0.750000  1
  Si  Si7  1  0.459152  0.540848  0.250000  1
