# generated using pymatgen
data_Dy5MgIO12
_symmetry_space_group_name_H-M   'P 1'
_cell_length_a   6.52065618
_cell_length_b   6.34419324
_cell_length_c   6.54895400
_cell_angle_alpha   99.21459143
_cell_angle_beta   99.13504188
_cell_angle_gamma   97.05712318
_symmetry_Int_Tables_number   1
_chemical_formula_structural   Dy5MgIO12
_chemical_formula_sum   'Dy5 Mg1 I1 O12'
_cell_volume   260.95727718
_cell_formula_units_Z   1
loop_
 _symmetry_equiv_pos_site_id
 _symmetry_equiv_pos_as_xyz
  1  'x, y, z'
loop_
 _atom_site_type_symbol
 _atom_site_label
 _atom_site_symmetry_multiplicity
 _atom_site_fract_x
 _atom_site_fract_y
 _atom_site_fract_z
 _atom_site_occupancy
  Dy  Dy0  1  0.388942  0.682603  0.848797  1
  Dy  Dy1  1  0.859726  0.381540  0.677136  1
  Dy  Dy2  1  0.671445  0.851923  0.395243  1
  Dy  Dy3  1  0.607131  0.313688  0.137424  1
  Dy  Dy4  1  0.149030  0.613155  0.328869  1
  Mg  Mg5  1  0.357400  0.170167  0.591124  1
  I  I6  1  0.997584  0.996733  0.004206  1
  O  O7  1  0.188450  0.421141  0.593333  1
  O  O8  1  0.599359  0.183260  0.427487  1
  O  O9  1  0.429106  0.597346  0.176911  1
  O  O10  1  0.825686  0.563351  0.402214  1
  O  O11  1  0.396279  0.844771  0.572227  1
  O  O12  1  0.575393  0.406827  0.819987  1
  O  O13  1  0.905757  0.018112  0.716943  1
  O  O14  1  0.966130  0.295136  0.070777  1
  O  O15  1  0.283936  0.064125  0.979971  1
  O  O16  1  0.064543  0.968265  0.292725  1
  O  O17  1  0.029190  0.698221  0.928211  1
  O  O18  1  0.704912  0.929636  0.036414  1
