# generated using pymatgen
data_Gd2InRu2
_symmetry_space_group_name_H-M   'P 1'
_cell_length_a   5.56457733
_cell_length_b   5.56457737
_cell_length_c   5.56457700
_cell_angle_alpha   133.12307784
_cell_angle_beta   116.70128725
_cell_angle_gamma   82.36239379
_symmetry_Int_Tables_number   1
_chemical_formula_structural   Gd2InRu2
_chemical_formula_sum   'Gd2 In1 Ru2'
_cell_volume   108.26575227
_cell_formula_units_Z   1
loop_
 _symmetry_equiv_pos_site_id
 _symmetry_equiv_pos_as_xyz
  1  'x, y, z'
loop_
 _atom_site_type_symbol
 _atom_site_label
 _atom_site_symmetry_multiplicity
 _atom_site_fract_x
 _atom_site_fract_y
 _atom_site_fract_z
 _atom_site_occupancy
  Gd  Gd0  1  0.706371  0.206371  0.500000  1
  Gd  Gd1  1  0.293629  0.793629  0.500001  1
  In  In2  1  0.000000  0.000000  0.000000  1
  Ru  Ru3  1  0.713482  0.500000  0.213482  1
  Ru  Ru4  1  0.286518  0.500001  0.786518  1
