# generated using pymatgen
data_Dy8Er12Sn5Pb11
_symmetry_space_group_name_H-M   'P 1'
_cell_length_a   8.12892225
_cell_length_b   8.19189525
_cell_length_c   15.52796200
_cell_angle_alpha   90.00000000
_cell_angle_beta   90.00000000
_cell_angle_gamma   90.02840035
_symmetry_Int_Tables_number   1
_chemical_formula_structural   Dy8Er12Sn5Pb11
_chemical_formula_sum   'Dy8 Er12 Sn5 Pb11'
_cell_volume   1034.02673178
_cell_formula_units_Z   1
loop_
 _symmetry_equiv_pos_site_id
 _symmetry_equiv_pos_as_xyz
  1  'x, y, z'
loop_
 _atom_site_type_symbol
 _atom_site_label
 _atom_site_symmetry_multiplicity
 _atom_site_fract_x
 _atom_site_fract_y
 _atom_site_fract_z
 _atom_site_occupancy
  Dy  Dy0  1  0.533809  0.323765  0.897847  1
  Dy  Dy1  1  0.037575  0.174516  0.601412  1
  Dy  Dy2  1  0.464532  0.674589  0.399624  1
  Dy  Dy3  1  0.964283  0.825588  0.100497  1
  Dy  Dy4  1  0.464532  0.674589  0.100376  1
  Dy  Dy5  1  0.964283  0.825588  0.399503  1
  Dy  Dy6  1  0.533809  0.323765  0.602153  1
  Dy  Dy7  1  0.037575  0.174516  0.898588  1
  Er  Er8  1  0.376899  0.840719  0.876555  1
  Er  Er9  1  0.877042  0.660971  0.623180  1
  Er  Er10  1  0.623313  0.160860  0.377234  1
  Er  Er11  1  0.123107  0.339231  0.122795  1
  Er  Er12  1  0.623313  0.160860  0.122766  1
  Er  Er13  1  0.123107  0.339231  0.377205  1
  Er  Er14  1  0.376899  0.840719  0.623445  1
  Er  Er15  1  0.877042  0.660971  0.876820  1
  Er  Er16  1  0.211205  0.505451  0.750000  1
  Er  Er17  1  0.707834  0.993282  0.750000  1
  Er  Er18  1  0.790271  0.492050  0.250000  1
  Er  Er19  1  0.290332  0.007814  0.250000  1
  Sn  Sn20  1  0.572913  0.625833  0.750000  1
  Sn  Sn21  1  0.073666  0.876317  0.750000  1
  Sn  Sn22  1  0.427042  0.374527  0.250000  1
  Sn  Sn23  1  0.927028  0.125255  0.250000  1
  Sn  Sn24  1  0.343508  0.149662  0.750000  1
  Pb  Pb25  1  0.283826  0.033846  0.042016  1
  Pb  Pb26  1  0.783515  0.466079  0.458272  1
  Pb  Pb27  1  0.716525  0.966431  0.542004  1
  Pb  Pb28  1  0.216351  0.534371  0.957884  1
  Pb  Pb29  1  0.716525  0.966431  0.957996  1
  Pb  Pb30  1  0.216351  0.534371  0.542116  1
  Pb  Pb31  1  0.283826  0.033846  0.457984  1
  Pb  Pb32  1  0.783515  0.466079  0.041728  1
  Pb  Pb33  1  0.845616  0.347948  0.750000  1
  Pb  Pb34  1  0.654419  0.847648  0.250000  1
  Pb  Pb35  1  0.154613  0.652284  0.250000  1
