# generated using pymatgen
data_La2Nd7Sm(Ga2Ru3)2
_symmetry_space_group_name_H-M   'P 1'
_cell_length_a   8.47846986
_cell_length_b   8.62032973
_cell_length_c   8.54913585
_cell_angle_alpha   109.50619872
_cell_angle_beta   109.26393215
_cell_angle_gamma   109.54363693
_symmetry_Int_Tables_number   1
_chemical_formula_structural   La2Nd7Sm(Ga2Ru3)2
_chemical_formula_sum   'La2 Nd7 Sm1 Ga4 Ru6'
_cell_volume   481.58578150
_cell_formula_units_Z   1
loop_
 _symmetry_equiv_pos_site_id
 _symmetry_equiv_pos_as_xyz
  1  'x, y, z'
loop_
 _atom_site_type_symbol
 _atom_site_label
 _atom_site_symmetry_multiplicity
 _atom_site_fract_x
 _atom_site_fract_y
 _atom_site_fract_z
 _atom_site_occupancy
  La  La0  1  0.752005  0.810362  0.059726  1
  La  La1  1  0.440010  0.246804  0.689401  1
  Nd  Nd2  1  0.689016  0.436876  0.254554  1
  Nd  Nd3  1  0.064728  0.749950  0.811165  1
  Nd  Nd4  1  0.815767  0.062932  0.749047  1
  Nd  Nd5  1  0.218503  0.219408  0.215824  1
  Nd  Nd6  1  0.495387  0.995073  0.280121  1
  Nd  Nd7  1  0.285511  0.502967  0.002828  1
  Nd  Nd8  1  0.001400  0.283757  0.502744  1
  Sm  Sm9  1  0.249494  0.683428  0.435080  1
  Ga  Ga10  1  0.585536  0.587775  0.585985  1
  Ga  Ga11  1  0.503749  0.003452  0.915163  1
  Ga  Ga12  1  0.917028  0.498045  0.000933  1
  Ga  Ga13  1  0.997679  0.907020  0.498320  1
  Ru  Ru14  1  0.253876  0.128087  0.865745  1
  Ru  Ru15  1  0.737906  0.373515  0.627831  1
  Ru  Ru16  1  0.875814  0.255769  0.125173  1
  Ru  Ru17  1  0.107536  0.865975  0.240311  1
  Ru  Ru18  1  0.623548  0.748755  0.379938  1
  Ru  Ru19  1  0.385508  0.640049  0.760116  1
