# generated using pymatgen
data_Dy2ZnSi13Ir6
_symmetry_space_group_name_H-M   'P 1'
_cell_length_a   8.00235501
_cell_length_b   8.00235528
_cell_length_c   8.00235582
_cell_angle_alpha   57.57782455
_cell_angle_beta   57.57781679
_cell_angle_gamma   57.57781963
_symmetry_Int_Tables_number   1
_chemical_formula_structural   Dy2ZnSi13Ir6
_chemical_formula_sum   'Dy2 Zn1 Si13 Ir6'
_cell_volume   342.18010751
_cell_formula_units_Z   1
loop_
 _symmetry_equiv_pos_site_id
 _symmetry_equiv_pos_as_xyz
  1  'x, y, z'
loop_
 _atom_site_type_symbol
 _atom_site_label
 _atom_site_symmetry_multiplicity
 _atom_site_fract_x
 _atom_site_fract_y
 _atom_site_fract_z
 _atom_site_occupancy
  Dy  Dy0  1  0.998577  0.998577  0.998577  1
  Dy  Dy1  1  0.501423  0.501423  0.501423  1
  Zn  Zn2  1  0.750000  0.750000  0.750000  1
  Si  Si3  1  0.250000  0.250000  0.250000  1
  Si  Si4  1  0.848231  0.061132  0.672114  1
  Si  Si5  1  0.672114  0.848231  0.061132  1
  Si  Si6  1  0.061132  0.672114  0.848231  1
  Si  Si7  1  0.651769  0.827886  0.438868  1
  Si  Si8  1  0.438868  0.651769  0.827886  1
  Si  Si9  1  0.827886  0.438868  0.651769  1
  Si  Si10  1  0.169488  0.559109  0.358849  1
  Si  Si11  1  0.559109  0.358849  0.169488  1
  Si  Si12  1  0.358849  0.169488  0.559109  1
  Si  Si13  1  0.940891  0.330512  0.141151  1
  Si  Si14  1  0.330512  0.141151  0.940891  1
  Si  Si15  1  0.141151  0.940891  0.330512  1
  Ir  Ir16  1  0.089153  0.410847  0.750000  1
  Ir  Ir17  1  0.250000  0.927102  0.572898  1
  Ir  Ir18  1  0.572898  0.250000  0.927102  1
  Ir  Ir19  1  0.927102  0.572898  0.250000  1
  Ir  Ir20  1  0.410847  0.750000  0.089153  1
  Ir  Ir21  1  0.750000  0.089153  0.410847  1
