# generated using pymatgen
data_LiDyZnPt3
_symmetry_space_group_name_H-M   'P 1'
_cell_length_a   5.12203707
_cell_length_b   5.12203588
_cell_length_c   5.12203603
_cell_angle_alpha   65.01898933
_cell_angle_beta   65.01899459
_cell_angle_gamma   65.01899140
_symmetry_Int_Tables_number   1
_chemical_formula_structural   LiDyZnPt3
_chemical_formula_sum   'Li1 Dy1 Zn1 Pt3'
_cell_volume   105.43194738
_cell_formula_units_Z   1
loop_
 _symmetry_equiv_pos_site_id
 _symmetry_equiv_pos_as_xyz
  1  'x, y, z'
loop_
 _atom_site_type_symbol
 _atom_site_label
 _atom_site_symmetry_multiplicity
 _atom_site_fract_x
 _atom_site_fract_y
 _atom_site_fract_z
 _atom_site_occupancy
  Li  Li0  1  0.990285  0.990285  0.990285  1
  Dy  Dy1  1  0.244781  0.244781  0.244781  1
  Zn  Zn2  1  0.628844  0.628844  0.628844  1
  Pt  Pt3  1  0.629597  0.629597  0.126896  1
  Pt  Pt4  1  0.629597  0.126896  0.629597  1
  Pt  Pt5  1  0.126896  0.629597  0.629597  1
