# generated using pymatgen
data_LiGa2AgSe4
_symmetry_space_group_name_H-M   'P 1'
_cell_length_a   6.99914739
_cell_length_b   6.99914759
_cell_length_c   6.99914806
_cell_angle_alpha   129.17958111
_cell_angle_beta   129.17958330
_cell_angle_gamma   74.72178880
_symmetry_Int_Tables_number   1
_chemical_formula_structural   LiGa2AgSe4
_chemical_formula_sum   'Li1 Ga2 Ag1 Se4'
_cell_volume   200.71427254
_cell_formula_units_Z   1
loop_
 _symmetry_equiv_pos_site_id
 _symmetry_equiv_pos_as_xyz
  1  'x, y, z'
loop_
 _atom_site_type_symbol
 _atom_site_label
 _atom_site_symmetry_multiplicity
 _atom_site_fract_x
 _atom_site_fract_y
 _atom_site_fract_z
 _atom_site_occupancy
  Li  Li0  1  0.750000  0.250000  0.500000  1
  Ga  Ga1  1  0.500000  0.500000  0.000000  1
  Ga  Ga2  1  0.250000  0.750000  0.500000  1
  Ag  Ag3  1  0.000000  0.000000  0.000000  1
  Se  Se4  1  0.872551  0.853917  0.469449  1
  Se  Se5  1  0.146083  0.615532  0.018634  1
  Se  Se6  1  0.384468  0.403102  0.530551  1
  Se  Se7  1  0.596898  0.127449  0.981366  1
