# generated using pymatgen
data_Pr4Ru3PtF28
_symmetry_space_group_name_H-M   'P 1'
_cell_length_a   5.72222831
_cell_length_b   9.24370136
_cell_length_c   12.32521823
_cell_angle_alpha   62.57992193
_cell_angle_beta   89.98267426
_cell_angle_gamma   89.93607311
_symmetry_Int_Tables_number   1
_chemical_formula_structural   Pr4Ru3PtF28
_chemical_formula_sum   'Pr4 Ru3 Pt1 F28'
_cell_volume   578.69425089
_cell_formula_units_Z   1
loop_
 _symmetry_equiv_pos_site_id
 _symmetry_equiv_pos_as_xyz
  1  'x, y, z'
loop_
 _atom_site_type_symbol
 _atom_site_label
 _atom_site_symmetry_multiplicity
 _atom_site_fract_x
 _atom_site_fract_y
 _atom_site_fract_z
 _atom_site_occupancy
  Pr  Pr0  1  0.759124  0.811456  0.765476  1
  Pr  Pr1  1  0.259084  0.191352  0.733432  1
  Pr  Pr2  1  0.239780  0.190113  0.232969  1
  Pr  Pr3  1  0.741175  0.806456  0.268332  1
  Ru  Ru4  1  0.753776  0.274614  0.957015  1
  Ru  Ru5  1  0.254860  0.725344  0.544168  1
  Ru  Ru6  1  0.245626  0.726428  0.042714  1
  Pt  Pt7  1  0.744320  0.272398  0.456961  1
  F  F8  1  0.446431  0.708691  0.920080  1
  F  F9  1  0.931302  0.295834  0.582016  1
  F  F10  1  0.551694  0.292524  0.079481  1
  F  F11  1  0.055766  0.707830  0.420931  1
  F  F12  1  0.452521  0.285118  0.537784  1
  F  F13  1  0.964157  0.713277  0.955184  1
  F  F14  1  0.537235  0.714208  0.456814  1
  F  F15  1  0.035407  0.288045  0.045020  1
  F  F16  1  0.759285  0.506703  0.862740  1
  F  F17  1  0.262277  0.491931  0.636817  1
  F  F18  1  0.239449  0.493880  0.138401  1
  F  F19  1  0.738624  0.511130  0.359245  1
  F  F20  1  0.759073  0.042863  0.048457  1
  F  F21  1  0.258980  0.957309  0.453145  1
  F  F22  1  0.241131  0.958703  0.950652  1
  F  F23  1  0.740701  0.033012  0.549145  1
  F  F24  1  0.977833  0.728254  0.637072  1
  F  F25  1  0.476479  0.267181  0.865208  1
  F  F26  1  0.032066  0.266908  0.371447  1
  F  F27  1  0.523240  0.735296  0.133187  1
  F  F28  1  0.047771  0.746586  0.165960  1
  F  F29  1  0.559567  0.254031  0.329034  1
  F  F30  1  0.954060  0.256127  0.833318  1
  F  F31  1  0.452137  0.741332  0.669244  1
  F  F32  1  0.412660  0.969816  0.230869  1
  F  F33  1  0.912808  0.029986  0.269898  1
  F  F34  1  0.589543  0.034205  0.768309  1
  F  F35  1  0.090054  0.971057  0.729475  1
