# generated using pymatgen
data_Ho2Er(CdGa)3
_symmetry_space_group_name_H-M   'P 1'
_cell_length_a   7.24314536
_cell_length_b   7.24708290
_cell_length_c   4.39344300
_cell_angle_alpha   90.00000000
_cell_angle_beta   90.00000000
_cell_angle_gamma   120.01799436
_symmetry_Int_Tables_number   1
_chemical_formula_structural   Ho2Er(CdGa)3
_chemical_formula_sum   'Ho2 Er1 Cd3 Ga3'
_cell_volume   199.68584566
_cell_formula_units_Z   1
loop_
 _symmetry_equiv_pos_site_id
 _symmetry_equiv_pos_as_xyz
  1  'x, y, z'
loop_
 _atom_site_type_symbol
 _atom_site_label
 _atom_site_symmetry_multiplicity
 _atom_site_fract_x
 _atom_site_fract_y
 _atom_site_fract_z
 _atom_site_occupancy
  Ho  Ho0  1  0.423910  0.423977  0.500000  1
  Ho  Ho1  1  0.576090  0.000067  0.500000  1
  Er  Er2  1  0.000000  0.576112  0.500000  1
  Cd  Cd3  1  0.751719  0.751634  0.000000  1
  Cd  Cd4  1  0.248281  0.999915  0.000000  1
  Cd  Cd5  1  0.000000  0.248483  0.000000  1
  Ga  Ga6  1  0.666952  0.333480  0.000000  1
  Ga  Ga7  1  0.333048  0.666529  0.000000  1
  Ga  Ga8  1  0.000000  0.999805  0.500000  1
