# generated using pymatgen
data_Ba5Sr(Si2P3)4
_symmetry_space_group_name_H-M   'P 1'
_cell_length_a   7.34081900
_cell_length_b   7.57458923
_cell_length_c   11.57202731
_cell_angle_alpha   80.58114481
_cell_angle_beta   90.00000000
_cell_angle_gamma   90.00000000
_symmetry_Int_Tables_number   1
_chemical_formula_structural   Ba5Sr(Si2P3)4
_chemical_formula_sum   'Ba5 Sr1 Si8 P12'
_cell_volume   634.77267585
_cell_formula_units_Z   1
loop_
 _symmetry_equiv_pos_site_id
 _symmetry_equiv_pos_as_xyz
  1  'x, y, z'
loop_
 _atom_site_type_symbol
 _atom_site_label
 _atom_site_symmetry_multiplicity
 _atom_site_fract_x
 _atom_site_fract_y
 _atom_site_fract_z
 _atom_site_occupancy
  Ba  Ba0  1  0.250000  0.498134  0.507630  1
  Ba  Ba1  1  0.750000  0.912401  0.851723  1
  Ba  Ba2  1  0.250000  0.087197  0.149805  1
  Ba  Ba3  1  0.750000  0.408254  0.862822  1
  Ba  Ba4  1  0.250000  0.592292  0.135640  1
  Sr  Sr5  1  0.750000  0.502847  0.488377  1
  Si  Si6  1  0.421638  0.977064  0.591167  1
  Si  Si7  1  0.920620  0.022638  0.409964  1
  Si  Si8  1  0.579380  0.022638  0.409964  1
  Si  Si9  1  0.078362  0.977064  0.591167  1
  Si  Si10  1  0.750000  0.326373  0.203586  1
  Si  Si11  1  0.250000  0.179224  0.794849  1
  Si  Si12  1  0.250000  0.673119  0.795207  1
  Si  Si13  1  0.750000  0.821823  0.203818  1
  P  P14  1  0.998390  0.208548  0.680552  1
  P  P15  1  0.503611  0.789471  0.320871  1
  P  P16  1  0.250000  0.395935  0.912817  1
  P  P17  1  0.750000  0.603813  0.086836  1
  P  P18  1  0.250000  0.897960  0.911015  1
  P  P19  1  0.750000  0.102615  0.087742  1
  P  P20  1  0.501663  0.701089  0.680765  1
  P  P21  1  0.996428  0.300197  0.320747  1
  P  P22  1  0.503572  0.300197  0.320747  1
  P  P23  1  0.998337  0.701089  0.680765  1
  P  P24  1  0.501610  0.208548  0.680552  1
  P  P25  1  0.996389  0.789471  0.320871  1
