# generated using pymatgen
data_Zn5CuRu
_symmetry_space_group_name_H-M   'P 1'
_cell_length_a   5.29064197
_cell_length_b   5.34092871
_cell_length_c   5.29064407
_cell_angle_alpha   59.68508877
_cell_angle_beta   61.91372410
_cell_angle_gamma   59.68507855
_symmetry_Int_Tables_number   1
_chemical_formula_structural   Zn5CuRu
_chemical_formula_sum   'Zn5 Cu1 Ru1'
_cell_volume   106.62565249
_cell_formula_units_Z   1
loop_
 _symmetry_equiv_pos_site_id
 _symmetry_equiv_pos_as_xyz
  1  'x, y, z'
loop_
 _atom_site_type_symbol
 _atom_site_label
 _atom_site_symmetry_multiplicity
 _atom_site_fract_x
 _atom_site_fract_y
 _atom_site_fract_z
 _atom_site_occupancy
  Zn  Zn0  1  0.500000  0.000000  0.000000  1
  Zn  Zn1  1  0.000000  0.500000  0.000000  1
  Zn  Zn2  1  0.500000  0.500000  0.000000  1
  Zn  Zn3  1  0.000000  0.000000  0.500000  1
  Zn  Zn4  1  0.000000  0.500000  0.500000  1
  Cu  Cu5  1  0.500000  0.000000  0.500000  1
  Ru  Ru6  1  0.000000  0.000000  0.000000  1
