# generated using pymatgen
data_LaTbY(ZnPt)4
_symmetry_space_group_name_H-M   'P 1'
_cell_length_a   8.30186256
_cell_length_b   8.30186276
_cell_length_c   8.30186180
_cell_angle_alpha   151.64838861
_cell_angle_beta   126.08423599
_cell_angle_gamma   62.02903783
_symmetry_Int_Tables_number   1
_chemical_formula_structural   LaTbY(ZnPt)4
_chemical_formula_sum   'La1 Tb1 Y1 Zn4 Pt4'
_cell_volume   217.76641191
_cell_formula_units_Z   1
loop_
 _symmetry_equiv_pos_site_id
 _symmetry_equiv_pos_as_xyz
  1  'x, y, z'
loop_
 _atom_site_type_symbol
 _atom_site_label
 _atom_site_symmetry_multiplicity
 _atom_site_fract_x
 _atom_site_fract_y
 _atom_site_fract_z
 _atom_site_occupancy
  La  La0  1  0.499996  0.999996  0.500000  1
  Tb  Tb1  1  0.873681  0.873681  0.000000  1
  Y  Y2  1  0.126423  0.126423  0.000000  1
  Zn  Zn3  1  0.476998  0.674358  0.802640  1
  Zn  Zn4  1  0.871719  0.674358  0.197360  1
  Zn  Zn5  1  0.128387  0.325642  0.802746  1
  Zn  Zn6  1  0.522897  0.325642  0.197254  1
  Pt  Pt7  1  0.277319  0.777319  0.500000  1
  Pt  Pt8  1  0.722664  0.222664  0.500000  1
  Pt  Pt9  1  0.809342  0.499958  0.309384  1
  Pt  Pt10  1  0.190575  0.499958  0.690616  1
