# generated using pymatgen
data_La2Y6Ho12Si15Os
_symmetry_space_group_name_H-M   'P 1'
_cell_length_a   7.41725818
_cell_length_b   7.77601013
_cell_length_c   14.62317824
_cell_angle_alpha   89.68458674
_cell_angle_beta   89.99513964
_cell_angle_gamma   89.96694522
_symmetry_Int_Tables_number   1
_chemical_formula_structural   La2Y6Ho12Si15Os
_chemical_formula_sum   'La2 Y6 Ho12 Si15 Os1'
_cell_volume   843.40337191
_cell_formula_units_Z   1
loop_
 _symmetry_equiv_pos_site_id
 _symmetry_equiv_pos_as_xyz
  1  'x, y, z'
loop_
 _atom_site_type_symbol
 _atom_site_label
 _atom_site_symmetry_multiplicity
 _atom_site_fract_x
 _atom_site_fract_y
 _atom_site_fract_z
 _atom_site_occupancy
  La  La0  1  0.522271  0.569556  0.342499  1
  La  La1  1  0.024168  0.428150  0.657719  1
  Y  Y2  1  0.477565  0.924799  0.849063  1
  Y  Y3  1  0.973353  0.066161  0.151243  1
  Y  Y4  1  0.475948  0.925038  0.150393  1
  Y  Y5  1  0.971993  0.066938  0.849570  1
  Y  Y6  1  0.528473  0.565228  0.652095  1
  Y  Y7  1  0.027132  0.433299  0.347423  1
  Ho  Ho8  1  0.805942  0.576806  0.878008  1
  Ho  Ho9  1  0.324901  0.432349  0.122777  1
  Ho  Ho10  1  0.183417  0.928309  0.373150  1
  Ho  Ho11  1  0.682667  0.069319  0.626659  1
  Ho  Ho12  1  0.183513  0.927418  0.628425  1
  Ho  Ho13  1  0.682207  0.070348  0.372109  1
  Ho  Ho14  1  0.809154  0.573988  0.122795  1
  Ho  Ho15  1  0.327760  0.437184  0.875965  1
  Ho  Ho16  1  0.643526  0.239924  0.999601  1
  Ho  Ho17  1  0.159296  0.760521  0.000299  1
  Ho  Ho18  1  0.350589  0.263408  0.499855  1
  Ho  Ho19  1  0.849360  0.734744  0.499969  1
  Si  Si20  1  0.018334  0.351051  0.999611  1
  Si  Si21  1  0.476339  0.859825  0.501108  1
  Si  Si22  1  0.979162  0.138848  0.499040  1
  Si  Si23  1  0.652790  0.275847  0.789621  1
  Si  Si24  1  0.146998  0.720850  0.209895  1
  Si  Si25  1  0.352041  0.215465  0.286968  1
  Si  Si26  1  0.849966  0.784329  0.712908  1
  Si  Si27  1  0.361940  0.218756  0.711600  1
  Si  Si28  1  0.858747  0.781058  0.288491  1
  Si  Si29  1  0.649091  0.268434  0.207286  1
  Si  Si30  1  0.141540  0.727978  0.792810  1
  Si  Si31  1  0.767450  0.882987  0.000326  1
  Si  Si32  1  0.258501  0.126574  0.999546  1
  Si  Si33  1  0.232243  0.626497  0.502029  1
  Si  Si34  1  0.733559  0.373617  0.498797  1
  Os  Os35  1  0.518060  0.654398  0.000341  1
