# generated using pymatgen
data_Cs3CrS4
_symmetry_space_group_name_H-M   'P 1'
_cell_length_a   9.79694600
_cell_length_b   9.80481300
_cell_length_c   11.80203500
_cell_angle_alpha   90.00000000
_cell_angle_beta   90.00000000
_cell_angle_gamma   90.00000000
_symmetry_Int_Tables_number   1
_chemical_formula_structural   Cs3CrS4
_chemical_formula_sum   'Cs12 Cr4 S16'
_cell_volume   1133.67071376
_cell_formula_units_Z   4
loop_
 _symmetry_equiv_pos_site_id
 _symmetry_equiv_pos_as_xyz
  1  'x, y, z'
loop_
 _atom_site_type_symbol
 _atom_site_label
 _atom_site_symmetry_multiplicity
 _atom_site_fract_x
 _atom_site_fract_y
 _atom_site_fract_z
 _atom_site_occupancy
  Cs  Cs0  1  0.405656  0.844561  0.750000  1
  Cs  Cs1  1  0.594344  0.155439  0.250000  1
  Cs  Cs2  1  0.094344  0.344561  0.750000  1
  Cs  Cs3  1  0.707236  0.537550  0.958130  1
  Cs  Cs4  1  0.292764  0.462450  0.041870  1
  Cs  Cs5  1  0.905656  0.655439  0.250000  1
  Cs  Cs6  1  0.207236  0.962450  0.041870  1
  Cs  Cs7  1  0.292764  0.462450  0.458130  1
  Cs  Cs8  1  0.207236  0.962450  0.458130  1
  Cs  Cs9  1  0.707236  0.537550  0.541870  1
  Cs  Cs10  1  0.792764  0.037550  0.541870  1
  Cs  Cs11  1  0.792764  0.037550  0.958130  1
  Cr  Cr12  1  0.980753  0.774010  0.750000  1
  Cr  Cr13  1  0.519247  0.274010  0.750000  1
  Cr  Cr14  1  0.019247  0.225990  0.250000  1
  Cr  Cr15  1  0.480753  0.725990  0.250000  1
  S  S16  1  0.562198  0.523252  0.250000  1
  S  S17  1  0.062198  0.976748  0.750000  1
  S  S18  1  0.453892  0.172003  0.899969  1
  S  S19  1  0.046108  0.672003  0.600031  1
  S  S20  1  0.437802  0.476748  0.750000  1
  S  S21  1  0.953892  0.327997  0.100031  1
  S  S22  1  0.546108  0.827997  0.399969  1
  S  S23  1  0.762882  0.784306  0.750000  1
  S  S24  1  0.046108  0.672003  0.899969  1
  S  S25  1  0.262882  0.715694  0.250000  1
  S  S26  1  0.546108  0.827997  0.100031  1
  S  S27  1  0.237118  0.215694  0.250000  1
  S  S28  1  0.737118  0.284306  0.750000  1
  S  S29  1  0.453892  0.172003  0.600031  1
  S  S30  1  0.937802  0.023252  0.250000  1
  S  S31  1  0.953892  0.327997  0.399969  1
