# generated using pymatgen
data_LaNd15(ZrIr3)4
_symmetry_space_group_name_H-M   'P 1'
_cell_length_a   11.20124549
_cell_length_b   11.20784654
_cell_length_c   6.38449287
_cell_angle_alpha   90.04298112
_cell_angle_beta   90.04161279
_cell_angle_gamma   89.90621865
_symmetry_Int_Tables_number   1
_chemical_formula_structural   LaNd15(ZrIr3)4
_chemical_formula_sum   'La1 Nd15 Zr4 Ir12'
_cell_volume   801.51947558
_cell_formula_units_Z   1
loop_
 _symmetry_equiv_pos_site_id
 _symmetry_equiv_pos_as_xyz
  1  'x, y, z'
loop_
 _atom_site_type_symbol
 _atom_site_label
 _atom_site_symmetry_multiplicity
 _atom_site_fract_x
 _atom_site_fract_y
 _atom_site_fract_z
 _atom_site_occupancy
  La  La0  1  0.087062  0.287632  0.121149  1
  Nd  Nd1  1  0.786817  0.413649  0.121881  1
  Nd  Nd2  1  0.212758  0.587552  0.121866  1
  Nd  Nd3  1  0.913436  0.712353  0.121238  1
  Nd  Nd4  1  0.413312  0.787690  0.378642  1
  Nd  Nd5  1  0.586686  0.212537  0.378344  1
  Nd  Nd6  1  0.288307  0.086468  0.378883  1
  Nd  Nd7  1  0.712204  0.913517  0.378655  1
  Nd  Nd8  1  0.413732  0.212195  0.877911  1
  Nd  Nd9  1  0.712216  0.086721  0.878150  1
  Nd  Nd10  1  0.287668  0.913312  0.878706  1
  Nd  Nd11  1  0.586706  0.787706  0.878492  1
  Nd  Nd12  1  0.086674  0.712093  0.621280  1
  Nd  Nd13  1  0.912431  0.287618  0.621347  1
  Nd  Nd14  1  0.212760  0.413819  0.621775  1
  Nd  Nd15  1  0.787815  0.586638  0.621794  1
  Zr  Zr16  1  0.999569  0.999005  0.999622  1
  Zr  Zr17  1  0.500031  0.500163  0.999640  1
  Zr  Zr18  1  0.499978  0.500007  0.499952  1
  Zr  Zr19  1  0.000083  0.999742  0.500342  1
  Ir  Ir20  1  0.138811  0.861126  0.250132  1
  Ir  Ir21  1  0.361668  0.361301  0.249997  1
  Ir  Ir22  1  0.638742  0.638692  0.250227  1
  Ir  Ir23  1  0.860647  0.138707  0.250539  1
  Ir  Ir24  1  0.361117  0.638683  0.749485  1
  Ir  Ir25  1  0.139037  0.139099  0.750826  1
  Ir  Ir26  1  0.861037  0.861260  0.749920  1
  Ir  Ir27  1  0.638915  0.361343  0.749723  1
  Ir  Ir28  1  0.000063  0.499507  0.379077  1
  Ir  Ir29  1  0.500066  0.999787  0.120308  1
  Ir  Ir30  1  0.499879  0.999875  0.620392  1
  Ir  Ir31  1  0.999773  0.500205  0.879704  1
