# generated using pymatgen
data_Mn4HgPd8Au3
_symmetry_space_group_name_H-M   'P 1'
_cell_length_a   6.93619583
_cell_length_b   6.93619592
_cell_length_c   6.93619598
_cell_angle_alpha   107.89691687
_cell_angle_beta   107.89692035
_cell_angle_gamma   112.66790295
_symmetry_Int_Tables_number   1
_chemical_formula_structural   Mn4HgPd8Au3
_chemical_formula_sum   'Mn4 Hg1 Pd8 Au3'
_cell_volume   256.28366713
_cell_formula_units_Z   1
loop_
 _symmetry_equiv_pos_site_id
 _symmetry_equiv_pos_as_xyz
  1  'x, y, z'
loop_
 _atom_site_type_symbol
 _atom_site_label
 _atom_site_symmetry_multiplicity
 _atom_site_fract_x
 _atom_site_fract_y
 _atom_site_fract_z
 _atom_site_occupancy
  Mn  Mn0  1  0.255273  0.255273  0.510545  1
  Mn  Mn1  1  0.744727  0.744727  0.489455  1
  Mn  Mn2  1  0.255273  0.744727  0.000000  1
  Mn  Mn3  1  0.744727  0.255273  0.000000  1
  Hg  Hg4  1  0.000000  0.000000  0.000000  1
  Pd  Pd5  1  0.500641  0.249821  0.250818  1
  Pd  Pd6  1  0.499359  0.750179  0.749182  1
  Pd  Pd7  1  0.999003  0.249821  0.749182  1
  Pd  Pd8  1  0.249821  0.999003  0.749182  1
  Pd  Pd9  1  0.000997  0.750179  0.250818  1
  Pd  Pd10  1  0.750179  0.000997  0.250818  1
  Pd  Pd11  1  0.249821  0.500641  0.250818  1
  Pd  Pd12  1  0.750179  0.499359  0.749182  1
  Au  Au13  1  0.500000  0.000000  0.500000  1
  Au  Au14  1  0.000000  0.500000  0.500000  1
  Au  Au15  1  0.500000  0.500000  0.000000  1
