# generated using pymatgen
data_SrYb3(Al3Pt)6
_symmetry_space_group_name_H-M   'P 1'
_cell_length_a   7.65033418
_cell_length_b   7.65703031
_cell_length_c   9.52927400
_cell_angle_alpha   90.00000000
_cell_angle_beta   90.00000000
_cell_angle_gamma   119.58541031
_symmetry_Int_Tables_number   1
_chemical_formula_structural   SrYb3(Al3Pt)6
_chemical_formula_sum   'Sr1 Yb3 Al18 Pt6'
_cell_volume   485.43428367
_cell_formula_units_Z   1
loop_
 _symmetry_equiv_pos_site_id
 _symmetry_equiv_pos_as_xyz
  1  'x, y, z'
loop_
 _atom_site_type_symbol
 _atom_site_label
 _atom_site_symmetry_multiplicity
 _atom_site_fract_x
 _atom_site_fract_y
 _atom_site_fract_z
 _atom_site_occupancy
  Sr  Sr0  1  0.996306  0.670008  0.250000  1
  Yb  Yb1  1  0.002745  0.328730  0.750000  1
  Yb  Yb2  1  0.670758  0.996709  0.250000  1
  Yb  Yb3  1  0.329284  0.003488  0.750000  1
  Al  Al4  1  0.131352  0.134009  0.250000  1
  Al  Al5  1  0.869132  0.870419  0.750000  1
  Al  Al6  1  0.999908  0.332153  0.073159  1
  Al  Al7  1  0.000613  0.665259  0.919061  1
  Al  Al8  1  0.000613  0.665259  0.580939  1
  Al  Al9  1  0.337152  0.002187  0.426572  1
  Al  Al10  1  0.999908  0.332153  0.426841  1
  Al  Al11  1  0.665155  0.000738  0.577939  1
  Al  Al12  1  0.665155  0.000738  0.922061  1
  Al  Al13  1  0.337152  0.002187  0.073428  1
  Al  Al14  1  0.331985  0.332212  0.557931  1
  Al  Al15  1  0.665861  0.667691  0.447930  1
  Al  Al16  1  0.665861  0.667691  0.052070  1
  Al  Al17  1  0.331985  0.332212  0.942069  1
  Al  Al18  1  0.343189  0.545754  0.250000  1
  Al  Al19  1  0.658548  0.453202  0.750000  1
  Al  Al20  1  0.542068  0.336228  0.250000  1
  Al  Al21  1  0.453759  0.659793  0.750000  1
  Pt  Pt22  1  0.670956  0.328293  0.998730  1
  Pt  Pt23  1  0.329211  0.671315  0.998785  1
  Pt  Pt24  1  0.329211  0.671315  0.501215  1
  Pt  Pt25  1  0.670956  0.328293  0.501270  1
  Pt  Pt26  1  0.000589  0.000983  0.998422  1
  Pt  Pt27  1  0.000589  0.000983  0.501578  1
