# generated using pymatgen
data_SrPr3HgPb11
_symmetry_space_group_name_H-M   'P 1'
_cell_length_a   9.97249400
_cell_length_b   6.98210442
_cell_length_c   6.95176000
_cell_angle_alpha   90.17189323
_cell_angle_beta   90.00000000
_cell_angle_gamma   90.00000000
_symmetry_Int_Tables_number   1
_chemical_formula_structural   SrPr3HgPb11
_chemical_formula_sum   'Sr1 Pr3 Hg1 Pb11'
_cell_volume   484.04188012
_cell_formula_units_Z   1
loop_
 _symmetry_equiv_pos_site_id
 _symmetry_equiv_pos_as_xyz
  1  'x, y, z'
loop_
 _atom_site_type_symbol
 _atom_site_label
 _atom_site_symmetry_multiplicity
 _atom_site_fract_x
 _atom_site_fract_y
 _atom_site_fract_z
 _atom_site_occupancy
  Sr  Sr0  1  0.750000  0.501798  0.499623  1
  Pr  Pr1  1  0.250000  0.000790  0.000456  1
  Pr  Pr2  1  0.250000  0.500675  0.501591  1
  Pr  Pr3  1  0.750000  0.000419  0.998675  1
  Hg  Hg4  1  0.750000  0.496083  0.999212  1
  Pb  Pb5  1  0.999209  0.244856  0.749746  1
  Pb  Pb6  1  0.500965  0.249562  0.245457  1
  Pb  Pb7  1  0.501300  0.754544  0.248218  1
  Pb  Pb8  1  0.999023  0.749786  0.756198  1
  Pb  Pb9  1  0.998700  0.754544  0.248218  1
  Pb  Pb10  1  0.500977  0.749786  0.756198  1
  Pb  Pb11  1  0.500791  0.244856  0.749746  1
  Pb  Pb12  1  0.999035  0.249562  0.245457  1
  Pb  Pb13  1  0.250000  0.999653  0.500360  1
  Pb  Pb14  1  0.250000  0.501353  0.001905  1
  Pb  Pb15  1  0.750000  0.001732  0.498942  1
