# generated using pymatgen
data_La10SiTcSb4
_symmetry_space_group_name_H-M   'P 1'
_cell_length_a   8.41053431
_cell_length_b   9.36390900
_cell_length_c   12.81104226
_cell_angle_alpha   90.00000000
_cell_angle_beta   89.30011515
_cell_angle_gamma   90.00000000
_symmetry_Int_Tables_number   1
_chemical_formula_structural   La10SiTcSb4
_chemical_formula_sum   'La20 Si2 Tc2 Sb8'
_cell_volume   1008.86448301
_cell_formula_units_Z   2
loop_
 _symmetry_equiv_pos_site_id
 _symmetry_equiv_pos_as_xyz
  1  'x, y, z'
loop_
 _atom_site_type_symbol
 _atom_site_label
 _atom_site_symmetry_multiplicity
 _atom_site_fract_x
 _atom_site_fract_y
 _atom_site_fract_z
 _atom_site_occupancy
  La  La0  1  0.042228  0.750000  0.499068  1
  La  La1  1  0.957772  0.250000  0.500932  1
  La  La2  1  0.529417  0.250000  0.000757  1
  La  La3  1  0.470583  0.750000  0.999243  1
  La  La4  1  0.876093  0.750000  0.801676  1
  La  La5  1  0.123907  0.250000  0.198324  1
  La  La6  1  0.369129  0.250000  0.705969  1
  La  La7  1  0.630871  0.750000  0.294031  1
  La  La8  1  0.696621  0.534745  0.563220  1
  La  La9  1  0.303379  0.465255  0.436780  1
  La  La10  1  0.185511  0.472812  0.937303  1
  La  La11  1  0.303379  0.034745  0.436780  1
  La  La12  1  0.814489  0.527188  0.062697  1
  La  La13  1  0.696621  0.965255  0.563220  1
  La  La14  1  0.814489  0.972812  0.062697  1
  La  La15  1  0.185511  0.027188  0.937303  1
  La  La16  1  0.335849  0.750000  0.716751  1
  La  La17  1  0.664151  0.250000  0.283249  1
  La  La18  1  0.853264  0.250000  0.802616  1
  La  La19  1  0.146736  0.750000  0.197384  1
  Si  Si20  1  0.553675  0.250000  0.504482  1
  Si  Si21  1  0.446325  0.750000  0.495518  1
  Tc  Tc22  1  0.094144  0.750000  0.978050  1
  Tc  Tc23  1  0.905856  0.250000  0.021950  1
  Sb  Sb24  1  0.577024  0.506706  0.823656  1
  Sb  Sb25  1  0.422976  0.493294  0.176344  1
  Sb  Sb26  1  0.076860  0.489886  0.671350  1
  Sb  Sb27  1  0.422976  0.006706  0.176344  1
  Sb  Sb28  1  0.923140  0.510114  0.328650  1
  Sb  Sb29  1  0.577024  0.993294  0.823656  1
  Sb  Sb30  1  0.923140  0.989886  0.328650  1
  Sb  Sb31  1  0.076860  0.010114  0.671350  1
