# generated using pymatgen
data_Ba2Sr(GaP2)2
_symmetry_space_group_name_H-M   'P 1'
_cell_length_a   8.58079398
_cell_length_b   8.58079341
_cell_length_c   6.87592705
_cell_angle_alpha   87.91316188
_cell_angle_beta   87.91316167
_cell_angle_gamma   76.42292633
_symmetry_Int_Tables_number   1
_chemical_formula_structural   Ba2Sr(GaP2)2
_chemical_formula_sum   'Ba4 Sr2 Ga4 P8'
_cell_volume   491.59803596
_cell_formula_units_Z   2
loop_
 _symmetry_equiv_pos_site_id
 _symmetry_equiv_pos_as_xyz
  1  'x, y, z'
loop_
 _atom_site_type_symbol
 _atom_site_label
 _atom_site_symmetry_multiplicity
 _atom_site_fract_x
 _atom_site_fract_y
 _atom_site_fract_z
 _atom_site_occupancy
  Ba  Ba0  1  0.000291  0.741031  0.562958  1
  Ba  Ba1  1  0.258969  0.999709  0.937042  1
  Ba  Ba2  1  0.999709  0.258969  0.437042  1
  Ba  Ba3  1  0.741031  0.000291  0.062958  1
  Sr  Sr4  1  0.398080  0.601920  0.250000  1
  Sr  Sr5  1  0.601920  0.398080  0.750000  1
  Ga  Ga6  1  0.823016  0.579403  0.072544  1
  Ga  Ga7  1  0.420597  0.176984  0.427456  1
  Ga  Ga8  1  0.176984  0.420597  0.927456  1
  Ga  Ga9  1  0.579403  0.823016  0.572544  1
  P  P10  1  0.060972  0.694132  0.039417  1
  P  P11  1  0.305868  0.939028  0.460583  1
  P  P12  1  0.939028  0.305868  0.960583  1
  P  P13  1  0.694132  0.060972  0.539417  1
  P  P14  1  0.728324  0.582565  0.410113  1
  P  P15  1  0.417435  0.271676  0.089887  1
  P  P16  1  0.271676  0.417435  0.589887  1
  P  P17  1  0.582565  0.728324  0.910113  1
