# generated using pymatgen
data_Ba3FeTc2O9
_symmetry_space_group_name_H-M   'P 1'
_cell_length_a   5.84105900
_cell_length_b   5.84105920
_cell_length_c   14.13785500
_cell_angle_alpha   90.00000000
_cell_angle_beta   90.00000000
_cell_angle_gamma   119.99999320
_symmetry_Int_Tables_number   1
_chemical_formula_structural   Ba3FeTc2O9
_chemical_formula_sum   'Ba6 Fe2 Tc4 O18'
_cell_volume   417.73165407
_cell_formula_units_Z   2
loop_
 _symmetry_equiv_pos_site_id
 _symmetry_equiv_pos_as_xyz
  1  'x, y, z'
loop_
 _atom_site_type_symbol
 _atom_site_label
 _atom_site_symmetry_multiplicity
 _atom_site_fract_x
 _atom_site_fract_y
 _atom_site_fract_z
 _atom_site_occupancy
  Ba  Ba0  1  0.666667  0.333333  0.588796  1
  Ba  Ba1  1  0.333333  0.666667  0.411204  1
  Ba  Ba2  1  0.666667  0.333333  0.911204  1
  Ba  Ba3  1  0.000000  0.000000  0.250000  1
  Ba  Ba4  1  0.333333  0.666667  0.088796  1
  Ba  Ba5  1  0.000000  0.000000  0.750000  1
  Fe  Fe6  1  0.000000  0.000000  0.500000  1
  Fe  Fe7  1  0.000000  0.000000  0.000000  1
  Tc  Tc8  1  0.333333  0.666667  0.660688  1
  Tc  Tc9  1  0.666667  0.333333  0.160688  1
  Tc  Tc10  1  0.333333  0.666667  0.839312  1
  Tc  Tc11  1  0.666667  0.333333  0.339312  1
  O  O12  1  0.831453  0.168547  0.417242  1
  O  O13  1  0.831453  0.662907  0.082758  1
  O  O14  1  0.662907  0.831453  0.582758  1
  O  O15  1  0.831453  0.168547  0.082758  1
  O  O16  1  0.168547  0.337093  0.917242  1
  O  O17  1  0.831453  0.662907  0.417242  1
  O  O18  1  0.508136  0.491864  0.250000  1
  O  O19  1  0.337093  0.168547  0.417242  1
  O  O20  1  0.168547  0.831453  0.917242  1
  O  O21  1  0.508136  0.016271  0.250000  1
  O  O22  1  0.168547  0.831453  0.582758  1
  O  O23  1  0.491864  0.983729  0.750000  1
  O  O24  1  0.016271  0.508136  0.750000  1
  O  O25  1  0.491864  0.508136  0.750000  1
  O  O26  1  0.168547  0.337093  0.582758  1
  O  O27  1  0.662907  0.831453  0.917242  1
  O  O28  1  0.983729  0.491864  0.250000  1
  O  O29  1  0.337093  0.168547  0.082758  1
