# generated using pymatgen
data_BaMn7NiO16
_symmetry_space_group_name_H-M   'P 1'
_cell_length_a   5.86112287
_cell_length_b   7.13544064
_cell_length_c   7.25021643
_cell_angle_alpha   88.56716901
_cell_angle_beta   78.36138299
_cell_angle_gamma   78.06300971
_symmetry_Int_Tables_number   1
_chemical_formula_structural   BaMn7NiO16
_chemical_formula_sum   'Ba1 Mn7 Ni1 O16'
_cell_volume   290.51577260
_cell_formula_units_Z   1
loop_
 _symmetry_equiv_pos_site_id
 _symmetry_equiv_pos_as_xyz
  1  'x, y, z'
loop_
 _atom_site_type_symbol
 _atom_site_label
 _atom_site_symmetry_multiplicity
 _atom_site_fract_x
 _atom_site_fract_y
 _atom_site_fract_z
 _atom_site_occupancy
  Ba  Ba0  1  0.998244  0.995313  0.000385  1
  Mn  Mn1  1  0.081241  0.507191  0.181950  1
  Mn  Mn2  1  0.173771  0.816558  0.516858  1
  Mn  Mn3  1  0.666961  0.819120  0.522962  1
  Mn  Mn4  1  0.336107  0.187609  0.477463  1
  Mn  Mn5  1  0.838795  0.185376  0.484822  1
  Mn  Mn6  1  0.429391  0.486270  0.820224  1
  Mn  Mn7  1  0.924857  0.492157  0.820569  1
  Ni  Ni8  1  0.580098  0.515768  0.183532  1
  O  O9  1  0.846998  0.645874  0.045223  1
  O  O10  1  0.315493  0.643329  0.044749  1
  O  O11  1  0.981369  0.706614  0.378562  1
  O  O12  1  0.482813  0.706563  0.393035  1
  O  O13  1  0.856926  0.956547  0.646654  1
  O  O14  1  0.351040  0.958340  0.645269  1
  O  O15  1  0.332015  0.367195  0.289286  1
  O  O16  1  0.852940  0.357440  0.284166  1
  O  O17  1  0.167950  0.633069  0.715866  1
  O  O18  1  0.665339  0.633099  0.718968  1
  O  O19  1  0.152356  0.042072  0.358197  1
  O  O20  1  0.656580  0.043146  0.359719  1
  O  O21  1  0.027665  0.294736  0.620744  1
  O  O22  1  0.524394  0.301119  0.612526  1
  O  O23  1  0.177220  0.352731  0.945470  1
  O  O24  1  0.686537  0.352761  0.932795  1
