# generated using pymatgen
data_Hf14Pt17Au3
_symmetry_space_group_name_H-M   'P 1'
_cell_length_a   8.18881327
_cell_length_b   8.18881292
_cell_length_c   9.69540707
_cell_angle_alpha   90.06229258
_cell_angle_beta   90.06229322
_cell_angle_gamma   107.35440339
_symmetry_Int_Tables_number   1
_chemical_formula_structural   Hf14Pt17Au3
_chemical_formula_sum   'Hf14 Pt17 Au3'
_cell_volume   620.54482726
_cell_formula_units_Z   1
loop_
 _symmetry_equiv_pos_site_id
 _symmetry_equiv_pos_as_xyz
  1  'x, y, z'
loop_
 _atom_site_type_symbol
 _atom_site_label
 _atom_site_symmetry_multiplicity
 _atom_site_fract_x
 _atom_site_fract_y
 _atom_site_fract_z
 _atom_site_occupancy
  Hf  Hf0  1  0.698725  0.301521  0.999561  1
  Hf  Hf1  1  0.301521  0.698725  0.999561  1
  Hf  Hf2  1  0.808387  0.196793  0.497677  1
  Hf  Hf3  1  0.196793  0.808387  0.497677  1
  Hf  Hf4  1  0.000490  0.000490  0.998956  1
  Hf  Hf5  1  0.501109  0.501109  0.499768  1
  Hf  Hf6  1  0.001154  0.502960  0.249923  1
  Hf  Hf7  1  0.998798  0.498707  0.749119  1
  Hf  Hf8  1  0.498707  0.998798  0.749119  1
  Hf  Hf9  1  0.502960  0.001154  0.249923  1
  Hf  Hf10  1  0.308490  0.308490  0.192065  1
  Hf  Hf11  1  0.681343  0.681343  0.817367  1
  Hf  Hf12  1  0.181614  0.181614  0.676008  1
  Hf  Hf13  1  0.824425  0.824425  0.318523  1
  Pt  Pt14  1  0.853459  0.144745  0.208103  1
  Pt  Pt15  1  0.148856  0.857447  0.790857  1
  Pt  Pt16  1  0.648409  0.356719  0.708190  1
  Pt  Pt17  1  0.642192  0.350748  0.290872  1
  Pt  Pt18  1  0.350748  0.642192  0.290872  1
  Pt  Pt19  1  0.356719  0.648409  0.708190  1
  Pt  Pt20  1  0.857447  0.148856  0.790857  1
  Pt  Pt21  1  0.144745  0.853459  0.208103  1
  Pt  Pt22  1  0.935982  0.644803  0.997385  1
  Pt  Pt23  1  0.064133  0.356110  0.003161  1
  Pt  Pt24  1  0.563260  0.855652  0.497189  1
  Pt  Pt25  1  0.145953  0.437819  0.501000  1
  Pt  Pt26  1  0.437819  0.145953  0.501000  1
  Pt  Pt27  1  0.855652  0.563260  0.497189  1
  Pt  Pt28  1  0.356110  0.064133  0.003161  1
  Pt  Pt29  1  0.644803  0.935982  0.997385  1
  Pt  Pt30  1  0.102586  0.102586  0.398357  1
  Au  Au31  1  0.888772  0.888772  0.610537  1
  Au  Au32  1  0.390582  0.390582  0.893286  1
  Au  Au33  1  0.607256  0.607256  0.109055  1
