# generated using pymatgen
data_Np4MnAl3B16
_symmetry_space_group_name_H-M   'P 1'
_cell_length_a   3.50994800
_cell_length_b   5.91192813
_cell_length_c   11.44915950
_cell_angle_alpha   90.14805009
_cell_angle_beta   90.00000000
_cell_angle_gamma   90.00000000
_symmetry_Int_Tables_number   1
_chemical_formula_structural   Np4MnAl3B16
_chemical_formula_sum   'Np4 Mn1 Al3 B16'
_cell_volume   237.57568150
_cell_formula_units_Z   1
loop_
 _symmetry_equiv_pos_site_id
 _symmetry_equiv_pos_as_xyz
  1  'x, y, z'
loop_
 _atom_site_type_symbol
 _atom_site_label
 _atom_site_symmetry_multiplicity
 _atom_site_fract_x
 _atom_site_fract_y
 _atom_site_fract_z
 _atom_site_occupancy
  Np  Np0  1  0.000000  0.369554  0.653718  1
  Np  Np1  1  0.000000  0.628029  0.347980  1
  Np  Np2  1  0.000000  0.874253  0.850093  1
  Np  Np3  1  0.000000  0.128600  0.148311  1
  Mn  Mn4  1  0.000000  0.371376  0.915030  1
  Al  Al5  1  0.000000  0.635098  0.086101  1
  Al  Al6  1  0.000000  0.860714  0.592691  1
  Al  Al7  1  0.000000  0.137984  0.409707  1
  B  B8  1  0.500000  0.029604  0.694348  1
  B  B9  1  0.500000  0.971766  0.306202  1
  B  B10  1  0.500000  0.521869  0.808903  1
  B  B11  1  0.500000  0.472084  0.191976  1
  B  B12  1  0.500000  0.114637  0.547224  1
  B  B13  1  0.500000  0.885103  0.453297  1
  B  B14  1  0.500000  0.611055  0.950590  1
  B  B15  1  0.500000  0.382219  0.043634  1
  B  B16  1  0.500000  0.289064  0.310804  1
  B  B17  1  0.500000  0.708354  0.689476  1
  B  B18  1  0.500000  0.788857  0.187516  1
  B  B19  1  0.500000  0.216709  0.815738  1
  B  B20  1  0.500000  0.367681  0.468687  1
  B  B21  1  0.500000  0.631404  0.531917  1
  B  B22  1  0.500000  0.867847  0.030378  1
  B  B23  1  0.500000  0.136136  0.965677  1
