# generated using pymatgen
data_LaNb8BiS16
_symmetry_space_group_name_H-M   'P 1'
_cell_length_a   6.76435101
_cell_length_b   6.76496784
_cell_length_c   13.89916600
_cell_angle_alpha   90.00545435
_cell_angle_beta   90.00371844
_cell_angle_gamma   120.00011764
_symmetry_Int_Tables_number   1
_chemical_formula_structural   LaNb8BiS16
_chemical_formula_sum   'La1 Nb8 Bi1 S16'
_cell_volume   550.82129948
_cell_formula_units_Z   1
loop_
 _symmetry_equiv_pos_site_id
 _symmetry_equiv_pos_as_xyz
  1  'x, y, z'
loop_
 _atom_site_type_symbol
 _atom_site_label
 _atom_site_symmetry_multiplicity
 _atom_site_fract_x
 _atom_site_fract_y
 _atom_site_fract_z
 _atom_site_occupancy
  La  La0  1  0.000000  0.000000  0.500000  1
  Nb  Nb1  1  0.987641  0.493820  0.246080  1
  Nb  Nb2  1  0.012359  0.506180  0.753920  1
  Nb  Nb3  1  0.493808  0.506184  0.753895  1
  Nb  Nb4  1  0.506173  0.012350  0.246074  1
  Nb  Nb5  1  0.000017  0.000033  0.753312  1
  Nb  Nb6  1  0.999983  0.999967  0.246688  1
  Nb  Nb7  1  0.506192  0.493816  0.246105  1
  Nb  Nb8  1  0.493827  0.987650  0.753926  1
  Bi  Bi9  1  0.000000  0.000000  0.000000  1
  S  S10  1  0.333253  0.666600  0.637464  1
  S  S11  1  0.666671  0.333345  0.131190  1
  S  S12  1  0.666747  0.333400  0.362536  1
  S  S13  1  0.333329  0.666655  0.868810  1
  S  S14  1  0.169673  0.339327  0.356711  1
  S  S15  1  0.828808  0.171381  0.864054  1
  S  S16  1  0.342527  0.171317  0.864049  1
  S  S17  1  0.660718  0.830325  0.356700  1
  S  S18  1  0.169606  0.830331  0.356694  1
  S  S19  1  0.828813  0.657559  0.864029  1
  S  S20  1  0.171187  0.342441  0.135971  1
  S  S21  1  0.830394  0.169669  0.643306  1
  S  S22  1  0.339282  0.169675  0.643300  1
  S  S23  1  0.657473  0.828683  0.135951  1
  S  S24  1  0.171192  0.828619  0.135946  1
  S  S25  1  0.830327  0.660673  0.643289  1
