# generated using pymatgen
data_LuTl3Pd2Pt2F28
_symmetry_space_group_name_H-M   'P 1'
_cell_length_a   5.43770056
_cell_length_b   8.78190555
_cell_length_c   11.95276739
_cell_angle_alpha   62.73273889
_cell_angle_beta   90.07311225
_cell_angle_gamma   90.02616553
_symmetry_Int_Tables_number   1
_chemical_formula_structural   LuTl3Pd2Pt2F28
_chemical_formula_sum   'Lu1 Tl3 Pd2 Pt2 F28'
_cell_volume   507.35843481
_cell_formula_units_Z   1
loop_
 _symmetry_equiv_pos_site_id
 _symmetry_equiv_pos_as_xyz
  1  'x, y, z'
loop_
 _atom_site_type_symbol
 _atom_site_label
 _atom_site_symmetry_multiplicity
 _atom_site_fract_x
 _atom_site_fract_y
 _atom_site_fract_z
 _atom_site_occupancy
  Lu  Lu0  1  0.737071  0.812947  0.265164  1
  Tl  Tl1  1  0.764383  0.812432  0.761337  1
  Tl  Tl2  1  0.263535  0.186489  0.737541  1
  Tl  Tl3  1  0.235325  0.182440  0.236407  1
  Pd  Pd4  1  0.761166  0.273218  0.957454  1
  Pd  Pd5  1  0.261178  0.726604  0.541828  1
  Pt  Pt6  1  0.237836  0.726440  0.045622  1
  Pt  Pt7  1  0.738184  0.274144  0.455099  1
  F  F8  1  0.426870  0.690354  0.921023  1
  F  F9  1  0.917621  0.303659  0.585686  1
  F  F10  1  0.576165  0.306697  0.083300  1
  F  F11  1  0.070555  0.703788  0.412104  1
  F  F12  1  0.421569  0.274908  0.534425  1
  F  F13  1  0.927008  0.720912  0.963302  1
  F  F14  1  0.569426  0.731192  0.454786  1
  F  F15  1  0.074597  0.277811  0.036935  1
  F  F16  1  0.794459  0.522548  0.854133  1
  F  F17  1  0.298166  0.476179  0.638646  1
  F  F18  1  0.206692  0.476206  0.150007  1
  F  F19  1  0.720363  0.526446  0.358873  1
  F  F20  1  0.751687  0.024640  0.052528  1
  F  F21  1  0.248950  0.974888  0.455083  1
  F  F22  1  0.248830  0.976164  0.954660  1
  F  F23  1  0.745419  0.024270  0.542980  1
  F  F24  1  0.954990  0.714324  0.629828  1
  F  F25  1  0.452900  0.281977  0.870437  1
  F  F26  1  0.051457  0.280426  0.370885  1
  F  F27  1  0.538337  0.724216  0.138959  1
  F  F28  1  0.047649  0.751148  0.177492  1
  F  F29  1  0.568693  0.260483  0.313293  1
  F  F30  1  0.933716  0.254638  0.819221  1
  F  F31  1  0.435948  0.737969  0.682163  1
  F  F32  1  0.409455  0.963600  0.229431  1
  F  F33  1  0.899888  0.028696  0.270378  1
  F  F34  1  0.604183  0.033884  0.772148  1
  F  F35  1  0.105729  0.963261  0.726843  1
