# generated using pymatgen
data_Tm3Mn(Al4Ni)3
_symmetry_space_group_name_H-M   'P 1'
_cell_length_a   8.66605100
_cell_length_b   8.66605184
_cell_length_c   9.18395000
_cell_angle_alpha   90.00000000
_cell_angle_beta   90.00000000
_cell_angle_gamma   120.00000060
_symmetry_Int_Tables_number   1
_chemical_formula_structural   Tm3Mn(Al4Ni)3
_chemical_formula_sum   'Tm6 Mn2 Al24 Ni6'
_cell_volume   597.31395737
_cell_formula_units_Z   2
loop_
 _symmetry_equiv_pos_site_id
 _symmetry_equiv_pos_as_xyz
  1  'x, y, z'
loop_
 _atom_site_type_symbol
 _atom_site_label
 _atom_site_symmetry_multiplicity
 _atom_site_fract_x
 _atom_site_fract_y
 _atom_site_fract_z
 _atom_site_occupancy
  Tm  Tm0  1  0.192851  0.385700  0.250000  1
  Tm  Tm1  1  0.807149  0.614300  0.750000  1
  Tm  Tm2  1  0.614300  0.807149  0.250000  1
  Tm  Tm3  1  0.385700  0.192851  0.750000  1
  Tm  Tm4  1  0.192851  0.807149  0.250000  1
  Tm  Tm5  1  0.807149  0.192851  0.750000  1
  Mn  Mn6  1  0.000000  0.000000  0.000000  1
  Mn  Mn7  1  0.000000  0.000000  0.500000  1
  Al  Al8  1  0.333333  0.666667  0.023268  1
  Al  Al9  1  0.666667  0.333333  0.976732  1
  Al  Al10  1  0.666667  0.333333  0.523268  1
  Al  Al11  1  0.333333  0.666667  0.476732  1
  Al  Al12  1  0.160016  0.320033  0.575323  1
  Al  Al13  1  0.839984  0.679967  0.424677  1
  Al  Al14  1  0.679967  0.839984  0.575323  1
  Al  Al15  1  0.839984  0.679967  0.075323  1
  Al  Al16  1  0.320033  0.160016  0.424677  1
  Al  Al17  1  0.160016  0.320033  0.924677  1
  Al  Al18  1  0.160016  0.839984  0.575323  1
  Al  Al19  1  0.320033  0.160016  0.075323  1
  Al  Al20  1  0.839984  0.160016  0.424677  1
  Al  Al21  1  0.679967  0.839984  0.924677  1
  Al  Al22  1  0.839984  0.160016  0.075323  1
  Al  Al23  1  0.160016  0.839984  0.924677  1
  Al  Al24  1  0.560954  0.121908  0.250000  1
  Al  Al25  1  0.439046  0.878092  0.750000  1
  Al  Al26  1  0.878092  0.439046  0.250000  1
  Al  Al27  1  0.121908  0.560954  0.750000  1
  Al  Al28  1  0.560954  0.439046  0.250000  1
  Al  Al29  1  0.439046  0.560954  0.750000  1
  Al  Al30  1  0.000000  0.000000  0.250000  1
  Al  Al31  1  0.000000  0.000000  0.750000  1
  Ni  Ni32  1  0.500000  0.000000  0.000000  1
  Ni  Ni33  1  0.000000  0.500000  0.000000  1
  Ni  Ni34  1  0.500000  0.000000  0.500000  1
  Ni  Ni35  1  0.500000  0.500000  0.000000  1
  Ni  Ni36  1  0.000000  0.500000  0.500000  1
  Ni  Ni37  1  0.500000  0.500000  0.500000  1
