# generated using pymatgen
data_YLu7(SiI6)2
_symmetry_space_group_name_H-M   'P 1'
_cell_length_a   4.16091100
_cell_length_b   13.74942451
_cell_length_c   14.51972736
_cell_angle_alpha   90.15500507
_cell_angle_beta   90.00000000
_cell_angle_gamma   90.00000000
_symmetry_Int_Tables_number   1
_chemical_formula_structural   YLu7(SiI6)2
_chemical_formula_sum   'Y1 Lu7 Si2 I12'
_cell_volume   830.67247431
_cell_formula_units_Z   1
loop_
 _symmetry_equiv_pos_site_id
 _symmetry_equiv_pos_as_xyz
  1  'x, y, z'
loop_
 _atom_site_type_symbol
 _atom_site_label
 _atom_site_symmetry_multiplicity
 _atom_site_fract_x
 _atom_site_fract_y
 _atom_site_fract_z
 _atom_site_occupancy
  Y  Y0  1  0.500000  0.115037  0.347420  1
  Lu  Lu1  1  0.500000  0.885573  0.652227  1
  Lu  Lu2  1  0.500000  0.613803  0.151378  1
  Lu  Lu3  1  0.500000  0.386363  0.848401  1
  Lu  Lu4  1  0.000000  0.108772  0.573082  1
  Lu  Lu5  1  0.000000  0.891699  0.426312  1
  Lu  Lu6  1  0.000000  0.608119  0.926795  1
  Lu  Lu7  1  0.000000  0.392250  0.072438  1
  Si  Si8  1  0.500000  0.998879  0.501530  1
  Si  Si9  1  0.500000  0.500323  0.999713  1
  I  I10  1  0.500000  0.250959  0.161196  1
  I  I11  1  0.500000  0.750374  0.836927  1
  I  I12  1  0.500000  0.748474  0.336941  1
  I  I13  1  0.500000  0.250305  0.664548  1
  I  I14  1  0.000000  0.262407  0.419184  1
  I  I15  1  0.000000  0.741586  0.584915  1
  I  I16  1  0.000000  0.757784  0.084871  1
  I  I17  1  0.000000  0.242081  0.914412  1
  I  I18  1  0.000000  0.996150  0.238369  1
  I  I19  1  0.000000  0.998996  0.759789  1
  I  I20  1  0.000000  0.501242  0.259245  1
  I  I21  1  0.000000  0.498824  0.740308  1
