# generated using pymatgen
data_AlRe6Sb13
_symmetry_space_group_name_H-M   'P 1'
_cell_length_a   8.21794679
_cell_length_b   8.21794717
_cell_length_c   8.20759000
_cell_angle_alpha   109.44569731
_cell_angle_beta   109.44569823
_cell_angle_gamma   109.49673005
_symmetry_Int_Tables_number   1
_chemical_formula_structural   AlRe6Sb13
_chemical_formula_sum   'Al1 Re6 Sb13'
_cell_volume   426.83216594
_cell_formula_units_Z   1
loop_
 _symmetry_equiv_pos_site_id
 _symmetry_equiv_pos_as_xyz
  1  'x, y, z'
loop_
 _atom_site_type_symbol
 _atom_site_label
 _atom_site_symmetry_multiplicity
 _atom_site_fract_x
 _atom_site_fract_y
 _atom_site_fract_z
 _atom_site_occupancy
  Al  Al0  1  0.000000  0.000000  0.682961  1
  Re  Re1  1  0.341338  0.000000  0.337770  1
  Re  Re2  1  0.000000  0.341338  0.337770  1
  Re  Re3  1  0.000000  0.655567  0.657292  1
  Re  Re4  1  0.344433  0.344433  0.001725  1
  Re  Re5  1  0.658662  0.658662  0.996433  1
  Re  Re6  1  0.655567  0.000000  0.657292  1
  Sb  Sb7  1  0.751690  0.503032  0.251225  1
  Sb  Sb8  1  0.503032  0.751690  0.251225  1
  Sb  Sb9  1  0.496968  0.248657  0.748192  1
  Sb  Sb10  1  0.751343  0.248310  0.499535  1
  Sb  Sb11  1  0.248310  0.751343  0.499535  1
  Sb  Sb12  1  0.248657  0.496968  0.748192  1
  Sb  Sb13  1  0.000000  0.000000  0.347323  1
  Sb  Sb14  1  0.672816  0.000000  0.001310  1
  Sb  Sb15  1  0.000000  0.672816  0.001310  1
  Sb  Sb16  1  0.327184  0.327184  0.328494  1
  Sb  Sb17  1  0.000000  0.317802  0.990073  1
  Sb  Sb18  1  0.682198  0.682198  0.672271  1
  Sb  Sb19  1  0.317802  0.000000  0.990073  1
