# generated using pymatgen
data_TbHfFeB6
_symmetry_space_group_name_H-M   'P 1'
_cell_length_a   3.43947400
_cell_length_b   8.94920600
_cell_length_c   11.31542100
_cell_angle_alpha   90.00000000
_cell_angle_beta   90.00000000
_cell_angle_gamma   90.00000000
_symmetry_Int_Tables_number   1
_chemical_formula_structural   TbHfFeB6
_chemical_formula_sum   'Tb4 Hf4 Fe4 B24'
_cell_volume   348.29501038
_cell_formula_units_Z   4
loop_
 _symmetry_equiv_pos_site_id
 _symmetry_equiv_pos_as_xyz
  1  'x, y, z'
loop_
 _atom_site_type_symbol
 _atom_site_label
 _atom_site_symmetry_multiplicity
 _atom_site_fract_x
 _atom_site_fract_y
 _atom_site_fract_z
 _atom_site_occupancy
  Tb  Tb0  1  0.000000  0.823037  0.085310  1
  Tb  Tb1  1  0.000000  0.176963  0.914690  1
  Tb  Tb2  1  0.000000  0.323037  0.414690  1
  Tb  Tb3  1  0.000000  0.676963  0.585310  1
  Hf  Hf4  1  0.000000  0.443996  0.128325  1
  Hf  Hf5  1  0.000000  0.556004  0.871675  1
  Hf  Hf6  1  0.000000  0.943996  0.371675  1
  Hf  Hf7  1  0.000000  0.056004  0.628325  1
  Fe  Fe8  1  0.000000  0.143182  0.183154  1
  Fe  Fe9  1  0.000000  0.856818  0.816846  1
  Fe  Fe10  1  0.000000  0.643182  0.316846  1
  Fe  Fe11  1  0.000000  0.356818  0.683154  1
  B  B12  1  0.500000  0.055449  0.068343  1
  B  B13  1  0.500000  0.944551  0.931657  1
  B  B14  1  0.500000  0.555449  0.431657  1
  B  B15  1  0.500000  0.444551  0.568343  1
  B  B16  1  0.500000  0.251086  0.083845  1
  B  B17  1  0.500000  0.748914  0.916155  1
  B  B18  1  0.500000  0.751086  0.416155  1
  B  B19  1  0.500000  0.248914  0.583845  1
  B  B20  1  0.500000  0.294009  0.235627  1
  B  B21  1  0.500000  0.705991  0.764373  1
  B  B22  1  0.500000  0.794009  0.264373  1
  B  B23  1  0.500000  0.205991  0.735627  1
  B  B24  1  0.500000  0.130745  0.316060  1
  B  B25  1  0.500000  0.869255  0.683940  1
  B  B26  1  0.500000  0.630745  0.183940  1
  B  B27  1  0.500000  0.369255  0.816060  1
  B  B28  1  0.500000  0.485069  0.287235  1
  B  B29  1  0.500000  0.514931  0.712765  1
  B  B30  1  0.500000  0.985069  0.212765  1
  B  B31  1  0.500000  0.014931  0.787235  1
  B  B32  1  0.500000  0.100593  0.473308  1
  B  B33  1  0.500000  0.899407  0.526692  1
  B  B34  1  0.500000  0.600593  0.026692  1
  B  B35  1  0.500000  0.399407  0.973308  1
