# generated using pymatgen
data_Yb6BeSi24Ru7
_symmetry_space_group_name_H-M   'P 1'
_cell_length_a   10.11538731
_cell_length_b   10.11538697
_cell_length_c   8.15171197
_cell_angle_alpha   90.03212797
_cell_angle_beta   90.03213103
_cell_angle_gamma   132.35875251
_symmetry_Int_Tables_number   1
_chemical_formula_structural   Yb6BeSi24Ru7
_chemical_formula_sum   'Yb6 Be1 Si24 Ru7'
_cell_volume   616.34367547
_cell_formula_units_Z   1
loop_
 _symmetry_equiv_pos_site_id
 _symmetry_equiv_pos_as_xyz
  1  'x, y, z'
loop_
 _atom_site_type_symbol
 _atom_site_label
 _atom_site_symmetry_multiplicity
 _atom_site_fract_x
 _atom_site_fract_y
 _atom_site_fract_z
 _atom_site_occupancy
  Yb  Yb0  1  0.999152  0.000848  0.000000  1
  Yb  Yb1  1  0.500844  0.499156  0.500000  1
  Yb  Yb2  1  0.003097  0.503055  0.250507  1
  Yb  Yb3  1  0.997638  0.497585  0.749493  1
  Yb  Yb4  1  0.496945  0.996903  0.749493  1
  Yb  Yb5  1  0.502415  0.002362  0.250507  1
  Be  Be6  1  0.830021  0.169979  0.000000  1
  Si  Si7  1  0.702769  0.297231  0.000000  1
  Si  Si8  1  0.293530  0.706470  0.000000  1
  Si  Si9  1  0.792824  0.207176  0.500000  1
  Si  Si10  1  0.204315  0.795685  0.500000  1
  Si  Si11  1  0.338336  0.328839  0.167785  1
  Si  Si12  1  0.671161  0.661664  0.832215  1
  Si  Si13  1  0.168502  0.165469  0.666714  1
  Si  Si14  1  0.834531  0.831498  0.333286  1
  Si  Si15  1  0.847895  0.615122  0.002378  1
  Si  Si16  1  0.162339  0.396683  0.995017  1
  Si  Si17  1  0.651270  0.884646  0.506839  1
  Si  Si18  1  0.115354  0.348730  0.493161  1
  Si  Si19  1  0.346285  0.112766  0.492882  1
  Si  Si20  1  0.887234  0.653715  0.507118  1
  Si  Si21  1  0.384878  0.152105  0.997622  1
  Si  Si22  1  0.603317  0.837661  0.004983  1
  Si  Si23  1  0.886337  0.120070  0.278711  1
  Si  Si24  1  0.106866  0.874671  0.730827  1
  Si  Si25  1  0.612852  0.378640  0.769526  1
  Si  Si26  1  0.621360  0.387148  0.230474  1
  Si  Si27  1  0.393680  0.625557  0.232553  1
  Si  Si28  1  0.374443  0.606320  0.767447  1
  Si  Si29  1  0.879930  0.113663  0.721289  1
  Si  Si30  1  0.125329  0.893134  0.269173  1
  Ru  Ru31  1  0.169278  0.830722  0.000000  1
  Ru  Ru32  1  0.668589  0.331411  0.500000  1
  Ru  Ru33  1  0.330300  0.669700  0.500000  1
  Ru  Ru34  1  0.124661  0.127299  0.373779  1
  Ru  Ru35  1  0.872701  0.875339  0.626221  1
  Ru  Ru36  1  0.372590  0.373568  0.874325  1
  Ru  Ru37  1  0.626432  0.627410  0.125675  1
