# generated using pymatgen
data_Nd3Er5(HgRh)2
_symmetry_space_group_name_H-M   'P 1'
_cell_length_a   9.65606920
_cell_length_b   9.65606980
_cell_length_c   9.65607000
_cell_angle_alpha   59.99999930
_cell_angle_beta   59.99999727
_cell_angle_gamma   60.00000021
_symmetry_Int_Tables_number   1
_chemical_formula_structural   Nd3Er5(HgRh)2
_chemical_formula_sum   'Nd6 Er10 Hg4 Rh4'
_cell_volume   636.62862627
_cell_formula_units_Z   2
loop_
 _symmetry_equiv_pos_site_id
 _symmetry_equiv_pos_as_xyz
  1  'x, y, z'
loop_
 _atom_site_type_symbol
 _atom_site_label
 _atom_site_symmetry_multiplicity
 _atom_site_fract_x
 _atom_site_fract_y
 _atom_site_fract_z
 _atom_site_occupancy
  Nd  Nd0  1  0.189998  0.810002  0.810002  1
  Nd  Nd1  1  0.810002  0.189998  0.189998  1
  Nd  Nd2  1  0.810002  0.189998  0.810002  1
  Nd  Nd3  1  0.189998  0.810002  0.189998  1
  Nd  Nd4  1  0.810002  0.810002  0.189998  1
  Nd  Nd5  1  0.189998  0.189998  0.810002  1
  Er  Er6  1  0.599481  0.599481  0.599481  1
  Er  Er7  1  0.599481  0.599481  0.201559  1
  Er  Er8  1  0.599481  0.201559  0.599481  1
  Er  Er9  1  0.201559  0.599481  0.599481  1
  Er  Er10  1  0.062359  0.437641  0.437641  1
  Er  Er11  1  0.437641  0.062359  0.062359  1
  Er  Er12  1  0.437641  0.062359  0.437641  1
  Er  Er13  1  0.062359  0.437641  0.062359  1
  Er  Er14  1  0.437641  0.437641  0.062359  1
  Er  Er15  1  0.062359  0.062359  0.437641  1
  Hg  Hg16  1  0.832844  0.832844  0.832844  1
  Hg  Hg17  1  0.832844  0.832844  0.501469  1
  Hg  Hg18  1  0.832844  0.501469  0.832844  1
  Hg  Hg19  1  0.501469  0.832844  0.832844  1
  Rh  Rh20  1  0.392169  0.392169  0.392169  1
  Rh  Rh21  1  0.392169  0.392169  0.823493  1
  Rh  Rh22  1  0.392169  0.823493  0.392169  1
  Rh  Rh23  1  0.823493  0.392169  0.392169  1
