# generated using pymatgen
data_SmLu(AgSn)2
_symmetry_space_group_name_H-M   'P 1'
_cell_length_a   4.74633200
_cell_length_b   4.74633106
_cell_length_c   7.44068500
_cell_angle_alpha   90.00000000
_cell_angle_beta   90.00000000
_cell_angle_gamma   120.00000656
_symmetry_Int_Tables_number   1
_chemical_formula_structural   SmLu(AgSn)2
_chemical_formula_sum   'Sm1 Lu1 Ag2 Sn2'
_cell_volume   145.16424599
_cell_formula_units_Z   1
loop_
 _symmetry_equiv_pos_site_id
 _symmetry_equiv_pos_as_xyz
  1  'x, y, z'
loop_
 _atom_site_type_symbol
 _atom_site_label
 _atom_site_symmetry_multiplicity
 _atom_site_fract_x
 _atom_site_fract_y
 _atom_site_fract_z
 _atom_site_occupancy
  Sm  Sm0  1  0.000000  0.000000  0.498687  1
  Lu  Lu1  1  0.000000  0.000000  0.000778  1
  Ag  Ag2  1  0.666667  0.333333  0.179591  1
  Ag  Ag3  1  0.333333  0.666667  0.691453  1
  Sn  Sn4  1  0.333333  0.666667  0.274241  1
  Sn  Sn5  1  0.666667  0.333333  0.783248  1
