# generated using pymatgen
data_CaLa3(ZnSi3)2
_symmetry_space_group_name_H-M   'P 1'
_cell_length_a   4.24039700
_cell_length_b   4.32152400
_cell_length_c   14.17836600
_cell_angle_alpha   90.00000000
_cell_angle_beta   90.00000000
_cell_angle_gamma   90.00000000
_symmetry_Int_Tables_number   1
_chemical_formula_structural   CaLa3(ZnSi3)2
_chemical_formula_sum   'Ca1 La3 Zn2 Si6'
_cell_volume   259.81823659
_cell_formula_units_Z   1
loop_
 _symmetry_equiv_pos_site_id
 _symmetry_equiv_pos_as_xyz
  1  'x, y, z'
loop_
 _atom_site_type_symbol
 _atom_site_label
 _atom_site_symmetry_multiplicity
 _atom_site_fract_x
 _atom_site_fract_y
 _atom_site_fract_z
 _atom_site_occupancy
  Ca  Ca0  1  0.500000  0.500000  0.002916  1
  La  La1  1  0.000000  0.000000  0.505083  1
  La  La2  1  0.500000  0.000000  0.747089  1
  La  La3  1  0.000000  0.500000  0.243380  1
  Zn  Zn4  1  0.000000  0.000000  0.916899  1
  Zn  Zn5  1  0.500000  0.500000  0.415248  1
  Si  Si6  1  0.000000  0.500000  0.833263  1
  Si  Si7  1  0.500000  0.000000  0.332526  1
  Si  Si8  1  0.000000  0.000000  0.084430  1
  Si  Si9  1  0.500000  0.500000  0.583511  1
  Si  Si10  1  0.500000  0.000000  0.167365  1
  Si  Si11  1  0.000000  0.500000  0.668289  1
