# generated using pymatgen
data_Sm2Pa(AlRh)3
_symmetry_space_group_name_H-M   'P 1'
_cell_length_a   7.21395582
_cell_length_b   7.30983899
_cell_length_c   3.96305500
_cell_angle_alpha   90.00000000
_cell_angle_beta   90.00000000
_cell_angle_gamma   120.44065919
_symmetry_Int_Tables_number   1
_chemical_formula_structural   Sm2Pa(AlRh)3
_chemical_formula_sum   'Sm2 Pa1 Al3 Rh3'
_cell_volume   180.17578115
_cell_formula_units_Z   1
loop_
 _symmetry_equiv_pos_site_id
 _symmetry_equiv_pos_as_xyz
  1  'x, y, z'
loop_
 _atom_site_type_symbol
 _atom_site_label
 _atom_site_symmetry_multiplicity
 _atom_site_fract_x
 _atom_site_fract_y
 _atom_site_fract_z
 _atom_site_occupancy
  Sm  Sm0  1  0.415545  0.420194  0.500000  1
  Sm  Sm1  1  0.584455  0.004650  0.500000  1
  Pa  Pa2  1  0.000000  0.579001  0.500000  1
  Al  Al3  1  0.758598  0.762055  0.000000  1
  Al  Al4  1  0.000000  0.224124  0.000000  1
  Al  Al5  1  0.241402  0.003457  0.000000  1
  Rh  Rh6  1  0.293090  0.660290  0.000000  1
  Rh  Rh7  1  0.000000  0.979028  0.500000  1
  Rh  Rh8  1  0.706910  0.367200  0.000000  1
