# generated using pymatgen
data_Dy5As11PRu6Rh13
_symmetry_space_group_name_H-M   'P 1'
_cell_length_a   13.04785735
_cell_length_b   13.04325322
_cell_length_c   4.00435000
_cell_angle_alpha   90.00000000
_cell_angle_beta   90.00000000
_cell_angle_gamma   119.99152764
_symmetry_Int_Tables_number   1
_chemical_formula_structural   Dy5As11PRu6Rh13
_chemical_formula_sum   'Dy5 As11 P1 Ru6 Rh13'
_cell_volume   590.23486297
_cell_formula_units_Z   1
loop_
 _symmetry_equiv_pos_site_id
 _symmetry_equiv_pos_as_xyz
  1  'x, y, z'
loop_
 _atom_site_type_symbol
 _atom_site_label
 _atom_site_symmetry_multiplicity
 _atom_site_fract_x
 _atom_site_fract_y
 _atom_site_fract_z
 _atom_site_occupancy
  Dy  Dy0  1  0.669951  0.331843  0.000000  1
  Dy  Dy1  1  0.331950  0.666757  0.000000  1
  Dy  Dy2  1  0.817551  0.004904  0.500000  1
  Dy  Dy3  1  0.181621  0.187324  0.500000  1
  Dy  Dy4  1  0.999588  0.813447  0.500000  1
  As  As5  1  0.638089  0.999461  0.000000  1
  As  As6  1  0.364336  0.364343  0.000000  1
  As  As7  1  0.000306  0.633961  0.000000  1
  As  As8  1  0.684288  0.517177  0.500000  1
  As  As9  1  0.836281  0.313651  0.500000  1
  As  As10  1  0.319142  0.835994  0.500000  1
  As  As11  1  0.516915  0.685943  0.500000  1
  As  As12  1  0.176977  0.000788  0.000000  1
  As  As13  1  0.822208  0.822132  0.000000  1
  As  As14  1  0.480524  0.165569  0.500000  1
  As  As15  1  0.160998  0.479246  0.500000  1
  P  P16  1  0.995995  0.181324  0.000000  1
  Ru  Ru17  1  0.517581  0.875315  0.500000  1
  Ru  Ru18  1  0.717279  0.716851  0.500000  1
  Ru  Ru19  1  0.000609  0.276957  0.500000  1
  Ru  Ru20  1  0.004103  0.448213  0.000000  1
  Ru  Ru21  1  0.822673  0.194519  0.000000  1
  Ru  Ru22  1  0.279942  0.998884  0.500000  1
  Rh  Rh23  1  0.624373  0.803540  0.000000  1
  Rh  Rh24  1  0.176140  0.367151  0.000000  1
  Rh  Rh25  1  0.374429  0.179880  0.000000  1
  Rh  Rh26  1  0.194709  0.819598  0.000000  1
  Rh  Rh27  1  0.804932  0.623365  0.000000  1
  Rh  Rh28  1  0.874284  0.513322  0.500000  1
  Rh  Rh29  1  0.485430  0.356656  0.500000  1
  Rh  Rh30  1  0.642247  0.128937  0.500000  1
  Rh  Rh31  1  0.128528  0.643500  0.500000  1
  Rh  Rh32  1  0.352891  0.487383  0.500000  1
  Rh  Rh33  1  0.999239  0.008519  0.000000  1
  Rh  Rh34  1  0.451975  0.001936  0.000000  1
  Rh  Rh35  1  0.551916  0.551610  0.000000  1
