# generated using pymatgen
data_Tb(BrO3)3
_symmetry_space_group_name_H-M   'P 1'
_cell_length_a   9.95763700
_cell_length_b   9.95763573
_cell_length_c   5.80684700
_cell_angle_alpha   90.00000000
_cell_angle_beta   90.00000000
_cell_angle_gamma   119.99998851
_symmetry_Int_Tables_number   1
_chemical_formula_structural   Tb(BrO3)3
_chemical_formula_sum   'Tb2 Br6 O18'
_cell_volume   498.63595439
_cell_formula_units_Z   2
loop_
 _symmetry_equiv_pos_site_id
 _symmetry_equiv_pos_as_xyz
  1  'x, y, z'
loop_
 _atom_site_type_symbol
 _atom_site_label
 _atom_site_symmetry_multiplicity
 _atom_site_fract_x
 _atom_site_fract_y
 _atom_site_fract_z
 _atom_site_occupancy
  Tb  Tb0  1  0.666667  0.333333  0.701826  1
  Tb  Tb1  1  0.333333  0.666667  0.201826  1
  Br  Br2  1  0.686860  0.022357  0.366089  1
  Br  Br3  1  0.313140  0.977643  0.866089  1
  Br  Br4  1  0.022357  0.335496  0.866089  1
  Br  Br5  1  0.335496  0.313140  0.366089  1
  Br  Br6  1  0.977643  0.664504  0.366089  1
  Br  Br7  1  0.664504  0.686860  0.866089  1
  O  O8  1  0.772484  0.824319  0.048413  1
  O  O9  1  0.948165  0.772484  0.548413  1
  O  O10  1  0.824319  0.051835  0.548413  1
  O  O11  1  0.175681  0.948165  0.048413  1
  O  O12  1  0.051835  0.227516  0.048413  1
  O  O13  1  0.227516  0.175681  0.548413  1
  O  O14  1  0.704840  0.540624  0.918121  1
  O  O15  1  0.164216  0.704840  0.418121  1
  O  O16  1  0.522441  0.396477  0.466335  1
  O  O17  1  0.125963  0.522441  0.966335  1
  O  O18  1  0.396477  0.874037  0.966335  1
  O  O19  1  0.603523  0.125963  0.466335  1
  O  O20  1  0.874037  0.477559  0.466335  1
  O  O21  1  0.477559  0.603523  0.966335  1
  O  O22  1  0.295160  0.459376  0.418121  1
  O  O23  1  0.835784  0.295160  0.918121  1
  O  O24  1  0.459376  0.164216  0.918121  1
  O  O25  1  0.540624  0.835784  0.418121  1
