# generated using pymatgen
data_MnBe4Nb
_symmetry_space_group_name_H-M   'P 1'
_cell_length_a   4.38506689
_cell_length_b   4.38506713
_cell_length_c   4.38506600
_cell_angle_alpha   59.99999345
_cell_angle_beta   59.99999160
_cell_angle_gamma   59.99999190
_symmetry_Int_Tables_number   1
_chemical_formula_structural   MnBe4Nb
_chemical_formula_sum   'Mn1 Be4 Nb1'
_cell_volume   59.62295954
_cell_formula_units_Z   1
loop_
 _symmetry_equiv_pos_site_id
 _symmetry_equiv_pos_as_xyz
  1  'x, y, z'
loop_
 _atom_site_type_symbol
 _atom_site_label
 _atom_site_symmetry_multiplicity
 _atom_site_fract_x
 _atom_site_fract_y
 _atom_site_fract_z
 _atom_site_occupancy
  Mn  Mn0  1  0.500000  0.500000  0.500000  1
  Be  Be1  1  0.126068  0.126068  0.126068  1
  Be  Be2  1  0.621796  0.126068  0.126068  1
  Be  Be3  1  0.126068  0.621796  0.126068  1
  Be  Be4  1  0.126068  0.126068  0.621796  1
  Nb  Nb5  1  0.750000  0.750000  0.750000  1
