# generated using pymatgen
data_GdTh(Al3Pd)6
_symmetry_space_group_name_H-M   'P 1'
_cell_length_a   10.44200197
_cell_length_b   10.44200278
_cell_length_c   10.44200400
_cell_angle_alpha   42.38541349
_cell_angle_beta   42.38541678
_cell_angle_gamma   42.38541059
_symmetry_Int_Tables_number   1
_chemical_formula_structural   GdTh(Al3Pd)6
_chemical_formula_sum   'Gd1 Th1 Al18 Pd6'
_cell_volume   468.37903844
_cell_formula_units_Z   1
loop_
 _symmetry_equiv_pos_site_id
 _symmetry_equiv_pos_as_xyz
  1  'x, y, z'
loop_
 _atom_site_type_symbol
 _atom_site_label
 _atom_site_symmetry_multiplicity
 _atom_site_fract_x
 _atom_site_fract_y
 _atom_site_fract_z
 _atom_site_occupancy
  Gd  Gd0  1  0.833198  0.833198  0.833198  1
  Th  Th1  1  0.166789  0.166789  0.166789  1
  Al  Al2  1  0.106756  0.436603  0.758857  1
  Al  Al3  1  0.436603  0.758857  0.106756  1
  Al  Al4  1  0.568682  0.890659  0.238514  1
  Al  Al5  1  0.950102  0.950102  0.950102  1
  Al  Al6  1  0.049250  0.049250  0.049250  1
  Al  Al7  1  0.295927  0.699747  0.504335  1
  Al  Al8  1  0.890659  0.238514  0.568682  1
  Al  Al9  1  0.384160  0.384160  0.384160  1
  Al  Al10  1  0.504335  0.295927  0.699747  1
  Al  Al11  1  0.238514  0.568682  0.890659  1
  Al  Al12  1  0.716291  0.716291  0.716291  1
  Al  Al13  1  0.615889  0.615889  0.615889  1
  Al  Al14  1  0.334839  0.999420  0.665733  1
  Al  Al15  1  0.699747  0.504335  0.295927  1
  Al  Al16  1  0.665733  0.334839  0.999420  1
  Al  Al17  1  0.284274  0.284274  0.284274  1
  Al  Al18  1  0.999420  0.665733  0.334839  1
  Al  Al19  1  0.758857  0.106756  0.436603  1
  Pd  Pd20  1  0.417664  0.077568  0.760761  1
  Pd  Pd21  1  0.580241  0.240342  0.923400  1
  Pd  Pd22  1  0.077568  0.760761  0.417664  1
  Pd  Pd23  1  0.760761  0.417664  0.077568  1
  Pd  Pd24  1  0.923400  0.580241  0.240342  1
  Pd  Pd25  1  0.240342  0.923400  0.580241  1
