# generated using pymatgen
data_Ac3Dy(Er3Sn4)2
_symmetry_space_group_name_H-M   'P 1'
_cell_length_a   8.22535500
_cell_length_b   8.37362368
_cell_length_c   15.77952700
_cell_angle_alpha   90.05369241
_cell_angle_beta   90.00000000
_cell_angle_gamma   90.00000000
_symmetry_Int_Tables_number   1
_chemical_formula_structural   Ac3Dy(Er3Sn4)2
_chemical_formula_sum   'Ac6 Dy2 Er12 Sn16'
_cell_volume   1086.83065645
_cell_formula_units_Z   2
loop_
 _symmetry_equiv_pos_site_id
 _symmetry_equiv_pos_as_xyz
  1  'x, y, z'
loop_
 _atom_site_type_symbol
 _atom_site_label
 _atom_site_symmetry_multiplicity
 _atom_site_fract_x
 _atom_site_fract_y
 _atom_site_fract_z
 _atom_site_occupancy
  Ac  Ac0  1  0.509737  0.323722  0.904602  1
  Ac  Ac1  1  0.009737  0.176278  0.595398  1
  Ac  Ac2  1  0.486735  0.673215  0.407045  1
  Ac  Ac3  1  0.986735  0.826785  0.092955  1
  Ac  Ac4  1  0.491699  0.676770  0.091920  1
  Ac  Ac5  1  0.991699  0.823230  0.408080  1
  Dy  Dy6  1  0.518021  0.322485  0.602402  1
  Dy  Dy7  1  0.018021  0.177515  0.897598  1
  Er  Er8  1  0.353704  0.840303  0.873664  1
  Er  Er9  1  0.853704  0.659697  0.626336  1
  Er  Er10  1  0.645061  0.166173  0.376102  1
  Er  Er11  1  0.145061  0.333827  0.123898  1
  Er  Er12  1  0.645278  0.160237  0.122332  1
  Er  Er13  1  0.145278  0.339763  0.377668  1
  Er  Er14  1  0.351673  0.835765  0.626962  1
  Er  Er15  1  0.851673  0.664235  0.873038  1
  Er  Er16  1  0.188003  0.501586  0.749897  1
  Er  Er17  1  0.688003  0.998414  0.750103  1
  Er  Er18  1  0.810308  0.495322  0.250617  1
  Er  Er19  1  0.310308  0.004678  0.249383  1
  Sn  Sn20  1  0.305293  0.048620  0.038688  1
  Sn  Sn21  1  0.805293  0.451380  0.461312  1
  Sn  Sn22  1  0.676584  0.960840  0.545384  1
  Sn  Sn23  1  0.176584  0.539160  0.954616  1
  Sn  Sn24  1  0.697265  0.963840  0.951794  1
  Sn  Sn25  1  0.197265  0.536160  0.548206  1
  Sn  Sn26  1  0.322083  0.051508  0.460116  1
  Sn  Sn27  1  0.822083  0.448492  0.039884  1
  Sn  Sn28  1  0.550276  0.627895  0.748765  1
  Sn  Sn29  1  0.050276  0.872105  0.751235  1
  Sn  Sn30  1  0.447447  0.366504  0.248128  1
  Sn  Sn31  1  0.947447  0.133496  0.251872  1
  Sn  Sn32  1  0.321104  0.143211  0.747335  1
  Sn  Sn33  1  0.821104  0.356789  0.752665  1
  Sn  Sn34  1  0.679724  0.863187  0.250519  1
  Sn  Sn35  1  0.179724  0.636813  0.249481  1
