# generated using pymatgen
data_BaBr37
_symmetry_space_group_name_H-M   'P 1'
_cell_length_a   14.20848141
_cell_length_b   15.29732181
_cell_length_c   14.42416200
_cell_angle_alpha   103.00376457
_cell_angle_beta   48.80056783
_cell_angle_gamma   81.50743146
_symmetry_Int_Tables_number   1
_chemical_formula_structural   BaBr37
_chemical_formula_sum   'Ba1 Br37'
_cell_volume   2102.91272627
_cell_formula_units_Z   1
loop_
 _symmetry_equiv_pos_site_id
 _symmetry_equiv_pos_as_xyz
  1  'x, y, z'
loop_
 _atom_site_type_symbol
 _atom_site_label
 _atom_site_symmetry_multiplicity
 _atom_site_fract_x
 _atom_site_fract_y
 _atom_site_fract_z
 _atom_site_occupancy
  Ba  Ba0  1  0.500000  0.000000  0.000000  1
  Br  Br1  1  0.779640  0.299998  0.138226  1
  Br  Br2  1  0.220360  0.700002  0.861774  1
  Br  Br3  1  0.737843  0.085304  0.366226  1
  Br  Br4  1  0.262157  0.914696  0.633774  1
  Br  Br5  1  0.129311  0.347669  0.164540  1
  Br  Br6  1  0.870689  0.652331  0.835460  1
  Br  Br7  1  0.862173  0.523519  0.244853  1
  Br  Br8  1  0.137827  0.476481  0.755147  1
  Br  Br9  1  0.684709  0.275602  0.523240  1
  Br  Br10  1  0.315291  0.724398  0.476760  1
  Br  Br11  1  0.036119  0.144259  0.498042  1
  Br  Br12  1  0.963881  0.855741  0.501958  1
  Br  Br13  1  0.970811  0.009913  0.290746  1
  Br  Br14  1  0.029189  0.990087  0.709254  1
  Br  Br15  1  0.945459  0.338019  0.609664  1
  Br  Br16  1  0.054541  0.661981  0.390336  1
  Br  Br17  1  0.571864  0.431175  0.235826  1
  Br  Br18  1  0.428136  0.568825  0.764174  1
  Br  Br19  1  0.176346  0.478894  0.279786  1
  Br  Br20  1  0.823654  0.521106  0.720214  1
  Br  Br21  1  0.000000  0.500000  0.000000  1
  Br  Br22  1  0.555116  0.952094  0.175081  1
  Br  Br23  1  0.444884  0.047906  0.824919  1
  Br  Br24  1  0.300185  0.049741  0.335530  1
  Br  Br25  1  0.699815  0.950259  0.664470  1
  Br  Br26  1  0.524224  0.137162  0.418188  1
  Br  Br27  1  0.475776  0.862838  0.581812  1
  Br  Br28  1  0.104783  0.217911  0.060573  1
  Br  Br29  1  0.895217  0.782089  0.939427  1
  Br  Br30  1  0.663427  0.687023  0.401807  1
  Br  Br31  1  0.336573  0.312977  0.598193  1
  Br  Br32  1  0.899887  0.146588  0.920584  1
  Br  Br33  1  0.100113  0.853412  0.079416  1
  Br  Br34  1  0.402978  0.230502  0.113081  1
  Br  Br35  1  0.597022  0.769498  0.886919  1
  Br  Br36  1  0.655085  0.428281  0.649295  1
  Br  Br37  1  0.344915  0.571719  0.350705  1
