# generated using pymatgen
data_Ho10Tl3In5Ir3Pd
_symmetry_space_group_name_H-M   'P 1'
_cell_length_a   3.63176400
_cell_length_b   8.10078850
_cell_length_c   18.28927969
_cell_angle_alpha   89.89012811
_cell_angle_beta   90.00000000
_cell_angle_gamma   90.00000000
_symmetry_Int_Tables_number   1
_chemical_formula_structural   Ho10Tl3In5Ir3Pd
_chemical_formula_sum   'Ho10 Tl3 In5 Ir3 Pd1'
_cell_volume   538.07239967
_cell_formula_units_Z   1
loop_
 _symmetry_equiv_pos_site_id
 _symmetry_equiv_pos_as_xyz
  1  'x, y, z'
loop_
 _atom_site_type_symbol
 _atom_site_label
 _atom_site_symmetry_multiplicity
 _atom_site_fract_x
 _atom_site_fract_y
 _atom_site_fract_z
 _atom_site_occupancy
  Ho  Ho0  1  0.000000  0.499043  0.500955  1
  Ho  Ho1  1  0.000000  0.999919  0.999490  1
  Ho  Ho2  1  0.000000  0.728832  0.278449  1
  Ho  Ho3  1  0.000000  0.258938  0.721720  1
  Ho  Ho4  1  0.000000  0.757807  0.777556  1
  Ho  Ho5  1  0.000000  0.254440  0.219226  1
  Ho  Ho6  1  0.000000  0.613363  0.088499  1
  Ho  Ho7  1  0.000000  0.387295  0.908626  1
  Ho  Ho8  1  0.000000  0.886268  0.590940  1
  Ho  Ho9  1  0.000000  0.114589  0.414534  1
  Tl  Tl10  1  0.500000  0.709500  0.933897  1
  Tl  Tl11  1  0.500000  0.290275  0.065373  1
  Tl  Tl12  1  0.500000  0.790917  0.434185  1
  In  In13  1  0.500000  0.207644  0.567893  1
  In  In14  1  0.500000  0.572970  0.648716  1
  In  In15  1  0.500000  0.418988  0.351275  1
  In  In16  1  0.500000  0.921872  0.150207  1
  In  In17  1  0.500000  0.074743  0.850486  1
  Ir  Ir18  1  0.500000  0.524473  0.197334  1
  Ir  Ir19  1  0.500000  0.479640  0.801727  1
  Ir  Ir20  1  0.500000  0.984175  0.696243  1
  Pd  Pd21  1  0.500000  0.024310  0.302670  1
