# generated using pymatgen
data_Ca9(PtAu2)2
_symmetry_space_group_name_H-M   'P 1'
_cell_length_a   7.80321094
_cell_length_b   7.84653949
_cell_length_c   7.82026532
_cell_angle_alpha   70.29493433
_cell_angle_beta   70.40614050
_cell_angle_gamma   70.28661075
_symmetry_Int_Tables_number   1
_chemical_formula_structural   Ca9(PtAu2)2
_chemical_formula_sum   'Ca9 Pt2 Au4'
_cell_volume   410.88056926
_cell_formula_units_Z   1
loop_
 _symmetry_equiv_pos_site_id
 _symmetry_equiv_pos_as_xyz
  1  'x, y, z'
loop_
 _atom_site_type_symbol
 _atom_site_label
 _atom_site_symmetry_multiplicity
 _atom_site_fract_x
 _atom_site_fract_y
 _atom_site_fract_z
 _atom_site_occupancy
  Ca  Ca0  1  0.009551  0.994587  0.995830  1
  Ca  Ca1  1  0.395529  0.666321  0.142703  1
  Ca  Ca2  1  0.201563  0.205752  0.189456  1
  Ca  Ca3  1  0.853647  0.598608  0.329819  1
  Ca  Ca4  1  0.657462  0.152873  0.407865  1
  Ca  Ca5  1  0.336965  0.842004  0.613154  1
  Ca  Ca6  1  0.163850  0.396871  0.673235  1
  Ca  Ca7  1  0.798550  0.802218  0.802581  1
  Ca  Ca8  1  0.589394  0.335047  0.844069  1
  Pt  Pt9  1  0.413056  0.046057  0.837772  1
  Pt  Pt10  1  0.158609  0.590374  0.953653  1
  Au  Au11  1  0.833404  0.410937  0.048368  1
  Au  Au12  1  0.588021  0.952219  0.163591  1
  Au  Au13  1  0.047906  0.837891  0.412231  1
  Au  Au14  1  0.952493  0.168242  0.585673  1
