# generated using pymatgen
data_Y2LuHgRu2
_symmetry_space_group_name_H-M   'P 1'
_cell_length_a   3.41547800
_cell_length_b   3.41547800
_cell_length_c   11.14571500
_cell_angle_alpha   90.00000000
_cell_angle_beta   90.00000000
_cell_angle_gamma   90.00000000
_symmetry_Int_Tables_number   1
_chemical_formula_structural   Y2LuHgRu2
_chemical_formula_sum   'Y2 Lu1 Hg1 Ru2'
_cell_volume   130.02022652
_cell_formula_units_Z   1
loop_
 _symmetry_equiv_pos_site_id
 _symmetry_equiv_pos_as_xyz
  1  'x, y, z'
loop_
 _atom_site_type_symbol
 _atom_site_label
 _atom_site_symmetry_multiplicity
 _atom_site_fract_x
 _atom_site_fract_y
 _atom_site_fract_z
 _atom_site_occupancy
  Y  Y0  1  0.499999  0.499999  0.297614  1
  Y  Y1  1  0.499999  0.499999  0.702385  1
  Lu  Lu2  1  0.499999  0.499999  0.000000  1
  Hg  Hg3  1  0.000000  0.000000  0.500000  1
  Ru  Ru4  1  0.000000  0.000000  0.151185  1
  Ru  Ru5  1  0.000000  0.000000  0.848814  1
