# generated using pymatgen
data_CaDy6CoI12
_symmetry_space_group_name_H-M   'P 1'
_cell_length_a   9.75824657
_cell_length_b   9.75824661
_cell_length_c   9.75824782
_cell_angle_alpha   106.92278267
_cell_angle_beta   106.92278928
_cell_angle_gamma   106.92279338
_symmetry_Int_Tables_number   1
_chemical_formula_structural   CaDy6CoI12
_chemical_formula_sum   'Ca1 Dy6 Co1 I12'
_cell_volume   775.48189478
_cell_formula_units_Z   1
loop_
 _symmetry_equiv_pos_site_id
 _symmetry_equiv_pos_as_xyz
  1  'x, y, z'
loop_
 _atom_site_type_symbol
 _atom_site_label
 _atom_site_symmetry_multiplicity
 _atom_site_fract_x
 _atom_site_fract_y
 _atom_site_fract_z
 _atom_site_occupancy
  Ca  Ca0  1  0.996995  0.996995  0.996995  1
  Dy  Dy1  1  0.519255  0.591068  0.789196  1
  Dy  Dy2  1  0.789196  0.519255  0.591068  1
  Dy  Dy3  1  0.591068  0.789196  0.519255  1
  Dy  Dy4  1  0.478847  0.406982  0.209107  1
  Dy  Dy5  1  0.209107  0.478847  0.406982  1
  Dy  Dy6  1  0.406982  0.209107  0.478847  1
  Co  Co7  1  0.499220  0.499220  0.499220  1
  I  I8  1  0.274915  0.821433  0.425639  1
  I  I9  1  0.425639  0.274915  0.821433  1
  I  I10  1  0.821433  0.425639  0.274915  1
  I  I11  1  0.723353  0.176788  0.572345  1
  I  I12  1  0.572345  0.723353  0.176788  1
  I  I13  1  0.176788  0.572345  0.723353  1
  I  I14  1  0.044933  0.123567  0.349945  1
  I  I15  1  0.349945  0.044933  0.123567  1
  I  I16  1  0.123567  0.349945  0.044933  1
  I  I17  1  0.952694  0.873855  0.645230  1
  I  I18  1  0.645230  0.952694  0.873855  1
  I  I19  1  0.873855  0.645230  0.952694  1
