# generated using pymatgen
data_Er4Hf3ScPt3Rh
_symmetry_space_group_name_H-M   'P 1'
_cell_length_a   4.66331700
_cell_length_b   6.97190588
_cell_length_c   8.22310179
_cell_angle_alpha   90.85340110
_cell_angle_beta   90.00000000
_cell_angle_gamma   90.00000000
_symmetry_Int_Tables_number   1
_chemical_formula_structural   Er4Hf3ScPt3Rh
_chemical_formula_sum   'Er4 Hf3 Sc1 Pt3 Rh1'
_cell_volume   267.32153383
_cell_formula_units_Z   1
loop_
 _symmetry_equiv_pos_site_id
 _symmetry_equiv_pos_as_xyz
  1  'x, y, z'
loop_
 _atom_site_type_symbol
 _atom_site_label
 _atom_site_symmetry_multiplicity
 _atom_site_fract_x
 _atom_site_fract_y
 _atom_site_fract_z
 _atom_site_occupancy
  Er  Er0  1  0.250000  0.982934  0.325188  1
  Er  Er1  1  0.250000  0.482076  0.176452  1
  Er  Er2  1  0.750000  0.017260  0.679776  1
  Er  Er3  1  0.750000  0.515987  0.822483  1
  Hf  Hf4  1  0.250000  0.364779  0.577602  1
  Hf  Hf5  1  0.250000  0.853594  0.925650  1
  Hf  Hf6  1  0.750000  0.646123  0.423747  1
  Sc  Sc7  1  0.750000  0.143535  0.077387  1
  Pt  Pt8  1  0.250000  0.232525  0.896216  1
  Pt  Pt9  1  0.750000  0.760130  0.095465  1
  Pt  Pt10  1  0.750000  0.267383  0.411160  1
  Rh  Rh11  1  0.250000  0.733677  0.588873  1
