# generated using pymatgen
data_Tb2CrFe2Re14C3
_symmetry_space_group_name_H-M   'P 1'
_cell_length_a   6.93672494
_cell_length_b   6.94040886
_cell_length_c   6.94040826
_cell_angle_alpha   82.53382281
_cell_angle_beta   82.50323568
_cell_angle_gamma   82.50322100
_symmetry_Int_Tables_number   1
_chemical_formula_structural   Tb2CrFe2Re14C3
_chemical_formula_sum   'Tb2 Cr1 Fe2 Re14 C3'
_cell_volume   326.27483066
_cell_formula_units_Z   1
loop_
 _symmetry_equiv_pos_site_id
 _symmetry_equiv_pos_as_xyz
  1  'x, y, z'
loop_
 _atom_site_type_symbol
 _atom_site_label
 _atom_site_symmetry_multiplicity
 _atom_site_fract_x
 _atom_site_fract_y
 _atom_site_fract_z
 _atom_site_occupancy
  Tb  Tb0  1  0.648679  0.648510  0.648510  1
  Tb  Tb1  1  0.351321  0.351490  0.351490  1
  Cr  Cr2  1  0.500000  0.000000  0.000000  1
  Fe  Fe3  1  0.000000  0.000000  0.500000  1
  Fe  Fe4  1  0.000000  0.500000  0.000000  1
  Re  Re5  1  0.721803  0.278785  0.999961  1
  Re  Re6  1  0.000000  0.722160  0.277840  1
  Re  Re7  1  0.278197  0.000039  0.721215  1
  Re  Re8  1  0.000000  0.277840  0.722160  1
  Re  Re9  1  0.721803  0.999961  0.278785  1
  Re  Re10  1  0.278197  0.721215  0.000039  1
  Re  Re11  1  0.345798  0.345882  0.861463  1
  Re  Re12  1  0.861434  0.346294  0.346294  1
  Re  Re13  1  0.345798  0.861463  0.345882  1
  Re  Re14  1  0.654202  0.654118  0.138537  1
  Re  Re15  1  0.138566  0.653706  0.653706  1
  Re  Re16  1  0.654202  0.138537  0.654118  1
  Re  Re17  1  0.899213  0.897965  0.897965  1
  Re  Re18  1  0.100787  0.102035  0.102035  1
  C  C19  1  0.500000  0.500000  0.000000  1
  C  C20  1  0.000000  0.500000  0.500000  1
  C  C21  1  0.500000  0.000000  0.500000  1
