# generated using pymatgen
data_CaYb(ThB10)3
_symmetry_space_group_name_H-M   'P 1'
_cell_length_a   4.11785600
_cell_length_b   4.11785600
_cell_length_c   20.62003700
_cell_angle_alpha   90.00000000
_cell_angle_beta   90.00000000
_cell_angle_gamma   90.00000000
_symmetry_Int_Tables_number   1
_chemical_formula_structural   CaYb(ThB10)3
_chemical_formula_sum   'Ca1 Yb1 Th3 B30'
_cell_volume   349.64856572
_cell_formula_units_Z   1
loop_
 _symmetry_equiv_pos_site_id
 _symmetry_equiv_pos_as_xyz
  1  'x, y, z'
loop_
 _atom_site_type_symbol
 _atom_site_label
 _atom_site_symmetry_multiplicity
 _atom_site_fract_x
 _atom_site_fract_y
 _atom_site_fract_z
 _atom_site_occupancy
  Ca  Ca0  1  0.000000  0.000000  0.002514  1
  Yb  Yb1  1  0.000000  0.000000  0.199040  1
  Th  Th2  1  0.000000  0.000000  0.403102  1
  Th  Th3  1  0.000000  0.000000  0.599848  1
  Th  Th4  1  0.000000  0.000000  0.796606  1
  B  B5  1  0.500000  0.500000  0.160209  1
  B  B6  1  0.500000  0.500000  0.360397  1
  B  B7  1  0.500000  0.500000  0.560565  1
  B  B8  1  0.500000  0.500000  0.760132  1
  B  B9  1  0.500000  0.500000  0.959740  1
  B  B10  1  0.500000  0.200878  0.100592  1
  B  B11  1  0.500000  0.199239  0.300073  1
  B  B12  1  0.500000  0.197447  0.500125  1
  B  B13  1  0.500000  0.197550  0.699516  1
  B  B14  1  0.500000  0.199506  0.899501  1
  B  B15  1  0.200878  0.500000  0.100592  1
  B  B16  1  0.199239  0.500000  0.300073  1
  B  B17  1  0.197447  0.500000  0.500125  1
  B  B18  1  0.197550  0.500000  0.699516  1
  B  B19  1  0.199506  0.500000  0.899501  1
  B  B20  1  0.500000  0.500000  0.040469  1
  B  B21  1  0.500000  0.500000  0.240270  1
  B  B22  1  0.500000  0.500000  0.439468  1
  B  B23  1  0.500000  0.500000  0.639136  1
  B  B24  1  0.500000  0.500000  0.839277  1
  B  B25  1  0.500000  0.799122  0.100592  1
  B  B26  1  0.500000  0.800761  0.300073  1
  B  B27  1  0.500000  0.802553  0.500125  1
  B  B28  1  0.500000  0.802450  0.699516  1
  B  B29  1  0.500000  0.800494  0.899501  1
  B  B30  1  0.799122  0.500000  0.100592  1
  B  B31  1  0.800761  0.500000  0.300073  1
  B  B32  1  0.802553  0.500000  0.500125  1
  B  B33  1  0.802450  0.500000  0.699516  1
  B  B34  1  0.800494  0.500000  0.899501  1
