# generated using pymatgen
data_Tm6MnAl15Os7
_symmetry_space_group_name_H-M   'P 1'
_cell_length_a   8.91162729
_cell_length_b   8.91162784
_cell_length_c   8.89700002
_cell_angle_alpha   59.94560567
_cell_angle_beta   59.94560155
_cell_angle_gamma   60.00000094
_symmetry_Int_Tables_number   1
_chemical_formula_structural   Tm6MnAl15Os7
_chemical_formula_sum   'Tm6 Mn1 Al15 Os7'
_cell_volume   499.21208011
_cell_formula_units_Z   1
loop_
 _symmetry_equiv_pos_site_id
 _symmetry_equiv_pos_as_xyz
  1  'x, y, z'
loop_
 _atom_site_type_symbol
 _atom_site_label
 _atom_site_symmetry_multiplicity
 _atom_site_fract_x
 _atom_site_fract_y
 _atom_site_fract_z
 _atom_site_occupancy
  Tm  Tm0  1  0.710234  0.710234  0.290074  1
  Tm  Tm1  1  0.289457  0.710234  0.290074  1
  Tm  Tm2  1  0.710234  0.289457  0.290074  1
  Tm  Tm3  1  0.289931  0.289931  0.709947  1
  Tm  Tm4  1  0.710192  0.289931  0.709947  1
  Tm  Tm5  1  0.289931  0.710192  0.709947  1
  Mn  Mn6  1  0.879384  0.879384  0.361847  1
  Al  Al7  1  0.880093  0.361058  0.878756  1
  Al  Al8  1  0.361058  0.880093  0.878756  1
  Al  Al9  1  0.880093  0.880093  0.878756  1
  Al  Al10  1  0.120348  0.120348  0.638956  1
  Al  Al11  1  0.119539  0.638882  0.122039  1
  Al  Al12  1  0.638882  0.119539  0.122039  1
  Al  Al13  1  0.119539  0.119539  0.122039  1
  Al  Al14  1  0.667331  0.667331  0.998007  1
  Al  Al15  1  0.669548  0.995500  0.665403  1
  Al  Al16  1  0.995500  0.669548  0.665403  1
  Al  Al17  1  0.669548  0.669548  0.665403  1
  Al  Al18  1  0.332370  0.332370  0.002890  1
  Al  Al19  1  0.332736  0.002085  0.332442  1
  Al  Al20  1  0.002085  0.332736  0.332442  1
  Al  Al21  1  0.332736  0.332736  0.332442  1
  Os  Os22  1  0.997717  0.997717  0.006850  1
  Os  Os23  1  0.000799  0.000799  0.500058  1
  Os  Os24  1  0.498345  0.000799  0.500058  1
  Os  Os25  1  0.000799  0.498345  0.500058  1
  Os  Os26  1  0.500511  0.500511  0.998430  1
  Os  Os27  1  0.000549  0.500511  0.998430  1
  Os  Os28  1  0.500511  0.000549  0.998430  1
