# generated using pymatgen
data_Li2Pr8Sc10Si15As
_symmetry_space_group_name_H-M   'P 1'
_cell_length_a   7.19201032
_cell_length_b   7.59492818
_cell_length_c   14.27526700
_cell_angle_alpha   90.00000000
_cell_angle_beta   90.00000000
_cell_angle_gamma   90.35385509
_symmetry_Int_Tables_number   1
_chemical_formula_structural   Li2Pr8Sc10Si15As
_chemical_formula_sum   'Li2 Pr8 Sc10 Si15 As1'
_cell_volume   779.74020987
_cell_formula_units_Z   1
loop_
 _symmetry_equiv_pos_site_id
 _symmetry_equiv_pos_as_xyz
  1  'x, y, z'
loop_
 _atom_site_type_symbol
 _atom_site_label
 _atom_site_symmetry_multiplicity
 _atom_site_fract_x
 _atom_site_fract_y
 _atom_site_fract_z
 _atom_site_occupancy
  Li  Li0  1  0.655629  0.004744  0.750000  1
  Li  Li1  1  0.846247  0.505182  0.250000  1
  Pr  Pr2  1  0.009774  0.181161  0.400386  1
  Pr  Pr3  1  0.518648  0.328751  0.398515  1
  Pr  Pr4  1  0.492861  0.678129  0.901605  1
  Pr  Pr5  1  0.492861  0.678129  0.598395  1
  Pr  Pr6  1  0.980268  0.830153  0.601815  1
  Pr  Pr7  1  0.980268  0.830153  0.898185  1
  Pr  Pr8  1  0.518648  0.328751  0.101485  1
  Pr  Pr9  1  0.009774  0.181161  0.099614  1
  Sc  Sc10  1  0.334164  0.174906  0.625066  1
  Sc  Sc11  1  0.674253  0.814539  0.374580  1
  Sc  Sc12  1  0.164528  0.673827  0.374865  1
  Sc  Sc13  1  0.825643  0.315249  0.874642  1
  Sc  Sc14  1  0.825643  0.315249  0.625358  1
  Sc  Sc15  1  0.340685  0.995325  0.250000  1
  Sc  Sc16  1  0.334164  0.174906  0.874934  1
  Sc  Sc17  1  0.164528  0.673827  0.125135  1
  Sc  Sc18  1  0.674253  0.814539  0.125420  1
  Sc  Sc19  1  0.157461  0.492542  0.750000  1
  Si  Si20  1  0.458289  0.623573  0.250000  1
  Si  Si21  1  0.034576  0.133980  0.750000  1
  Si  Si22  1  0.531719  0.382710  0.750000  1
  Si  Si23  1  0.153955  0.466144  0.541005  1
  Si  Si24  1  0.968217  0.883105  0.250000  1
  Si  Si25  1  0.710229  0.098430  0.250000  1
  Si  Si26  1  0.848395  0.539663  0.031325  1
  Si  Si27  1  0.346166  0.965283  0.040351  1
  Si  Si28  1  0.153955  0.466144  0.958995  1
  Si  Si29  1  0.650420  0.038513  0.532043  1
  Si  Si30  1  0.346166  0.965283  0.459649  1
  Si  Si31  1  0.848395  0.539663  0.468675  1
  Si  Si32  1  0.790488  0.599762  0.750000  1
  Si  Si33  1  0.218733  0.387360  0.250000  1
  Si  Si34  1  0.650420  0.038513  0.967957  1
  As  As35  1  0.289580  0.880648  0.750000  1
