# generated using pymatgen
data_CeDy(TmZn6)2
_symmetry_space_group_name_H-M   'P 1'
_cell_length_a   4.40610300
_cell_length_b   6.63635541
_cell_length_c   10.07872014
_cell_angle_alpha   89.94216268
_cell_angle_beta   90.00000000
_cell_angle_gamma   90.00000000
_symmetry_Int_Tables_number   1
_chemical_formula_structural   CeDy(TmZn6)2
_chemical_formula_sum   'Ce1 Dy1 Tm2 Zn12'
_cell_volume   294.70631819
_cell_formula_units_Z   1
loop_
 _symmetry_equiv_pos_site_id
 _symmetry_equiv_pos_as_xyz
  1  'x, y, z'
loop_
 _atom_site_type_symbol
 _atom_site_label
 _atom_site_symmetry_multiplicity
 _atom_site_fract_x
 _atom_site_fract_y
 _atom_site_fract_z
 _atom_site_occupancy
  Ce  Ce0  1  0.250000  0.776772  0.840859  1
  Dy  Dy1  1  0.750000  0.222966  0.158468  1
  Tm  Tm2  1  0.250000  0.276449  0.659338  1
  Tm  Tm3  1  0.750000  0.723599  0.338756  1
  Zn  Zn4  1  0.250000  0.537573  0.111343  1
  Zn  Zn5  1  0.750000  0.463182  0.892907  1
  Zn  Zn6  1  0.250000  0.037573  0.392636  1
  Zn  Zn7  1  0.750000  0.960608  0.608955  1
  Zn  Zn8  1  0.750000  0.277367  0.455543  1
  Zn  Zn9  1  0.250000  0.717452  0.540960  1
  Zn  Zn10  1  0.750000  0.779089  0.046662  1
  Zn  Zn11  1  0.250000  0.228178  0.953890  1
  Zn  Zn12  1  0.750000  0.574841  0.643206  1
  Zn  Zn13  1  0.250000  0.419820  0.353179  1
  Zn  Zn14  1  0.750000  0.083926  0.854625  1
  Zn  Zn15  1  0.250000  0.920603  0.148671  1
