# generated using pymatgen
data_TbPa2(GaRh)3
_symmetry_space_group_name_H-M   'P 1'
_cell_length_a   7.24547815
_cell_length_b   7.24547566
_cell_length_c   3.85158400
_cell_angle_alpha   90.00000000
_cell_angle_beta   90.00000000
_cell_angle_gamma   120.17321123
_symmetry_Int_Tables_number   1
_chemical_formula_structural   TbPa2(GaRh)3
_chemical_formula_sum   'Tb1 Pa2 Ga3 Rh3'
_cell_volume   174.80075168
_cell_formula_units_Z   1
loop_
 _symmetry_equiv_pos_site_id
 _symmetry_equiv_pos_as_xyz
  1  'x, y, z'
loop_
 _atom_site_type_symbol
 _atom_site_label
 _atom_site_symmetry_multiplicity
 _atom_site_fract_x
 _atom_site_fract_y
 _atom_site_fract_z
 _atom_site_occupancy
  Tb  Tb0  1  0.592027  0.592027  0.500000  1
  Pa  Pa1  1  0.410762  0.997395  0.500000  1
  Pa  Pa2  1  0.997395  0.410762  0.500000  1
  Ga  Ga3  1  0.750833  0.987139  0.000000  1
  Ga  Ga4  1  0.987139  0.750833  0.000000  1
  Ga  Ga5  1  0.261355  0.261355  0.000000  1
  Rh  Rh6  1  0.309676  0.670209  0.000000  1
  Rh  Rh7  1  0.670209  0.309676  0.000000  1
  Rh  Rh8  1  0.020604  0.020604  0.500000  1
