# generated using pymatgen
data_HoBiIr2O7
_symmetry_space_group_name_H-M   'P 1'
_cell_length_a   7.32620469
_cell_length_b   7.30138427
_cell_length_c   7.30138359
_cell_angle_alpha   59.78074668
_cell_angle_beta   59.88747825
_cell_angle_gamma   59.88748222
_symmetry_Int_Tables_number   1
_chemical_formula_structural   HoBiIr2O7
_chemical_formula_sum   'Ho2 Bi2 Ir4 O14'
_cell_volume   275.23987573
_cell_formula_units_Z   2
loop_
 _symmetry_equiv_pos_site_id
 _symmetry_equiv_pos_as_xyz
  1  'x, y, z'
loop_
 _atom_site_type_symbol
 _atom_site_label
 _atom_site_symmetry_multiplicity
 _atom_site_fract_x
 _atom_site_fract_y
 _atom_site_fract_z
 _atom_site_occupancy
  Ho  Ho0  1  0.125000  0.625000  0.125000  1
  Ho  Ho1  1  0.125000  0.125000  0.625000  1
  Bi  Bi2  1  0.625000  0.125000  0.125000  1
  Bi  Bi3  1  0.125000  0.125000  0.125000  1
  Ir  Ir4  1  0.125000  0.625000  0.625000  1
  Ir  Ir5  1  0.625000  0.125000  0.625000  1
  Ir  Ir6  1  0.625000  0.625000  0.125000  1
  Ir  Ir7  1  0.625000  0.625000  0.625000  1
  O  O8  1  0.717427  0.704124  0.289418  1
  O  O9  1  0.289031  0.289418  0.704124  1
  O  O10  1  0.717427  0.289418  0.704124  1
  O  O11  1  0.289031  0.704124  0.289418  1
  O  O12  1  0.288107  0.711893  0.711893  1
  O  O13  1  0.706530  0.293470  0.293470  1
  O  O14  1  0.532573  0.545876  0.960582  1
  O  O15  1  0.960969  0.960582  0.545876  1
  O  O16  1  0.532573  0.960582  0.545876  1
  O  O17  1  0.960969  0.545876  0.960582  1
  O  O18  1  0.961893  0.538107  0.538107  1
  O  O19  1  0.543470  0.956530  0.956530  1
  O  O20  1  0.243015  0.256985  0.256985  1
  O  O21  1  0.006985  0.993015  0.993015  1
