# generated using pymatgen
data_DyTm7(LuRu2)2
_symmetry_space_group_name_H-M   'P 1'
_cell_length_a   6.22804148
_cell_length_b   7.23475890
_cell_length_c   8.32778302
_cell_angle_alpha   96.93467217
_cell_angle_beta   111.96770696
_cell_angle_gamma   89.91673039
_symmetry_Int_Tables_number   1
_chemical_formula_structural   DyTm7(LuRu2)2
_chemical_formula_sum   'Dy1 Tm7 Lu2 Ru4'
_cell_volume   345.05691471
_cell_formula_units_Z   1
loop_
 _symmetry_equiv_pos_site_id
 _symmetry_equiv_pos_as_xyz
  1  'x, y, z'
loop_
 _atom_site_type_symbol
 _atom_site_label
 _atom_site_symmetry_multiplicity
 _atom_site_fract_x
 _atom_site_fract_y
 _atom_site_fract_z
 _atom_site_occupancy
  Dy  Dy0  1  0.523706  0.083021  0.812782  1
  Tm  Tm1  1  0.477149  0.916612  0.186654  1
  Tm  Tm2  1  0.708194  0.415947  0.186328  1
  Tm  Tm3  1  0.291091  0.583737  0.815213  1
  Tm  Tm4  1  0.295158  0.317122  0.433931  1
  Tm  Tm5  1  0.705161  0.684162  0.565383  1
  Tm  Tm6  1  0.861924  0.184064  0.565089  1
  Tm  Tm7  1  0.138644  0.814544  0.434067  1
  Lu  Lu8  1  0.080652  0.250978  0.000699  1
  Lu  Lu9  1  0.919314  0.748951  0.000377  1
  Ru  Ru10  1  0.322118  0.577507  0.218471  1
  Ru  Ru11  1  0.678805  0.423876  0.779382  1
  Ru  Ru12  1  0.099655  0.922324  0.780506  1
  Ru  Ru13  1  0.898427  0.077155  0.221116  1
