# generated using pymatgen
data_Dy16CdIn(AgRh2)2
_symmetry_space_group_name_H-M   'P 1'
_cell_length_a   9.61017416
_cell_length_b   9.60505441
_cell_length_c   9.59648550
_cell_angle_alpha   60.02290105
_cell_angle_beta   59.95279863
_cell_angle_gamma   59.98237051
_symmetry_Int_Tables_number   1
_chemical_formula_structural   Dy16CdIn(AgRh2)2
_chemical_formula_sum   'Dy16 Cd1 In1 Ag2 Rh4'
_cell_volume   626.16720525
_cell_formula_units_Z   1
loop_
 _symmetry_equiv_pos_site_id
 _symmetry_equiv_pos_as_xyz
  1  'x, y, z'
loop_
 _atom_site_type_symbol
 _atom_site_label
 _atom_site_symmetry_multiplicity
 _atom_site_fract_x
 _atom_site_fract_y
 _atom_site_fract_z
 _atom_site_occupancy
  Dy  Dy0  1  0.561367  0.565242  0.937381  1
  Dy  Dy1  1  0.148967  0.553066  0.148999  1
  Dy  Dy2  1  0.689778  0.309757  0.310688  1
  Dy  Dy3  1  0.935675  0.562820  0.565830  1
  Dy  Dy4  1  0.936009  0.565242  0.937381  1
  Dy  Dy5  1  0.689528  0.690471  0.310532  1
  Dy  Dy6  1  0.562861  0.936616  0.937663  1
  Dy  Dy7  1  0.150199  0.149242  0.149811  1
  Dy  Dy8  1  0.309468  0.690471  0.310532  1
  Dy  Dy9  1  0.550749  0.149242  0.149811  1
  Dy  Dy10  1  0.311412  0.312259  0.688221  1
  Dy  Dy11  1  0.311886  0.688503  0.687725  1
  Dy  Dy12  1  0.149454  0.148562  0.552530  1
  Dy  Dy13  1  0.688109  0.312259  0.688221  1
  Dy  Dy14  1  0.935756  0.936081  0.567362  1
  Dy  Dy15  1  0.560800  0.936081  0.567362  1
  Cd  Cd16  1  0.920411  0.241518  0.917659  1
  In  In17  1  0.920113  0.918270  0.241503  1
  Ag  Ag18  1  0.917217  0.917361  0.916059  1
  Ag  Ag19  1  0.249363  0.917361  0.916059  1
  Rh  Rh20  1  0.357241  0.357103  0.928414  1
  Rh  Rh21  1  0.358464  0.357360  0.356728  1
  Rh  Rh22  1  0.927448  0.357360  0.356728  1
  Rh  Rh23  1  0.357722  0.927757  0.356800  1
