# generated using pymatgen
data_CeDy(TmSb5)2
_symmetry_space_group_name_H-M   'P 1'
_cell_length_a   4.21438000
_cell_length_b   13.20107107
_cell_length_c   14.61551200
_cell_angle_alpha   78.31308613
_cell_angle_beta   90.00000000
_cell_angle_gamma   90.00000000
_symmetry_Int_Tables_number   1
_chemical_formula_structural   CeDy(TmSb5)2
_chemical_formula_sum   'Ce2 Dy2 Tm4 Sb20'
_cell_volume   796.26742027
_cell_formula_units_Z   2
loop_
 _symmetry_equiv_pos_site_id
 _symmetry_equiv_pos_as_xyz
  1  'x, y, z'
loop_
 _atom_site_type_symbol
 _atom_site_label
 _atom_site_symmetry_multiplicity
 _atom_site_fract_x
 _atom_site_fract_y
 _atom_site_fract_z
 _atom_site_occupancy
  Ce  Ce0  1  0.250000  0.670754  0.574492  1
  Ce  Ce1  1  0.750000  0.329246  0.425508  1
  Dy  Dy2  1  0.250000  0.950994  0.356882  1
  Dy  Dy3  1  0.750000  0.049006  0.643118  1
  Tm  Tm4  1  0.250000  0.392589  0.773364  1
  Tm  Tm5  1  0.750000  0.607411  0.226636  1
  Tm  Tm6  1  0.250000  0.661923  0.857536  1
  Tm  Tm7  1  0.750000  0.338077  0.142464  1
  Sb  Sb8  1  0.250000  0.145334  0.779066  1
  Sb  Sb9  1  0.750000  0.854666  0.220934  1
  Sb  Sb10  1  0.250000  0.141152  0.483610  1
  Sb  Sb11  1  0.750000  0.858848  0.516390  1
  Sb  Sb12  1  0.250000  0.152136  0.166047  1
  Sb  Sb13  1  0.750000  0.847864  0.833953  1
  Sb  Sb14  1  0.250000  0.420746  0.977186  1
  Sb  Sb15  1  0.750000  0.579254  0.022814  1
  Sb  Sb16  1  0.750000  0.033566  0.912556  1
  Sb  Sb17  1  0.250000  0.966434  0.087444  1
  Sb  Sb18  1  0.750000  0.137871  0.315359  1
  Sb  Sb19  1  0.250000  0.862129  0.684641  1
  Sb  Sb20  1  0.750000  0.278363  0.938110  1
  Sb  Sb21  1  0.250000  0.721637  0.061890  1
  Sb  Sb22  1  0.750000  0.286882  0.656245  1
  Sb  Sb23  1  0.250000  0.713118  0.343755  1
  Sb  Sb24  1  0.750000  0.575831  0.735466  1
  Sb  Sb25  1  0.250000  0.424169  0.264534  1
  Sb  Sb26  1  0.750000  0.572298  0.445804  1
  Sb  Sb27  1  0.250000  0.427702  0.554196  1
