# generated using pymatgen
data_Tb9Nd6Y(CdIr)4
_symmetry_space_group_name_H-M   'P 1'
_cell_length_a   9.77137277
_cell_length_b   9.77137356
_cell_length_c   9.76967600
_cell_angle_alpha   60.00574669
_cell_angle_beta   60.00574405
_cell_angle_gamma   60.11348857
_symmetry_Int_Tables_number   1
_chemical_formula_structural   Tb9Nd6Y(CdIr)4
_chemical_formula_sum   'Tb9 Nd6 Y1 Cd4 Ir4'
_cell_volume   660.21477842
_cell_formula_units_Z   1
loop_
 _symmetry_equiv_pos_site_id
 _symmetry_equiv_pos_as_xyz
  1  'x, y, z'
loop_
 _atom_site_type_symbol
 _atom_site_label
 _atom_site_symmetry_multiplicity
 _atom_site_fract_x
 _atom_site_fract_y
 _atom_site_fract_z
 _atom_site_occupancy
  Tb  Tb0  1  0.347912  0.347912  0.347542  1
  Tb  Tb1  1  0.347912  0.347912  0.956636  1
  Tb  Tb2  1  0.349216  0.955732  0.347526  1
  Tb  Tb3  1  0.955732  0.349216  0.347526  1
  Tb  Tb4  1  0.810968  0.187339  0.189235  1
  Tb  Tb5  1  0.187339  0.810968  0.812458  1
  Tb  Tb6  1  0.187339  0.810968  0.189235  1
  Tb  Tb7  1  0.810968  0.187339  0.812458  1
  Tb  Tb8  1  0.188481  0.188481  0.811519  1
  Nd  Nd9  1  0.941087  0.558550  0.559569  1
  Nd  Nd10  1  0.558550  0.941087  0.940794  1
  Nd  Nd11  1  0.558550  0.941087  0.559569  1
  Nd  Nd12  1  0.941087  0.558550  0.940794  1
  Nd  Nd13  1  0.559314  0.559314  0.940686  1
  Nd  Nd14  1  0.941573  0.941573  0.558427  1
  Y  Y15  1  0.811143  0.811143  0.188857  1
  Cd  Cd16  1  0.579810  0.579810  0.579354  1
  Cd  Cd17  1  0.579810  0.579810  0.261024  1
  Cd  Cd18  1  0.579894  0.260491  0.579807  1
  Cd  Cd19  1  0.260491  0.579894  0.579807  1
  Ir  Ir20  1  0.141973  0.141973  0.140553  1
  Ir  Ir21  1  0.141973  0.141973  0.575501  1
  Ir  Ir22  1  0.143404  0.575473  0.140561  1
  Ir  Ir23  1  0.575473  0.143404  0.140561  1
