# generated using pymatgen
data_DyEr3(SnPd2)2
_symmetry_space_group_name_H-M   'P 1'
_cell_length_a   7.74206300
_cell_length_b   7.74206337
_cell_length_c   3.62937300
_cell_angle_alpha   90.00000000
_cell_angle_beta   90.00000000
_cell_angle_gamma   90.08424826
_symmetry_Int_Tables_number   1
_chemical_formula_structural   DyEr3(SnPd2)2
_chemical_formula_sum   'Dy1 Er3 Sn2 Pd4'
_cell_volume   217.54272149
_cell_formula_units_Z   1
loop_
 _symmetry_equiv_pos_site_id
 _symmetry_equiv_pos_as_xyz
  1  'x, y, z'
loop_
 _atom_site_type_symbol
 _atom_site_label
 _atom_site_symmetry_multiplicity
 _atom_site_fract_x
 _atom_site_fract_y
 _atom_site_fract_z
 _atom_site_occupancy
  Dy  Dy0  1  0.828945  0.671055  0.500000  1
  Er  Er1  1  0.670719  0.170678  0.500000  1
  Er  Er2  1  0.329322  0.829281  0.500000  1
  Er  Er3  1  0.171002  0.328998  0.500000  1
  Sn  Sn4  1  0.000296  0.000412  0.000000  1
  Sn  Sn5  1  0.499588  0.499704  0.000000  1
  Pd  Pd6  1  0.129560  0.628175  0.000000  1
  Pd  Pd7  1  0.871825  0.370440  0.000000  1
  Pd  Pd8  1  0.627186  0.872814  0.000000  1
  Pd  Pd9  1  0.371558  0.128442  0.000000  1
