# generated using pymatgen
data_NpGeN
_symmetry_space_group_name_H-M   'P 1'
_cell_length_a   3.83899500
_cell_length_b   3.83637132
_cell_length_c   8.57764335
_cell_angle_alpha   102.84488235
_cell_angle_beta   89.99994030
_cell_angle_gamma   120.02271850
_symmetry_Int_Tables_number   1
_chemical_formula_structural   NpGeN
_chemical_formula_sum   'Np2 Ge2 N2'
_cell_volume   105.71284581
_cell_formula_units_Z   2
loop_
 _symmetry_equiv_pos_site_id
 _symmetry_equiv_pos_as_xyz
  1  'x, y, z'
loop_
 _atom_site_type_symbol
 _atom_site_label
 _atom_site_symmetry_multiplicity
 _atom_site_fract_x
 _atom_site_fract_y
 _atom_site_fract_z
 _atom_site_occupancy
  Np  Np0  1  0.221769  0.443538  0.166654  1
  Np  Np1  1  0.778354  0.556707  0.833439  1
  Ge  Ge2  1  0.643069  0.286137  0.428881  1
  Ge  Ge3  1  0.356837  0.713670  0.570950  1
  N  N4  1  0.868289  0.736576  0.106661  1
  N  N5  1  0.131687  0.263372  0.893415  1
