# generated using pymatgen
data_Cs6K2ZrAs4
_symmetry_space_group_name_H-M   'P 1'
_cell_length_a   11.72389484
_cell_length_b   11.72389408
_cell_length_c   11.72389400
_cell_angle_alpha   60.00000023
_cell_angle_beta   60.00000236
_cell_angle_gamma   59.99999456
_symmetry_Int_Tables_number   1
_chemical_formula_structural   Cs6K2ZrAs4
_chemical_formula_sum   'Cs12 K4 Zr2 As8'
_cell_volume   1139.46417739
_cell_formula_units_Z   2
loop_
 _symmetry_equiv_pos_site_id
 _symmetry_equiv_pos_as_xyz
  1  'x, y, z'
loop_
 _atom_site_type_symbol
 _atom_site_label
 _atom_site_symmetry_multiplicity
 _atom_site_fract_x
 _atom_site_fract_y
 _atom_site_fract_z
 _atom_site_occupancy
  Cs  Cs0  1  0.027862  0.472138  0.472138  1
  Cs  Cs1  1  0.777862  0.222138  0.222138  1
  Cs  Cs2  1  0.472138  0.027862  0.472138  1
  Cs  Cs3  1  0.472138  0.472138  0.027862  1
  Cs  Cs4  1  0.027862  0.027862  0.472138  1
  Cs  Cs5  1  0.027862  0.472138  0.027862  1
  Cs  Cs6  1  0.472138  0.027862  0.027862  1
  Cs  Cs7  1  0.777862  0.222138  0.777862  1
  Cs  Cs8  1  0.222138  0.777862  0.222138  1
  Cs  Cs9  1  0.222138  0.222138  0.777862  1
  Cs  Cs10  1  0.777862  0.777862  0.222138  1
  Cs  Cs11  1  0.222138  0.777862  0.777862  1
  K  K12  1  0.625000  0.625000  0.125000  1
  K  K13  1  0.625000  0.125000  0.625000  1
  K  K14  1  0.125000  0.625000  0.625000  1
  K  K15  1  0.625000  0.625000  0.625000  1
  Zr  Zr16  1  0.750000  0.750000  0.750000  1
  Zr  Zr17  1  0.500000  0.500000  0.500000  1
  As  As18  1  0.843777  0.843777  0.468671  1
  As  As19  1  0.843777  0.468671  0.843777  1
  As  As20  1  0.406223  0.406223  0.781329  1
  As  As21  1  0.406223  0.781329  0.406223  1
  As  As22  1  0.781329  0.406223  0.406223  1
  As  As23  1  0.843777  0.843777  0.843777  1
  As  As24  1  0.468671  0.843777  0.843777  1
  As  As25  1  0.406223  0.406223  0.406223  1
