# generated using pymatgen
data_Y4Pa2MnCo17P12
_symmetry_space_group_name_H-M   'P 1'
_cell_length_a   3.72055400
_cell_length_b   10.56309800
_cell_length_c   12.16813900
_cell_angle_alpha   90.00000000
_cell_angle_beta   90.00000000
_cell_angle_gamma   90.00000000
_symmetry_Int_Tables_number   1
_chemical_formula_structural   Y4Pa2MnCo17P12
_chemical_formula_sum   'Y4 Pa2 Mn1 Co17 P12'
_cell_volume   478.21487783
_cell_formula_units_Z   1
loop_
 _symmetry_equiv_pos_site_id
 _symmetry_equiv_pos_as_xyz
  1  'x, y, z'
loop_
 _atom_site_type_symbol
 _atom_site_label
 _atom_site_symmetry_multiplicity
 _atom_site_fract_x
 _atom_site_fract_y
 _atom_site_fract_z
 _atom_site_occupancy
  Y  Y0  1  0.500000  0.815794  0.205518  1
  Y  Y1  1  0.500000  0.184206  0.205518  1
  Y  Y2  1  0.000000  0.685177  0.795628  1
  Y  Y3  1  0.000000  0.314823  0.795628  1
  Pa  Pa4  1  0.000000  0.500000  0.529225  1
  Pa  Pa5  1  0.500000  0.000000  0.471510  1
  Mn  Mn6  1  0.500000  0.500000  0.152950  1
  Co  Co7  1  0.000000  0.000000  0.841265  1
  Co  Co8  1  0.500000  0.500000  0.695619  1
  Co  Co9  1  0.000000  0.000000  0.305149  1
  Co  Co10  1  0.000000  0.500000  0.984578  1
  Co  Co11  1  0.500000  0.000000  0.016010  1
  Co  Co12  1  0.500000  0.332484  0.992763  1
  Co  Co13  1  0.500000  0.667516  0.992763  1
  Co  Co14  1  0.000000  0.164916  0.005950  1
  Co  Co15  1  0.000000  0.835084  0.005950  1
  Co  Co16  1  0.500000  0.301184  0.432631  1
  Co  Co17  1  0.500000  0.698816  0.432631  1
  Co  Co18  1  0.000000  0.198501  0.568411  1
  Co  Co19  1  0.000000  0.801499  0.568411  1
  Co  Co20  1  0.500000  0.880874  0.709872  1
  Co  Co21  1  0.500000  0.119126  0.709872  1
  Co  Co22  1  0.000000  0.620604  0.290537  1
  Co  Co23  1  0.000000  0.379396  0.290537  1
  P  P24  1  0.500000  0.500000  0.879112  1
  P  P25  1  0.000000  0.000000  0.121198  1
  P  P26  1  0.500000  0.500000  0.345067  1
  P  P27  1  0.000000  0.000000  0.656731  1
  P  P28  1  0.500000  0.306503  0.617239  1
  P  P29  1  0.500000  0.693497  0.617239  1
  P  P30  1  0.000000  0.193522  0.383832  1
  P  P31  1  0.000000  0.806478  0.383832  1
  P  P32  1  0.500000  0.849102  0.893980  1
  P  P33  1  0.500000  0.150898  0.893980  1
  P  P34  1  0.000000  0.654378  0.104432  1
  P  P35  1  0.000000  0.345622  0.104432  1
