# generated using pymatgen
data_Tb7Er(SiPt)8
_symmetry_space_group_name_H-M   'P 1'
_cell_length_a   4.34499700
_cell_length_b   7.50939612
_cell_length_c   13.99695500
_cell_angle_alpha   89.98971492
_cell_angle_beta   90.00000000
_cell_angle_gamma   90.00000000
_symmetry_Int_Tables_number   1
_chemical_formula_structural   Tb7Er(SiPt)8
_chemical_formula_sum   'Tb7 Er1 Si8 Pt8'
_cell_volume   456.69689010
_cell_formula_units_Z   1
loop_
 _symmetry_equiv_pos_site_id
 _symmetry_equiv_pos_as_xyz
  1  'x, y, z'
loop_
 _atom_site_type_symbol
 _atom_site_label
 _atom_site_symmetry_multiplicity
 _atom_site_fract_x
 _atom_site_fract_y
 _atom_site_fract_z
 _atom_site_occupancy
  Tb  Tb0  1  0.000000  0.299467  0.999394  1
  Tb  Tb1  1  0.500000  0.701013  0.500585  1
  Tb  Tb2  1  0.000000  0.292699  0.500465  1
  Tb  Tb3  1  0.500000  0.707639  0.999473  1
  Tb  Tb4  1  0.000000  0.206673  0.248821  1
  Tb  Tb5  1  0.500000  0.793102  0.251280  1
  Tb  Tb6  1  0.000000  0.205860  0.751101  1
  Er  Er7  1  0.500000  0.792269  0.748838  1
  Si  Si8  1  0.000000  0.908680  0.594033  1
  Si  Si9  1  0.500000  0.090370  0.906216  1
  Si  Si10  1  0.000000  0.909274  0.407720  1
  Si  Si11  1  0.500000  0.090706  0.092329  1
  Si  Si12  1  0.000000  0.590462  0.149026  1
  Si  Si13  1  0.500000  0.409571  0.351175  1
  Si  Si14  1  0.000000  0.591894  0.849877  1
  Si  Si15  1  0.500000  0.409568  0.649023  1
  Pt  Pt16  1  0.500000  0.074895  0.610082  1
  Pt  Pt17  1  0.000000  0.922447  0.890037  1
  Pt  Pt18  1  0.500000  0.076835  0.391401  1
  Pt  Pt19  1  0.000000  0.923253  0.108556  1
  Pt  Pt20  1  0.500000  0.420773  0.152979  1
  Pt  Pt21  1  0.000000  0.579151  0.346873  1
  Pt  Pt22  1  0.500000  0.422103  0.845734  1
  Pt  Pt23  1  0.000000  0.581294  0.654983  1
