# generated using pymatgen
data_Pr8Sm12Si15Rh
_symmetry_space_group_name_H-M   'P 1'
_cell_length_a   7.63130080
_cell_length_b   7.89399931
_cell_length_c   14.98009800
_cell_angle_alpha   89.90637717
_cell_angle_beta   89.92353103
_cell_angle_gamma   90.39611442
_symmetry_Int_Tables_number   1
_chemical_formula_structural   Pr8Sm12Si15Rh
_chemical_formula_sum   'Pr8 Sm12 Si15 Rh1'
_cell_volume   902.39973400
_cell_formula_units_Z   1
loop_
 _symmetry_equiv_pos_site_id
 _symmetry_equiv_pos_as_xyz
  1  'x, y, z'
loop_
 _atom_site_type_symbol
 _atom_site_label
 _atom_site_symmetry_multiplicity
 _atom_site_fract_x
 _atom_site_fract_y
 _atom_site_fract_z
 _atom_site_occupancy
  Pr  Pr0  1  0.022178  0.183519  0.403751  1
  Pr  Pr1  1  0.526313  0.315073  0.398949  1
  Pr  Pr2  1  0.471880  0.681698  0.900043  1
  Pr  Pr3  1  0.476470  0.679533  0.599548  1
  Pr  Pr4  1  0.972642  0.817964  0.598567  1
  Pr  Pr5  1  0.972685  0.815944  0.899467  1
  Pr  Pr6  1  0.527622  0.318778  0.098418  1
  Pr  Pr7  1  0.027662  0.181011  0.098916  1
  Sm  Sm8  1  0.318479  0.188069  0.617271  1
  Sm  Sm9  1  0.674827  0.819450  0.376933  1
  Sm  Sm10  1  0.651766  0.988956  0.747698  1
  Sm  Sm11  1  0.177758  0.666636  0.384002  1
  Sm  Sm12  1  0.824205  0.316694  0.877574  1
  Sm  Sm13  1  0.825200  0.322369  0.621451  1
  Sm  Sm14  1  0.851061  0.487661  0.252316  1
  Sm  Sm15  1  0.345785  0.010142  0.250808  1
  Sm  Sm16  1  0.319578  0.183964  0.877627  1
  Sm  Sm17  1  0.179936  0.683592  0.122501  1
  Sm  Sm18  1  0.682135  0.819368  0.122815  1
  Sm  Sm19  1  0.156375  0.512581  0.740956  1
  Si  Si20  1  0.266812  0.883279  0.750646  1
  Si  Si21  1  0.470762  0.603264  0.248821  1
  Si  Si22  1  0.031084  0.104231  0.750632  1
  Si  Si23  1  0.533387  0.393111  0.752796  1
  Si  Si24  1  0.971613  0.891335  0.252473  1
  Si  Si25  1  0.736795  0.119709  0.249410  1
  Si  Si26  1  0.857302  0.529337  0.039141  1
  Si  Si27  1  0.358795  0.970377  0.038629  1
  Si  Si28  1  0.142591  0.470619  0.962870  1
  Si  Si29  1  0.644157  0.032249  0.537792  1
  Si  Si30  1  0.355955  0.970460  0.459796  1
  Si  Si31  1  0.843440  0.530884  0.460397  1
  Si  Si32  1  0.764493  0.620733  0.752827  1
  Si  Si33  1  0.237385  0.379270  0.249213  1
  Si  Si34  1  0.643352  0.028386  0.960705  1
  Rh  Rh35  1  0.137521  0.479757  0.544244  1
