# generated using pymatgen
data_La5Y(Sb3Au2)2
_symmetry_space_group_name_H-M   'P 1'
_cell_length_a   4.66157800
_cell_length_b   4.66157853
_cell_length_c   24.47834900
_cell_angle_alpha   90.00000000
_cell_angle_beta   90.00000000
_cell_angle_gamma   120.00001046
_symmetry_Int_Tables_number   1
_chemical_formula_structural   La5Y(Sb3Au2)2
_chemical_formula_sum   'La5 Y1 Sb6 Au4'
_cell_volume   460.65805367
_cell_formula_units_Z   1
loop_
 _symmetry_equiv_pos_site_id
 _symmetry_equiv_pos_as_xyz
  1  'x, y, z'
loop_
 _atom_site_type_symbol
 _atom_site_label
 _atom_site_symmetry_multiplicity
 _atom_site_fract_x
 _atom_site_fract_y
 _atom_site_fract_z
 _atom_site_occupancy
  La  La0  1  0.666667  0.333333  0.924900  1
  La  La1  1  0.333333  0.666667  0.077782  1
  La  La2  1  0.333333  0.666667  0.422218  1
  La  La3  1  0.666667  0.333333  0.575100  1
  La  La4  1  0.666667  0.333333  0.750000  1
  Y  Y5  1  0.333333  0.666667  0.250000  1
  Sb  Sb6  1  0.333333  0.666667  0.652681  1
  Sb  Sb7  1  0.000000  0.000000  0.498881  1
  Sb  Sb8  1  0.666667  0.333333  0.344990  1
  Sb  Sb9  1  0.333333  0.666667  0.847319  1
  Sb  Sb10  1  0.666667  0.333333  0.155010  1
  Sb  Sb11  1  0.000000  0.000000  0.001119  1
  Au  Au12  1  0.000000  0.000000  0.813460  1
  Au  Au13  1  0.000000  0.000000  0.191027  1
  Au  Au14  1  0.000000  0.000000  0.308973  1
  Au  Au15  1  0.000000  0.000000  0.686540  1
