# generated using pymatgen
data_Tm2Fe4CoB4
_symmetry_space_group_name_H-M   'P 1'
_cell_length_a   7.12123914
_cell_length_b   5.95014252
_cell_length_c   5.26913034
_cell_angle_alpha   78.54226001
_cell_angle_beta   54.97456981
_cell_angle_gamma   46.48317427
_symmetry_Int_Tables_number   1
_chemical_formula_structural   Tm2Fe4CoB4
_chemical_formula_sum   'Tm2 Fe4 Co1 B4'
_cell_volume   125.11154351
_cell_formula_units_Z   1
loop_
 _symmetry_equiv_pos_site_id
 _symmetry_equiv_pos_as_xyz
  1  'x, y, z'
loop_
 _atom_site_type_symbol
 _atom_site_label
 _atom_site_symmetry_multiplicity
 _atom_site_fract_x
 _atom_site_fract_y
 _atom_site_fract_z
 _atom_site_occupancy
  Tm  Tm0  1  0.854328  0.854328  0.145673  1
  Tm  Tm1  1  0.145672  0.145672  0.854329  1
  Fe  Fe2  1  0.500008  0.500007  0.999993  1
  Fe  Fe3  1  0.999993  0.999993  0.500006  1
  Fe  Fe4  1  0.500000  0.500000  0.500001  1
  Fe  Fe5  1  0.750000  0.750000  0.750000  1
  Co  Co6  1  0.250000  0.249999  0.249999  1
  B  B7  1  0.486077  0.783045  0.209741  1
  B  B8  1  0.209740  0.521138  0.486078  1
  B  B9  1  0.783045  0.486077  0.521139  1
  B  B10  1  0.521138  0.209740  0.783046  1
