# generated using pymatgen
data_DyY3Al18Ir5Au
_symmetry_space_group_name_H-M   'P 1'
_cell_length_a   7.58786399
_cell_length_b   7.58785519
_cell_length_c   9.47963320
_cell_angle_alpha   89.97031944
_cell_angle_beta   89.96821642
_cell_angle_gamma   119.58458300
_symmetry_Int_Tables_number   1
_chemical_formula_structural   DyY3Al18Ir5Au
_chemical_formula_sum   'Dy1 Y3 Al18 Ir5 Au1'
_cell_volume   474.63884234
_cell_formula_units_Z   1
loop_
 _symmetry_equiv_pos_site_id
 _symmetry_equiv_pos_as_xyz
  1  'x, y, z'
loop_
 _atom_site_type_symbol
 _atom_site_label
 _atom_site_symmetry_multiplicity
 _atom_site_fract_x
 _atom_site_fract_y
 _atom_site_fract_z
 _atom_site_occupancy
  Dy  Dy0  1  0.995723  0.673137  0.251126  1
  Y  Y1  1  0.004293  0.326847  0.748890  1
  Y  Y2  1  0.673151  0.995705  0.251108  1
  Y  Y3  1  0.326854  0.004303  0.748890  1
  Al  Al4  1  0.135054  0.135018  0.256356  1
  Al  Al5  1  0.864951  0.864955  0.743640  1
  Al  Al6  1  0.001488  0.344274  0.079071  1
  Al  Al7  1  0.998508  0.655761  0.920988  1
  Al  Al8  1  0.000203  0.664706  0.573352  1
  Al  Al9  1  0.335270  0.999767  0.426594  1
  Al  Al10  1  0.999794  0.335325  0.426592  1
  Al  Al11  1  0.664707  0.000207  0.573382  1
  Al  Al12  1  0.655759  0.998512  0.920957  1
  Al  Al13  1  0.344210  0.001459  0.079072  1
  Al  Al14  1  0.333210  0.333211  0.551998  1
  Al  Al15  1  0.666811  0.666789  0.447977  1
  Al  Al16  1  0.658034  0.658009  0.058492  1
  Al  Al17  1  0.341996  0.341997  0.941537  1
  Al  Al18  1  0.339099  0.549672  0.251320  1
  Al  Al19  1  0.660864  0.450317  0.748680  1
  Al  Al20  1  0.549716  0.339184  0.251319  1
  Al  Al21  1  0.450321  0.660864  0.748680  1
  Ir  Ir22  1  0.671729  0.328298  0.000011  1
  Ir  Ir23  1  0.328267  0.671718  0.000016  1
  Ir  Ir24  1  0.328288  0.671693  0.499981  1
  Ir  Ir25  1  0.671710  0.328333  0.499983  1
  Ir  Ir26  1  0.999993  0.999960  0.499975  1
  Au  Au27  1  0.999997  0.999978  0.000014  1
