# generated using pymatgen
data_Ti2Nb8Ge6C
_symmetry_space_group_name_H-M   'P 1'
_cell_length_a   7.68821700
_cell_length_b   7.68821878
_cell_length_c   5.29843400
_cell_angle_alpha   90.00000000
_cell_angle_beta   90.00000000
_cell_angle_gamma   119.99999664
_symmetry_Int_Tables_number   1
_chemical_formula_structural   Ti2Nb8Ge6C
_chemical_formula_sum   'Ti2 Nb8 Ge6 C1'
_cell_volume   271.22488988
_cell_formula_units_Z   1
loop_
 _symmetry_equiv_pos_site_id
 _symmetry_equiv_pos_as_xyz
  1  'x, y, z'
loop_
 _atom_site_type_symbol
 _atom_site_label
 _atom_site_symmetry_multiplicity
 _atom_site_fract_x
 _atom_site_fract_y
 _atom_site_fract_z
 _atom_site_occupancy
  Ti  Ti0  1  0.666667  0.333333  0.500000  1
  Ti  Ti1  1  0.333333  0.666667  0.500000  1
  Nb  Nb2  1  0.000000  0.761487  0.258455  1
  Nb  Nb3  1  0.238513  0.238513  0.258455  1
  Nb  Nb4  1  0.761487  0.000000  0.258455  1
  Nb  Nb5  1  0.000000  0.238513  0.741545  1
  Nb  Nb6  1  0.761487  0.761487  0.741545  1
  Nb  Nb7  1  0.238513  0.000000  0.741545  1
  Nb  Nb8  1  0.333333  0.666667  0.000000  1
  Nb  Nb9  1  0.666667  0.333333  0.000000  1
  Ge  Ge10  1  0.000000  0.400482  0.249472  1
  Ge  Ge11  1  0.599518  0.599518  0.249472  1
  Ge  Ge12  1  0.400482  0.000000  0.249472  1
  Ge  Ge13  1  0.000000  0.599518  0.750528  1
  Ge  Ge14  1  0.400482  0.400482  0.750528  1
  Ge  Ge15  1  0.599518  0.000000  0.750528  1
  C  C16  1  0.000000  0.000000  0.500000  1
