# generated using pymatgen
data_Ba8NpAsSe12
_symmetry_space_group_name_H-M   'P 1'
_cell_length_a   9.01315368
_cell_length_b   9.01315384
_cell_length_c   9.01315375
_cell_angle_alpha   89.69338115
_cell_angle_beta   89.69338777
_cell_angle_gamma   89.69339044
_symmetry_Int_Tables_number   1
_chemical_formula_structural   Ba8NpAsSe12
_chemical_formula_sum   'Ba8 Np1 As1 Se12'
_cell_volume   732.16969524
_cell_formula_units_Z   1
loop_
 _symmetry_equiv_pos_site_id
 _symmetry_equiv_pos_as_xyz
  1  'x, y, z'
loop_
 _atom_site_type_symbol
 _atom_site_label
 _atom_site_symmetry_multiplicity
 _atom_site_fract_x
 _atom_site_fract_y
 _atom_site_fract_z
 _atom_site_occupancy
  Ba  Ba0  1  0.867050  0.623277  0.257749  1
  Ba  Ba1  1  0.257749  0.867050  0.623277  1
  Ba  Ba2  1  0.623277  0.257749  0.867050  1
  Ba  Ba3  1  0.742251  0.132950  0.376723  1
  Ba  Ba4  1  0.376723  0.742251  0.132950  1
  Ba  Ba5  1  0.132950  0.376723  0.742251  1
  Ba  Ba6  1  0.257206  0.257206  0.257206  1
  Ba  Ba7  1  0.742794  0.742794  0.742794  1
  Np  Np8  1  0.000000  0.000000  0.000000  1
  As  As9  1  0.500000  0.500000  0.500000  1
  Se  Se10  1  0.203893  0.563012  0.425483  1
  Se  Se11  1  0.425483  0.203893  0.563012  1
  Se  Se12  1  0.563012  0.425483  0.203893  1
  Se  Se13  1  0.928822  0.057226  0.706858  1
  Se  Se14  1  0.706858  0.928822  0.057226  1
  Se  Se15  1  0.057226  0.706858  0.928822  1
  Se  Se16  1  0.796107  0.436988  0.574517  1
  Se  Se17  1  0.574517  0.796107  0.436988  1
  Se  Se18  1  0.436988  0.574517  0.796107  1
  Se  Se19  1  0.071178  0.942774  0.293142  1
  Se  Se20  1  0.293142  0.071178  0.942774  1
  Se  Se21  1  0.942774  0.293142  0.071178  1
