# generated using pymatgen
data_SrNp2Te5
_symmetry_space_group_name_H-M   'P 1'
_cell_length_a   8.37648600
_cell_length_b   9.33298919
_cell_length_c   13.13818240
_cell_angle_alpha   90.01713969
_cell_angle_beta   90.00000000
_cell_angle_gamma   90.00000000
_symmetry_Int_Tables_number   1
_chemical_formula_structural   SrNp2Te5
_chemical_formula_sum   'Sr4 Np8 Te20'
_cell_volume   1027.11222227
_cell_formula_units_Z   4
loop_
 _symmetry_equiv_pos_site_id
 _symmetry_equiv_pos_as_xyz
  1  'x, y, z'
loop_
 _atom_site_type_symbol
 _atom_site_label
 _atom_site_symmetry_multiplicity
 _atom_site_fract_x
 _atom_site_fract_y
 _atom_site_fract_z
 _atom_site_occupancy
  Sr  Sr0  1  0.052023  0.493264  0.329635  1
  Sr  Sr1  1  0.552023  0.506736  0.170365  1
  Sr  Sr2  1  0.947977  0.506736  0.670365  1
  Sr  Sr3  1  0.447977  0.493264  0.829635  1
  Np  Np4  1  0.025607  0.998431  0.317492  1
  Np  Np5  1  0.525607  0.001569  0.182508  1
  Np  Np6  1  0.974393  0.001569  0.682508  1
  Np  Np7  1  0.474393  0.998431  0.817492  1
  Np  Np8  1  0.074751  0.751997  0.009701  1
  Np  Np9  1  0.574751  0.248003  0.490299  1
  Np  Np10  1  0.925249  0.248003  0.990299  1
  Np  Np11  1  0.425249  0.751997  0.509701  1
  Te  Te12  1  0.668014  0.951724  0.404503  1
  Te  Te13  1  0.168014  0.048276  0.095497  1
  Te  Te14  1  0.331986  0.048276  0.595497  1
  Te  Te15  1  0.831986  0.951724  0.904503  1
  Te  Te16  1  0.455494  0.782916  0.000922  1
  Te  Te17  1  0.955494  0.217084  0.499078  1
  Te  Te18  1  0.544506  0.217084  0.999078  1
  Te  Te19  1  0.044506  0.782916  0.500922  1
  Te  Te20  1  0.832096  0.775954  0.186986  1
  Te  Te21  1  0.332096  0.224046  0.313014  1
  Te  Te22  1  0.167904  0.224046  0.813014  1
  Te  Te23  1  0.667904  0.775954  0.686986  1
  Te  Te24  1  0.310610  0.763596  0.281433  1
  Te  Te25  1  0.810610  0.236404  0.218567  1
  Te  Te26  1  0.689390  0.236404  0.718567  1
  Te  Te27  1  0.189390  0.763596  0.781433  1
  Te  Te28  1  0.183691  0.454351  0.075167  1
  Te  Te29  1  0.683691  0.545649  0.424833  1
  Te  Te30  1  0.816309  0.545649  0.924833  1
  Te  Te31  1  0.316309  0.454351  0.575167  1
