# generated using pymatgen
data_Pr6SmLuO12
_symmetry_space_group_name_H-M   'P 1'
_cell_length_a   7.01910519
_cell_length_b   7.01910527
_cell_length_c   7.01910526
_cell_angle_alpha   92.48756685
_cell_angle_beta   92.48756630
_cell_angle_gamma   92.48754603
_symmetry_Int_Tables_number   1
_chemical_formula_structural   Pr6SmLuO12
_chemical_formula_sum   'Pr6 Sm1 Lu1 O12'
_cell_volume   344.80924295
_cell_formula_units_Z   1
loop_
 _symmetry_equiv_pos_site_id
 _symmetry_equiv_pos_as_xyz
  1  'x, y, z'
loop_
 _atom_site_type_symbol
 _atom_site_label
 _atom_site_symmetry_multiplicity
 _atom_site_fract_x
 _atom_site_fract_y
 _atom_site_fract_z
 _atom_site_occupancy
  Pr  Pr0  1  0.559243  0.067184  0.256536  1
  Pr  Pr1  1  0.067184  0.256536  0.559243  1
  Pr  Pr2  1  0.743464  0.440757  0.932816  1
  Pr  Pr3  1  0.256536  0.559243  0.067184  1
  Pr  Pr4  1  0.932816  0.743464  0.440757  1
  Pr  Pr5  1  0.440757  0.932816  0.743464  1
  Sm  Sm6  1  0.000000  0.000000  0.000000  1
  Lu  Lu7  1  0.500000  0.500000  0.500000  1
  O  O8  1  0.686281  0.091971  0.934716  1
  O  O9  1  0.908029  0.065284  0.313719  1
  O  O10  1  0.407325  0.196733  0.535145  1
  O  O11  1  0.065284  0.313719  0.908029  1
  O  O12  1  0.535145  0.407325  0.196733  1
  O  O13  1  0.803267  0.464855  0.592675  1
  O  O14  1  0.196733  0.535145  0.407325  1
  O  O15  1  0.464855  0.592675  0.803267  1
  O  O16  1  0.934716  0.686281  0.091971  1
  O  O17  1  0.592675  0.803267  0.464855  1
  O  O18  1  0.091971  0.934716  0.686281  1
  O  O19  1  0.313719  0.908029  0.065284  1
