# generated using pymatgen
data_Sm4CSe3
_symmetry_space_group_name_H-M   'P 1'
_cell_length_a   7.11585589
_cell_length_b   7.11585745
_cell_length_c   7.15115415
_cell_angle_alpha   79.30914756
_cell_angle_beta   79.30914730
_cell_angle_gamma   32.47835433
_symmetry_Int_Tables_number   1
_chemical_formula_structural   Sm4CSe3
_chemical_formula_sum   'Sm4 C1 Se3'
_cell_volume   190.77758270
_cell_formula_units_Z   1
loop_
 _symmetry_equiv_pos_site_id
 _symmetry_equiv_pos_as_xyz
  1  'x, y, z'
loop_
 _atom_site_type_symbol
 _atom_site_label
 _atom_site_symmetry_multiplicity
 _atom_site_fract_x
 _atom_site_fract_y
 _atom_site_fract_z
 _atom_site_occupancy
  Sm  Sm0  1  0.231386  0.231386  0.226234  1
  Sm  Sm1  1  0.511432  0.511432  0.457192  1
  Sm  Sm2  1  0.738504  0.738504  0.792859  1
  Sm  Sm3  1  0.018589  0.018589  0.023650  1
  C  C4  1  0.625088  0.625088  0.124967  1
  Se  Se5  1  0.866271  0.866271  0.378557  1
  Se  Se6  1  0.125053  0.125053  0.624942  1
  Se  Se7  1  0.383678  0.383678  0.871600  1
