# generated using pymatgen
data_CaDy6FeBr12
_symmetry_space_group_name_H-M   'P 1'
_cell_length_a   9.22140430
_cell_length_b   9.22140476
_cell_length_c   9.22140532
_cell_angle_alpha   106.89822316
_cell_angle_beta   106.89823480
_cell_angle_gamma   106.89821998
_symmetry_Int_Tables_number   1
_chemical_formula_structural   CaDy6FeBr12
_chemical_formula_sum   'Ca1 Dy6 Fe1 Br12'
_cell_volume   654.84031761
_cell_formula_units_Z   1
loop_
 _symmetry_equiv_pos_site_id
 _symmetry_equiv_pos_as_xyz
  1  'x, y, z'
loop_
 _atom_site_type_symbol
 _atom_site_label
 _atom_site_symmetry_multiplicity
 _atom_site_fract_x
 _atom_site_fract_y
 _atom_site_fract_z
 _atom_site_occupancy
  Ca  Ca0  1  0.000000  0.000000  0.000000  1
  Dy  Dy1  1  0.802779  0.523087  0.597948  1
  Dy  Dy2  1  0.523087  0.597948  0.802779  1
  Dy  Dy3  1  0.197221  0.476913  0.402052  1
  Dy  Dy4  1  0.476913  0.402052  0.197221  1
  Dy  Dy5  1  0.597948  0.802779  0.523087  1
  Dy  Dy6  1  0.402052  0.197221  0.476913  1
  Fe  Fe7  1  0.500000  0.500000  0.500000  1
  Br  Br8  1  0.720663  0.182212  0.572233  1
  Br  Br9  1  0.951394  0.874153  0.652645  1
  Br  Br10  1  0.572233  0.720663  0.182212  1
  Br  Br11  1  0.125847  0.347355  0.048606  1
  Br  Br12  1  0.652645  0.951394  0.874153  1
  Br  Br13  1  0.874153  0.652645  0.951394  1
  Br  Br14  1  0.048606  0.125847  0.347355  1
  Br  Br15  1  0.817788  0.427767  0.279337  1
  Br  Br16  1  0.347355  0.048606  0.125847  1
  Br  Br17  1  0.279337  0.817788  0.427767  1
  Br  Br18  1  0.182212  0.572233  0.720663  1
  Br  Br19  1  0.427767  0.279337  0.817788  1
