# generated using pymatgen
data_Y4Ga4NiRu3
_symmetry_space_group_name_H-M   'P 1'
_cell_length_a   4.46713300
_cell_length_b   7.12674134
_cell_length_c   7.18990268
_cell_angle_alpha   89.27706157
_cell_angle_beta   90.00000000
_cell_angle_gamma   90.00000000
_symmetry_Int_Tables_number   1
_chemical_formula_structural   Y4Ga4NiRu3
_chemical_formula_sum   'Y4 Ga4 Ni1 Ru3'
_cell_volume   228.88025033
_cell_formula_units_Z   1
loop_
 _symmetry_equiv_pos_site_id
 _symmetry_equiv_pos_as_xyz
  1  'x, y, z'
loop_
 _atom_site_type_symbol
 _atom_site_label
 _atom_site_symmetry_multiplicity
 _atom_site_fract_x
 _atom_site_fract_y
 _atom_site_fract_z
 _atom_site_occupancy
  Y  Y0  1  0.250000  0.018025  0.803505  1
  Y  Y1  1  0.250000  0.518687  0.693498  1
  Y  Y2  1  0.750000  0.985117  0.199430  1
  Y  Y3  1  0.750000  0.484261  0.302894  1
  Ga  Ga4  1  0.250000  0.199576  0.401080  1
  Ga  Ga5  1  0.250000  0.692744  0.102213  1
  Ga  Ga6  1  0.750000  0.796109  0.603562  1
  Ga  Ga7  1  0.750000  0.310060  0.893933  1
  Ni  Ni8  1  0.750000  0.665575  0.933334  1
  Ru  Ru9  1  0.250000  0.837994  0.432466  1
  Ru  Ru10  1  0.250000  0.332745  0.065546  1
  Ru  Ru11  1  0.750000  0.159108  0.568539  1
