# generated using pymatgen
data_NdSm3Y2OsI10
_symmetry_space_group_name_H-M   'P 1'
_cell_length_a   7.86257847
_cell_length_b   9.90109685
_cell_length_c   9.91620498
_cell_angle_alpha   107.08929995
_cell_angle_beta   96.32927482
_cell_angle_gamma   104.61619783
_symmetry_Int_Tables_number   1
_chemical_formula_structural   NdSm3Y2OsI10
_chemical_formula_sum   'Nd1 Sm3 Y2 Os1 I10'
_cell_volume   699.66213630
_cell_formula_units_Z   1
loop_
 _symmetry_equiv_pos_site_id
 _symmetry_equiv_pos_as_xyz
  1  'x, y, z'
loop_
 _atom_site_type_symbol
 _atom_site_label
 _atom_site_symmetry_multiplicity
 _atom_site_fract_x
 _atom_site_fract_y
 _atom_site_fract_z
 _atom_site_occupancy
  Nd  Nd0  1  0.117460  0.043049  0.759393  1
  Sm  Sm1  1  0.884001  0.957601  0.238717  1
  Sm  Sm2  1  0.967164  0.280302  0.083594  1
  Sm  Sm3  1  0.032344  0.719507  0.917885  1
  Y  Y4  1  0.351004  0.125587  0.168097  1
  Y  Y5  1  0.648265  0.874008  0.832718  1
  Os  Os6  1  0.999995  0.000087  0.000201  1
  I  I7  1  0.349417  0.444947  0.270284  1
  I  I8  1  0.650736  0.555022  0.729665  1
  I  I9  1  0.259175  0.086825  0.453858  1
  I  I10  1  0.737048  0.911836  0.542908  1
  I  I11  1  0.086174  0.372791  0.820254  1
  I  I12  1  0.913195  0.630687  0.181155  1
  I  I13  1  0.455251  0.819358  0.090294  1
  I  I14  1  0.547883  0.181781  0.911272  1
  I  I15  1  0.775254  0.255278  0.344869  1
  I  I16  1  0.225635  0.741335  0.654835  1
