# generated using pymatgen
data_Li2Si4Os3Ru
_symmetry_space_group_name_H-M   'P 1'
_cell_length_a   6.96271186
_cell_length_b   6.96271186
_cell_length_c   2.83958700
_cell_angle_alpha   90.00000000
_cell_angle_beta   90.00000000
_cell_angle_gamma   90.41136589
_symmetry_Int_Tables_number   1
_chemical_formula_structural   Li2Si4Os3Ru
_chemical_formula_sum   'Li2 Si4 Os3 Ru1'
_cell_volume   137.65780243
_cell_formula_units_Z   1
loop_
 _symmetry_equiv_pos_site_id
 _symmetry_equiv_pos_as_xyz
  1  'x, y, z'
loop_
 _atom_site_type_symbol
 _atom_site_label
 _atom_site_symmetry_multiplicity
 _atom_site_fract_x
 _atom_site_fract_y
 _atom_site_fract_z
 _atom_site_occupancy
  Li  Li0  1  0.000581  0.000052  0.000000  1
  Li  Li1  1  0.499948  0.499419  0.000000  1
  Si  Si2  1  0.643961  0.142403  0.000000  1
  Si  Si3  1  0.144515  0.355484  0.000000  1
  Si  Si4  1  0.854454  0.645546  0.000000  1
  Si  Si5  1  0.357596  0.856039  0.000000  1
  Os  Os6  1  0.349273  0.150727  0.500001  1
  Os  Os7  1  0.848048  0.349139  0.500001  1
  Os  Os8  1  0.150861  0.651951  0.500001  1
  Ru  Ru9  1  0.650762  0.849237  0.500001  1
