# generated using pymatgen
data_Pr8LuSc10Si16Au
_symmetry_space_group_name_H-M   'P 1'
_cell_length_a   7.20069320
_cell_length_b   7.58781658
_cell_length_c   14.34637418
_cell_angle_alpha   89.95616385
_cell_angle_beta   90.08752233
_cell_angle_gamma   90.32577083
_symmetry_Int_Tables_number   1
_chemical_formula_structural   Pr8LuSc10Si16Au
_chemical_formula_sum   'Pr8 Lu1 Sc10 Si16 Au1'
_cell_volume   783.83677454
_cell_formula_units_Z   1
loop_
 _symmetry_equiv_pos_site_id
 _symmetry_equiv_pos_as_xyz
  1  'x, y, z'
loop_
 _atom_site_type_symbol
 _atom_site_label
 _atom_site_symmetry_multiplicity
 _atom_site_fract_x
 _atom_site_fract_y
 _atom_site_fract_z
 _atom_site_occupancy
  Pr  Pr0  1  0.013449  0.173173  0.401486  1
  Pr  Pr1  1  0.512347  0.330375  0.400357  1
  Pr  Pr2  1  0.492602  0.682960  0.898741  1
  Pr  Pr3  1  0.492381  0.684643  0.602761  1
  Pr  Pr4  1  0.976844  0.826673  0.604037  1
  Pr  Pr5  1  0.978751  0.826719  0.898392  1
  Pr  Pr6  1  0.511638  0.330023  0.097851  1
  Pr  Pr7  1  0.012761  0.173235  0.097842  1
  Lu  Lu8  1  0.334771  0.171539  0.623177  1
  Sc  Sc9  1  0.673274  0.820794  0.372043  1
  Sc  Sc10  1  0.171780  0.676797  0.374861  1
  Sc  Sc11  1  0.827252  0.313407  0.876135  1
  Sc  Sc12  1  0.826858  0.312277  0.625391  1
  Sc  Sc13  1  0.841686  0.502604  0.249548  1
  Sc  Sc14  1  0.341423  0.997403  0.249130  1
  Sc  Sc15  1  0.333136  0.172132  0.876244  1
  Sc  Sc16  1  0.171666  0.677001  0.123994  1
  Sc  Sc17  1  0.672463  0.821541  0.126074  1
  Sc  Sc18  1  0.157870  0.493989  0.751614  1
  Si  Si19  1  0.276843  0.880218  0.751750  1
  Si  Si20  1  0.467115  0.623498  0.249237  1
  Si  Si21  1  0.039236  0.121617  0.752236  1
  Si  Si22  1  0.531934  0.387082  0.751806  1
  Si  Si23  1  0.150396  0.469212  0.540083  1
  Si  Si24  1  0.968521  0.873699  0.249430  1
  Si  Si25  1  0.710981  0.116903  0.249413  1
  Si  Si26  1  0.850538  0.536218  0.038004  1
  Si  Si27  1  0.349130  0.963206  0.039619  1
  Si  Si28  1  0.153571  0.465495  0.959671  1
  Si  Si29  1  0.660330  0.041268  0.525924  1
  Si  Si30  1  0.352760  0.960959  0.456597  1
  Si  Si31  1  0.849922  0.537092  0.462085  1
  Si  Si32  1  0.792855  0.589451  0.750833  1
  Si  Si33  1  0.210157  0.386543  0.249395  1
  Si  Si34  1  0.653278  0.041505  0.969970  1
  Au  Au35  1  0.639481  0.018757  0.754270  1
