# generated using pymatgen
data_Ho5Tm3(Lu3Pb4)4
_symmetry_space_group_name_H-M   'P 1'
_cell_length_a   8.10594520
_cell_length_b   15.40584642
_cell_length_c   8.17493904
_cell_angle_alpha   90.01005977
_cell_angle_beta   89.99358207
_cell_angle_gamma   89.97508686
_symmetry_Int_Tables_number   1
_chemical_formula_structural   Ho5Tm3(Lu3Pb4)4
_chemical_formula_sum   'Ho5 Tm3 Lu12 Pb16'
_cell_volume   1020.87766045
_cell_formula_units_Z   1
loop_
 _symmetry_equiv_pos_site_id
 _symmetry_equiv_pos_as_xyz
  1  'x, y, z'
loop_
 _atom_site_type_symbol
 _atom_site_label
 _atom_site_symmetry_multiplicity
 _atom_site_fract_x
 _atom_site_fract_y
 _atom_site_fract_z
 _atom_site_occupancy
  Ho  Ho0  1  0.035777  0.400376  0.177015  1
  Ho  Ho1  1  0.535790  0.400454  0.323006  1
  Ho  Ho2  1  0.035818  0.099585  0.177048  1
  Ho  Ho3  1  0.464190  0.900456  0.676999  1
  Ho  Ho4  1  0.964209  0.599570  0.822966  1
  Tm  Tm5  1  0.464164  0.599668  0.677013  1
  Tm  Tm6  1  0.964142  0.900322  0.823039  1
  Tm  Tm7  1  0.535873  0.099667  0.323066  1
  Lu  Lu8  1  0.623387  0.621214  0.158819  1
  Lu  Lu9  1  0.123327  0.878773  0.341131  1
  Lu  Lu10  1  0.376672  0.121224  0.841122  1
  Lu  Lu11  1  0.876627  0.378782  0.658905  1
  Lu  Lu12  1  0.376682  0.378844  0.841049  1
  Lu  Lu13  1  0.876640  0.121152  0.658870  1
  Lu  Lu14  1  0.623362  0.878844  0.158849  1
  Lu  Lu15  1  0.123405  0.621239  0.341187  1
  Lu  Lu16  1  0.792095  0.749983  0.495350  1
  Lu  Lu17  1  0.292099  0.750027  0.004661  1
  Lu  Lu18  1  0.207954  0.249925  0.504711  1
  Lu  Lu19  1  0.707803  0.249978  0.995253  1
  Pb  Pb20  1  0.717673  0.457287  0.965888  1
  Pb  Pb21  1  0.217966  0.042736  0.533901  1
  Pb  Pb22  1  0.282047  0.957257  0.033899  1
  Pb  Pb23  1  0.782077  0.542724  0.466084  1
  Pb  Pb24  1  0.282500  0.542705  0.033968  1
  Pb  Pb25  1  0.782314  0.957419  0.465884  1
  Pb  Pb26  1  0.717702  0.042556  0.965903  1
  Pb  Pb27  1  0.217812  0.457452  0.534275  1
  Pb  Pb28  1  0.429494  0.750011  0.371295  1
  Pb  Pb29  1  0.929493  0.750001  0.128720  1
  Pb  Pb30  1  0.570490  0.250015  0.628719  1
  Pb  Pb31  1  0.070516  0.249980  0.871186  1
  Pb  Pb32  1  0.652937  0.749875  0.846700  1
  Pb  Pb33  1  0.152928  0.750127  0.653287  1
  Pb  Pb34  1  0.347157  0.249824  0.153295  1
  Pb  Pb35  1  0.846875  0.249948  0.346939  1
