# generated using pymatgen
data_Nd3ZrIn2Ir3
_symmetry_space_group_name_H-M   'P 1'
_cell_length_a   7.53245150
_cell_length_b   7.32682895
_cell_length_c   4.31250200
_cell_angle_alpha   90.00000000
_cell_angle_beta   90.00000000
_cell_angle_gamma   119.10101035
_symmetry_Int_Tables_number   1
_chemical_formula_structural   Nd3ZrIn2Ir3
_chemical_formula_sum   'Nd3 Zr1 In2 Ir3'
_cell_volume   207.95802210
_cell_formula_units_Z   1
loop_
 _symmetry_equiv_pos_site_id
 _symmetry_equiv_pos_as_xyz
  1  'x, y, z'
loop_
 _atom_site_type_symbol
 _atom_site_label
 _atom_site_symmetry_multiplicity
 _atom_site_fract_x
 _atom_site_fract_y
 _atom_site_fract_z
 _atom_site_occupancy
  Nd  Nd0  1  0.578509  0.584481  0.000000  1
  Nd  Nd1  1  0.421491  0.005972  0.000000  1
  Nd  Nd2  1  0.000000  0.395483  0.000000  1
  Zr  Zr3  1  0.000000  0.758937  0.500000  1
  In  In4  1  0.250854  0.249260  0.500000  1
  In  In5  1  0.749146  0.998406  0.500000  1
  Ir  Ir6  1  0.000000  0.978058  0.000000  1
  Ir  Ir7  1  0.684256  0.356830  0.500000  1
  Ir  Ir8  1  0.315744  0.672575  0.500000  1
