# generated using pymatgen
data_Er16In4IrPt2Rh
_symmetry_space_group_name_H-M   'P 1'
_cell_length_a   9.59901053
_cell_length_b   9.59441504
_cell_length_c   9.59441438
_cell_angle_alpha   60.14579630
_cell_angle_beta   60.18783326
_cell_angle_gamma   60.18783858
_symmetry_Int_Tables_number   1
_chemical_formula_structural   Er16In4IrPt2Rh
_chemical_formula_sum   'Er16 In4 Ir1 Pt2 Rh1'
_cell_volume   627.27011857
_cell_formula_units_Z   1
loop_
 _symmetry_equiv_pos_site_id
 _symmetry_equiv_pos_as_xyz
  1  'x, y, z'
loop_
 _atom_site_type_symbol
 _atom_site_label
 _atom_site_symmetry_multiplicity
 _atom_site_fract_x
 _atom_site_fract_y
 _atom_site_fract_z
 _atom_site_occupancy
  Er  Er0  1  0.193620  0.187198  0.808988  1
  Er  Er1  1  0.437143  0.061241  0.061241  1
  Er  Er2  1  0.436297  0.062797  0.439454  1
  Er  Er3  1  0.061917  0.438105  0.062094  1
  Er  Er4  1  0.647830  0.050140  0.652080  1
  Er  Er5  1  0.190389  0.810556  0.810556  1
  Er  Er6  1  0.061917  0.062094  0.438105  1
  Er  Er7  1  0.808080  0.191032  0.191032  1
  Er  Er8  1  0.809751  0.810138  0.187710  1
  Er  Er9  1  0.647830  0.652080  0.050140  1
  Er  Er10  1  0.646672  0.651849  0.651849  1
  Er  Er11  1  0.063450  0.437410  0.437410  1
  Er  Er12  1  0.053646  0.649951  0.649951  1
  Er  Er13  1  0.809751  0.187710  0.810138  1
  Er  Er14  1  0.436297  0.439454  0.062797  1
  Er  Er15  1  0.193620  0.808988  0.187198  1
  In  In16  1  0.416877  0.749044  0.416615  1
  In  In17  1  0.416877  0.416615  0.749044  1
  In  In18  1  0.749586  0.416631  0.416631  1
  In  In19  1  0.416242  0.416198  0.416198  1
  Ir  Ir20  1  0.426354  0.858217  0.858217  1
  Pt  Pt21  1  0.858756  0.427066  0.857742  1
  Pt  Pt22  1  0.858756  0.857742  0.427066  1
  Rh  Rh23  1  0.858345  0.857741  0.857741  1
