# generated using pymatgen
data_Er11LuTcRu3
_symmetry_space_group_name_H-M   'P 1'
_cell_length_a   6.24298208
_cell_length_b   7.31454951
_cell_length_c   9.02319617
_cell_angle_alpha   90.02801674
_cell_angle_beta   90.09210622
_cell_angle_gamma   90.04143136
_symmetry_Int_Tables_number   1
_chemical_formula_structural   Er11LuTcRu3
_chemical_formula_sum   'Er11 Lu1 Tc1 Ru3'
_cell_volume   412.03996777
_cell_formula_units_Z   1
loop_
 _symmetry_equiv_pos_site_id
 _symmetry_equiv_pos_as_xyz
  1  'x, y, z'
loop_
 _atom_site_type_symbol
 _atom_site_label
 _atom_site_symmetry_multiplicity
 _atom_site_fract_x
 _atom_site_fract_y
 _atom_site_fract_z
 _atom_site_occupancy
  Er  Er0  1  0.333414  0.675961  0.064211  1
  Er  Er1  1  0.166819  0.175572  0.435458  1
  Er  Er2  1  0.666931  0.323974  0.563659  1
  Er  Er3  1  0.835961  0.825672  0.937747  1
  Er  Er4  1  0.666900  0.323828  0.936653  1
  Er  Er5  1  0.835308  0.825170  0.562553  1
  Er  Er6  1  0.333634  0.675866  0.435732  1
  Er  Er7  1  0.868325  0.540212  0.249581  1
  Er  Er8  1  0.627784  0.042333  0.249568  1
  Er  Er9  1  0.133677  0.457297  0.750412  1
  Er  Er10  1  0.366480  0.958129  0.750500  1
  Lu  Lu11  1  0.166719  0.175119  0.064076  1
  Tc  Tc12  1  0.036248  0.884089  0.249755  1
  Ru  Ru13  1  0.462228  0.382652  0.249424  1
  Ru  Ru14  1  0.962291  0.117997  0.750726  1
  Ru  Ru15  1  0.537282  0.616130  0.749946  1
