# generated using pymatgen
data_Yb2Si5Pt3
_symmetry_space_group_name_H-M   'P 1'
_cell_length_a   8.24676553
_cell_length_b   8.24676517
_cell_length_c   8.24676577
_cell_angle_alpha   138.16129275
_cell_angle_beta   104.45766869
_cell_angle_gamma   90.30422873
_symmetry_Int_Tables_number   1
_chemical_formula_structural   Yb2Si5Pt3
_chemical_formula_sum   'Yb4 Si10 Pt6'
_cell_volume   346.00781078
_cell_formula_units_Z   2
loop_
 _symmetry_equiv_pos_site_id
 _symmetry_equiv_pos_as_xyz
  1  'x, y, z'
loop_
 _atom_site_type_symbol
 _atom_site_label
 _atom_site_symmetry_multiplicity
 _atom_site_fract_x
 _atom_site_fract_y
 _atom_site_fract_z
 _atom_site_occupancy
  Yb  Yb0  1  0.104068  0.870408  0.233660  1
  Yb  Yb1  1  0.895932  0.129592  0.766340  1
  Yb  Yb2  1  0.636747  0.370408  0.266340  1
  Yb  Yb3  1  0.363253  0.629592  0.733660  1
  Si  Si4  1  0.000000  0.750000  0.750000  1
  Si  Si5  1  0.000000  0.250000  0.250000  1
  Si  Si6  1  0.270818  0.020818  0.750000  1
  Si  Si7  1  0.729182  0.479182  0.750000  1
  Si  Si8  1  0.729182  0.979182  0.250000  1
  Si  Si9  1  0.270818  0.520818  0.250000  1
  Si  Si10  1  0.762906  0.612326  0.150580  1
  Si  Si11  1  0.237094  0.387674  0.849420  1
  Si  Si12  1  0.461746  0.112326  0.349420  1
  Si  Si13  1  0.538254  0.887674  0.650580  1
  Pt  Pt14  1  0.500000  0.750000  0.250000  1
  Pt  Pt15  1  0.500000  0.250000  0.750000  1
  Pt  Pt16  1  0.020601  0.636286  0.384315  1
  Pt  Pt17  1  0.979399  0.363714  0.615685  1
  Pt  Pt18  1  0.251971  0.136286  0.115685  1
  Pt  Pt19  1  0.748029  0.863714  0.884315  1
