# generated using pymatgen
data_Cs4SbPCl12
_symmetry_space_group_name_H-M   'P 1'
_cell_length_a   7.64132400
_cell_length_b   7.64132400
_cell_length_c   10.45062700
_cell_angle_alpha   90.00000000
_cell_angle_beta   90.00000000
_cell_angle_gamma   90.00000000
_symmetry_Int_Tables_number   1
_chemical_formula_structural   Cs4SbPCl12
_chemical_formula_sum   'Cs4 Sb1 P1 Cl12'
_cell_volume   610.21035977
_cell_formula_units_Z   1
loop_
 _symmetry_equiv_pos_site_id
 _symmetry_equiv_pos_as_xyz
  1  'x, y, z'
loop_
 _atom_site_type_symbol
 _atom_site_label
 _atom_site_symmetry_multiplicity
 _atom_site_fract_x
 _atom_site_fract_y
 _atom_site_fract_z
 _atom_site_occupancy
  Cs  Cs0  1  0.500000  0.000000  0.728775  1
  Cs  Cs1  1  0.000000  0.500000  0.271225  1
  Cs  Cs2  1  0.500000  0.000000  0.271225  1
  Cs  Cs3  1  0.000000  0.500000  0.728775  1
  Sb  Sb4  1  0.500000  0.500000  0.500000  1
  P  P5  1  0.000000  0.000000  0.000000  1
  Cl  Cl6  1  0.000000  0.000000  0.792024  1
  Cl  Cl7  1  0.500000  0.500000  0.243047  1
  Cl  Cl8  1  0.747308  0.747308  0.500000  1
  Cl  Cl9  1  0.202065  0.202065  0.000000  1
  Cl  Cl10  1  0.747308  0.252692  0.500000  1
  Cl  Cl11  1  0.202065  0.797935  0.000000  1
  Cl  Cl12  1  0.000000  0.000000  0.207976  1
  Cl  Cl13  1  0.500000  0.500000  0.756953  1
  Cl  Cl14  1  0.252692  0.252692  0.500000  1
  Cl  Cl15  1  0.797935  0.797935  0.000000  1
  Cl  Cl16  1  0.252692  0.747308  0.500000  1
  Cl  Cl17  1  0.797935  0.202065  0.000000  1
