# generated using pymatgen
data_CeY3(InNi2)2
_symmetry_space_group_name_H-M   'P 1'
_cell_length_a   7.46323623
_cell_length_b   7.46323623
_cell_length_c   3.63057600
_cell_angle_alpha   90.00000000
_cell_angle_beta   90.00000000
_cell_angle_gamma   91.74994842
_symmetry_Int_Tables_number   1
_chemical_formula_structural   CeY3(InNi2)2
_chemical_formula_sum   'Ce1 Y3 In2 Ni4'
_cell_volume   202.12838911
_cell_formula_units_Z   1
loop_
 _symmetry_equiv_pos_site_id
 _symmetry_equiv_pos_as_xyz
  1  'x, y, z'
loop_
 _atom_site_type_symbol
 _atom_site_label
 _atom_site_symmetry_multiplicity
 _atom_site_fract_x
 _atom_site_fract_y
 _atom_site_fract_z
 _atom_site_occupancy
  Ce  Ce0  1  0.673682  0.173682  0.500000  1
  Y  Y1  1  0.324348  0.824348  0.500000  1
  Y  Y2  1  0.174936  0.328193  0.500000  1
  Y  Y3  1  0.828193  0.674936  0.500000  1
  In  In4  1  0.498369  0.504137  0.000000  1
  In  In5  1  0.004137  0.998369  0.000000  1
  Ni  Ni6  1  0.114578  0.614578  0.000000  1
  Ni  Ni7  1  0.868176  0.368176  0.000000  1
  Ni  Ni8  1  0.624154  0.889426  0.000000  1
  Ni  Ni9  1  0.389426  0.124154  0.000000  1
