# generated using pymatgen
data_Ac2Ge2Rh
_symmetry_space_group_name_H-M   'P 1'
_cell_length_a   6.22214059
_cell_length_b   6.22214011
_cell_length_c   11.62106914
_cell_angle_alpha   115.37638841
_cell_angle_beta   115.37638695
_cell_angle_gamma   41.90718669
_symmetry_Int_Tables_number   1
_chemical_formula_structural   Ac2Ge2Rh
_chemical_formula_sum   'Ac4 Ge4 Rh2'
_cell_volume   266.99485237
_cell_formula_units_Z   2
loop_
 _symmetry_equiv_pos_site_id
 _symmetry_equiv_pos_as_xyz
  1  'x, y, z'
loop_
 _atom_site_type_symbol
 _atom_site_label
 _atom_site_symmetry_multiplicity
 _atom_site_fract_x
 _atom_site_fract_y
 _atom_site_fract_z
 _atom_site_occupancy
  Ac  Ac0  1  0.708382  0.708382  0.143807  1
  Ac  Ac1  1  0.096747  0.096747  0.390128  1
  Ac  Ac2  1  0.903253  0.903253  0.609872  1
  Ac  Ac3  1  0.291618  0.291618  0.856193  1
  Ge  Ge4  1  0.955649  0.955649  0.082827  1
  Ge  Ge5  1  0.386686  0.386686  0.384825  1
  Ge  Ge6  1  0.613314  0.613314  0.615175  1
  Ge  Ge7  1  0.044351  0.044351  0.917173  1
  Rh  Rh8  1  0.445661  0.445661  0.191708  1
  Rh  Rh9  1  0.554339  0.554339  0.808292  1
