# generated using pymatgen
data_CeEr15(In3Tc)2
_symmetry_space_group_name_H-M   'P 1'
_cell_length_a   10.32834900
_cell_length_b   10.32700335
_cell_length_c   6.99252700
_cell_angle_alpha   89.93446522
_cell_angle_beta   89.99960613
_cell_angle_gamma   120.00577396
_symmetry_Int_Tables_number   1
_chemical_formula_structural   CeEr15(In3Tc)2
_chemical_formula_sum   'Ce1 Er15 In6 Tc2'
_cell_volume   645.86887153
_cell_formula_units_Z   1
loop_
 _symmetry_equiv_pos_site_id
 _symmetry_equiv_pos_as_xyz
  1  'x, y, z'
loop_
 _atom_site_type_symbol
 _atom_site_label
 _atom_site_symmetry_multiplicity
 _atom_site_fract_x
 _atom_site_fract_y
 _atom_site_fract_z
 _atom_site_occupancy
  Ce  Ce0  1  0.540645  0.081331  0.778351  1
  Er  Er1  1  0.943437  0.469469  0.798975  1
  Er  Er2  1  0.526049  0.469434  0.798978  1
  Er  Er3  1  0.470949  0.941890  0.290450  1
  Er  Er4  1  0.067114  0.534485  0.294577  1
  Er  Er5  1  0.467416  0.534456  0.294537  1
  Er  Er6  1  0.818909  0.637848  0.501013  1
  Er  Er7  1  0.342091  0.174150  0.497520  1
  Er  Er8  1  0.832001  0.174182  0.497558  1
  Er  Er9  1  0.177386  0.354720  0.002125  1
  Er  Er10  1  0.646712  0.826084  0.997948  1
  Er  Er11  1  0.179393  0.826096  0.997928  1
  Er  Er12  1  0.666816  0.333681  0.170749  1
  Er  Er13  1  0.335072  0.670002  0.665481  1
  Er  Er14  1  0.000065  0.000104  0.776888  1
  Er  Er15  1  0.997771  0.995526  0.277963  1
  In  In16  1  0.836830  0.673764  0.039551  1
  In  In17  1  0.325813  0.165424  0.041886  1
  In  In18  1  0.839538  0.165431  0.042092  1
  In  In19  1  0.165410  0.330932  0.542402  1
  In  In20  1  0.675597  0.834895  0.537027  1
  In  In21  1  0.159324  0.834753  0.536790  1
  Tc  Tc22  1  0.650873  0.302213  0.588827  1
  Tc  Tc23  1  0.334788  0.669127  0.066289  1
