# generated using pymatgen
data_Er4Mg3CdPt4
_symmetry_space_group_name_H-M   'P 1'
_cell_length_a   4.18465100
_cell_length_b   7.12183788
_cell_length_c   8.68958300
_cell_angle_alpha   91.97108021
_cell_angle_beta   90.00000000
_cell_angle_gamma   90.00000000
_symmetry_Int_Tables_number   1
_chemical_formula_structural   Er4Mg3CdPt4
_chemical_formula_sum   'Er4 Mg3 Cd1 Pt4'
_cell_volume   258.81725181
_cell_formula_units_Z   1
loop_
 _symmetry_equiv_pos_site_id
 _symmetry_equiv_pos_as_xyz
  1  'x, y, z'
loop_
 _atom_site_type_symbol
 _atom_site_label
 _atom_site_symmetry_multiplicity
 _atom_site_fract_x
 _atom_site_fract_y
 _atom_site_fract_z
 _atom_site_occupancy
  Er  Er0  1  0.250000  0.043322  0.329089  1
  Er  Er1  1  0.250000  0.538011  0.176465  1
  Er  Er2  1  0.750000  0.964369  0.673915  1
  Er  Er3  1  0.750000  0.456732  0.823707  1
  Mg  Mg4  1  0.250000  0.133356  0.939631  1
  Mg  Mg5  1  0.250000  0.634139  0.558808  1
  Mg  Mg6  1  0.750000  0.863237  0.060493  1
  Cd  Cd7  1  0.750000  0.364323  0.438238  1
  Pt  Pt8  1  0.250000  0.242820  0.638476  1
  Pt  Pt9  1  0.250000  0.742447  0.873508  1
  Pt  Pt10  1  0.750000  0.763006  0.370571  1
  Pt  Pt11  1  0.750000  0.254237  0.117099  1
