# generated using pymatgen
data_YbSmYGa8Ag3
_symmetry_space_group_name_H-M   'P 1'
_cell_length_a   4.37040839
_cell_length_b   8.37659364
_cell_length_c   8.37659389
_cell_angle_alpha   70.10942823
_cell_angle_beta   74.87828233
_cell_angle_gamma   74.87829756
_symmetry_Int_Tables_number   1
_chemical_formula_structural   YbSmYGa8Ag3
_chemical_formula_sum   'Yb1 Sm1 Y1 Ga8 Ag3'
_cell_volume   273.33136652
_cell_formula_units_Z   1
loop_
 _symmetry_equiv_pos_site_id
 _symmetry_equiv_pos_as_xyz
  1  'x, y, z'
loop_
 _atom_site_type_symbol
 _atom_site_label
 _atom_site_symmetry_multiplicity
 _atom_site_fract_x
 _atom_site_fract_y
 _atom_site_fract_z
 _atom_site_occupancy
  Yb  Yb0  1  0.301780  0.698220  0.698220  1
  Sm  Sm1  1  0.999710  0.000290  0.000290  1
  Y  Y2  1  0.700981  0.299019  0.299019  1
  Ga  Ga3  1  0.340499  0.289854  0.029146  1
  Ga  Ga4  1  0.661765  0.706485  0.969985  1
  Ga  Ga5  1  0.340499  0.029146  0.289854  1
  Ga  Ga6  1  0.661765  0.969985  0.706485  1
  Ga  Ga7  1  0.141675  0.576868  0.139782  1
  Ga  Ga8  1  0.855949  0.426179  0.861924  1
  Ga  Ga9  1  0.141675  0.139782  0.576868  1
  Ga  Ga10  1  0.855949  0.861924  0.426179  1
  Ag  Ag11  1  0.499066  0.305762  0.696107  1
  Ag  Ag12  1  0.499066  0.696107  0.305762  1
  Ag  Ag13  1  0.999621  0.500379  0.500379  1
