# generated using pymatgen
data_YCoNi4P3
_symmetry_space_group_name_H-M   'P 1'
_cell_length_a   3.69750500
_cell_length_b   10.36288200
_cell_length_c   11.80771300
_cell_angle_alpha   90.00000000
_cell_angle_beta   90.00000000
_cell_angle_gamma   90.00000000
_symmetry_Int_Tables_number   1
_chemical_formula_structural   YCoNi4P3
_chemical_formula_sum   'Y4 Co4 Ni16 P12'
_cell_volume   452.43387205
_cell_formula_units_Z   4
loop_
 _symmetry_equiv_pos_site_id
 _symmetry_equiv_pos_as_xyz
  1  'x, y, z'
loop_
 _atom_site_type_symbol
 _atom_site_label
 _atom_site_symmetry_multiplicity
 _atom_site_fract_x
 _atom_site_fract_y
 _atom_site_fract_z
 _atom_site_occupancy
  Y  Y0  1  0.250000  0.582171  0.702751  1
  Y  Y1  1  0.250000  0.917829  0.202751  1
  Y  Y2  1  0.750000  0.417829  0.297249  1
  Y  Y3  1  0.750000  0.082171  0.797249  1
  Co  Co4  1  0.250000  0.468830  0.932134  1
  Co  Co5  1  0.250000  0.031170  0.432134  1
  Co  Co6  1  0.750000  0.531170  0.067866  1
  Co  Co7  1  0.750000  0.968830  0.567866  1
  Ni  Ni8  1  0.250000  0.713186  0.991565  1
  Ni  Ni9  1  0.250000  0.786814  0.491565  1
  Ni  Ni10  1  0.750000  0.286814  0.008435  1
  Ni  Ni11  1  0.750000  0.213186  0.508435  1
  Ni  Ni12  1  0.250000  0.403655  0.488809  1
  Ni  Ni13  1  0.250000  0.096345  0.988809  1
  Ni  Ni14  1  0.750000  0.596345  0.511191  1
  Ni  Ni15  1  0.750000  0.903655  0.011191  1
  Ni  Ni16  1  0.250000  0.223411  0.178205  1
  Ni  Ni17  1  0.250000  0.276589  0.678205  1
  Ni  Ni18  1  0.750000  0.776589  0.821795  1
  Ni  Ni19  1  0.750000  0.723411  0.321795  1
  Ni  Ni20  1  0.250000  0.882324  0.699462  1
  Ni  Ni21  1  0.250000  0.617676  0.199462  1
  Ni  Ni22  1  0.750000  0.117676  0.300538  1
  Ni  Ni23  1  0.750000  0.382324  0.800538  1
  P  P24  1  0.250000  0.420682  0.111785  1
  P  P25  1  0.250000  0.079318  0.611785  1
  P  P26  1  0.750000  0.579318  0.888215  1
  P  P27  1  0.750000  0.920682  0.388215  1
  P  P28  1  0.250000  0.271658  0.870465  1
  P  P29  1  0.250000  0.228342  0.370465  1
  P  P30  1  0.750000  0.728342  0.129535  1
  P  P31  1  0.750000  0.771658  0.629535  1
  P  P32  1  0.250000  0.601426  0.393158  1
  P  P33  1  0.250000  0.898574  0.893158  1
  P  P34  1  0.750000  0.398574  0.606842  1
  P  P35  1  0.750000  0.101426  0.106842  1
