# generated using pymatgen
data_DyMg2ZrNi8
_symmetry_space_group_name_H-M   'P 1'
_cell_length_a   4.86967000
_cell_length_b   4.86966991
_cell_length_c   8.46893497
_cell_angle_alpha   73.29153592
_cell_angle_beta   90.00000000
_cell_angle_gamma   120.00000060
_symmetry_Int_Tables_number   1
_chemical_formula_structural   DyMg2ZrNi8
_chemical_formula_sum   'Dy1 Mg2 Zr1 Ni8'
_cell_volume   164.05983597
_cell_formula_units_Z   1
loop_
 _symmetry_equiv_pos_site_id
 _symmetry_equiv_pos_as_xyz
  1  'x, y, z'
loop_
 _atom_site_type_symbol
 _atom_site_label
 _atom_site_symmetry_multiplicity
 _atom_site_fract_x
 _atom_site_fract_y
 _atom_site_fract_z
 _atom_site_occupancy
  Dy  Dy0  1  0.999887  0.999776  0.000337  1
  Mg  Mg1  1  0.874156  0.748315  0.377529  1
  Mg  Mg2  1  0.376445  0.752890  0.870665  1
  Zr  Zr3  1  0.500102  0.000202  0.499696  1
  Ni  Ni4  1  0.435413  0.371477  0.193109  1
  Ni  Ni5  1  0.936636  0.379987  0.683377  1
  Ni  Ni6  1  0.435413  0.870827  0.193109  1
  Ni  Ni7  1  0.936636  0.873272  0.683377  1
  Ni  Ni8  1  0.187765  0.375531  0.436704  1
  Ni  Ni9  1  0.688131  0.376261  0.935608  1
  Ni  Ni10  1  0.936063  0.371477  0.193109  1
  Ni  Ni11  1  0.443350  0.379987  0.683377  1
