# generated using pymatgen
data_Tb4Lu8Tc3Pt
_symmetry_space_group_name_H-M   'P 1'
_cell_length_a   6.25377078
_cell_length_b   7.35336721
_cell_length_c   8.96699700
_cell_angle_alpha   90.00000000
_cell_angle_beta   90.00000000
_cell_angle_gamma   90.02965577
_symmetry_Int_Tables_number   1
_chemical_formula_structural   Tb4Lu8Tc3Pt
_chemical_formula_sum   'Tb4 Lu8 Tc3 Pt1'
_cell_volume   412.35871630
_cell_formula_units_Z   1
loop_
 _symmetry_equiv_pos_site_id
 _symmetry_equiv_pos_as_xyz
  1  'x, y, z'
loop_
 _atom_site_type_symbol
 _atom_site_label
 _atom_site_symmetry_multiplicity
 _atom_site_fract_x
 _atom_site_fract_y
 _atom_site_fract_z
 _atom_site_occupancy
  Tb  Tb0  1  0.628712  0.044064  0.250000  1
  Tb  Tb1  1  0.374222  0.957840  0.750000  1
  Tb  Tb2  1  0.123344  0.461951  0.750000  1
  Tb  Tb3  1  0.870273  0.536459  0.250000  1
  Lu  Lu4  1  0.164446  0.180647  0.059199  1
  Lu  Lu5  1  0.830956  0.824237  0.932474  1
  Lu  Lu6  1  0.662897  0.322884  0.935732  1
  Lu  Lu7  1  0.830956  0.824237  0.567526  1
  Lu  Lu8  1  0.339338  0.671603  0.060468  1
  Lu  Lu9  1  0.164446  0.180647  0.440801  1
  Lu  Lu10  1  0.339338  0.671603  0.439532  1
  Lu  Lu11  1  0.662897  0.322884  0.564268  1
  Tc  Tc12  1  0.454126  0.384523  0.250000  1
  Tc  Tc13  1  0.540923  0.615431  0.750000  1
  Tc  Tc14  1  0.961488  0.113812  0.750000  1
  Pt  Pt15  1  0.051638  0.887177  0.250000  1
