# generated using pymatgen
data_Er16MgAl3Pd4
_symmetry_space_group_name_H-M   'P 1'
_cell_length_a   9.59643038
_cell_length_b   9.53245021
_cell_length_c   9.53245100
_cell_angle_alpha   60.00000072
_cell_angle_beta   60.22030197
_cell_angle_gamma   60.22030045
_symmetry_Int_Tables_number   1
_chemical_formula_structural   Er16MgAl3Pd4
_chemical_formula_sum   'Er16 Mg1 Al3 Pd4'
_cell_volume   618.64568386
_cell_formula_units_Z   1
loop_
 _symmetry_equiv_pos_site_id
 _symmetry_equiv_pos_as_xyz
  1  'x, y, z'
loop_
 _atom_site_type_symbol
 _atom_site_label
 _atom_site_symmetry_multiplicity
 _atom_site_fract_x
 _atom_site_fract_y
 _atom_site_fract_z
 _atom_site_occupancy
  Er  Er0  1  0.356386  0.353709  0.353709  1
  Er  Er1  1  0.356386  0.353709  0.936195  1
  Er  Er2  1  0.356386  0.936195  0.353709  1
  Er  Er3  1  0.933669  0.355443  0.355443  1
  Er  Er4  1  0.806115  0.193536  0.193536  1
  Er  Er5  1  0.189900  0.810846  0.810846  1
  Er  Er6  1  0.189900  0.810846  0.188408  1
  Er  Er7  1  0.806115  0.193536  0.806812  1
  Er  Er8  1  0.189900  0.188408  0.810846  1
  Er  Er9  1  0.806115  0.806812  0.193536  1
  Er  Er10  1  0.930333  0.566199  0.566199  1
  Er  Er11  1  0.565871  0.933886  0.933886  1
  Er  Er12  1  0.565871  0.933886  0.566358  1
  Er  Er13  1  0.930333  0.566199  0.937268  1
  Er  Er14  1  0.565871  0.566358  0.933886  1
  Er  Er15  1  0.930333  0.937268  0.566199  1
  Mg  Mg16  1  0.267481  0.577506  0.577506  1
  Al  Al17  1  0.584018  0.577199  0.577199  1
  Al  Al18  1  0.584018  0.577199  0.261584  1
  Al  Al19  1  0.584018  0.261584  0.577199  1
  Pd  Pd20  1  0.144523  0.144897  0.144897  1
  Pd  Pd21  1  0.144523  0.144897  0.565683  1
  Pd  Pd22  1  0.144523  0.565683  0.144897  1
  Pd  Pd23  1  0.567413  0.144195  0.144195  1
