# generated using pymatgen
data_LiLa8(Ir2Rh)2
_symmetry_space_group_name_H-M   'P 1'
_cell_length_a   7.74142589
_cell_length_b   7.76107137
_cell_length_c   7.74781975
_cell_angle_alpha   69.75885238
_cell_angle_beta   69.74235798
_cell_angle_gamma   69.63522072
_symmetry_Int_Tables_number   1
_chemical_formula_structural   LiLa8(Ir2Rh)2
_chemical_formula_sum   'Li1 La8 Ir4 Rh2'
_cell_volume   395.72967559
_cell_formula_units_Z   1
loop_
 _symmetry_equiv_pos_site_id
 _symmetry_equiv_pos_as_xyz
  1  'x, y, z'
loop_
 _atom_site_type_symbol
 _atom_site_label
 _atom_site_symmetry_multiplicity
 _atom_site_fract_x
 _atom_site_fract_y
 _atom_site_fract_z
 _atom_site_occupancy
  Li  Li0  1  0.000510  0.999761  0.000375  1
  La  La1  1  0.813572  0.812312  0.813400  1
  La  La2  1  0.185771  0.186311  0.185610  1
  La  La3  1  0.139083  0.381928  0.685686  1
  La  La4  1  0.685162  0.138448  0.381583  1
  La  La5  1  0.380750  0.684343  0.137991  1
  La  La6  1  0.861410  0.619918  0.314163  1
  La  La7  1  0.315384  0.859380  0.620650  1
  La  La8  1  0.617857  0.316551  0.860619  1
  Ir  Ir9  1  0.186513  0.573192  0.948362  1
  Ir  Ir10  1  0.051426  0.814793  0.426799  1
  Ir  Ir11  1  0.427180  0.051795  0.814187  1
  Ir  Ir12  1  0.813902  0.426070  0.052140  1
  Rh  Rh13  1  0.948339  0.186332  0.572555  1
  Rh  Rh14  1  0.573141  0.948868  0.185881  1
