# generated using pymatgen
data_Er2MgCuRh
_symmetry_space_group_name_H-M   'P 1'
_cell_length_a   7.40433800
_cell_length_b   7.43514300
_cell_length_c   3.82052700
_cell_angle_alpha   90.00000000
_cell_angle_beta   90.00000000
_cell_angle_gamma   90.00000000
_symmetry_Int_Tables_number   1
_chemical_formula_structural   Er2MgCuRh
_chemical_formula_sum   'Er4 Mg2 Cu2 Rh2'
_cell_volume   210.32884384
_cell_formula_units_Z   2
loop_
 _symmetry_equiv_pos_site_id
 _symmetry_equiv_pos_as_xyz
  1  'x, y, z'
loop_
 _atom_site_type_symbol
 _atom_site_label
 _atom_site_symmetry_multiplicity
 _atom_site_fract_x
 _atom_site_fract_y
 _atom_site_fract_z
 _atom_site_occupancy
  Er  Er0  1  0.828309  0.341359  0.500000  1
  Er  Er1  1  0.328309  0.158641  0.500000  1
  Er  Er2  1  0.670408  0.820815  0.500000  1
  Er  Er3  1  0.170408  0.679185  0.500000  1
  Mg  Mg4  1  0.499115  0.499905  0.000000  1
  Mg  Mg5  1  0.999115  0.000095  0.000000  1
  Cu  Cu6  1  0.628599  0.125008  0.000000  1
  Cu  Cu7  1  0.128599  0.374992  0.000000  1
  Rh  Rh8  1  0.373569  0.876252  0.000000  1
  Rh  Rh9  1  0.873569  0.623748  0.000000  1
