# generated using pymatgen
data_Li8Np(TeBr8)3
_symmetry_space_group_name_H-M   'P 1'
_cell_length_a   6.97584900
_cell_length_b   6.97584886
_cell_length_c   28.11647800
_cell_angle_alpha   90.00000000
_cell_angle_beta   90.00000000
_cell_angle_gamma   120.00000539
_symmetry_Int_Tables_number   1
_chemical_formula_structural   Li8Np(TeBr8)3
_chemical_formula_sum   'Li8 Np1 Te3 Br24'
_cell_volume   1184.91080585
_cell_formula_units_Z   1
loop_
 _symmetry_equiv_pos_site_id
 _symmetry_equiv_pos_as_xyz
  1  'x, y, z'
loop_
 _atom_site_type_symbol
 _atom_site_label
 _atom_site_symmetry_multiplicity
 _atom_site_fract_x
 _atom_site_fract_y
 _atom_site_fract_z
 _atom_site_occupancy
  Li  Li0  1  0.000000  0.000000  0.250331  1
  Li  Li1  1  0.000000  0.000000  0.749669  1
  Li  Li2  1  0.333333  0.666667  0.000346  1
  Li  Li3  1  0.333333  0.666667  0.499627  1
  Li  Li4  1  0.333333  0.666667  0.250245  1
  Li  Li5  1  0.666667  0.333333  0.749755  1
  Li  Li6  1  0.666667  0.333333  0.999654  1
  Li  Li7  1  0.666667  0.333333  0.500373  1
  Np  Np8  1  0.000000  0.000000  0.000000  1
  Te  Te9  1  0.000000  0.000000  0.500000  1
  Te  Te10  1  0.333333  0.666667  0.749430  1
  Te  Te11  1  0.666667  0.333333  0.250570  1
  Br  Br12  1  0.340405  0.006829  0.305209  1
  Br  Br13  1  0.333306  0.993452  0.804232  1
  Br  Br14  1  0.000213  0.331440  0.055048  1
  Br  Br15  1  0.999664  0.326445  0.554720  1
  Br  Br16  1  0.993171  0.333577  0.305209  1
  Br  Br17  1  0.006548  0.339852  0.804232  1
  Br  Br18  1  0.339852  0.333306  0.195768  1
  Br  Br19  1  0.333577  0.340405  0.694791  1
  Br  Br20  1  0.326445  0.326781  0.445280  1
  Br  Br21  1  0.331440  0.331225  0.944952  1
  Br  Br22  1  0.673219  0.999664  0.445280  1
  Br  Br23  1  0.331225  0.999787  0.055048  1
  Br  Br24  1  0.326781  0.000336  0.554720  1
  Br  Br25  1  0.668560  0.668775  0.055048  1
  Br  Br26  1  0.673555  0.673219  0.554720  1
  Br  Br27  1  0.666423  0.659595  0.305209  1
  Br  Br28  1  0.660148  0.666694  0.804232  1
  Br  Br29  1  0.993452  0.660148  0.195768  1
  Br  Br30  1  0.006829  0.666423  0.694791  1
  Br  Br31  1  0.000336  0.673555  0.445280  1
  Br  Br32  1  0.999787  0.668560  0.944952  1
  Br  Br33  1  0.668775  0.000213  0.944952  1
  Br  Br34  1  0.666694  0.006548  0.195768  1
  Br  Br35  1  0.659595  0.993171  0.694791  1
