# generated using pymatgen
data_Dy8Si6Ir5Rh3
_symmetry_space_group_name_H-M   'P 1'
_cell_length_a   10.66922553
_cell_length_b   10.67997191
_cell_length_c   7.72037532
_cell_angle_alpha   71.82837763
_cell_angle_beta   71.81216929
_cell_angle_gamma   30.03660876
_symmetry_Int_Tables_number   1
_chemical_formula_structural   Dy8Si6Ir5Rh3
_chemical_formula_sum   'Dy8 Si6 Ir5 Rh3'
_cell_volume   416.73577918
_cell_formula_units_Z   1
loop_
 _symmetry_equiv_pos_site_id
 _symmetry_equiv_pos_as_xyz
  1  'x, y, z'
loop_
 _atom_site_type_symbol
 _atom_site_label
 _atom_site_symmetry_multiplicity
 _atom_site_fract_x
 _atom_site_fract_y
 _atom_site_fract_z
 _atom_site_occupancy
  Dy  Dy0  1  0.789145  0.551056  0.598805  1
  Dy  Dy1  1  0.448939  0.210712  0.902856  1
  Dy  Dy2  1  0.210497  0.449653  0.400265  1
  Dy  Dy3  1  0.551525  0.789092  0.098725  1
  Dy  Dy4  1  0.790355  0.070845  0.171627  1
  Dy  Dy5  1  0.929184  0.208943  0.329055  1
  Dy  Dy6  1  0.208082  0.930164  0.828970  1
  Dy  Dy7  1  0.070708  0.791084  0.670352  1
  Si  Si8  1  0.954817  0.700659  0.056640  1
  Si  Si9  1  0.300375  0.043444  0.442568  1
  Si  Si10  1  0.044747  0.299021  0.943548  1
  Si  Si11  1  0.700690  0.954749  0.558017  1
  Si  Si12  1  0.607749  0.392479  0.750005  1
  Si  Si13  1  0.392180  0.607485  0.250027  1
  Ir  Ir14  1  0.587343  0.288019  0.525139  1
  Ir  Ir15  1  0.710820  0.413457  0.975472  1
  Ir  Ir16  1  0.413290  0.710742  0.475034  1
  Ir  Ir17  1  0.287891  0.587870  0.024194  1
  Ir  Ir18  1  0.630872  0.928861  0.308420  1
  Rh  Rh19  1  0.074200  0.367997  0.190675  1
  Rh  Rh20  1  0.367576  0.074324  0.690523  1
  Rh  Rh21  1  0.929015  0.629346  0.809084  1
