# generated using pymatgen
data_Ce9Th(SiSn3)2
_symmetry_space_group_name_H-M   'P 1'
_cell_length_a   9.55466144
_cell_length_b   9.55466123
_cell_length_c   6.43243400
_cell_angle_alpha   90.00000000
_cell_angle_beta   90.00000000
_cell_angle_gamma   120.03485199
_symmetry_Int_Tables_number   1
_chemical_formula_structural   Ce9Th(SiSn3)2
_chemical_formula_sum   'Ce9 Th1 Si2 Sn6'
_cell_volume   508.37471138
_cell_formula_units_Z   1
loop_
 _symmetry_equiv_pos_site_id
 _symmetry_equiv_pos_as_xyz
  1  'x, y, z'
loop_
 _atom_site_type_symbol
 _atom_site_label
 _atom_site_symmetry_multiplicity
 _atom_site_fract_x
 _atom_site_fract_y
 _atom_site_fract_z
 _atom_site_occupancy
  Ce  Ce0  1  0.666528  0.332521  0.002345  1
  Ce  Ce1  1  0.332521  0.666528  0.002345  1
  Ce  Ce2  1  0.332521  0.666528  0.497655  1
  Ce  Ce3  1  0.666528  0.332521  0.497655  1
  Ce  Ce4  1  0.255483  0.999464  0.750000  1
  Ce  Ce5  1  0.999464  0.255483  0.750000  1
  Ce  Ce6  1  0.257399  0.257399  0.250000  1
  Ce  Ce7  1  0.743660  0.000204  0.250000  1
  Ce  Ce8  1  0.000204  0.743660  0.250000  1
  Th  Th9  1  0.743974  0.743974  0.750000  1
  Si  Si10  1  0.002017  0.002017  0.003036  1
  Si  Si11  1  0.002017  0.002017  0.496964  1
  Sn  Sn12  1  0.385236  0.385236  0.750000  1
  Sn  Sn13  1  0.612647  0.000404  0.750000  1
  Sn  Sn14  1  0.000404  0.612647  0.750000  1
  Sn  Sn15  1  0.614802  0.614802  0.250000  1
  Sn  Sn16  1  0.384800  0.999796  0.250000  1
  Sn  Sn17  1  0.999796  0.384800  0.250000  1
