# generated using pymatgen
data_Sr3CoRhO6
_symmetry_space_group_name_H-M   'P 1'
_cell_length_a   6.81125627
_cell_length_b   6.67282983
_cell_length_c   6.71999816
_cell_angle_alpha   92.85583488
_cell_angle_beta   92.02826203
_cell_angle_gamma   92.43297998
_symmetry_Int_Tables_number   1
_chemical_formula_structural   Sr3CoRhO6
_chemical_formula_sum   'Sr6 Co2 Rh2 O12'
_cell_volume   304.55661649
_cell_formula_units_Z   2
loop_
 _symmetry_equiv_pos_site_id
 _symmetry_equiv_pos_as_xyz
  1  'x, y, z'
loop_
 _atom_site_type_symbol
 _atom_site_label
 _atom_site_symmetry_multiplicity
 _atom_site_fract_x
 _atom_site_fract_y
 _atom_site_fract_z
 _atom_site_occupancy
  Sr  Sr0  1  0.611288  0.882628  0.252328  1
  Sr  Sr1  1  0.250147  0.619092  0.882505  1
  Sr  Sr2  1  0.887672  0.247888  0.616318  1
  Sr  Sr3  1  0.388676  0.117361  0.747719  1
  Sr  Sr4  1  0.749835  0.380942  0.117419  1
  Sr  Sr5  1  0.112358  0.752160  0.383793  1
  Co  Co6  1  0.251586  0.258670  0.238336  1
  Co  Co7  1  0.748199  0.741479  0.761665  1
  Rh  Rh8  1  0.999921  0.999988  0.999973  1
  Rh  Rh9  1  0.500077  0.500128  0.500137  1
  O  O10  1  0.287953  0.970316  0.099175  1
  O  O11  1  0.092537  0.289396  0.962012  1
  O  O12  1  0.952042  0.087598  0.284942  1
  O  O13  1  0.551395  0.214360  0.412748  1
  O  O14  1  0.404408  0.531452  0.208938  1
  O  O15  1  0.214301  0.403127  0.533400  1
  O  O16  1  0.712005  0.029684  0.900941  1
  O  O17  1  0.907472  0.710590  0.038120  1
  O  O18  1  0.047912  0.912386  0.715231  1
  O  O19  1  0.448742  0.785473  0.587074  1
  O  O20  1  0.595655  0.468474  0.790783  1
  O  O21  1  0.785821  0.596806  0.466443  1
