# generated using pymatgen
data_La10CoTcSb4
_symmetry_space_group_name_H-M   'P 1'
_cell_length_a   8.41704500
_cell_length_b   9.18356100
_cell_length_c   12.83139200
_cell_angle_alpha   90.00000000
_cell_angle_beta   90.00000000
_cell_angle_gamma   90.00000000
_symmetry_Int_Tables_number   1
_chemical_formula_structural   La10CoTcSb4
_chemical_formula_sum   'La20 Co2 Tc2 Sb8'
_cell_volume   991.84666415
_cell_formula_units_Z   2
loop_
 _symmetry_equiv_pos_site_id
 _symmetry_equiv_pos_as_xyz
  1  'x, y, z'
loop_
 _atom_site_type_symbol
 _atom_site_label
 _atom_site_symmetry_multiplicity
 _atom_site_fract_x
 _atom_site_fract_y
 _atom_site_fract_z
 _atom_site_occupancy
  La  La0  1  0.319720  0.532653  0.435884  1
  La  La1  1  0.872704  0.250000  0.803071  1
  La  La2  1  0.180280  0.532653  0.935884  1
  La  La3  1  0.319720  0.967347  0.435884  1
  La  La4  1  0.124074  0.750000  0.196795  1
  La  La5  1  0.844087  0.750000  0.791400  1
  La  La6  1  0.375926  0.750000  0.696795  1
  La  La7  1  0.948413  0.750000  0.502168  1
  La  La8  1  0.447087  0.250000  0.996759  1
  La  La9  1  0.680043  0.464325  0.565196  1
  La  La10  1  0.819957  0.035675  0.065196  1
  La  La11  1  0.655913  0.750000  0.291400  1
  La  La12  1  0.551587  0.750000  0.002168  1
  La  La13  1  0.052913  0.250000  0.496759  1
  La  La14  1  0.680043  0.035675  0.565196  1
  La  La15  1  0.180280  0.967347  0.935884  1
  La  La16  1  0.627296  0.250000  0.303071  1
  La  La17  1  0.345959  0.250000  0.702983  1
  La  La18  1  0.819957  0.464325  0.065196  1
  La  La19  1  0.154041  0.250000  0.202983  1
  Co  Co20  1  0.083413  0.250000  0.987061  1
  Co  Co21  1  0.416587  0.250000  0.487061  1
  Tc  Tc22  1  0.915917  0.750000  0.016174  1
  Tc  Tc23  1  0.584083  0.750000  0.516174  1
  Sb  Sb24  1  0.927923  0.492073  0.328206  1
  Sb  Sb25  1  0.427221  0.505944  0.172509  1
  Sb  Sb26  1  0.427221  0.994056  0.172509  1
  Sb  Sb27  1  0.572077  0.492073  0.828206  1
  Sb  Sb28  1  0.072779  0.505944  0.672509  1
  Sb  Sb29  1  0.572077  0.007927  0.828206  1
  Sb  Sb30  1  0.927923  0.007927  0.328206  1
  Sb  Sb31  1  0.072779  0.994056  0.672509  1
