# generated using pymatgen
data_NbAl(SeO3)4
_symmetry_space_group_name_H-M   'P 1'
_cell_length_a   8.18238100
_cell_length_b   8.22444920
_cell_length_c   8.22051092
_cell_angle_alpha   89.22081615
_cell_angle_beta   90.00000000
_cell_angle_gamma   90.00000000
_symmetry_Int_Tables_number   1
_chemical_formula_structural   NbAl(SeO3)4
_chemical_formula_sum   'Nb2 Al2 Se8 O24'
_cell_volume   553.15287019
_cell_formula_units_Z   2
loop_
 _symmetry_equiv_pos_site_id
 _symmetry_equiv_pos_as_xyz
  1  'x, y, z'
loop_
 _atom_site_type_symbol
 _atom_site_label
 _atom_site_symmetry_multiplicity
 _atom_site_fract_x
 _atom_site_fract_y
 _atom_site_fract_z
 _atom_site_occupancy
  Nb  Nb0  1  0.000000  0.000000  0.500000  1
  Nb  Nb1  1  0.500000  0.000000  0.000000  1
  Al  Al2  1  0.000000  0.500000  0.000000  1
  Al  Al3  1  0.500000  0.500000  0.500000  1
  Se  Se4  1  0.310471  0.650986  0.190167  1
  Se  Se5  1  0.810471  0.349014  0.309833  1
  Se  Se6  1  0.663933  0.800071  0.662428  1
  Se  Se7  1  0.163933  0.199929  0.837572  1
  Se  Se8  1  0.689529  0.349014  0.809833  1
  Se  Se9  1  0.189529  0.650986  0.690167  1
  Se  Se10  1  0.336067  0.199929  0.337572  1
  Se  Se11  1  0.836067  0.800071  0.162428  1
  O  O12  1  0.229743  0.529063  0.044478  1
  O  O13  1  0.729743  0.470937  0.455522  1
  O  O14  1  0.763762  0.952150  0.547499  1
  O  O15  1  0.263762  0.047850  0.952501  1
  O  O16  1  0.531440  0.927595  0.767617  1
  O  O17  1  0.454918  0.522928  0.271881  1
  O  O18  1  0.954918  0.477072  0.228119  1
  O  O19  1  0.031440  0.072405  0.732383  1
  O  O20  1  0.940850  0.225547  0.434482  1
  O  O21  1  0.534431  0.730133  0.518428  1
  O  O22  1  0.440850  0.774453  0.065518  1
  O  O23  1  0.034431  0.269867  0.981572  1
  O  O24  1  0.770257  0.470937  0.955522  1
  O  O25  1  0.270257  0.529063  0.544478  1
  O  O26  1  0.236238  0.047850  0.452501  1
  O  O27  1  0.736238  0.952150  0.047499  1
  O  O28  1  0.468560  0.072405  0.232383  1
  O  O29  1  0.545082  0.477072  0.728119  1
  O  O30  1  0.045082  0.522928  0.771881  1
  O  O31  1  0.968560  0.927595  0.267617  1
  O  O32  1  0.059150  0.774453  0.565518  1
  O  O33  1  0.465569  0.269867  0.481572  1
  O  O34  1  0.559150  0.225547  0.934482  1
  O  O35  1  0.965569  0.730133  0.018428  1
