# generated using pymatgen
data_La3In(Sn2Au3)2
_symmetry_space_group_name_H-M   'P 1'
_cell_length_a   4.76785300
_cell_length_b   9.97797600
_cell_length_c   14.18977900
_cell_angle_alpha   90.00000000
_cell_angle_beta   90.00000000
_cell_angle_gamma   90.00000000
_symmetry_Int_Tables_number   1
_chemical_formula_structural   La3In(Sn2Au3)2
_chemical_formula_sum   'La6 In2 Sn8 Au12'
_cell_volume   675.05777486
_cell_formula_units_Z   2
loop_
 _symmetry_equiv_pos_site_id
 _symmetry_equiv_pos_as_xyz
  1  'x, y, z'
loop_
 _atom_site_type_symbol
 _atom_site_label
 _atom_site_symmetry_multiplicity
 _atom_site_fract_x
 _atom_site_fract_y
 _atom_site_fract_z
 _atom_site_occupancy
  La  La0  1  0.000000  0.745820  0.804631  1
  La  La1  1  0.000000  0.745820  0.195369  1
  La  La2  1  0.500000  0.254180  0.695369  1
  La  La3  1  0.500000  0.254180  0.304631  1
  La  La4  1  0.000000  0.734436  0.500000  1
  La  La5  1  0.500000  0.265564  0.000000  1
  In  In6  1  0.000000  0.274206  0.500000  1
  In  In7  1  0.500000  0.725794  0.000000  1
  Sn  Sn8  1  0.000000  0.383416  0.839187  1
  Sn  Sn9  1  0.000000  0.383416  0.160813  1
  Sn  Sn10  1  0.500000  0.616584  0.660813  1
  Sn  Sn11  1  0.500000  0.616584  0.339187  1
  Sn  Sn12  1  0.000000  0.025563  0.357686  1
  Sn  Sn13  1  0.000000  0.025563  0.642314  1
  Sn  Sn14  1  0.500000  0.974437  0.142314  1
  Sn  Sn15  1  0.500000  0.974437  0.857686  1
  Au  Au16  1  0.000000  0.110606  0.843044  1
  Au  Au17  1  0.000000  0.110606  0.156956  1
  Au  Au18  1  0.500000  0.889394  0.656956  1
  Au  Au19  1  0.500000  0.889394  0.343044  1
  Au  Au20  1  0.000000  0.552871  0.000000  1
  Au  Au21  1  0.500000  0.447129  0.500000  1
  Au  Au22  1  0.000000  0.474388  0.351914  1
  Au  Au23  1  0.000000  0.474388  0.648086  1
  Au  Au24  1  0.500000  0.525612  0.148086  1
  Au  Au25  1  0.500000  0.525612  0.851914  1
  Au  Au26  1  0.000000  0.911757  0.000000  1
  Au  Au27  1  0.500000  0.088243  0.500000  1
