# generated using pymatgen
data_Ac7Yb2PrSn8
_symmetry_space_group_name_H-M   'P 1'
_cell_length_a   8.49438300
_cell_length_b   8.81586774
_cell_length_c   16.90093710
_cell_angle_alpha   90.37668749
_cell_angle_beta   90.00000000
_cell_angle_gamma   90.00000000
_symmetry_Int_Tables_number   1
_chemical_formula_structural   Ac7Yb2PrSn8
_chemical_formula_sum   'Ac14 Yb4 Pr2 Sn16'
_cell_volume   1265.60535757
_cell_formula_units_Z   2
loop_
 _symmetry_equiv_pos_site_id
 _symmetry_equiv_pos_as_xyz
  1  'x, y, z'
loop_
 _atom_site_type_symbol
 _atom_site_label
 _atom_site_symmetry_multiplicity
 _atom_site_fract_x
 _atom_site_fract_y
 _atom_site_fract_z
 _atom_site_occupancy
  Ac  Ac0  1  0.348829  0.832168  0.121428  1
  Ac  Ac1  1  0.848829  0.667832  0.378572  1
  Ac  Ac2  1  0.349125  0.830288  0.376307  1
  Ac  Ac3  1  0.849125  0.669712  0.123693  1
  Ac  Ac4  1  0.649180  0.168561  0.876511  1
  Ac  Ac5  1  0.149180  0.331439  0.623489  1
  Ac  Ac6  1  0.498198  0.682951  0.597565  1
  Ac  Ac7  1  0.998198  0.817049  0.902435  1
  Ac  Ac8  1  0.500807  0.312763  0.095603  1
  Ac  Ac9  1  0.000807  0.187237  0.404397  1
  Ac  Ac10  1  0.503279  0.315766  0.405463  1
  Ac  Ac11  1  0.003279  0.184234  0.094537  1
  Ac  Ac12  1  0.498271  0.685249  0.902694  1
  Ac  Ac13  1  0.998271  0.814751  0.597306  1
  Yb  Yb14  1  0.817722  0.504864  0.749830  1
  Yb  Yb15  1  0.317722  0.995136  0.750170  1
  Yb  Yb16  1  0.182419  0.491585  0.250351  1
  Yb  Yb17  1  0.682419  0.008415  0.249649  1
  Pr  Pr18  1  0.651624  0.170334  0.626642  1
  Pr  Pr19  1  0.151624  0.329666  0.873358  1
  Sn  Sn20  1  0.684784  0.969040  0.465458  1
  Sn  Sn21  1  0.184784  0.530960  0.034542  1
  Sn  Sn22  1  0.303314  0.042543  0.958141  1
  Sn  Sn23  1  0.803314  0.457457  0.541859  1
  Sn  Sn24  1  0.324716  0.035824  0.542055  1
  Sn  Sn25  1  0.824716  0.464176  0.957945  1
  Sn  Sn26  1  0.689314  0.964778  0.039568  1
  Sn  Sn27  1  0.189314  0.535222  0.460432  1
  Sn  Sn28  1  0.453712  0.396275  0.751702  1
  Sn  Sn29  1  0.953712  0.103725  0.748298  1
  Sn  Sn30  1  0.544676  0.596860  0.249542  1
  Sn  Sn31  1  0.044676  0.903140  0.250458  1
  Sn  Sn32  1  0.694826  0.861612  0.749003  1
  Sn  Sn33  1  0.194826  0.638388  0.750997  1
  Sn  Sn34  1  0.305204  0.142234  0.249965  1
  Sn  Sn35  1  0.805204  0.357766  0.250035  1
