# generated using pymatgen
data_SrV3(PO4)3
_symmetry_space_group_name_H-M   'P 1'
_cell_length_a   9.27408815
_cell_length_b   9.27408915
_cell_length_c   9.27408951
_cell_angle_alpha   137.65359328
_cell_angle_beta   110.47949579
_cell_angle_gamma   84.89634021
_symmetry_Int_Tables_number   1
_chemical_formula_structural   SrV3(PO4)3
_chemical_formula_sum   'Sr2 V6 P6 O24'
_cell_volume   484.82231621
_cell_formula_units_Z   2
loop_
 _symmetry_equiv_pos_site_id
 _symmetry_equiv_pos_as_xyz
  1  'x, y, z'
loop_
 _atom_site_type_symbol
 _atom_site_label
 _atom_site_symmetry_multiplicity
 _atom_site_fract_x
 _atom_site_fract_y
 _atom_site_fract_z
 _atom_site_occupancy
  Sr  Sr0  1  0.750000  0.149618  0.399618  1
  Sr  Sr1  1  0.250000  0.850382  0.600382  1
  V  V2  1  0.619244  0.619244  0.500000  1
  V  V3  1  0.380756  0.380756  0.500000  1
  V  V4  1  0.119244  0.619244  0.000000  1
  V  V5  1  0.880756  0.380756  0.000000  1
  V  V6  1  0.000000  0.000000  0.000000  1
  V  V7  1  0.500000  0.500000  0.000000  1
  P  P8  1  0.324502  0.824502  0.000000  1
  P  P9  1  0.750000  0.658989  0.908989  1
  P  P10  1  0.175498  0.175498  0.500000  1
  P  P11  1  0.675498  0.175498  0.000000  1
  P  P12  1  0.250000  0.341011  0.091011  1
  P  P13  1  0.824502  0.824502  0.500000  1
  O  O14  1  0.572140  0.934763  0.778964  1
  O  O15  1  0.072140  0.293176  0.637377  1
  O  O16  1  0.842007  0.884201  0.042194  1
  O  O17  1  0.344201  0.706824  0.778964  1
  O  O18  1  0.140629  0.203183  0.341773  1
  O  O19  1  0.342007  0.299813  0.957806  1
  O  O20  1  0.638590  0.701144  0.341773  1
  O  O21  1  0.859371  0.796817  0.658227  1
  O  O22  1  0.366258  0.485592  0.351850  1
  O  O23  1  0.155799  0.934763  0.362623  1
  O  O24  1  0.640629  0.298856  0.937446  1
  O  O25  1  0.633742  0.514408  0.648150  1
  O  O26  1  0.861410  0.203183  0.062554  1
  O  O27  1  0.844201  0.065237  0.637377  1
  O  O28  1  0.359371  0.701144  0.062554  1
  O  O29  1  0.361410  0.298856  0.658227  1
  O  O30  1  0.657993  0.700187  0.042194  1
  O  O31  1  0.927860  0.706824  0.362623  1
  O  O32  1  0.157993  0.115798  0.957806  1
  O  O33  1  0.866258  0.514408  0.880665  1
  O  O34  1  0.133742  0.485592  0.119335  1
  O  O35  1  0.138590  0.796817  0.937446  1
  O  O36  1  0.655799  0.293176  0.221036  1
  O  O37  1  0.427860  0.065237  0.221036  1
