# generated using pymatgen
data_ScGa7(IrRu)4
_symmetry_space_group_name_H-M   'P 1'
_cell_length_a   6.14418800
_cell_length_b   4.33447800
_cell_length_c   8.62263900
_cell_angle_alpha   90.00000000
_cell_angle_beta   90.00326514
_cell_angle_gamma   90.00000000
_symmetry_Int_Tables_number   1
_chemical_formula_structural   ScGa7(IrRu)4
_chemical_formula_sum   'Sc1 Ga7 Ir4 Ru4'
_cell_volume   229.63680855
_cell_formula_units_Z   1
loop_
 _symmetry_equiv_pos_site_id
 _symmetry_equiv_pos_as_xyz
  1  'x, y, z'
loop_
 _atom_site_type_symbol
 _atom_site_label
 _atom_site_symmetry_multiplicity
 _atom_site_fract_x
 _atom_site_fract_y
 _atom_site_fract_z
 _atom_site_occupancy
  Sc  Sc0  1  0.999070  0.749999  0.125032  1
  Ga  Ga1  1  0.498934  0.749999  0.125018  1
  Ga  Ga2  1  0.999975  0.250000  0.368113  1
  Ga  Ga3  1  0.500199  0.250000  0.380275  1
  Ga  Ga4  1  0.500564  0.749999  0.624977  1
  Ga  Ga5  1  0.000824  0.749999  0.624984  1
  Ga  Ga6  1  0.500118  0.250000  0.869729  1
  Ga  Ga7  1  0.000011  0.250000  0.881894  1
  Ir  Ir8  1  0.735832  0.250000  0.124992  1
  Ir  Ir9  1  0.254730  0.749999  0.381217  1
  Ir  Ir10  1  0.757081  0.250000  0.625002  1
  Ir  Ir11  1  0.254713  0.749999  0.868801  1
  Ru  Ru12  1  0.265076  0.250000  0.125014  1
  Ru  Ru13  1  0.743013  0.749999  0.381744  1
  Ru  Ru14  1  0.246909  0.250000  0.624995  1
  Ru  Ru15  1  0.742951  0.749999  0.868211  1
