# generated using pymatgen
data_ThCu4(AgO4)3
_symmetry_space_group_name_H-M   'P 1'
_cell_length_a   6.55621964
_cell_length_b   6.55622006
_cell_length_c   6.55622000
_cell_angle_alpha   109.47122355
_cell_angle_beta   109.47122482
_cell_angle_gamma   109.47121955
_symmetry_Int_Tables_number   1
_chemical_formula_structural   ThCu4(AgO4)3
_chemical_formula_sum   'Th1 Cu4 Ag3 O12'
_cell_volume   216.93948860
_cell_formula_units_Z   1
loop_
 _symmetry_equiv_pos_site_id
 _symmetry_equiv_pos_as_xyz
  1  'x, y, z'
loop_
 _atom_site_type_symbol
 _atom_site_label
 _atom_site_symmetry_multiplicity
 _atom_site_fract_x
 _atom_site_fract_y
 _atom_site_fract_z
 _atom_site_occupancy
  Th  Th0  1  0.000000  0.000000  0.000000  1
  Cu  Cu1  1  0.500001  0.000000  0.000000  1
  Cu  Cu2  1  0.000000  0.500001  0.000000  1
  Cu  Cu3  1  0.000000  0.000000  0.500001  1
  Cu  Cu4  1  0.500001  0.500001  0.500001  1
  Ag  Ag5  1  0.499999  0.499999  0.000000  1
  Ag  Ag6  1  0.499999  0.000000  0.499999  1
  Ag  Ag7  1  0.000000  0.499999  0.499999  1
  O  O8  1  0.291942  0.822342  0.114285  1
  O  O9  1  0.469599  0.291942  0.177658  1
  O  O10  1  0.885717  0.708059  0.177658  1
  O  O11  1  0.822342  0.114285  0.291942  1
  O  O12  1  0.177658  0.469599  0.291942  1
  O  O13  1  0.291942  0.177658  0.469599  1
  O  O14  1  0.708057  0.822342  0.530402  1
  O  O15  1  0.822342  0.530402  0.708057  1
  O  O16  1  0.177658  0.885717  0.708059  1
  O  O17  1  0.114285  0.291942  0.822342  1
  O  O18  1  0.530402  0.708057  0.822342  1
  O  O19  1  0.708059  0.177658  0.885717  1
