# generated using pymatgen
data_LaSm2(ZnPt)4
_symmetry_space_group_name_H-M   'P 1'
_cell_length_a   8.36918225
_cell_length_b   8.36918339
_cell_length_c   8.36918225
_cell_angle_alpha   151.62134036
_cell_angle_beta   126.81513273
_cell_angle_gamma   61.37592800
_symmetry_Int_Tables_number   1
_chemical_formula_structural   LaSm2(ZnPt)4
_chemical_formula_sum   'La1 Sm2 Zn4 Pt4'
_cell_volume   221.26252132
_cell_formula_units_Z   1
loop_
 _symmetry_equiv_pos_site_id
 _symmetry_equiv_pos_as_xyz
  1  'x, y, z'
loop_
 _atom_site_type_symbol
 _atom_site_label
 _atom_site_symmetry_multiplicity
 _atom_site_fract_x
 _atom_site_fract_y
 _atom_site_fract_z
 _atom_site_occupancy
  La  La0  1  0.500000  0.000000  0.500000  1
  Sm  Sm1  1  0.872556  0.872556  0.000000  1
  Sm  Sm2  1  0.127444  0.127444  0.000000  1
  Zn  Zn3  1  0.478241  0.674058  0.804183  1
  Zn  Zn4  1  0.869875  0.674058  0.195817  1
  Zn  Zn5  1  0.130125  0.325942  0.804183  1
  Zn  Zn6  1  0.521759  0.325942  0.195817  1
  Pt  Pt7  1  0.279517  0.779517  0.500000  1
  Pt  Pt8  1  0.720483  0.220483  0.500000  1
  Pt  Pt9  1  0.805781  0.500000  0.305781  1
  Pt  Pt10  1  0.194219  0.500000  0.694219  1
