# generated using pymatgen
data_Ho4ErNiSb2
_symmetry_space_group_name_H-M   'P 1'
_cell_length_a   12.08130700
_cell_length_b   8.78375300
_cell_length_c   7.86575100
_cell_angle_alpha   90.00000000
_cell_angle_beta   90.00000000
_cell_angle_gamma   90.00000000
_symmetry_Int_Tables_number   1
_chemical_formula_structural   Ho4ErNiSb2
_chemical_formula_sum   'Ho16 Er4 Ni4 Sb8'
_cell_volume   834.70733413
_cell_formula_units_Z   4
loop_
 _symmetry_equiv_pos_site_id
 _symmetry_equiv_pos_as_xyz
  1  'x, y, z'
loop_
 _atom_site_type_symbol
 _atom_site_label
 _atom_site_symmetry_multiplicity
 _atom_site_fract_x
 _atom_site_fract_y
 _atom_site_fract_z
 _atom_site_occupancy
  Ho  Ho0  1  0.706953  0.249932  0.657168  1
  Ho  Ho1  1  0.793047  0.750069  0.157167  1
  Ho  Ho2  1  0.293047  0.749931  0.342833  1
  Ho  Ho3  1  0.206953  0.250070  0.842834  1
  Ho  Ho4  1  0.696566  0.749893  0.624065  1
  Ho  Ho5  1  0.803434  0.250108  0.124064  1
  Ho  Ho6  1  0.499714  0.250084  0.954821  1
  Ho  Ho7  1  0.500286  0.750083  0.045179  1
  Ho  Ho8  1  0.999715  0.249918  0.545178  1
  Ho  Ho9  1  0.934336  0.541190  0.819628  1
  Ho  Ho10  1  0.565665  0.458811  0.319627  1
  Ho  Ho11  1  0.434335  0.958810  0.680374  1
  Ho  Ho12  1  0.065665  0.041190  0.180373  1
  Ho  Ho13  1  0.196567  0.750107  0.875936  1
  Ho  Ho14  1  0.303433  0.249894  0.375936  1
  Ho  Ho15  1  0.000285  0.749917  0.454822  1
  Er  Er16  1  0.065716  0.458581  0.179877  1
  Er  Er17  1  0.434284  0.541420  0.679878  1
  Er  Er18  1  0.565716  0.041420  0.320123  1
  Er  Er19  1  0.934285  0.958580  0.820124  1
  Ni  Ni20  1  0.512049  0.750073  0.425210  1
  Ni  Ni21  1  0.987950  0.249928  0.925210  1
  Ni  Ni22  1  0.012050  0.749927  0.074791  1
  Ni  Ni23  1  0.487950  0.250074  0.574790  1
  Sb  Sb24  1  0.327413  0.491081  0.071984  1
  Sb  Sb25  1  0.172587  0.508919  0.571984  1
  Sb  Sb26  1  0.827412  0.008918  0.428015  1
  Sb  Sb27  1  0.672587  0.991081  0.928016  1
  Sb  Sb28  1  0.672472  0.509023  0.927778  1
  Sb  Sb29  1  0.827527  0.490977  0.427777  1
  Sb  Sb30  1  0.172472  0.990977  0.572222  1
  Sb  Sb31  1  0.327528  0.009022  0.072222  1
