# generated using pymatgen
data_Ho3Tm7Si5Sn
_symmetry_space_group_name_H-M   'P 1'
_cell_length_a   8.43492081
_cell_length_b   8.44157750
_cell_length_c   6.29504200
_cell_angle_alpha   90.00000000
_cell_angle_beta   90.00000000
_cell_angle_gamma   120.27757488
_symmetry_Int_Tables_number   1
_chemical_formula_structural   Ho3Tm7Si5Sn
_chemical_formula_sum   'Ho3 Tm7 Si5 Sn1'
_cell_volume   387.09034872
_cell_formula_units_Z   1
loop_
 _symmetry_equiv_pos_site_id
 _symmetry_equiv_pos_as_xyz
  1  'x, y, z'
loop_
 _atom_site_type_symbol
 _atom_site_label
 _atom_site_symmetry_multiplicity
 _atom_site_fract_x
 _atom_site_fract_y
 _atom_site_fract_z
 _atom_site_occupancy
  Ho  Ho0  1  0.765942  0.765692  0.250000  1
  Ho  Ho1  1  0.240504  0.240361  0.750000  1
  Ho  Ho2  1  0.756194  0.998644  0.750000  1
  Tm  Tm3  1  0.673943  0.331398  0.502823  1
  Tm  Tm4  1  0.331006  0.673801  0.502794  1
  Tm  Tm5  1  0.331006  0.673801  0.997206  1
  Tm  Tm6  1  0.673943  0.331398  0.997177  1
  Tm  Tm7  1  0.240258  0.989332  0.250000  1
  Tm  Tm8  1  0.989544  0.240918  0.250000  1
  Tm  Tm9  1  0.998835  0.755839  0.750000  1
  Si  Si10  1  0.603879  0.999045  0.250000  1
  Si  Si11  1  0.999167  0.603717  0.250000  1
  Si  Si12  1  0.605623  0.604992  0.750000  1
  Si  Si13  1  0.393572  0.000875  0.750000  1
  Si  Si14  1  0.001562  0.395100  0.750000  1
  Sn  Sn15  1  0.395021  0.395089  0.250000  1
