# generated using pymatgen
data_La2Al16IrPt8
_symmetry_space_group_name_H-M   'P 1'
_cell_length_a   11.18726326
_cell_length_b   11.18726542
_cell_length_c   11.18726471
_cell_angle_alpha   158.37235234
_cell_angle_beta   115.64974325
_cell_angle_gamma   68.74820359
_symmetry_Int_Tables_number   1
_chemical_formula_structural   La2Al16IrPt8
_chemical_formula_sum   'La2 Al16 Ir1 Pt8'
_cell_volume   461.82966855
_cell_formula_units_Z   1
loop_
 _symmetry_equiv_pos_site_id
 _symmetry_equiv_pos_as_xyz
  1  'x, y, z'
loop_
 _atom_site_type_symbol
 _atom_site_label
 _atom_site_symmetry_multiplicity
 _atom_site_fract_x
 _atom_site_fract_y
 _atom_site_fract_z
 _atom_site_occupancy
  La  La0  1  0.227607  0.228021  0.999586  1
  La  La1  1  0.771566  0.771979  0.999586  1
  Al  Al2  1  0.274958  0.392380  0.882578  1
  Al  Al3  1  0.094540  0.922067  0.172474  1
  Al  Al4  1  0.509584  0.203840  0.305744  1
  Al  Al5  1  0.250407  0.077933  0.172474  1
  Al  Al6  1  0.913992  0.416107  0.497885  1
  Al  Al7  1  0.722678  0.603852  0.118827  1
  Al  Al8  1  0.898723  0.204691  0.694032  1
  Al  Al9  1  0.489340  0.795309  0.694032  1
  Al  Al10  1  0.387708  0.000000  0.387708  1
  Al  Al11  1  0.619766  0.000000  0.619766  1
  Al  Al12  1  0.490198  0.607620  0.882578  1
  Al  Al13  1  0.101904  0.796160  0.305744  1
  Al  Al14  1  0.901215  0.078303  0.822912  1
  Al  Al15  1  0.744609  0.921697  0.822912  1
  Al  Al16  1  0.514975  0.396148  0.118827  1
  Al  Al17  1  0.081778  0.583893  0.497885  1
  Ir  Ir18  1  0.757276  0.500000  0.257276  1
  Pt  Pt19  1  0.027621  0.341027  0.686594  1
  Pt  Pt20  1  0.625156  0.124689  0.500468  1
  Pt  Pt21  1  0.253162  0.500000  0.753162  1
  Pt  Pt22  1  0.375779  0.875311  0.500468  1
  Pt  Pt23  1  0.997229  0.000000  0.997229  1
  Pt  Pt24  1  0.651442  0.340112  0.311331  1
  Pt  Pt25  1  0.345567  0.658973  0.686594  1
  Pt  Pt26  1  0.971219  0.659888  0.311331  1
