# generated using pymatgen
data_TbPr8HoRu4
_symmetry_space_group_name_H-M   'P 1'
_cell_length_a   6.60401198
_cell_length_b   7.34624199
_cell_length_c   8.88502297
_cell_angle_alpha   95.92839440
_cell_angle_beta   111.81663747
_cell_angle_gamma   89.99999791
_symmetry_Int_Tables_number   1
_chemical_formula_structural   TbPr8HoRu4
_chemical_formula_sum   'Tb1 Pr8 Ho1 Ru4'
_cell_volume   397.69668312
_cell_formula_units_Z   1
loop_
 _symmetry_equiv_pos_site_id
 _symmetry_equiv_pos_as_xyz
  1  'x, y, z'
loop_
 _atom_site_type_symbol
 _atom_site_label
 _atom_site_symmetry_multiplicity
 _atom_site_fract_x
 _atom_site_fract_y
 _atom_site_fract_z
 _atom_site_occupancy
  Tb  Tb0  1  0.429189  0.750000  0.000000  1
  Pr  Pr1  1  0.978158  0.916107  0.182767  1
  Pr  Pr2  1  0.795391  0.583893  0.817233  1
  Pr  Pr3  1  0.021808  0.084437  0.817336  1
  Pr  Pr4  1  0.204472  0.415563  0.182664  1
  Pr  Pr5  1  0.638020  0.813255  0.429764  1
  Pr  Pr6  1  0.208256  0.686745  0.570236  1
  Pr  Pr7  1  0.362141  0.186952  0.570461  1
  Pr  Pr8  1  0.791680  0.313048  0.429539  1
  Ho  Ho9  1  0.570398  0.250000  0.000000  1
  Ru  Ru10  1  0.813335  0.572210  0.213526  1
  Ru  Ru11  1  0.599808  0.927790  0.786474  1
  Ru  Ru12  1  0.186856  0.427104  0.786367  1
  Ru  Ru13  1  0.400490  0.072896  0.213633  1
