# generated using pymatgen
data_Ho8CuGePd23
_symmetry_space_group_name_H-M   'P 1'
_cell_length_a   8.28229400
_cell_length_b   8.32919600
_cell_length_c   8.34962300
_cell_angle_alpha   90.00000000
_cell_angle_beta   90.00000000
_cell_angle_gamma   90.00000000
_symmetry_Int_Tables_number   1
_chemical_formula_structural   Ho8CuGePd23
_chemical_formula_sum   'Ho8 Cu1 Ge1 Pd23'
_cell_volume   575.99749068
_cell_formula_units_Z   1
loop_
 _symmetry_equiv_pos_site_id
 _symmetry_equiv_pos_as_xyz
  1  'x, y, z'
loop_
 _atom_site_type_symbol
 _atom_site_label
 _atom_site_symmetry_multiplicity
 _atom_site_fract_x
 _atom_site_fract_y
 _atom_site_fract_z
 _atom_site_occupancy
  Ho  Ho0  1  0.253289  0.251248  0.257161  1
  Ho  Ho1  1  0.746462  0.746299  0.746529  1
  Ho  Ho2  1  0.746462  0.746299  0.253471  1
  Ho  Ho3  1  0.746462  0.253701  0.746529  1
  Ho  Ho4  1  0.253289  0.251248  0.742839  1
  Ho  Ho5  1  0.253289  0.748752  0.257161  1
  Ho  Ho6  1  0.253289  0.748752  0.742839  1
  Ho  Ho7  1  0.746462  0.253701  0.253471  1
  Cu  Cu8  1  0.262630  0.500000  0.000000  1
  Ge  Ge9  1  0.998630  0.000000  0.000000  1
  Pd  Pd10  1  0.741827  0.500000  0.000000  1
  Pd  Pd11  1  0.999395  0.258888  0.500000  1
  Pd  Pd12  1  0.494346  0.263323  0.000000  1
  Pd  Pd13  1  0.999395  0.741112  0.500000  1
  Pd  Pd14  1  0.494346  0.736677  0.000000  1
  Pd  Pd15  1  0.500128  0.000000  0.260206  1
  Pd  Pd16  1  0.258600  0.000000  0.500000  1
  Pd  Pd17  1  0.500128  0.000000  0.739794  1
  Pd  Pd18  1  0.740918  0.000000  0.500000  1
  Pd  Pd19  1  0.002386  0.500000  0.259655  1
  Pd  Pd20  1  0.002386  0.500000  0.740345  1
  Pd  Pd21  1  0.252801  0.500000  0.500000  1
  Pd  Pd22  1  0.746933  0.500000  0.500000  1
  Pd  Pd23  1  0.500464  0.253215  0.500000  1
  Pd  Pd24  1  0.500464  0.746785  0.500000  1
  Pd  Pd25  1  0.496121  0.500000  0.251165  1
  Pd  Pd26  1  0.496121  0.500000  0.748835  1
  Pd  Pd27  1  0.288938  0.000000  0.000000  1
  Pd  Pd28  1  0.708237  0.000000  0.000000  1
  Pd  Pd29  1  0.008544  0.291856  0.000000  1
  Pd  Pd30  1  0.008544  0.708144  0.000000  1
  Pd  Pd31  1  0.999359  0.000000  0.287224  1
  Pd  Pd32  1  0.999359  0.000000  0.712776  1
