# generated using pymatgen
data_Pr2ErCo8P6W
_symmetry_space_group_name_H-M   'P 1'
_cell_length_a   3.78181400
_cell_length_b   10.70470700
_cell_length_c   12.43359600
_cell_angle_alpha   90.00000000
_cell_angle_beta   90.00000000
_cell_angle_gamma   90.00000000
_symmetry_Int_Tables_number   1
_chemical_formula_structural   Pr2ErCo8P6W
_chemical_formula_sum   'Pr4 Er2 Co16 P12 W2'
_cell_volume   503.35188785
_cell_formula_units_Z   2
loop_
 _symmetry_equiv_pos_site_id
 _symmetry_equiv_pos_as_xyz
  1  'x, y, z'
loop_
 _atom_site_type_symbol
 _atom_site_label
 _atom_site_symmetry_multiplicity
 _atom_site_fract_x
 _atom_site_fract_y
 _atom_site_fract_z
 _atom_site_occupancy
  Pr  Pr0  1  0.000000  0.500000  0.523362  1
  Pr  Pr1  1  0.500000  0.000000  0.474926  1
  Pr  Pr2  1  0.000000  0.681121  0.795270  1
  Pr  Pr3  1  0.000000  0.318879  0.795270  1
  Er  Er4  1  0.500000  0.819314  0.203475  1
  Er  Er5  1  0.500000  0.180686  0.203475  1
  Co  Co6  1  0.500000  0.500000  0.702743  1
  Co  Co7  1  0.000000  0.000000  0.294530  1
  Co  Co8  1  0.000000  0.500000  0.991473  1
  Co  Co9  1  0.500000  0.000000  0.016116  1
  Co  Co10  1  0.500000  0.331033  0.995243  1
  Co  Co11  1  0.500000  0.668967  0.995243  1
  Co  Co12  1  0.000000  0.165967  0.012854  1
  Co  Co13  1  0.000000  0.834033  0.012854  1
  Co  Co14  1  0.500000  0.294257  0.426388  1
  Co  Co15  1  0.500000  0.705743  0.426388  1
  Co  Co16  1  0.000000  0.204090  0.566162  1
  Co  Co17  1  0.000000  0.795910  0.566162  1
  Co  Co18  1  0.500000  0.881225  0.709057  1
  Co  Co19  1  0.500000  0.118775  0.709057  1
  Co  Co20  1  0.000000  0.621463  0.287987  1
  Co  Co21  1  0.000000  0.378537  0.287987  1
  P  P22  1  0.500000  0.500000  0.888201  1
  P  P23  1  0.000000  0.000000  0.119989  1
  P  P24  1  0.500000  0.500000  0.344081  1
  P  P25  1  0.000000  0.000000  0.655883  1
  P  P26  1  0.500000  0.304789  0.611997  1
  P  P27  1  0.500000  0.695211  0.611997  1
  P  P28  1  0.000000  0.191778  0.379740  1
  P  P29  1  0.000000  0.808222  0.379740  1
  P  P30  1  0.500000  0.847505  0.897523  1
  P  P31  1  0.500000  0.152495  0.897523  1
  P  P32  1  0.000000  0.656543  0.107519  1
  P  P33  1  0.000000  0.343457  0.107519  1
  W  W34  1  0.500000  0.500000  0.154531  1
  W  W35  1  0.000000  0.000000  0.847733  1
