# generated using pymatgen
data_LaPr4Sn10(PdRh)2
_symmetry_space_group_name_H-M   'P 1'
_cell_length_a   14.29004700
_cell_length_b   14.28389300
_cell_length_c   4.68732700
_cell_angle_alpha   90.00000000
_cell_angle_beta   90.00000000
_cell_angle_gamma   90.00000000
_symmetry_Int_Tables_number   1
_chemical_formula_structural   LaPr4Sn10(PdRh)2
_chemical_formula_sum   'La2 Pr8 Sn20 Pd4 Rh4'
_cell_volume   956.76547976
_cell_formula_units_Z   2
loop_
 _symmetry_equiv_pos_site_id
 _symmetry_equiv_pos_as_xyz
  1  'x, y, z'
loop_
 _atom_site_type_symbol
 _atom_site_label
 _atom_site_symmetry_multiplicity
 _atom_site_fract_x
 _atom_site_fract_y
 _atom_site_fract_z
 _atom_site_occupancy
  La  La0  1  0.500000  0.500000  0.000000  1
  La  La1  1  0.000000  0.000000  0.000000  1
  Pr  Pr2  1  0.677875  0.179900  0.500000  1
  Pr  Pr3  1  0.322125  0.820100  0.500000  1
  Pr  Pr4  1  0.177875  0.320100  0.500000  1
  Pr  Pr5  1  0.822125  0.679900  0.500000  1
  Pr  Pr6  1  0.892433  0.390494  0.500000  1
  Pr  Pr7  1  0.107567  0.609506  0.500000  1
  Pr  Pr8  1  0.392433  0.109506  0.500000  1
  Pr  Pr9  1  0.607567  0.890494  0.500000  1
  Sn  Sn10  1  0.566815  0.071356  0.000000  1
  Sn  Sn11  1  0.433185  0.928644  0.000000  1
  Sn  Sn12  1  0.066815  0.428644  0.000000  1
  Sn  Sn13  1  0.933185  0.571356  0.000000  1
  Sn  Sn14  1  0.651941  0.702492  0.000000  1
  Sn  Sn15  1  0.348059  0.297508  0.000000  1
  Sn  Sn16  1  0.151941  0.797508  0.000000  1
  Sn  Sn17  1  0.848059  0.202492  0.000000  1
  Sn  Sn18  1  0.301517  0.653279  0.000000  1
  Sn  Sn19  1  0.698483  0.346721  0.000000  1
  Sn  Sn20  1  0.198483  0.153279  0.000000  1
  Sn  Sn21  1  0.801517  0.846721  0.000000  1
  Sn  Sn22  1  0.663079  0.502841  0.500000  1
  Sn  Sn23  1  0.336921  0.497159  0.500000  1
  Sn  Sn24  1  0.163079  0.997159  0.500000  1
  Sn  Sn25  1  0.836921  0.002841  0.500000  1
  Sn  Sn26  1  0.496326  0.664063  0.500000  1
  Sn  Sn27  1  0.503674  0.335937  0.500000  1
  Sn  Sn28  1  0.003674  0.164063  0.500000  1
  Sn  Sn29  1  0.996326  0.835937  0.500000  1
  Pd  Pd30  1  0.746263  0.530411  0.000000  1
  Pd  Pd31  1  0.253737  0.469589  0.000000  1
  Pd  Pd32  1  0.246263  0.969589  0.000000  1
  Pd  Pd33  1  0.753737  0.030411  0.000000  1
  Rh  Rh34  1  0.469035  0.743154  0.000000  1
  Rh  Rh35  1  0.530965  0.256846  0.000000  1
  Rh  Rh36  1  0.030965  0.243154  0.000000  1
  Rh  Rh37  1  0.969035  0.756846  0.000000  1
