# generated using pymatgen
data_Ti24SiSe7
_symmetry_space_group_name_H-M   'P 1'
_cell_length_a   10.10407603
_cell_length_b   10.12912068
_cell_length_c   5.12207489
_cell_angle_alpha   89.75830307
_cell_angle_beta   90.13520831
_cell_angle_gamma   89.99626901
_symmetry_Int_Tables_number   1
_chemical_formula_structural   Ti24SiSe7
_chemical_formula_sum   'Ti24 Si1 Se7'
_cell_volume   524.21470634
_cell_formula_units_Z   1
loop_
 _symmetry_equiv_pos_site_id
 _symmetry_equiv_pos_as_xyz
  1  'x, y, z'
loop_
 _atom_site_type_symbol
 _atom_site_label
 _atom_site_symmetry_multiplicity
 _atom_site_fract_x
 _atom_site_fract_y
 _atom_site_fract_z
 _atom_site_occupancy
  Ti  Ti0  1  0.215779  0.683192  0.991252  1
  Ti  Ti1  1  0.783402  0.317745  0.987915  1
  Ti  Ti2  1  0.183393  0.284012  0.491865  1
  Ti  Ti3  1  0.817483  0.715337  0.489487  1
  Ti  Ti4  1  0.284349  0.817025  0.510065  1
  Ti  Ti5  1  0.713411  0.182269  0.511494  1
  Ti  Ti6  1  0.318279  0.215649  0.006645  1
  Ti  Ti7  1  0.682628  0.784289  0.011067  1
  Ti  Ti8  1  0.642498  0.527371  0.714357  1
  Ti  Ti9  1  0.357629  0.472563  0.715441  1
  Ti  Ti10  1  0.027094  0.856951  0.213602  1
  Ti  Ti11  1  0.972346  0.142081  0.214121  1
  Ti  Ti12  1  0.856976  0.971842  0.785170  1
  Ti  Ti13  1  0.142545  0.026240  0.786590  1
  Ti  Ti14  1  0.472770  0.643067  0.287825  1
  Ti  Ti15  1  0.528897  0.355209  0.282926  1
  Ti  Ti16  1  0.103160  0.582729  0.459612  1
  Ti  Ti17  1  0.896232  0.416919  0.462110  1
  Ti  Ti18  1  0.083014  0.397222  0.960505  1
  Ti  Ti19  1  0.916719  0.603204  0.961487  1
  Ti  Ti20  1  0.396569  0.916526  0.038363  1
  Ti  Ti21  1  0.602216  0.085649  0.031157  1
  Ti  Ti22  1  0.418727  0.105153  0.547194  1
  Ti  Ti23  1  0.583365  0.896005  0.541045  1
  Si  Si24  1  0.539723  0.296306  0.786168  1
  Se  Se25  1  0.706507  0.538688  0.212036  1
  Se  Se26  1  0.293942  0.459838  0.212089  1
  Se  Se27  1  0.038999  0.793148  0.711639  1
  Se  Se28  1  0.960803  0.206411  0.712677  1
  Se  Se29  1  0.792267  0.961705  0.286623  1
  Se  Se30  1  0.207305  0.039541  0.288289  1
  Se  Se31  1  0.460974  0.706113  0.789185  1
