# generated using pymatgen
data_La7YbYPt6
_symmetry_space_group_name_H-M   'P 1'
_cell_length_a   7.80019273
_cell_length_b   7.80019249
_cell_length_c   7.80019250
_cell_angle_alpha   71.18118768
_cell_angle_beta   71.18119029
_cell_angle_gamma   71.18118580
_symmetry_Int_Tables_number   1
_chemical_formula_structural   La7YbYPt6
_chemical_formula_sum   'La7 Yb1 Y1 Pt6'
_cell_volume   412.36270693
_cell_formula_units_Z   1
loop_
 _symmetry_equiv_pos_site_id
 _symmetry_equiv_pos_as_xyz
  1  'x, y, z'
loop_
 _atom_site_type_symbol
 _atom_site_label
 _atom_site_symmetry_multiplicity
 _atom_site_fract_x
 _atom_site_fract_y
 _atom_site_fract_z
 _atom_site_occupancy
  La  La0  1  0.197823  0.197823  0.197823  1
  La  La1  1  0.326348  0.610462  0.842356  1
  La  La2  1  0.842356  0.326348  0.610462  1
  La  La3  1  0.610462  0.842356  0.326348  1
  La  La4  1  0.673651  0.394126  0.154249  1
  La  La5  1  0.154249  0.673651  0.394126  1
  La  La6  1  0.394126  0.154249  0.673651  1
  Yb  Yb7  1  0.999474  0.999474  0.999474  1
  Y  Y8  1  0.803857  0.803857  0.803857  1
  Pt  Pt9  1  0.163570  0.956469  0.590749  1
  Pt  Pt10  1  0.590749  0.163570  0.956469  1
  Pt  Pt11  1  0.956469  0.590749  0.163570  1
  Pt  Pt12  1  0.831870  0.038194  0.416802  1
  Pt  Pt13  1  0.416802  0.831870  0.038194  1
  Pt  Pt14  1  0.038194  0.416802  0.831870  1
