# generated using pymatgen
data_Ho2Si7(PtRh)6
_symmetry_space_group_name_H-M   'P 1'
_cell_length_a   9.84815400
_cell_length_b   9.84815316
_cell_length_c   3.90101100
_cell_angle_alpha   90.00000000
_cell_angle_beta   90.00000000
_cell_angle_gamma   120.00000953
_symmetry_Int_Tables_number   1
_chemical_formula_structural   Ho2Si7(PtRh)6
_chemical_formula_sum   'Ho2 Si7 Pt6 Rh6'
_cell_volume   327.65544573
_cell_formula_units_Z   1
loop_
 _symmetry_equiv_pos_site_id
 _symmetry_equiv_pos_as_xyz
  1  'x, y, z'
loop_
 _atom_site_type_symbol
 _atom_site_label
 _atom_site_symmetry_multiplicity
 _atom_site_fract_x
 _atom_site_fract_y
 _atom_site_fract_z
 _atom_site_occupancy
  Ho  Ho0  1  0.333333  0.666667  0.749157  1
  Ho  Ho1  1  0.666667  0.333333  0.250843  1
  Si  Si2  1  0.000000  0.000000  0.500000  1
  Si  Si3  1  0.395651  0.283710  0.750283  1
  Si  Si4  1  0.716290  0.111942  0.750283  1
  Si  Si5  1  0.888058  0.604349  0.750283  1
  Si  Si6  1  0.604349  0.716290  0.249717  1
  Si  Si7  1  0.283710  0.888058  0.249717  1
  Si  Si8  1  0.111942  0.395651  0.249717  1
  Pt  Pt9  1  0.452716  0.072043  0.751495  1
  Pt  Pt10  1  0.927957  0.380673  0.751495  1
  Pt  Pt11  1  0.619327  0.547284  0.751495  1
  Pt  Pt12  1  0.547284  0.927957  0.248505  1
  Pt  Pt13  1  0.072043  0.619327  0.248505  1
  Pt  Pt14  1  0.380673  0.452716  0.248505  1
  Rh  Rh15  1  0.143272  0.262645  0.747296  1
  Rh  Rh16  1  0.737355  0.880627  0.747296  1
  Rh  Rh17  1  0.119373  0.856728  0.747296  1
  Rh  Rh18  1  0.856728  0.737355  0.252704  1
  Rh  Rh19  1  0.262645  0.119373  0.252704  1
  Rh  Rh20  1  0.880627  0.143272  0.252704  1
