# generated using pymatgen
data_Ce3In2GaRh3
_symmetry_space_group_name_H-M   'P 1'
_cell_length_a   7.48762052
_cell_length_b   7.48045217
_cell_length_c   3.97226500
_cell_angle_alpha   90.00000000
_cell_angle_beta   90.00000000
_cell_angle_gamma   120.07417391
_symmetry_Int_Tables_number   1
_chemical_formula_structural   Ce3In2GaRh3
_chemical_formula_sum   'Ce3 In2 Ga1 Rh3'
_cell_volume   192.53754637
_cell_formula_units_Z   1
loop_
 _symmetry_equiv_pos_site_id
 _symmetry_equiv_pos_as_xyz
  1  'x, y, z'
loop_
 _atom_site_type_symbol
 _atom_site_label
 _atom_site_symmetry_multiplicity
 _atom_site_fract_x
 _atom_site_fract_y
 _atom_site_fract_z
 _atom_site_occupancy
  Ce  Ce0  1  0.427815  0.999991  0.500000  1
  Ce  Ce1  1  0.992262  0.401519  0.500000  1
  Ce  Ce2  1  0.590705  0.598501  0.500000  1
  In  In3  1  0.005041  0.753667  0.000000  1
  In  In4  1  0.251210  0.246246  0.000000  1
  Ga  Ga5  1  0.747101  0.000145  0.000000  1
  Rh  Rh6  1  0.345853  0.674283  0.000000  1
  Rh  Rh7  1  0.671906  0.325537  0.000000  1
  Rh  Rh8  1  0.968106  0.000109  0.500000  1
