# generated using pymatgen
data_CsMn16O32
_symmetry_space_group_name_H-M   'P 1'
_cell_length_a   5.88375400
_cell_length_b   9.89371143
_cell_length_c   9.94354800
_cell_angle_alpha   89.84030356
_cell_angle_beta   89.99975655
_cell_angle_gamma   89.99992404
_symmetry_Int_Tables_number   1
_chemical_formula_structural   CsMn16O32
_chemical_formula_sum   'Cs1 Mn16 O32'
_cell_volume   578.83320056
_cell_formula_units_Z   1
loop_
 _symmetry_equiv_pos_site_id
 _symmetry_equiv_pos_as_xyz
  1  'x, y, z'
loop_
 _atom_site_type_symbol
 _atom_site_label
 _atom_site_symmetry_multiplicity
 _atom_site_fract_x
 _atom_site_fract_y
 _atom_site_fract_z
 _atom_site_occupancy
  Cs  Cs0  1  0.000014  0.499469  0.496286  1
  Mn  Mn1  1  0.499971  0.164696  0.345575  1
  Mn  Mn2  1  0.999987  0.162894  0.344089  1
  Mn  Mn3  1  0.499889  0.347899  0.831782  1
  Mn  Mn4  1  0.000115  0.346438  0.833444  1
  Mn  Mn5  1  0.999956  0.652536  0.159165  1
  Mn  Mn6  1  0.500037  0.651175  0.160768  1
  Mn  Mn7  1  0.000008  0.836034  0.648653  1
  Mn  Mn8  1  0.500097  0.834316  0.647150  1
  Mn  Mn9  1  0.749587  0.667702  0.845434  1
  Mn  Mn10  1  0.250386  0.667720  0.845442  1
  Mn  Mn11  1  0.749633  0.847701  0.329002  1
  Mn  Mn12  1  0.250401  0.847689  0.328958  1
  Mn  Mn13  1  0.749584  0.151312  0.663786  1
  Mn  Mn14  1  0.250288  0.151381  0.663686  1
  Mn  Mn15  1  0.749575  0.331271  0.147173  1
  Mn  Mn16  1  0.250330  0.331335  0.147197  1
  O  O17  1  0.749489  0.958346  0.657879  1
  O  O18  1  0.250569  0.958351  0.657876  1
  O  O19  1  0.749526  0.664619  0.037558  1
  O  O20  1  0.250452  0.664606  0.037573  1
  O  O21  1  0.749547  0.334492  0.955119  1
  O  O22  1  0.250467  0.334515  0.955060  1
  O  O23  1  0.749462  0.040565  0.334837  1
  O  O24  1  0.250539  0.040572  0.334840  1
  O  O25  1  0.000001  0.456487  0.162252  1
  O  O26  1  0.499996  0.455935  0.161253  1
  O  O27  1  0.999996  0.168663  0.539215  1
  O  O28  1  0.499993  0.168052  0.539799  1
  O  O29  1  0.499975  0.830841  0.452861  1
  O  O30  1  0.999951  0.830256  0.453433  1
  O  O31  1  0.500070  0.543127  0.831384  1
  O  O32  1  0.000015  0.542578  0.830377  1
  O  O33  1  0.500040  0.797170  0.839923  1
  O  O34  1  0.000046  0.797138  0.840517  1
  O  O35  1  0.999977  0.844835  0.200213  1
  O  O36  1  0.499954  0.844265  0.200120  1
  O  O37  1  0.000012  0.201907  0.152145  1
  O  O38  1  0.500006  0.201860  0.152746  1
  O  O39  1  0.500012  0.154786  0.792533  1
  O  O40  1  0.999980  0.154211  0.792436  1
  O  O41  1  0.749839  0.293577  0.339576  1
  O  O42  1  0.250204  0.293588  0.339551  1
  O  O43  1  0.749769  0.344135  0.703492  1
  O  O44  1  0.250237  0.344137  0.703529  1
  O  O45  1  0.749863  0.705382  0.653084  1
  O  O46  1  0.250225  0.705386  0.653091  1
  O  O47  1  0.749735  0.654844  0.289112  1
  O  O48  1  0.250193  0.654865  0.289120  1
