# generated using pymatgen
data_Tb5Dy3Re3B24Ir
_symmetry_space_group_name_H-M   'P 1'
_cell_length_a   3.68864200
_cell_length_b   9.19466336
_cell_length_c   11.58290701
_cell_angle_alpha   90.14208087
_cell_angle_beta   90.00000000
_cell_angle_gamma   90.00000000
_symmetry_Int_Tables_number   1
_chemical_formula_structural   Tb5Dy3Re3B24Ir
_chemical_formula_sum   'Tb5 Dy3 Re3 B24 Ir1'
_cell_volume   392.84259803
_cell_formula_units_Z   1
loop_
 _symmetry_equiv_pos_site_id
 _symmetry_equiv_pos_as_xyz
  1  'x, y, z'
loop_
 _atom_site_type_symbol
 _atom_site_label
 _atom_site_symmetry_multiplicity
 _atom_site_fract_x
 _atom_site_fract_y
 _atom_site_fract_z
 _atom_site_occupancy
  Tb  Tb0  1  0.000000  0.318667  0.415477  1
  Tb  Tb1  1  0.000000  0.678246  0.591311  1
  Tb  Tb2  1  0.000000  0.827297  0.081478  1
  Tb  Tb3  1  0.000000  0.177048  0.912518  1
  Tb  Tb4  1  0.000000  0.944050  0.370337  1
  Dy  Dy5  1  0.000000  0.055922  0.629065  1
  Dy  Dy6  1  0.000000  0.440973  0.128462  1
  Dy  Dy7  1  0.000000  0.556733  0.871583  1
  Re  Re8  1  0.000000  0.362623  0.677613  1
  Re  Re9  1  0.000000  0.138635  0.179779  1
  Re  Re10  1  0.000000  0.861694  0.821010  1
  B  B11  1  0.500000  0.553899  0.433365  1
  B  B12  1  0.500000  0.446535  0.567122  1
  B  B13  1  0.500000  0.053611  0.066918  1
  B  B14  1  0.500000  0.946908  0.932315  1
  B  B15  1  0.500000  0.748468  0.419823  1
  B  B16  1  0.500000  0.251107  0.581324  1
  B  B17  1  0.500000  0.248542  0.081552  1
  B  B18  1  0.500000  0.752164  0.918604  1
  B  B19  1  0.500000  0.790493  0.265574  1
  B  B20  1  0.500000  0.208907  0.733637  1
  B  B21  1  0.500000  0.291170  0.234570  1
  B  B22  1  0.500000  0.708561  0.766351  1
  B  B23  1  0.500000  0.631819  0.184770  1
  B  B24  1  0.500000  0.369238  0.813608  1
  B  B25  1  0.500000  0.131258  0.314249  1
  B  B26  1  0.500000  0.868232  0.686005  1
  B  B27  1  0.500000  0.983931  0.211844  1
  B  B28  1  0.500000  0.016668  0.786913  1
  B  B29  1  0.500000  0.483461  0.287812  1
  B  B30  1  0.500000  0.517476  0.712488  1
  B  B31  1  0.500000  0.604438  0.029621  1
  B  B32  1  0.500000  0.396543  0.971689  1
  B  B33  1  0.500000  0.103110  0.470993  1
  B  B34  1  0.500000  0.894214  0.528873  1
  Ir  Ir35  1  0.000000  0.637358  0.321350  1
