# generated using pymatgen
data_Y3HoIrPd3O14
_symmetry_space_group_name_H-M   'P 1'
_cell_length_a   7.24507592
_cell_length_b   7.24377982
_cell_length_c   7.26814505
_cell_angle_alpha   60.08799488
_cell_angle_beta   60.10493677
_cell_angle_gamma   59.99407778
_symmetry_Int_Tables_number   1
_chemical_formula_structural   Y3HoIrPd3O14
_chemical_formula_sum   'Y3 Ho1 Ir1 Pd3 O14'
_cell_volume   270.10271685
_cell_formula_units_Z   1
loop_
 _symmetry_equiv_pos_site_id
 _symmetry_equiv_pos_as_xyz
  1  'x, y, z'
loop_
 _atom_site_type_symbol
 _atom_site_label
 _atom_site_symmetry_multiplicity
 _atom_site_fract_x
 _atom_site_fract_y
 _atom_site_fract_z
 _atom_site_occupancy
  Y  Y0  1  0.625000  0.125000  0.125000  1
  Y  Y1  1  0.125000  0.125000  0.625000  1
  Y  Y2  1  0.125000  0.125000  0.125000  1
  Ho  Ho3  1  0.125000  0.625000  0.125000  1
  Ir  Ir4  1  0.625000  0.625000  0.125000  1
  Pd  Pd5  1  0.125000  0.625000  0.625000  1
  Pd  Pd6  1  0.625000  0.125000  0.625000  1
  Pd  Pd7  1  0.625000  0.625000  0.625000  1
  O  O8  1  0.713906  0.712208  0.283694  1
  O  O9  1  0.283909  0.283895  0.717843  1
  O  O10  1  0.714353  0.283895  0.717843  1
  O  O11  1  0.290191  0.712208  0.283694  1
  O  O12  1  0.283479  0.713926  0.719117  1
  O  O13  1  0.712585  0.290752  0.284078  1
  O  O14  1  0.536094  0.537792  0.966306  1
  O  O15  1  0.966091  0.966105  0.532157  1
  O  O16  1  0.535647  0.966105  0.532157  1
  O  O17  1  0.959809  0.537792  0.966306  1
  O  O18  1  0.966521  0.536074  0.530883  1
  O  O19  1  0.537415  0.959248  0.965922  1
  O  O20  1  0.249683  0.252416  0.248218  1
  O  O21  1  0.000317  0.997584  0.001782  1
