# generated using pymatgen
data_Zr24BiAs3Se8
_symmetry_space_group_name_H-M   'P 1'
_cell_length_a   3.74031100
_cell_length_b   12.72225529
_cell_length_c   15.68506900
_cell_angle_alpha   90.02578754
_cell_angle_beta   90.00000000
_cell_angle_gamma   90.00000000
_symmetry_Int_Tables_number   1
_chemical_formula_structural   Zr24BiAs3Se8
_chemical_formula_sum   'Zr24 Bi1 As3 Se8'
_cell_volume   746.37693490
_cell_formula_units_Z   1
loop_
 _symmetry_equiv_pos_site_id
 _symmetry_equiv_pos_as_xyz
  1  'x, y, z'
loop_
 _atom_site_type_symbol
 _atom_site_label
 _atom_site_symmetry_multiplicity
 _atom_site_fract_x
 _atom_site_fract_y
 _atom_site_fract_z
 _atom_site_occupancy
  Zr  Zr0  1  0.000000  0.344418  0.478823  1
  Zr  Zr1  1  0.000000  0.635931  0.528756  1
  Zr  Zr2  1  0.500000  0.153253  0.978547  1
  Zr  Zr3  1  0.500000  0.848049  0.020102  1
  Zr  Zr4  1  0.000000  0.086084  0.579448  1
  Zr  Zr5  1  0.000000  0.931322  0.424829  1
  Zr  Zr6  1  0.500000  0.413509  0.075303  1
  Zr  Zr7  1  0.500000  0.584772  0.922546  1
  Zr  Zr8  1  0.000000  0.685822  0.285610  1
  Zr  Zr9  1  0.000000  0.308019  0.705971  1
  Zr  Zr10  1  0.500000  0.808086  0.796413  1
  Zr  Zr11  1  0.500000  0.193415  0.202904  1
  Zr  Zr12  1  0.000000  0.030541  0.107498  1
  Zr  Zr13  1  0.000000  0.970955  0.891560  1
  Zr  Zr14  1  0.500000  0.467676  0.610952  1
  Zr  Zr15  1  0.500000  0.522970  0.388530  1
  Zr  Zr16  1  0.000000  0.618170  0.076182  1
  Zr  Zr17  1  0.000000  0.381940  0.922153  1
  Zr  Zr18  1  0.500000  0.886200  0.582949  1
  Zr  Zr19  1  0.500000  0.122657  0.424200  1
  Zr  Zr20  1  0.000000  0.407530  0.240098  1
  Zr  Zr21  1  0.000000  0.589674  0.758680  1
  Zr  Zr22  1  0.500000  0.089053  0.743964  1
  Zr  Zr23  1  0.500000  0.916169  0.254141  1
  Bi  Bi24  1  0.500000  0.757571  0.415775  1
  As  As25  1  0.000000  0.256052  0.085118  1
  As  As26  1  0.000000  0.743720  0.914181  1
  As  As27  1  0.500000  0.244226  0.587250  1
  Se  Se28  1  0.000000  0.815324  0.149969  1
  Se  Se29  1  0.000000  0.186205  0.849384  1
  Se  Se30  1  0.500000  0.686166  0.653193  1
  Se  Se31  1  0.500000  0.313300  0.347364  1
  Se  Se32  1  0.000000  0.072964  0.290024  1
  Se  Se33  1  0.000000  0.932536  0.710517  1
  Se  Se34  1  0.500000  0.431810  0.793045  1
  Se  Se35  1  0.500000  0.563905  0.204024  1
