# generated using pymatgen
data_Ta2CrCoNi19B6
_symmetry_space_group_name_H-M   'P 1'
_cell_length_a   7.41044166
_cell_length_b   7.41044081
_cell_length_c   7.47212685
_cell_angle_alpha   60.27270094
_cell_angle_beta   60.27270139
_cell_angle_gamma   59.99999639
_symmetry_Int_Tables_number   1
_chemical_formula_structural   Ta2CrCoNi19B6
_chemical_formula_sum   'Ta2 Cr1 Co1 Ni19 B6'
_cell_volume   291.33671936
_cell_formula_units_Z   1
loop_
 _symmetry_equiv_pos_site_id
 _symmetry_equiv_pos_as_xyz
  1  'x, y, z'
loop_
 _atom_site_type_symbol
 _atom_site_label
 _atom_site_symmetry_multiplicity
 _atom_site_fract_x
 _atom_site_fract_y
 _atom_site_fract_z
 _atom_site_occupancy
  Ta  Ta0  1  0.747355  0.747355  0.757934  1
  Ta  Ta1  1  0.250385  0.250385  0.248843  1
  Cr  Cr2  1  0.000058  0.000058  0.999828  1
  Co  Co3  1  0.616690  0.616690  0.149929  1
  Ni  Ni4  1  0.615536  0.153287  0.615642  1
  Ni  Ni5  1  0.153287  0.615536  0.615642  1
  Ni  Ni6  1  0.615536  0.615536  0.615642  1
  Ni  Ni7  1  0.384517  0.384517  0.846448  1
  Ni  Ni8  1  0.384305  0.846989  0.384400  1
  Ni  Ni9  1  0.846989  0.384305  0.384400  1
  Ni  Ni10  1  0.384305  0.384305  0.384400  1
  Ni  Ni11  1  0.999853  0.999853  0.340110  1
  Ni  Ni12  1  0.660182  0.999853  0.340110  1
  Ni  Ni13  1  0.999853  0.660182  0.340110  1
  Ni  Ni14  1  0.659128  0.339709  0.000293  1
  Ni  Ni15  1  0.000869  0.339709  0.000293  1
  Ni  Ni16  1  0.000066  0.341283  0.658583  1
  Ni  Ni17  1  0.339709  0.659128  0.000293  1
  Ni  Ni18  1  0.341283  0.000066  0.658583  1
  Ni  Ni19  1  0.339709  0.000869  0.000293  1
  Ni  Ni20  1  0.000066  0.000066  0.658583  1
  Ni  Ni21  1  0.000869  0.659128  0.000293  1
  Ni  Ni22  1  0.659128  0.000869  0.000293  1
  B  B23  1  0.730581  0.730581  0.267102  1
  B  B24  1  0.271737  0.730581  0.267102  1
  B  B25  1  0.730581  0.271737  0.267102  1
  B  B26  1  0.267606  0.267606  0.732582  1
  B  B27  1  0.732205  0.267606  0.732582  1
  B  B28  1  0.267606  0.732205  0.732582  1
