# generated using pymatgen
data_Er4Al(SiB4)2
_symmetry_space_group_name_H-M   'P 1'
_cell_length_a   7.11623400
_cell_length_b   7.11623400
_cell_length_c   7.58608900
_cell_angle_alpha   90.00000000
_cell_angle_beta   90.00000000
_cell_angle_gamma   90.00000000
_symmetry_Int_Tables_number   1
_chemical_formula_structural   Er4Al(SiB4)2
_chemical_formula_sum   'Er8 Al2 Si4 B16'
_cell_volume   384.16551223
_cell_formula_units_Z   2
loop_
 _symmetry_equiv_pos_site_id
 _symmetry_equiv_pos_as_xyz
  1  'x, y, z'
loop_
 _atom_site_type_symbol
 _atom_site_label
 _atom_site_symmetry_multiplicity
 _atom_site_fract_x
 _atom_site_fract_y
 _atom_site_fract_z
 _atom_site_occupancy
  Er  Er0  1  0.681050  0.181050  0.234220  1
  Er  Er1  1  0.318950  0.818950  0.765780  1
  Er  Er2  1  0.318950  0.818950  0.234220  1
  Er  Er3  1  0.818950  0.681050  0.234220  1
  Er  Er4  1  0.818950  0.681050  0.765780  1
  Er  Er5  1  0.681050  0.181050  0.765780  1
  Er  Er6  1  0.181050  0.318950  0.765780  1
  Er  Er7  1  0.181050  0.318950  0.234220  1
  Al  Al8  1  0.000000  0.000000  0.500000  1
  Al  Al9  1  0.500000  0.500000  0.500000  1
  Si  Si10  1  0.117576  0.617576  0.500000  1
  Si  Si11  1  0.882424  0.382424  0.500000  1
  Si  Si12  1  0.382424  0.117576  0.500000  1
  Si  Si13  1  0.617576  0.882424  0.500000  1
  B  B14  1  0.174009  0.039800  0.000000  1
  B  B15  1  0.825991  0.960200  0.000000  1
  B  B16  1  0.960200  0.174009  0.000000  1
  B  B17  1  0.325991  0.539800  0.000000  1
  B  B18  1  0.039800  0.825991  0.000000  1
  B  B19  1  0.674009  0.460200  0.000000  1
  B  B20  1  0.539800  0.674009  0.000000  1
  B  B21  1  0.460200  0.325991  0.000000  1
  B  B22  1  0.088949  0.588949  0.000000  1
  B  B23  1  0.911051  0.411051  0.000000  1
  B  B24  1  0.411051  0.088949  0.000000  1
  B  B25  1  0.588949  0.911051  0.000000  1
  B  B26  1  0.000000  0.000000  0.170638  1
  B  B27  1  0.000000  0.000000  0.829362  1
  B  B28  1  0.500000  0.500000  0.829362  1
  B  B29  1  0.500000  0.500000  0.170638  1
