# generated using pymatgen
data_Tm9Lu(PPb3)2
_symmetry_space_group_name_H-M   'P 1'
_cell_length_a   9.02062300
_cell_length_b   9.02062303
_cell_length_c   6.70581500
_cell_angle_alpha   90.00000000
_cell_angle_beta   90.00000000
_cell_angle_gamma   119.99999622
_symmetry_Int_Tables_number   1
_chemical_formula_structural   Tm9Lu(PPb3)2
_chemical_formula_sum   'Tm9 Lu1 P2 Pb6'
_cell_volume   472.55817759
_cell_formula_units_Z   1
loop_
 _symmetry_equiv_pos_site_id
 _symmetry_equiv_pos_as_xyz
  1  'x, y, z'
loop_
 _atom_site_type_symbol
 _atom_site_label
 _atom_site_symmetry_multiplicity
 _atom_site_fract_x
 _atom_site_fract_y
 _atom_site_fract_z
 _atom_site_occupancy
  Tm  Tm0  1  0.238126  0.999945  0.249971  1
  Tm  Tm1  1  0.761819  0.999945  0.750029  1
  Tm  Tm2  1  0.000055  0.238181  0.249971  1
  Tm  Tm3  1  0.333333  0.666667  0.500000  1
  Tm  Tm4  1  0.666667  0.333333  0.500000  1
  Tm  Tm5  1  0.666667  0.333333  0.000000  1
  Tm  Tm6  1  0.000055  0.761874  0.750029  1
  Tm  Tm7  1  0.238126  0.238181  0.750029  1
  Tm  Tm8  1  0.761819  0.761874  0.249971  1
  Lu  Lu9  1  0.333333  0.666667  0.000000  1
  P  P10  1  0.000000  0.000000  0.000000  1
  P  P11  1  0.000000  0.000000  0.500000  1
  Pb  Pb12  1  0.400248  0.999905  0.750062  1
  Pb  Pb13  1  0.000095  0.400343  0.750062  1
  Pb  Pb14  1  0.400248  0.400343  0.249938  1
  Pb  Pb15  1  0.599657  0.999905  0.249938  1
  Pb  Pb16  1  0.000095  0.599752  0.249938  1
  Pb  Pb17  1  0.599657  0.599752  0.750062  1
