# generated using pymatgen
data_Cs2In2As2O
_symmetry_space_group_name_H-M   'P 1'
_cell_length_a   4.42495951
_cell_length_b   7.03514726
_cell_length_c   8.09066503
_cell_angle_alpha   79.67669683
_cell_angle_beta   105.83127753
_cell_angle_gamma   71.66944088
_symmetry_Int_Tables_number   1
_chemical_formula_structural   Cs2In2As2O
_chemical_formula_sum   'Cs2 In2 As2 O1'
_cell_volume   220.11909579
_cell_formula_units_Z   1
loop_
 _symmetry_equiv_pos_site_id
 _symmetry_equiv_pos_as_xyz
  1  'x, y, z'
loop_
 _atom_site_type_symbol
 _atom_site_label
 _atom_site_symmetry_multiplicity
 _atom_site_fract_x
 _atom_site_fract_y
 _atom_site_fract_z
 _atom_site_occupancy
  Cs  Cs0  1  0.742338  0.202564  0.687539  1
  Cs  Cs1  1  0.257659  0.797425  0.312483  1
  In  In2  1  0.612950  0.711251  0.936746  1
  In  In3  1  0.387053  0.288761  0.063236  1
  As  As4  1  0.937673  0.364349  0.240393  1
  As  As5  1  0.062329  0.635661  0.759585  1
  O  O6  1  0.499998  0.999990  0.000016  1
