# generated using pymatgen
data_Ho16In6OsRh
_symmetry_space_group_name_H-M   'P 1'
_cell_length_a   10.37464700
_cell_length_b   10.37464737
_cell_length_c   7.02280700
_cell_angle_alpha   90.00000000
_cell_angle_beta   90.00000000
_cell_angle_gamma   120.00000200
_symmetry_Int_Tables_number   1
_chemical_formula_structural   Ho16In6OsRh
_chemical_formula_sum   'Ho16 In6 Os1 Rh1'
_cell_volume   654.61813014
_cell_formula_units_Z   1
loop_
 _symmetry_equiv_pos_site_id
 _symmetry_equiv_pos_as_xyz
  1  'x, y, z'
loop_
 _atom_site_type_symbol
 _atom_site_label
 _atom_site_symmetry_multiplicity
 _atom_site_fract_x
 _atom_site_fract_y
 _atom_site_fract_z
 _atom_site_occupancy
  Ho  Ho0  1  0.532631  0.065260  0.507956  1
  Ho  Ho1  1  0.934740  0.467369  0.507956  1
  Ho  Ho2  1  0.532631  0.467369  0.507956  1
  Ho  Ho3  1  0.466582  0.933166  0.006818  1
  Ho  Ho4  1  0.066834  0.533418  0.006818  1
  Ho  Ho5  1  0.466582  0.533418  0.006818  1
  Ho  Ho6  1  0.177077  0.354154  0.712950  1
  Ho  Ho7  1  0.645846  0.822923  0.712950  1
  Ho  Ho8  1  0.177077  0.822923  0.712950  1
  Ho  Ho9  1  0.823390  0.646781  0.212207  1
  Ho  Ho10  1  0.353219  0.176610  0.212207  1
  Ho  Ho11  1  0.823390  0.176610  0.212207  1
  Ho  Ho12  1  0.666667  0.333333  0.885304  1
  Ho  Ho13  1  0.333333  0.666667  0.385099  1
  Ho  Ho14  1  0.000000  0.000000  0.492018  1
  Ho  Ho15  1  0.000000  0.000000  0.993097  1
  In  In16  1  0.837048  0.674096  0.752994  1
  In  In17  1  0.325904  0.162952  0.752994  1
  In  In18  1  0.837048  0.162952  0.752994  1
  In  In19  1  0.162552  0.325104  0.252870  1
  In  In20  1  0.674896  0.837448  0.252870  1
  In  In21  1  0.162552  0.837448  0.252870  1
  Os  Os22  1  0.333333  0.666667  0.783232  1
  Rh  Rh23  1  0.666667  0.333333  0.281915  1
