# generated using pymatgen
data_Mn2TeMoO7
_symmetry_space_group_name_H-M   'P 1'
_cell_length_a   8.90314800
_cell_length_b   5.44859750
_cell_length_c   7.42087684
_cell_angle_alpha   79.65193621
_cell_angle_beta   90.00000000
_cell_angle_gamma   90.00000000
_symmetry_Int_Tables_number   1
_chemical_formula_structural   Mn2TeMoO7
_chemical_formula_sum   'Mn4 Te2 Mo2 O14'
_cell_volume   354.12903335
_cell_formula_units_Z   2
loop_
 _symmetry_equiv_pos_site_id
 _symmetry_equiv_pos_as_xyz
  1  'x, y, z'
loop_
 _atom_site_type_symbol
 _atom_site_label
 _atom_site_symmetry_multiplicity
 _atom_site_fract_x
 _atom_site_fract_y
 _atom_site_fract_z
 _atom_site_occupancy
  Mn  Mn0  1  0.463441  0.947901  0.510466  1
  Mn  Mn1  1  0.963441  0.052099  0.489534  1
  Mn  Mn2  1  0.639017  0.532765  0.237773  1
  Mn  Mn3  1  0.139017  0.467235  0.762227  1
  Te  Te4  1  0.758420  0.505516  0.646235  1
  Te  Te5  1  0.258420  0.494484  0.353765  1
  Mo  Mo6  1  0.466902  0.089373  0.986735  1
  Mo  Mo7  1  0.966902  0.910627  0.013265  1
  O  O8  1  0.942267  0.688620  0.631484  1
  O  O9  1  0.442267  0.311380  0.368516  1
  O  O10  1  0.654717  0.744146  0.469313  1
  O  O11  1  0.154717  0.255854  0.530687  1
  O  O12  1  0.453241  0.815005  0.169855  1
  O  O13  1  0.953241  0.184995  0.830145  1
  O  O14  1  0.791434  0.317085  0.455719  1
  O  O15  1  0.291434  0.682915  0.544281  1
  O  O16  1  0.610546  0.294653  0.040522  1
  O  O17  1  0.110546  0.705347  0.959478  1
  O  O18  1  0.291842  0.252934  0.953097  1
  O  O19  1  0.791842  0.747066  0.046903  1
  O  O20  1  0.518533  0.999530  0.774051  1
  O  O21  1  0.018533  0.000470  0.225949  1
