# generated using pymatgen
data_PmNd(SiAu)2
_symmetry_space_group_name_H-M   'P 1'
_cell_length_a   6.03345725
_cell_length_b   6.03345640
_cell_length_c   6.03345768
_cell_angle_alpha   138.63252535
_cell_angle_beta   102.75507868
_cell_angle_gamma   91.64631774
_symmetry_Int_Tables_number   1
_chemical_formula_structural   PmNd(SiAu)2
_chemical_formula_sum   'Pm1 Nd1 Si2 Au2'
_cell_volume   134.97702396
_cell_formula_units_Z   1
loop_
 _symmetry_equiv_pos_site_id
 _symmetry_equiv_pos_as_xyz
  1  'x, y, z'
loop_
 _atom_site_type_symbol
 _atom_site_label
 _atom_site_symmetry_multiplicity
 _atom_site_fract_x
 _atom_site_fract_y
 _atom_site_fract_z
 _atom_site_occupancy
  Pm  Pm0  1  0.001273  0.000000  0.001273  1
  Nd  Nd1  1  0.501065  0.500000  0.001065  1
  Si  Si2  1  0.914669  0.250673  0.663997  1
  Si  Si3  1  0.413323  0.749326  0.663996  1
  Au  Au4  1  0.585479  0.250646  0.334834  1
  Au  Au5  1  0.084188  0.749353  0.334834  1
