# generated using pymatgen
data_TbZn(GaCo)2
_symmetry_space_group_name_H-M   'P 1'
_cell_length_a   4.11309700
_cell_length_b   8.87877520
_cell_length_c   8.87877686
_cell_angle_alpha   60.10740265
_cell_angle_beta   90.00000000
_cell_angle_gamma   90.00000000
_symmetry_Int_Tables_number   1
_chemical_formula_structural   TbZn(GaCo)2
_chemical_formula_sum   'Tb3 Zn3 Ga6 Co6'
_cell_volume   281.10902443
_cell_formula_units_Z   3
loop_
 _symmetry_equiv_pos_site_id
 _symmetry_equiv_pos_as_xyz
  1  'x, y, z'
loop_
 _atom_site_type_symbol
 _atom_site_label
 _atom_site_symmetry_multiplicity
 _atom_site_fract_x
 _atom_site_fract_y
 _atom_site_fract_z
 _atom_site_occupancy
  Tb  Tb0  1  0.500000  0.333275  0.333336  1
  Tb  Tb1  1  0.500000  0.666664  0.666725  1
  Tb  Tb2  1  0.000000  0.000055  0.999945  1
  Zn  Zn3  1  0.500000  0.293775  0.706225  1
  Zn  Zn4  1  0.500000  0.706126  0.999973  1
  Zn  Zn5  1  0.500000  0.000027  0.293874  1
  Ga  Ga6  1  0.000000  0.494071  0.505929  1
  Ga  Ga7  1  0.000000  0.505871  0.999983  1
  Ga  Ga8  1  0.000000  0.000017  0.494129  1
  Ga  Ga9  1  0.500000  0.716019  0.283981  1
  Ga  Ga10  1  0.500000  0.284038  0.000066  1
  Ga  Ga11  1  0.500000  0.999934  0.715962  1
  Co  Co12  1  0.000000  0.188549  0.178820  1
  Co  Co13  1  0.000000  0.178854  0.632587  1
  Co  Co14  1  0.000000  0.632601  0.188567  1
  Co  Co15  1  0.000000  0.821180  0.811451  1
  Co  Co16  1  0.000000  0.367413  0.821146  1
  Co  Co17  1  0.000000  0.811433  0.367399  1
