# generated using pymatgen
data_DyEr5Hf2(Co4P3)4
_symmetry_space_group_name_H-M   'P 1'
_cell_length_a   3.70043900
_cell_length_b   10.65320900
_cell_length_c   12.33347100
_cell_angle_alpha   90.00000000
_cell_angle_beta   90.00000000
_cell_angle_gamma   90.00000000
_symmetry_Int_Tables_number   1
_chemical_formula_structural   DyEr5Hf2(Co4P3)4
_chemical_formula_sum   'Dy1 Er5 Hf2 Co16 P12'
_cell_volume   486.20454442
_cell_formula_units_Z   1
loop_
 _symmetry_equiv_pos_site_id
 _symmetry_equiv_pos_as_xyz
  1  'x, y, z'
loop_
 _atom_site_type_symbol
 _atom_site_label
 _atom_site_symmetry_multiplicity
 _atom_site_fract_x
 _atom_site_fract_y
 _atom_site_fract_z
 _atom_site_occupancy
  Dy  Dy0  1  0.750000  0.250000  0.470799  1
  Er  Er1  1  0.250000  0.750000  0.529091  1
  Er  Er2  1  0.250000  0.927572  0.795425  1
  Er  Er3  1  0.250000  0.572428  0.795425  1
  Er  Er4  1  0.750000  0.072022  0.204475  1
  Er  Er5  1  0.750000  0.427978  0.204475  1
  Hf  Hf6  1  0.250000  0.250000  0.842004  1
  Hf  Hf7  1  0.750000  0.750000  0.158392  1
  Co  Co8  1  0.250000  0.250000  0.296162  1
  Co  Co9  1  0.750000  0.750000  0.703147  1
  Co  Co10  1  0.750000  0.250000  0.013020  1
  Co  Co11  1  0.250000  0.750000  0.986935  1
  Co  Co12  1  0.250000  0.417835  0.006505  1
  Co  Co13  1  0.250000  0.082165  0.006505  1
  Co  Co14  1  0.750000  0.582330  0.993418  1
  Co  Co15  1  0.750000  0.917670  0.993418  1
  Co  Co16  1  0.250000  0.455320  0.566940  1
  Co  Co17  1  0.250000  0.044680  0.566940  1
  Co  Co18  1  0.750000  0.545631  0.433249  1
  Co  Co19  1  0.750000  0.954369  0.433249  1
  Co  Co20  1  0.250000  0.872416  0.297048  1
  Co  Co21  1  0.250000  0.627584  0.297048  1
  Co  Co22  1  0.750000  0.127250  0.703127  1
  Co  Co23  1  0.750000  0.372750  0.703127  1
  P  P24  1  0.250000  0.250000  0.116403  1
  P  P25  1  0.750000  0.750000  0.883320  1
  P  P26  1  0.250000  0.250000  0.637922  1
  P  P27  1  0.750000  0.750000  0.362835  1
  P  P28  1  0.250000  0.439630  0.383769  1
  P  P29  1  0.250000  0.060370  0.383769  1
  P  P30  1  0.750000  0.561095  0.616054  1
  P  P31  1  0.750000  0.938905  0.616054  1
  P  P32  1  0.250000  0.912011  0.107493  1
  P  P33  1  0.250000  0.587989  0.107493  1
  P  P34  1  0.750000  0.087877  0.892481  1
  P  P35  1  0.750000  0.412123  0.892481  1
