# generated using pymatgen
data_La16TlCd3Ir3Os
_symmetry_space_group_name_H-M   'P 1'
_cell_length_a   10.15237037
_cell_length_b   10.15237054
_cell_length_c   10.15275778
_cell_angle_alpha   59.73040498
_cell_angle_beta   59.73039880
_cell_angle_gamma   59.73359569
_symmetry_Int_Tables_number   1
_chemical_formula_structural   La16TlCd3Ir3Os
_chemical_formula_sum   'La16 Tl1 Cd3 Ir3 Os1'
_cell_volume   735.44004497
_cell_formula_units_Z   1
loop_
 _symmetry_equiv_pos_site_id
 _symmetry_equiv_pos_as_xyz
  1  'x, y, z'
loop_
 _atom_site_type_symbol
 _atom_site_label
 _atom_site_symmetry_multiplicity
 _atom_site_fract_x
 _atom_site_fract_y
 _atom_site_fract_z
 _atom_site_occupancy
  La  La0  1  0.596601  0.596601  0.596695  1
  La  La1  1  0.595928  0.595928  0.209945  1
  La  La2  1  0.595858  0.210032  0.595907  1
  La  La3  1  0.210032  0.595858  0.595907  1
  La  La4  1  0.063043  0.438894  0.438939  1
  La  La5  1  0.441175  0.058556  0.058604  1
  La  La6  1  0.438894  0.063043  0.438939  1
  La  La7  1  0.058556  0.441175  0.058604  1
  La  La8  1  0.438892  0.438892  0.063064  1
  La  La9  1  0.058621  0.058621  0.441171  1
  La  La10  1  0.191598  0.810004  0.809927  1
  La  La11  1  0.806619  0.191476  0.191457  1
  La  La12  1  0.810004  0.191598  0.809927  1
  La  La13  1  0.191476  0.806619  0.191457  1
  La  La14  1  0.810012  0.810012  0.191510  1
  La  La15  1  0.191458  0.191458  0.806613  1
  Tl  Tl16  1  0.830716  0.830716  0.830720  1
  Cd  Cd17  1  0.828893  0.828893  0.510791  1
  Cd  Cd18  1  0.828876  0.510806  0.828899  1
  Cd  Cd19  1  0.510806  0.828876  0.828899  1
  Ir  Ir20  1  0.391710  0.391710  0.828354  1
  Ir  Ir21  1  0.391728  0.828340  0.391740  1
  Ir  Ir22  1  0.828340  0.391728  0.391740  1
  Os  Os23  1  0.390164  0.390164  0.390190  1
