# generated using pymatgen
data_Cs4Ga4Si3GeSe16
_symmetry_space_group_name_H-M   'P 1'
_cell_length_a   17.31252933
_cell_length_b   7.30779065
_cell_length_c   8.24239764
_cell_angle_alpha   70.31416637
_cell_angle_beta   90.25535870
_cell_angle_gamma   90.10868260
_symmetry_Int_Tables_number   1
_chemical_formula_structural   Cs4Ga4Si3GeSe16
_chemical_formula_sum   'Cs4 Ga4 Si3 Ge1 Se16'
_cell_volume   981.84063012
_cell_formula_units_Z   1
loop_
 _symmetry_equiv_pos_site_id
 _symmetry_equiv_pos_as_xyz
  1  'x, y, z'
loop_
 _atom_site_type_symbol
 _atom_site_label
 _atom_site_symmetry_multiplicity
 _atom_site_fract_x
 _atom_site_fract_y
 _atom_site_fract_z
 _atom_site_occupancy
  Cs  Cs0  1  0.396964  0.954993  0.180777  1
  Cs  Cs1  1  0.896136  0.045611  0.818493  1
  Cs  Cs2  1  0.603161  0.527345  0.831473  1
  Cs  Cs3  1  0.102076  0.472278  0.168699  1
  Ga  Ga4  1  0.585872  0.165302  0.477516  1
  Ga  Ga5  1  0.083896  0.832293  0.522254  1
  Ga  Ga6  1  0.271170  0.591474  0.698996  1
  Ga  Ga7  1  0.771654  0.410955  0.301672  1
  Si  Si8  1  0.920341  0.684619  0.458198  1
  Si  Si9  1  0.727119  0.913473  0.280199  1
  Si  Si10  1  0.225207  0.084990  0.719816  1
  Ge  Ge11  1  0.419270  0.317555  0.541761  1
  Se  Se12  1  0.602049  0.888824  0.376968  1
  Se  Se13  1  0.099720  0.108273  0.624019  1
  Se  Se14  1  0.408729  0.595330  0.630160  1
  Se  Se15  1  0.909005  0.416369  0.374435  1
  Se  Se16  1  0.802408  0.789661  0.528830  1
  Se  Se17  1  0.296652  0.206720  0.468103  1
  Se  Se18  1  0.199753  0.715885  0.435476  1
  Se  Se19  1  0.701381  0.284678  0.565059  1
  Se  Se20  1  0.764139  0.218630  0.107302  1
  Se  Se21  1  0.263358  0.781492  0.894746  1
  Se  Se22  1  0.236402  0.265895  0.898157  1
  Se  Se23  1  0.735808  0.734428  0.100097  1
  Se  Se24  1  0.996133  0.918344  0.268408  1
  Se  Se25  1  0.500152  0.074987  0.734336  1
  Se  Se26  1  0.988974  0.606157  0.712674  1
  Se  Se27  1  0.492463  0.393438  0.281377  1
