# generated using pymatgen
data_AcCuSiIr3
_symmetry_space_group_name_H-M   'P 1'
_cell_length_a   6.87332447
_cell_length_b   6.86920922
_cell_length_c   6.87332400
_cell_angle_alpha   130.80961063
_cell_angle_beta   112.71614409
_cell_angle_gamma   87.74506675
_symmetry_Int_Tables_number   1
_chemical_formula_structural   AcCuSiIr3
_chemical_formula_sum   'Ac2 Cu2 Si2 Ir6'
_cell_volume   215.76583004
_cell_formula_units_Z   2
loop_
 _symmetry_equiv_pos_site_id
 _symmetry_equiv_pos_as_xyz
  1  'x, y, z'
loop_
 _atom_site_type_symbol
 _atom_site_label
 _atom_site_symmetry_multiplicity
 _atom_site_fract_x
 _atom_site_fract_y
 _atom_site_fract_z
 _atom_site_occupancy
  Ac  Ac0  1  0.235077  0.979399  0.744323  1
  Ac  Ac1  1  0.764923  0.020601  0.255677  1
  Cu  Cu2  1  0.075557  0.312943  0.237385  1
  Cu  Cu3  1  0.924443  0.687057  0.762615  1
  Si  Si4  1  0.407286  0.649724  0.242438  1
  Si  Si5  1  0.592714  0.350276  0.757562  1
  Ir  Ir6  1  0.500000  0.500000  0.500000  1
  Ir  Ir7  1  0.000000  0.500000  0.000000  1
  Ir  Ir8  1  0.279012  0.000000  0.279012  1
  Ir  Ir9  1  0.720988  0.000000  0.720988  1
  Ir  Ir10  1  0.270234  0.500000  0.770234  1
  Ir  Ir11  1  0.729766  0.500000  0.229766  1
