# generated using pymatgen
data_Yb11DyAl8(SiO4)12
_symmetry_space_group_name_H-M   'P 1'
_cell_length_a   10.30877908
_cell_length_b   10.28357110
_cell_length_c   10.30877613
_cell_angle_alpha   109.52995854
_cell_angle_beta   109.45309065
_cell_angle_gamma   109.53000931
_symmetry_Int_Tables_number   1
_chemical_formula_structural   Yb11DyAl8(SiO4)12
_chemical_formula_sum   'Yb11 Dy1 Al8 Si12 O48'
_cell_volume   840.23800328
_cell_formula_units_Z   1
loop_
 _symmetry_equiv_pos_site_id
 _symmetry_equiv_pos_as_xyz
  1  'x, y, z'
loop_
 _atom_site_type_symbol
 _atom_site_label
 _atom_site_symmetry_multiplicity
 _atom_site_fract_x
 _atom_site_fract_y
 _atom_site_fract_z
 _atom_site_occupancy
  Yb  Yb0  1  0.249700  0.376962  0.122745  1
  Yb  Yb1  1  0.377254  0.123036  0.250301  1
  Yb  Yb2  1  0.875223  0.624575  0.250126  1
  Yb  Yb3  1  0.745782  0.123037  0.372736  1
  Yb  Yb4  1  0.124999  0.249999  0.375000  1
  Yb  Yb5  1  0.875001  0.750001  0.625001  1
  Yb  Yb6  1  0.249873  0.875423  0.624777  1
  Yb  Yb7  1  0.127264  0.376963  0.754218  1
  Yb  Yb8  1  0.625550  0.875424  0.750647  1
  Yb  Yb9  1  0.749353  0.624576  0.874450  1
  Yb  Yb10  1  0.625000  0.250000  0.875000  1
  Dy  Dy11  1  0.374999  0.749998  0.124999  1
  Al  Al12  1  0.000698  0.001325  0.000426  1
  Al  Al13  1  0.500972  0.001549  0.999925  1
  Al  Al14  1  0.998375  0.498451  0.999422  1
  Al  Al15  1  0.500076  0.498450  0.999028  1
  Al  Al16  1  0.000627  0.001325  0.500900  1
  Al  Al17  1  0.499576  0.498676  0.499303  1
  Al  Al18  1  0.999100  0.498675  0.499373  1
  Al  Al19  1  0.500577  0.001549  0.501625  1
  Si  Si20  1  0.875154  0.250000  0.125154  1
  Si  Si21  1  0.751222  0.874215  0.124437  1
  Si  Si22  1  0.625063  0.375642  0.249827  1
  Si  Si23  1  0.122993  0.874214  0.249778  1
  Si  Si24  1  0.250222  0.625785  0.377007  1
  Si  Si25  1  0.628876  0.750000  0.378876  1
  Si  Si26  1  0.750579  0.375642  0.625816  1
  Si  Si27  1  0.374845  0.250000  0.624846  1
  Si  Si28  1  0.874184  0.124358  0.749420  1
  Si  Si29  1  0.375564  0.625785  0.748778  1
  Si  Si30  1  0.250173  0.124357  0.874937  1
  Si  Si31  1  0.121124  0.750000  0.871125  1
  O  O32  1  0.198226  0.114089  0.008961  1
  O  O33  1  0.308439  0.893159  0.005272  1
  O  O34  1  0.698692  0.687898  0.083801  1
  O  O35  1  0.885747  0.395189  0.084094  1
  O  O36  1  0.614462  0.416572  0.104768  1
  O  O37  1  0.989206  0.687898  0.104097  1
  O  O38  1  0.009333  0.198519  0.114305  1
  O  O39  1  0.604241  0.913019  0.111286  1
  O  O40  1  0.198267  0.586980  0.191221  1
  O  O41  1  0.494728  0.606840  0.191562  1
  O  O42  1  0.114780  0.009127  0.198285  1
  O  O43  1  0.584509  0.189440  0.197055  1
  O  O44  1  0.308779  0.913019  0.301733  1
  O  O45  1  0.491039  0.385911  0.301775  1
  O  O46  1  0.915785  0.301481  0.310813  1
  O  O47  1  0.894347  0.009127  0.310842  1
  O  O48  1  0.584721  0.893160  0.387888  1
  O  O49  1  0.301716  0.490874  0.385221  1
  O  O50  1  0.811225  0.509584  0.394869  1
  O  O51  1  0.082912  0.885783  0.395073  1
  O  O52  1  0.813487  0.802174  0.417888  1
  O  O53  1  0.104927  0.614217  0.417088  1
  O  O54  1  0.385695  0.301481  0.490667  1
  O  O55  1  0.604930  0.189439  0.492384  1
  O  O56  1  0.395903  0.812102  0.510795  1
  O  O57  1  0.615715  0.697827  0.511313  1
  O  O58  1  0.894871  0.385911  0.584136  1
  O  O59  1  0.189186  0.198518  0.584214  1
  O  O60  1  0.915863  0.114089  0.605128  1
  O  O61  1  0.189158  0.490874  0.605653  1
  O  O62  1  0.415905  0.104811  0.614253  1
  O  O63  1  0.698359  0.509584  0.614715  1
  O  O64  1  0.105132  0.990416  0.688775  1
  O  O65  1  0.082112  0.697826  0.686514  1
  O  O66  1  0.688196  0.083427  0.697889  1
  O  O67  1  0.509291  0.614218  0.697130  1
  O  O68  1  0.416199  0.812102  0.801308  1
  O  O69  1  0.885285  0.990417  0.801641  1
  O  O70  1  0.509442  0.395190  0.811095  1
  O  O71  1  0.802111  0.416573  0.811804  1
  O  O72  1  0.395231  0.083427  0.885538  1
  O  O73  1  0.988688  0.802174  0.884286  1
  O  O74  1  0.388713  0.586981  0.895759  1
  O  O75  1  0.007616  0.310560  0.895070  1
  O  O76  1  0.302945  0.310560  0.915491  1
  O  O77  1  0.112112  0.606840  0.915278  1
  O  O78  1  0.688905  0.104810  0.990557  1
  O  O79  1  0.802870  0.885783  0.990710  1
