# generated using pymatgen
data_AuClF8
_symmetry_space_group_name_H-M   'P 1'
_cell_length_a   5.89477630
_cell_length_b   5.89477638
_cell_length_c   10.62623323
_cell_angle_alpha   74.41071487
_cell_angle_beta   74.41071580
_cell_angle_gamma   86.54180131
_symmetry_Int_Tables_number   1
_chemical_formula_structural   AuClF8
_chemical_formula_sum   'Au2 Cl2 F16'
_cell_volume   342.54908011
_cell_formula_units_Z   2
loop_
 _symmetry_equiv_pos_site_id
 _symmetry_equiv_pos_as_xyz
  1  'x, y, z'
loop_
 _atom_site_type_symbol
 _atom_site_label
 _atom_site_symmetry_multiplicity
 _atom_site_fract_x
 _atom_site_fract_y
 _atom_site_fract_z
 _atom_site_occupancy
  Au  Au0  1  0.000000  0.000000  0.500000  1
  Au  Au1  1  0.000000  0.000000  0.000000  1
  Cl  Cl2  1  0.335778  0.664222  0.250000  1
  Cl  Cl3  1  0.664222  0.335778  0.750000  1
  F  F4  1  0.597179  0.535482  0.831471  1
  F  F5  1  0.464518  0.402821  0.668529  1
  F  F6  1  0.402821  0.464518  0.168529  1
  F  F7  1  0.535482  0.597179  0.331471  1
  F  F8  1  0.193430  0.230486  0.526773  1
  F  F9  1  0.769514  0.806570  0.973227  1
  F  F10  1  0.806570  0.769514  0.473227  1
  F  F11  1  0.230486  0.193430  0.026773  1
  F  F12  1  0.255691  0.964960  0.344088  1
  F  F13  1  0.035040  0.744309  0.155912  1
  F  F14  1  0.744309  0.035040  0.655912  1
  F  F15  1  0.964960  0.255691  0.844088  1
  F  F16  1  0.876034  0.257100  0.379659  1
  F  F17  1  0.742900  0.123966  0.120341  1
  F  F18  1  0.123966  0.742900  0.620341  1
  F  F19  1  0.257100  0.876034  0.879659  1
