# generated using pymatgen
data_Dy5Sc3(OsI4)2
_symmetry_space_group_name_H-M   'P 1'
_cell_length_a   11.38690188
_cell_length_b   11.46795333
_cell_length_c   6.04994392
_cell_angle_alpha   90.01902784
_cell_angle_beta   89.86023372
_cell_angle_gamma   90.29478839
_symmetry_Int_Tables_number   1
_chemical_formula_structural   Dy5Sc3(OsI4)2
_chemical_formula_sum   'Dy5 Sc3 Os2 I8'
_cell_volume   790.01580866
_cell_formula_units_Z   1
loop_
 _symmetry_equiv_pos_site_id
 _symmetry_equiv_pos_as_xyz
  1  'x, y, z'
loop_
 _atom_site_type_symbol
 _atom_site_label
 _atom_site_symmetry_multiplicity
 _atom_site_fract_x
 _atom_site_fract_y
 _atom_site_fract_z
 _atom_site_occupancy
  Dy  Dy0  1  0.196857  0.085486  0.500908  1
  Dy  Dy1  1  0.920604  0.801264  0.001419  1
  Dy  Dy2  1  0.918273  0.198215  0.501567  1
  Dy  Dy3  1  0.197271  0.916126  0.000200  1
  Dy  Dy4  1  0.800199  0.922095  0.502001  1
  Sc  Sc5  1  0.818964  0.073099  0.003953  1
  Sc  Sc6  1  0.074186  0.820717  0.502673  1
  Sc  Sc7  1  0.076038  0.179614  0.002243  1
  Os  Os8  1  0.000134  0.999617  0.250972  1
  Os  Os9  1  0.999774  0.000108  0.752234  1
  I  I10  1  0.647224  0.147795  0.488427  1
  I  I11  1  0.862471  0.653389  0.503698  1
  I  I12  1  0.342300  0.151591  0.996020  1
  I  I13  1  0.146128  0.352384  0.492053  1
  I  I14  1  0.650625  0.863332  0.003961  1
  I  I15  1  0.341974  0.850572  0.504938  1
  I  I16  1  0.146794  0.648599  0.988673  1
  I  I17  1  0.860186  0.335998  0.004059  1
