# generated using pymatgen
data_La12Ru3PtBr12
_symmetry_space_group_name_H-M   'P 1'
_cell_length_a   10.65466037
_cell_length_b   10.65465970
_cell_length_c   10.60949700
_cell_angle_alpha   109.38537799
_cell_angle_beta   109.38537672
_cell_angle_gamma   109.55692386
_symmetry_Int_Tables_number   1
_chemical_formula_structural   La12Ru3PtBr12
_chemical_formula_sum   'La12 Ru3 Pt1 Br12'
_cell_volume   928.13493606
_cell_formula_units_Z   1
loop_
 _symmetry_equiv_pos_site_id
 _symmetry_equiv_pos_as_xyz
  1  'x, y, z'
loop_
 _atom_site_type_symbol
 _atom_site_label
 _atom_site_symmetry_multiplicity
 _atom_site_fract_x
 _atom_site_fract_y
 _atom_site_fract_z
 _atom_site_occupancy
  La  La0  1  0.262063  0.739984  0.229424  1
  La  La1  1  0.477920  0.739984  0.010560  1
  La  La2  1  0.233723  0.467446  0.483723  1
  La  La3  1  0.015464  0.030930  0.265464  1
  La  La4  1  0.233723  0.266277  0.750000  1
  La  La5  1  0.015464  0.484536  0.750000  1
  La  La6  1  0.477920  0.237937  0.467359  1
  La  La7  1  0.262063  0.022080  0.032641  1
  La  La8  1  0.760016  0.237937  0.270576  1
  La  La9  1  0.760016  0.022080  0.489440  1
  La  La10  1  0.469070  0.484536  0.234536  1
  La  La11  1  0.032554  0.266277  0.016277  1
  Ru  Ru12  1  0.251211  0.502422  0.001211  1
  Ru  Ru13  1  0.997578  0.248789  0.498789  1
  Ru  Ru14  1  0.251211  0.248789  0.250000  1
  Pt  Pt15  1  0.500000  0.000000  0.250000  1
  Br  Br16  1  0.248818  0.994861  0.503679  1
  Br  Br17  1  0.511886  0.505943  0.755943  1
  Br  Br18  1  0.248818  0.753957  0.745139  1
  Br  Br19  1  0.990774  0.745388  0.995388  1
  Br  Br20  1  0.994057  0.505943  0.250000  1
  Br  Br21  1  0.746043  0.994861  0.991180  1
  Br  Br22  1  0.754612  0.745388  0.250000  1
  Br  Br23  1  0.505139  0.753957  0.508820  1
  Br  Br24  1  0.505139  0.251182  0.996321  1
  Br  Br25  1  0.754612  0.509226  0.504612  1
  Br  Br26  1  0.746043  0.251182  0.754861  1
  Br  Br27  1  0.994057  0.988114  0.744057  1
