# generated using pymatgen
data_La12SnGe7Ir4
_symmetry_space_group_name_H-M   'P 1'
_cell_length_a   12.41566768
_cell_length_b   4.44879900
_cell_length_c   11.86318120
_cell_angle_alpha   90.00000000
_cell_angle_beta   90.28650366
_cell_angle_gamma   90.00000000
_symmetry_Int_Tables_number   1
_chemical_formula_structural   La12SnGe7Ir4
_chemical_formula_sum   'La12 Sn1 Ge7 Ir4'
_cell_volume   655.25236689
_cell_formula_units_Z   1
loop_
 _symmetry_equiv_pos_site_id
 _symmetry_equiv_pos_as_xyz
  1  'x, y, z'
loop_
 _atom_site_type_symbol
 _atom_site_label
 _atom_site_symmetry_multiplicity
 _atom_site_fract_x
 _atom_site_fract_y
 _atom_site_fract_z
 _atom_site_occupancy
  La  La0  1  0.382136  0.249999  0.053908  1
  La  La1  1  0.061130  0.249999  0.128958  1
  La  La2  1  0.772525  0.749999  0.207928  1
  La  La3  1  0.276836  0.749999  0.303066  1
  La  La4  1  0.555520  0.249999  0.374382  1
  La  La5  1  0.882821  0.249999  0.446188  1
  La  La6  1  0.117756  0.749999  0.552361  1
  La  La7  1  0.442474  0.749999  0.626187  1
  La  La8  1  0.724247  0.249999  0.696870  1
  La  La9  1  0.224085  0.249999  0.802007  1
  La  La10  1  0.953240  0.749999  0.865673  1
  La  La11  1  0.608320  0.749999  0.946714  1
  Sn  Sn12  1  0.806360  0.249999  0.997898  1
  Ge  Ge13  1  0.516692  0.749999  0.190255  1
  Ge  Ge14  1  0.018662  0.749999  0.311070  1
  Ge  Ge15  1  0.303594  0.249999  0.499187  1
  Ge  Ge16  1  0.696394  0.749999  0.500588  1
  Ge  Ge17  1  0.982163  0.249999  0.685911  1
  Ge  Ge18  1  0.480316  0.249999  0.809590  1
  Ge  Ge19  1  0.197659  0.749999  0.998722  1
  Ir  Ir20  1  0.624904  0.249999  0.139152  1
  Ir  Ir21  1  0.129498  0.249999  0.367053  1
  Ir  Ir22  1  0.871970  0.749999  0.630519  1
  Ir  Ir23  1  0.370699  0.749999  0.865812  1
