# generated using pymatgen
data_Zr6SnBiPt
_symmetry_space_group_name_H-M   'P 1'
_cell_length_a   7.99294900
_cell_length_b   7.99294848
_cell_length_c   3.70394000
_cell_angle_alpha   90.00000000
_cell_angle_beta   90.00000000
_cell_angle_gamma   120.00000628
_symmetry_Int_Tables_number   1
_chemical_formula_structural   Zr6SnBiPt
_chemical_formula_sum   'Zr6 Sn1 Bi1 Pt1'
_cell_volume   204.93144528
_cell_formula_units_Z   1
loop_
 _symmetry_equiv_pos_site_id
 _symmetry_equiv_pos_as_xyz
  1  'x, y, z'
loop_
 _atom_site_type_symbol
 _atom_site_label
 _atom_site_symmetry_multiplicity
 _atom_site_fract_x
 _atom_site_fract_y
 _atom_site_fract_z
 _atom_site_occupancy
  Zr  Zr0  1  0.396149  0.995006  0.000000  1
  Zr  Zr1  1  0.004994  0.401143  0.000000  1
  Zr  Zr2  1  0.598857  0.603850  0.000000  1
  Zr  Zr3  1  0.747448  0.996294  0.499999  1
  Zr  Zr4  1  0.248846  0.252552  0.499999  1
  Zr  Zr5  1  0.003706  0.751154  0.499999  1
  Sn  Sn6  1  0.333334  0.666667  0.499999  1
  Bi  Bi7  1  0.666666  0.333333  0.499999  1
  Pt  Pt8  1  0.000000  0.000000  0.000000  1
