# generated using pymatgen
data_Pr2Nd3(PtO6)2
_symmetry_space_group_name_H-M   'P 1'
_cell_length_a   7.16189235
_cell_length_b   7.16189272
_cell_length_c   7.57042234
_cell_angle_alpha   74.58393235
_cell_angle_beta   74.58393709
_cell_angle_gamma   50.96142000
_symmetry_Int_Tables_number   1
_chemical_formula_structural   Pr2Nd3(PtO6)2
_chemical_formula_sum   'Pr2 Nd3 Pt2 O12'
_cell_volume   288.23396306
_cell_formula_units_Z   1
loop_
 _symmetry_equiv_pos_site_id
 _symmetry_equiv_pos_as_xyz
  1  'x, y, z'
loop_
 _atom_site_type_symbol
 _atom_site_label
 _atom_site_symmetry_multiplicity
 _atom_site_fract_x
 _atom_site_fract_y
 _atom_site_fract_z
 _atom_site_occupancy
  Pr  Pr0  1  0.303729  0.303729  0.836441  1
  Pr  Pr1  1  0.000074  0.000074  0.499849  1
  Nd  Nd2  1  0.301712  0.301712  0.358694  1
  Nd  Nd3  1  0.698336  0.698336  0.640496  1
  Nd  Nd4  1  0.696217  0.696217  0.163873  1
  Pt  Pt5  1  0.752532  0.247410  0.000248  1
  Pt  Pt6  1  0.247410  0.752532  0.000248  1
  O  O7  1  0.095058  0.598447  0.574292  1
  O  O8  1  0.999678  0.999678  0.173085  1
  O  O9  1  0.402726  0.904019  0.424234  1
  O  O10  1  0.500193  0.500193  0.176943  1
  O  O11  1  0.099179  0.573910  0.082787  1
  O  O12  1  0.904019  0.402726  0.424234  1
  O  O13  1  0.000408  0.000408  0.826738  1
  O  O14  1  0.598447  0.095057  0.574292  1
  O  O15  1  0.500235  0.500235  0.823615  1
  O  O16  1  0.573910  0.099179  0.082787  1
  O  O17  1  0.427892  0.898245  0.918572  1
  O  O18  1  0.898245  0.427892  0.918572  1
