# generated using pymatgen
data_NbFeI8
_symmetry_space_group_name_H-M   'P 1'
_cell_length_a   11.18869792
_cell_length_b   11.18869728
_cell_length_c   9.96179100
_cell_angle_alpha   90.00000000
_cell_angle_beta   90.00000000
_cell_angle_gamma   127.85419069
_symmetry_Int_Tables_number   1
_chemical_formula_structural   NbFeI8
_chemical_formula_sum   'Nb2 Fe2 I16'
_cell_volume   984.66810260
_cell_formula_units_Z   2
loop_
 _symmetry_equiv_pos_site_id
 _symmetry_equiv_pos_as_xyz
  1  'x, y, z'
loop_
 _atom_site_type_symbol
 _atom_site_label
 _atom_site_symmetry_multiplicity
 _atom_site_fract_x
 _atom_site_fract_y
 _atom_site_fract_z
 _atom_site_occupancy
  Nb  Nb0  1  0.612042  0.387958  0.250000  1
  Nb  Nb1  1  0.387958  0.612042  0.750000  1
  Fe  Fe2  1  0.811808  0.188192  0.250000  1
  Fe  Fe3  1  0.188192  0.811808  0.750000  1
  I  I4  1  0.525021  0.069825  0.250000  1
  I  I5  1  0.069825  0.525021  0.750000  1
  I  I6  1  0.474979  0.930175  0.750000  1
  I  I7  1  0.930175  0.474979  0.250000  1
  I  I8  1  0.631385  0.368615  0.980735  1
  I  I9  1  0.368615  0.631385  0.019265  1
  I  I10  1  0.631385  0.368615  0.519265  1
  I  I11  1  0.368615  0.631385  0.480735  1
  I  I12  1  0.319342  0.260594  0.250000  1
  I  I13  1  0.260594  0.319342  0.750000  1
  I  I14  1  0.680658  0.739406  0.750000  1
  I  I15  1  0.739406  0.680658  0.250000  1
  I  I16  1  0.880937  0.119063  0.459830  1
  I  I17  1  0.119063  0.880937  0.540170  1
  I  I18  1  0.880937  0.119063  0.040170  1
  I  I19  1  0.119063  0.880937  0.959830  1
