# generated using pymatgen
data_ErTh7(CoSi3)4
_symmetry_space_group_name_H-M   'P 1'
_cell_length_a   8.04080000
_cell_length_b   8.04080147
_cell_length_c   8.35101200
_cell_angle_alpha   90.00000000
_cell_angle_beta   90.00000000
_cell_angle_gamma   119.99813075
_symmetry_Int_Tables_number   1
_chemical_formula_structural   ErTh7(CoSi3)4
_chemical_formula_sum   'Er1 Th7 Co4 Si12'
_cell_volume   467.60217080
_cell_formula_units_Z   1
loop_
 _symmetry_equiv_pos_site_id
 _symmetry_equiv_pos_as_xyz
  1  'x, y, z'
loop_
 _atom_site_type_symbol
 _atom_site_label
 _atom_site_symmetry_multiplicity
 _atom_site_fract_x
 _atom_site_fract_y
 _atom_site_fract_z
 _atom_site_occupancy
  Er  Er0  1  0.000007  0.000016  0.750000  1
  Th  Th1  1  0.500256  0.000517  0.250000  1
  Th  Th2  1  0.499766  0.999529  0.750000  1
  Th  Th3  1  0.999474  0.499735  0.250000  1
  Th  Th4  1  0.000474  0.500236  0.750000  1
  Th  Th5  1  0.500262  0.499742  0.250000  1
  Th  Th6  1  0.499767  0.500235  0.750000  1
  Th  Th7  1  0.000000  0.999997  0.250000  1
  Co  Co8  1  0.333324  0.666671  0.001176  1
  Co  Co9  1  0.666676  0.333328  0.999357  1
  Co  Co10  1  0.666676  0.333328  0.500643  1
  Co  Co11  1  0.333324  0.666671  0.498824  1
  Si  Si12  1  0.170301  0.340621  0.998026  1
  Si  Si13  1  0.829716  0.659414  0.996912  1
  Si  Si14  1  0.659379  0.829699  0.998026  1
  Si  Si15  1  0.829716  0.659414  0.503088  1
  Si  Si16  1  0.340584  0.170283  0.996913  1
  Si  Si17  1  0.170301  0.340621  0.501974  1
  Si  Si18  1  0.170311  0.829689  0.998023  1
  Si  Si19  1  0.340584  0.170283  0.503087  1
  Si  Si20  1  0.829707  0.170293  0.996909  1
  Si  Si21  1  0.659379  0.829699  0.501974  1
  Si  Si22  1  0.829707  0.170293  0.503091  1
  Si  Si23  1  0.170311  0.829689  0.501977  1
