# generated using pymatgen
data_Ho20Ga5Tc3Bi4
_symmetry_space_group_name_H-M   'P 1'
_cell_length_a   7.93343275
_cell_length_b   7.91595942
_cell_length_c   13.45575100
_cell_angle_alpha   89.99983477
_cell_angle_beta   90.00078187
_cell_angle_gamma   90.59986058
_symmetry_Int_Tables_number   1
_chemical_formula_structural   Ho20Ga5Tc3Bi4
_chemical_formula_sum   'Ho20 Ga5 Tc3 Bi4'
_cell_volume   844.98469598
_cell_formula_units_Z   1
loop_
 _symmetry_equiv_pos_site_id
 _symmetry_equiv_pos_as_xyz
  1  'x, y, z'
loop_
 _atom_site_type_symbol
 _atom_site_label
 _atom_site_symmetry_multiplicity
 _atom_site_fract_x
 _atom_site_fract_y
 _atom_site_fract_z
 _atom_site_occupancy
  Ho  Ho0  1  0.995607  0.506273  0.750111  1
  Ho  Ho1  1  0.990147  0.495147  0.250085  1
  Ho  Ho2  1  0.510336  0.999652  0.249929  1
  Ho  Ho3  1  0.507078  0.995909  0.749898  1
  Ho  Ho4  1  0.675745  0.675335  0.614899  1
  Ho  Ho5  1  0.669254  0.341312  0.111931  1
  Ho  Ho6  1  0.830662  0.836940  0.386221  1
  Ho  Ho7  1  0.146446  0.841249  0.889668  1
  Ho  Ho8  1  0.341897  0.342868  0.611203  1
  Ho  Ho9  1  0.360515  0.661184  0.111899  1
  Ho  Ho10  1  0.139129  0.155855  0.385884  1
  Ho  Ho11  1  0.840170  0.144829  0.891121  1
  Ho  Ho12  1  0.669135  0.341210  0.388062  1
  Ho  Ho13  1  0.341976  0.342832  0.888790  1
  Ho  Ho14  1  0.146352  0.841146  0.610338  1
  Ho  Ho15  1  0.830802  0.836887  0.113794  1
  Ho  Ho16  1  0.360502  0.661233  0.388086  1
  Ho  Ho17  1  0.675671  0.675556  0.885073  1
  Ho  Ho18  1  0.840246  0.144897  0.608875  1
  Ho  Ho19  1  0.139109  0.155938  0.114122  1
  Ga  Ga20  1  0.364874  0.636859  0.749996  1
  Ga  Ga21  1  0.131099  0.133944  0.750003  1
  Ga  Ga22  1  0.134859  0.863760  0.249998  1
  Ga  Ga23  1  0.365699  0.368690  0.250009  1
  Ga  Ga24  1  0.635696  0.360894  0.750004  1
  Tc  Tc25  1  0.872703  0.875336  0.749984  1
  Tc  Tc26  1  0.866316  0.127528  0.249996  1
  Tc  Tc27  1  0.627563  0.626059  0.250001  1
  Bi  Bi28  1  0.008497  0.498903  0.502039  1
  Bi  Bi29  1  0.008529  0.498977  0.998047  1
  Bi  Bi30  1  0.486673  0.006369  0.501928  1
  Bi  Bi31  1  0.486714  0.006427  0.998008  1
