# generated using pymatgen
data_Ti10CuSn7
_symmetry_space_group_name_H-M   'P 1'
_cell_length_a   5.59371101
_cell_length_b   8.30753530
_cell_length_c   8.30789801
_cell_angle_alpha   119.99893241
_cell_angle_beta   90.00002283
_cell_angle_gamma   90.00014561
_symmetry_Int_Tables_number   1
_chemical_formula_structural   Ti10CuSn7
_chemical_formula_sum   'Ti10 Cu1 Sn7'
_cell_volume   334.34796243
_cell_formula_units_Z   1
loop_
 _symmetry_equiv_pos_site_id
 _symmetry_equiv_pos_as_xyz
  1  'x, y, z'
loop_
 _atom_site_type_symbol
 _atom_site_label
 _atom_site_symmetry_multiplicity
 _atom_site_fract_x
 _atom_site_fract_y
 _atom_site_fract_z
 _atom_site_occupancy
  Ti  Ti0  1  0.500000  0.333345  0.666690  1
  Ti  Ti1  1  0.499999  0.666656  0.333310  1
  Ti  Ti2  1  0.000002  0.666660  0.333319  1
  Ti  Ti3  1  0.000002  0.333338  0.666682  1
  Ti  Ti4  1  0.738628  0.275081  0.000005  1
  Ti  Ti5  1  0.738641  0.724927  0.724902  1
  Ti  Ti6  1  0.738642  0.000010  0.275090  1
  Ti  Ti7  1  0.261367  0.724923  0.000007  1
  Ti  Ti8  1  0.261362  0.275081  0.275093  1
  Ti  Ti9  1  0.261359  0.999976  0.724902  1
  Cu  Cu10  1  0.499994  0.000002  0.000004  1
  Sn  Sn11  1  0.753004  0.614908  0.000023  1
  Sn  Sn12  1  0.753001  0.385127  0.385103  1
  Sn  Sn13  1  0.753002  0.999979  0.614871  1
  Sn  Sn14  1  0.246992  0.385115  0.000023  1
  Sn  Sn15  1  0.247000  0.614892  0.614871  1
  Sn  Sn16  1  0.247002  0.999977  0.385104  1
  Sn  Sn17  1  0.000001  0.000004  0.000001  1
