# generated using pymatgen
data_Nd2SmCo8P6Ru
_symmetry_space_group_name_H-M   'P 1'
_cell_length_a   3.76645400
_cell_length_b   10.62911200
_cell_length_c   12.40523000
_cell_angle_alpha   90.00000000
_cell_angle_beta   90.00000000
_cell_angle_gamma   90.00000000
_symmetry_Int_Tables_number   1
_chemical_formula_structural   Nd2SmCo8P6Ru
_chemical_formula_sum   'Nd4 Sm2 Co16 P12 Ru2'
_cell_volume   496.63173961
_cell_formula_units_Z   2
loop_
 _symmetry_equiv_pos_site_id
 _symmetry_equiv_pos_as_xyz
  1  'x, y, z'
loop_
 _atom_site_type_symbol
 _atom_site_label
 _atom_site_symmetry_multiplicity
 _atom_site_fract_x
 _atom_site_fract_y
 _atom_site_fract_z
 _atom_site_occupancy
  Nd  Nd0  1  0.000000  0.500000  0.523290  1
  Nd  Nd1  1  0.500000  0.000000  0.475908  1
  Nd  Nd2  1  0.000000  0.683330  0.793363  1
  Nd  Nd3  1  0.000000  0.316670  0.793363  1
  Sm  Sm4  1  0.500000  0.816981  0.206620  1
  Sm  Sm5  1  0.500000  0.183019  0.206620  1
  Co  Co6  1  0.500000  0.500000  0.705687  1
  Co  Co7  1  0.000000  0.000000  0.294306  1
  Co  Co8  1  0.000000  0.500000  0.988545  1
  Co  Co9  1  0.500000  0.000000  0.014357  1
  Co  Co10  1  0.500000  0.331765  0.993080  1
  Co  Co11  1  0.500000  0.668235  0.993080  1
  Co  Co12  1  0.000000  0.166987  0.009200  1
  Co  Co13  1  0.000000  0.833013  0.009200  1
  Co  Co14  1  0.500000  0.298074  0.428370  1
  Co  Co15  1  0.500000  0.701926  0.428370  1
  Co  Co16  1  0.000000  0.202238  0.569294  1
  Co  Co17  1  0.000000  0.797762  0.569294  1
  Co  Co18  1  0.500000  0.881626  0.709472  1
  Co  Co19  1  0.500000  0.118374  0.709472  1
  Co  Co20  1  0.000000  0.618979  0.289234  1
  Co  Co21  1  0.000000  0.381021  0.289234  1
  P  P22  1  0.500000  0.500000  0.886859  1
  P  P23  1  0.000000  0.000000  0.116103  1
  P  P24  1  0.500000  0.500000  0.345062  1
  P  P25  1  0.000000  0.000000  0.654445  1
  P  P26  1  0.500000  0.306552  0.613505  1
  P  P27  1  0.500000  0.693448  0.613505  1
  P  P28  1  0.000000  0.192980  0.384102  1
  P  P29  1  0.000000  0.807020  0.384102  1
  P  P30  1  0.500000  0.848483  0.896396  1
  P  P31  1  0.500000  0.151517  0.896396  1
  P  P32  1  0.000000  0.653265  0.104982  1
  P  P33  1  0.000000  0.346735  0.104982  1
  Ru  Ru34  1  0.500000  0.500000  0.157312  1
  Ru  Ru35  1  0.000000  0.000000  0.842892  1
