# generated using pymatgen
data_Tb2Ce2Al24Pt8Rh
_symmetry_space_group_name_H-M   'P 1'
_cell_length_a   7.54900127
_cell_length_b   7.56023018
_cell_length_c   13.19119279
_cell_angle_alpha   84.53461232
_cell_angle_beta   79.01149420
_cell_angle_gamma   59.94547638
_symmetry_Int_Tables_number   1
_chemical_formula_structural   Tb2Ce2Al24Pt8Rh
_chemical_formula_sum   'Tb2 Ce2 Al24 Pt8 Rh1'
_cell_volume   639.68156262
_cell_formula_units_Z   1
loop_
 _symmetry_equiv_pos_site_id
 _symmetry_equiv_pos_as_xyz
  1  'x, y, z'
loop_
 _atom_site_type_symbol
 _atom_site_label
 _atom_site_symmetry_multiplicity
 _atom_site_fract_x
 _atom_site_fract_y
 _atom_site_fract_z
 _atom_site_occupancy
  Tb  Tb0  1  0.732596  0.498553  0.808541  1
  Tb  Tb1  1  0.267404  0.501447  0.191459  1
  Ce  Ce2  1  0.394871  0.167597  0.807317  1
  Ce  Ce3  1  0.605129  0.832403  0.192683  1
  Al  Al4  1  0.688173  0.829437  0.946201  1
  Al  Al5  1  0.311827  0.170563  0.053799  1
  Al  Al6  1  0.146122  0.832710  0.560663  1
  Al  Al7  1  0.853878  0.167290  0.439337  1
  Al  Al8  1  0.480158  0.167768  0.558328  1
  Al  Al9  1  0.519842  0.832232  0.441672  1
  Al  Al10  1  0.215410  0.166757  0.330722  1
  Al  Al11  1  0.784590  0.833243  0.669278  1
  Al  Al12  1  0.436828  0.508310  0.670165  1
  Al  Al13  1  0.563172  0.491690  0.329835  1
  Al  Al14  1  0.109001  0.160050  0.668202  1
  Al  Al15  1  0.890999  0.839950  0.331798  1
  Al  Al16  1  0.348602  0.499924  0.946234  1
  Al  Al17  1  0.651398  0.500076  0.053766  1
  Al  Al18  1  0.014025  0.171415  0.955523  1
  Al  Al19  1  0.985975  0.828585  0.044477  1
  Al  Al20  1  0.185882  0.499939  0.441707  1
  Al  Al21  1  0.814118  0.500061  0.558293  1
  Al  Al22  1  0.736296  0.164355  0.182927  1
  Al  Al23  1  0.263704  0.835645  0.817073  1
  Al  Al24  1  0.059676  0.629448  0.818022  1
  Al  Al25  1  0.940324  0.370552  0.181978  1
  Al  Al26  1  0.857604  0.040498  0.817016  1
  Al  Al27  1  0.142396  0.959502  0.182985  1
  Pt  Pt28  1  0.119875  0.493363  0.638442  1
  Pt  Pt29  1  0.880125  0.506637  0.361558  1
  Pt  Pt30  1  0.656953  0.171800  0.000142  1
  Pt  Pt31  1  0.343047  0.828200  0.999858  1
  Pt  Pt32  1  0.537805  0.167082  0.362102  1
  Pt  Pt33  1  0.462195  0.832918  0.637898  1
  Pt  Pt34  1  0.779990  0.174691  0.637253  1
  Pt  Pt35  1  0.220010  0.825309  0.362747  1
  Rh  Rh36  1  0.000000  0.500000  0.000000  1
