# generated using pymatgen
data_Yb4Pr15HoSn16
_symmetry_space_group_name_H-M   'P 1'
_cell_length_a   8.12960143
_cell_length_b   8.49146618
_cell_length_c   16.20597490
_cell_angle_alpha   90.13303612
_cell_angle_beta   89.99865570
_cell_angle_gamma   89.96295781
_symmetry_Int_Tables_number   1
_chemical_formula_structural   Yb4Pr15HoSn16
_chemical_formula_sum   'Yb4 Pr15 Ho1 Sn16'
_cell_volume   1118.73142666
_cell_formula_units_Z   1
loop_
 _symmetry_equiv_pos_site_id
 _symmetry_equiv_pos_as_xyz
  1  'x, y, z'
loop_
 _atom_site_type_symbol
 _atom_site_label
 _atom_site_symmetry_multiplicity
 _atom_site_fract_x
 _atom_site_fract_y
 _atom_site_fract_z
 _atom_site_occupancy
  Yb  Yb0  1  0.824423  0.502972  0.749257  1
  Yb  Yb1  1  0.324421  0.997719  0.749480  1
  Yb  Yb2  1  0.175218  0.496968  0.250186  1
  Yb  Yb3  1  0.674710  0.003445  0.250831  1
  Pr  Pr4  1  0.154808  0.328429  0.875006  1
  Pr  Pr5  1  0.346537  0.828241  0.124528  1
  Pr  Pr6  1  0.845343  0.671163  0.377976  1
  Pr  Pr7  1  0.344818  0.828222  0.376289  1
  Pr  Pr8  1  0.846110  0.671998  0.124210  1
  Pr  Pr9  1  0.653559  0.171721  0.874630  1
  Pr  Pr10  1  0.152985  0.327907  0.623499  1
  Pr  Pr11  1  0.500684  0.680555  0.596221  1
  Pr  Pr12  1  0.000591  0.817785  0.902641  1
  Pr  Pr13  1  0.498473  0.317426  0.096200  1
  Pr  Pr14  1  0.998824  0.184744  0.404035  1
  Pr  Pr15  1  0.500274  0.318722  0.405059  1
  Pr  Pr16  1  0.999045  0.182007  0.096304  1
  Pr  Pr17  1  0.501694  0.682728  0.902768  1
  Pr  Pr18  1  0.000877  0.816301  0.596609  1
  Ho  Ho19  1  0.655783  0.171101  0.625274  1
  Sn  Sn20  1  0.681618  0.965630  0.466207  1
  Sn  Sn21  1  0.183113  0.537461  0.037030  1
  Sn  Sn22  1  0.315755  0.037691  0.962703  1
  Sn  Sn23  1  0.810253  0.457414  0.539060  1
  Sn  Sn24  1  0.325993  0.038534  0.538837  1
  Sn  Sn25  1  0.816881  0.462462  0.962245  1
  Sn  Sn26  1  0.683216  0.962362  0.036601  1
  Sn  Sn27  1  0.185424  0.537762  0.463020  1
  Sn  Sn28  1  0.457822  0.392310  0.748016  1
  Sn  Sn29  1  0.953285  0.104969  0.746920  1
  Sn  Sn30  1  0.544582  0.603954  0.250214  1
  Sn  Sn31  1  0.043378  0.896904  0.250471  1
  Sn  Sn32  1  0.694906  0.860812  0.748250  1
  Sn  Sn33  1  0.197481  0.641028  0.749030  1
  Sn  Sn34  1  0.303496  0.141962  0.250107  1
  Sn  Sn35  1  0.803619  0.358590  0.250284  1
