# generated using pymatgen
data_Tm3Th(InGa2)2
_symmetry_space_group_name_H-M   'P 1'
_cell_length_a   7.26006435
_cell_length_b   7.26006435
_cell_length_c   4.42332900
_cell_angle_alpha   90.00000000
_cell_angle_beta   90.00000000
_cell_angle_gamma   88.94215326
_symmetry_Int_Tables_number   1
_chemical_formula_structural   Tm3Th(InGa2)2
_chemical_formula_sum   'Tm3 Th1 In2 Ga4'
_cell_volume   233.10745214
_cell_formula_units_Z   1
loop_
 _symmetry_equiv_pos_site_id
 _symmetry_equiv_pos_as_xyz
  1  'x, y, z'
loop_
 _atom_site_type_symbol
 _atom_site_label
 _atom_site_symmetry_multiplicity
 _atom_site_fract_x
 _atom_site_fract_y
 _atom_site_fract_z
 _atom_site_occupancy
  Tm  Tm0  1  0.676872  0.176872  0.500000  1
  Tm  Tm1  1  0.170463  0.327170  0.500000  1
  Tm  Tm2  1  0.827170  0.670463  0.500000  1
  Th  Th3  1  0.328837  0.828837  0.500000  1
  In  In4  1  0.997069  0.002314  0.000000  1
  In  In5  1  0.502314  0.497069  0.000000  1
  Ga  Ga6  1  0.873509  0.373509  0.000000  1
  Ga  Ga7  1  0.376217  0.128600  0.000000  1
  Ga  Ga8  1  0.628600  0.876217  0.000000  1
  Ga  Ga9  1  0.118950  0.618950  0.000000  1
