# generated using pymatgen
data_Er6Th4Si7Ge
_symmetry_space_group_name_H-M   'P 1'
_cell_length_a   7.63792547
_cell_length_b   7.46717723
_cell_length_c   7.65070800
_cell_angle_alpha   71.08392278
_cell_angle_beta   89.97997854
_cell_angle_gamma   89.98597448
_symmetry_Int_Tables_number   1
_chemical_formula_structural   Er6Th4Si7Ge
_chemical_formula_sum   'Er6 Th4 Si7 Ge1'
_cell_volume   412.78323541
_cell_formula_units_Z   1
loop_
 _symmetry_equiv_pos_site_id
 _symmetry_equiv_pos_as_xyz
  1  'x, y, z'
loop_
 _atom_site_type_symbol
 _atom_site_label
 _atom_site_symmetry_multiplicity
 _atom_site_fract_x
 _atom_site_fract_y
 _atom_site_fract_z
 _atom_site_occupancy
  Er  Er0  1  0.675136  0.741097  0.253672  1
  Er  Er1  1  0.323157  0.258007  0.745522  1
  Er  Er2  1  0.177772  0.758536  0.745366  1
  Er  Er3  1  0.822756  0.243064  0.255195  1
  Er  Er4  1  0.000201  0.001000  0.997420  1
  Er  Er5  1  0.500249  0.499985  0.999532  1
  Th  Th6  1  0.675949  0.928616  0.694797  1
  Th  Th7  1  0.324579  0.072868  0.305767  1
  Th  Th8  1  0.179357  0.569981  0.305227  1
  Th  Th9  1  0.821594  0.426193  0.695660  1
  Si  Si10  1  0.034400  0.148860  0.580176  1
  Si  Si11  1  0.465846  0.644785  0.579386  1
  Si  Si12  1  0.534343  0.354899  0.421209  1
  Si  Si13  1  0.880615  0.624148  0.992221  1
  Si  Si14  1  0.119686  0.375876  0.007852  1
  Si  Si15  1  0.379671  0.876254  0.007703  1
  Si  Si16  1  0.619705  0.123402  0.993497  1
  Ge  Ge17  1  0.964984  0.852428  0.419798  1
