# generated using pymatgen
data_Lu20Cd6NiIr
_symmetry_space_group_name_H-M   'P 1'
_cell_length_a   9.41727900
_cell_length_b   9.41727888
_cell_length_c   9.56803300
_cell_angle_alpha   90.00000000
_cell_angle_beta   90.00000000
_cell_angle_gamma   119.99999690
_symmetry_Int_Tables_number   1
_chemical_formula_structural   Lu20Cd6NiIr
_chemical_formula_sum   'Lu20 Cd6 Ni1 Ir1'
_cell_volume   734.85927277
_cell_formula_units_Z   1
loop_
 _symmetry_equiv_pos_site_id
 _symmetry_equiv_pos_as_xyz
  1  'x, y, z'
loop_
 _atom_site_type_symbol
 _atom_site_label
 _atom_site_symmetry_multiplicity
 _atom_site_fract_x
 _atom_site_fract_y
 _atom_site_fract_z
 _atom_site_occupancy
  Lu  Lu0  1  0.000000  0.000000  0.500424  1
  Lu  Lu1  1  0.000000  0.000000  0.999576  1
  Lu  Lu2  1  0.541207  0.458793  0.250000  1
  Lu  Lu3  1  0.541207  0.082414  0.250000  1
  Lu  Lu4  1  0.917586  0.458793  0.250000  1
  Lu  Lu5  1  0.457564  0.542436  0.750000  1
  Lu  Lu6  1  0.457564  0.915130  0.750000  1
  Lu  Lu7  1  0.084870  0.542436  0.750000  1
  Lu  Lu8  1  0.209007  0.790993  0.441662  1
  Lu  Lu9  1  0.209007  0.418016  0.441662  1
  Lu  Lu10  1  0.581984  0.790993  0.441662  1
  Lu  Lu11  1  0.788893  0.211107  0.561572  1
  Lu  Lu12  1  0.788893  0.577784  0.561572  1
  Lu  Lu13  1  0.422216  0.211107  0.561572  1
  Lu  Lu14  1  0.788893  0.211107  0.938428  1
  Lu  Lu15  1  0.788893  0.577784  0.938428  1
  Lu  Lu16  1  0.422216  0.211107  0.938428  1
  Lu  Lu17  1  0.209007  0.790993  0.058338  1
  Lu  Lu18  1  0.209007  0.418016  0.058338  1
  Lu  Lu19  1  0.581984  0.790993  0.058338  1
  Cd  Cd20  1  0.885999  0.114001  0.250000  1
  Cd  Cd21  1  0.885999  0.771999  0.250000  1
  Cd  Cd22  1  0.228001  0.114001  0.250000  1
  Cd  Cd23  1  0.115049  0.884951  0.750000  1
  Cd  Cd24  1  0.115049  0.230098  0.750000  1
  Cd  Cd25  1  0.769902  0.884951  0.750000  1
  Ni  Ni26  1  0.666667  0.333333  0.750000  1
  Ir  Ir27  1  0.333333  0.666667  0.250000  1
