# generated using pymatgen
data_Nd12Os(PtBr4)3
_symmetry_space_group_name_H-M   'P 1'
_cell_length_a   10.62709068
_cell_length_b   10.49412014
_cell_length_c   10.49208763
_cell_angle_alpha   109.20255259
_cell_angle_beta   109.73705524
_cell_angle_gamma   109.73186463
_symmetry_Int_Tables_number   1
_chemical_formula_structural   Nd12Os(PtBr4)3
_chemical_formula_sum   'Nd12 Os1 Pt3 Br12'
_cell_volume   897.84539905
_cell_formula_units_Z   1
loop_
 _symmetry_equiv_pos_site_id
 _symmetry_equiv_pos_as_xyz
  1  'x, y, z'
loop_
 _atom_site_type_symbol
 _atom_site_label
 _atom_site_symmetry_multiplicity
 _atom_site_fract_x
 _atom_site_fract_y
 _atom_site_fract_z
 _atom_site_occupancy
  Nd  Nd0  1  0.470661  0.490089  0.231928  1
  Nd  Nd1  1  0.750047  0.235480  0.264634  1
  Nd  Nd2  1  0.750063  0.014300  0.485749  1
  Nd  Nd3  1  0.235717  0.471468  0.485731  1
  Nd  Nd4  1  0.261289  0.741788  0.231813  1
  Nd  Nd5  1  0.029450  0.268105  0.009968  1
  Nd  Nd6  1  0.014502  0.029027  0.264528  1
  Nd  Nd7  1  0.480499  0.741793  0.009993  1
  Nd  Nd8  1  0.485426  0.235441  0.470804  1
  Nd  Nd9  1  0.019428  0.490052  0.758141  1
  Nd  Nd10  1  0.264259  0.014299  0.028558  1
  Nd  Nd11  1  0.238635  0.268094  0.758132  1
  Os  Os12  1  0.250004  0.500007  0.999990  1
  Pt  Pt13  1  0.250014  0.249991  0.249997  1
  Pt  Pt14  1  0.500004  0.999988  0.249991  1
  Pt  Pt15  1  0.999976  0.250000  0.500001  1
  Br  Br16  1  0.250009  0.755116  0.744907  1
  Br  Br17  1  0.508470  0.503513  0.753002  1
  Br  Br18  1  0.991511  0.746977  0.996465  1
  Br  Br19  1  0.744514  0.249493  0.753032  1
  Br  Br20  1  0.994889  0.989781  0.744894  1
  Br  Br21  1  0.250017  0.997006  0.503030  1
  Br  Br22  1  0.753039  0.506072  0.503034  1
  Br  Br23  1  0.504977  0.249494  0.996465  1
  Br  Br24  1  0.755466  0.746985  0.250517  1
  Br  Br25  1  0.746980  0.996997  0.993967  1
  Br  Br26  1  0.995041  0.503524  0.250511  1
  Br  Br27  1  0.505114  0.755120  0.510219  1
