# generated using pymatgen
data_Si2Pd3Rh
_symmetry_space_group_name_H-M   'P 1'
_cell_length_a   3.88053600
_cell_length_b   6.02497623
_cell_length_c   7.36634425
_cell_angle_alpha   90.67734695
_cell_angle_beta   90.00000000
_cell_angle_gamma   90.00000000
_symmetry_Int_Tables_number   1
_chemical_formula_structural   Si2Pd3Rh
_chemical_formula_sum   'Si4 Pd6 Rh2'
_cell_volume   172.21410415
_cell_formula_units_Z   2
loop_
 _symmetry_equiv_pos_site_id
 _symmetry_equiv_pos_as_xyz
  1  'x, y, z'
loop_
 _atom_site_type_symbol
 _atom_site_label
 _atom_site_symmetry_multiplicity
 _atom_site_fract_x
 _atom_site_fract_y
 _atom_site_fract_z
 _atom_site_occupancy
  Si  Si0  1  0.250000  0.253714  0.873886  1
  Si  Si1  1  0.750000  0.746286  0.126114  1
  Si  Si2  1  0.250000  0.747683  0.609371  1
  Si  Si3  1  0.750000  0.252317  0.390629  1
  Pd  Pd4  1  0.750000  0.530029  0.835567  1
  Pd  Pd5  1  0.250000  0.469971  0.164433  1
  Pd  Pd6  1  0.750000  0.031294  0.674850  1
  Pd  Pd7  1  0.250000  0.968706  0.325150  1
  Pd  Pd8  1  0.250000  0.853312  0.928182  1
  Pd  Pd9  1  0.750000  0.146688  0.071818  1
  Rh  Rh10  1  0.250000  0.352071  0.567978  1
  Rh  Rh11  1  0.750000  0.647929  0.432022  1
