# generated using pymatgen
data_Dy15Y(HoSn4)4
_symmetry_space_group_name_H-M   'P 1'
_cell_length_a   8.02975656
_cell_length_b   8.14995046
_cell_length_c   15.44434400
_cell_angle_alpha   90.00335341
_cell_angle_beta   89.86419120
_cell_angle_gamma   89.92257752
_symmetry_Int_Tables_number   1
_chemical_formula_structural   Dy15Y(HoSn4)4
_chemical_formula_sum   'Dy15 Y1 Ho4 Sn16'
_cell_volume   1010.70682032
_cell_formula_units_Z   1
loop_
 _symmetry_equiv_pos_site_id
 _symmetry_equiv_pos_as_xyz
  1  'x, y, z'
loop_
 _atom_site_type_symbol
 _atom_site_label
 _atom_site_symmetry_multiplicity
 _atom_site_fract_x
 _atom_site_fract_y
 _atom_site_fract_z
 _atom_site_occupancy
  Dy  Dy0  1  0.368136  0.837563  0.877191  1
  Dy  Dy1  1  0.869024  0.662070  0.622076  1
  Dy  Dy2  1  0.630601  0.162226  0.377616  1
  Dy  Dy3  1  0.132042  0.337711  0.122490  1
  Dy  Dy4  1  0.631786  0.162677  0.122697  1
  Dy  Dy5  1  0.130719  0.337891  0.377801  1
  Dy  Dy6  1  0.369527  0.837699  0.622419  1
  Dy  Dy7  1  0.868485  0.662248  0.877466  1
  Dy  Dy8  1  0.521579  0.321635  0.903036  1
  Dy  Dy9  1  0.022063  0.178851  0.597246  1
  Dy  Dy10  1  0.477774  0.678718  0.402628  1
  Dy  Dy11  1  0.979007  0.820946  0.096777  1
  Dy  Dy12  1  0.478726  0.678677  0.096978  1
  Dy  Dy13  1  0.978030  0.821302  0.402832  1
  Dy  Dy14  1  0.522067  0.321378  0.597120  1
  Y  Y15  1  0.020746  0.178830  0.903621  1
  Ho  Ho16  1  0.199902  0.503674  0.749735  1
  Ho  Ho17  1  0.699896  0.996419  0.749850  1
  Ho  Ho18  1  0.799932  0.496374  0.250115  1
  Ho  Ho19  1  0.300029  0.003546  0.250271  1
  Sn  Sn20  1  0.293369  0.036746  0.041851  1
  Sn  Sn21  1  0.791534  0.462907  0.458250  1
  Sn  Sn22  1  0.708169  0.963340  0.541780  1
  Sn  Sn23  1  0.207453  0.537539  0.958288  1
  Sn  Sn24  1  0.706107  0.961984  0.958485  1
  Sn  Sn25  1  0.208471  0.537167  0.541711  1
  Sn  Sn26  1  0.291694  0.036875  0.458480  1
  Sn  Sn27  1  0.792916  0.462742  0.041675  1
  Sn  Sn28  1  0.566509  0.617668  0.749980  1
  Sn  Sn29  1  0.066210  0.882078  0.749590  1
  Sn  Sn30  1  0.433376  0.382901  0.250258  1
  Sn  Sn31  1  0.933783  0.117363  0.250001  1
  Sn  Sn32  1  0.332475  0.149256  0.750158  1
  Sn  Sn33  1  0.831609  0.350913  0.749967  1
  Sn  Sn34  1  0.668235  0.850850  0.249790  1
  Sn  Sn35  1  0.168015  0.649236  0.249772  1
