# generated using pymatgen
data_Ac2Fe(SeO3)4
_symmetry_space_group_name_H-M   'P 1'
_cell_length_a   7.37651300
_cell_length_b   8.64638901
_cell_length_c   11.11942900
_cell_angle_alpha   70.32798086
_cell_angle_beta   90.00000000
_cell_angle_gamma   90.00000000
_symmetry_Int_Tables_number   1
_chemical_formula_structural   Ac2Fe(SeO3)4
_chemical_formula_sum   'Ac4 Fe2 Se8 O24'
_cell_volume   667.80703174
_cell_formula_units_Z   2
loop_
 _symmetry_equiv_pos_site_id
 _symmetry_equiv_pos_as_xyz
  1  'x, y, z'
loop_
 _atom_site_type_symbol
 _atom_site_label
 _atom_site_symmetry_multiplicity
 _atom_site_fract_x
 _atom_site_fract_y
 _atom_site_fract_z
 _atom_site_occupancy
  Ac  Ac0  1  0.664988  0.761347  0.088328  1
  Ac  Ac1  1  0.164988  0.738653  0.911672  1
  Ac  Ac2  1  0.335012  0.238653  0.911672  1
  Ac  Ac3  1  0.835012  0.261347  0.088328  1
  Fe  Fe4  1  0.500000  0.500000  0.500000  1
  Fe  Fe5  1  0.000000  0.000000  0.500000  1
  Se  Se6  1  0.679927  0.626900  0.819767  1
  Se  Se7  1  0.179927  0.873100  0.180233  1
  Se  Se8  1  0.320073  0.373100  0.180233  1
  Se  Se9  1  0.820073  0.126900  0.819767  1
  Se  Se10  1  0.330782  0.127421  0.629139  1
  Se  Se11  1  0.830782  0.372579  0.370861  1
  Se  Se12  1  0.669218  0.872579  0.370861  1
  Se  Se13  1  0.169218  0.627421  0.629139  1
  O  O14  1  0.379458  0.317220  0.645883  1
  O  O15  1  0.879458  0.182780  0.354117  1
  O  O16  1  0.620542  0.682780  0.354117  1
  O  O17  1  0.120542  0.817220  0.645883  1
  O  O18  1  0.620493  0.427539  0.845318  1
  O  O19  1  0.120493  0.072461  0.154682  1
  O  O20  1  0.379507  0.572461  0.154682  1
  O  O21  1  0.879507  0.927539  0.845318  1
  O  O22  1  0.839517  0.590002  0.944179  1
  O  O23  1  0.339517  0.909998  0.055821  1
  O  O24  1  0.160483  0.409998  0.055821  1
  O  O25  1  0.660483  0.090002  0.944179  1
  O  O26  1  0.118442  0.168588  0.561307  1
  O  O27  1  0.618442  0.331412  0.438693  1
  O  O28  1  0.881558  0.831412  0.438693  1
  O  O29  1  0.381558  0.668588  0.561307  1
  O  O30  1  0.510811  0.707355  0.889081  1
  O  O31  1  0.010811  0.792645  0.110919  1
  O  O32  1  0.489189  0.292645  0.110919  1
  O  O33  1  0.989189  0.207355  0.889081  1
  O  O34  1  0.290013  0.027246  0.789041  1
  O  O35  1  0.790013  0.472754  0.210959  1
  O  O36  1  0.709987  0.972754  0.210959  1
  O  O37  1  0.209987  0.527246  0.789041  1
