# generated using pymatgen
data_TlP2RhO7
_symmetry_space_group_name_H-M   'P 1'
_cell_length_a   7.60697800
_cell_length_b   8.35706477
_cell_length_c   10.09190900
_cell_angle_alpha   90.00000000
_cell_angle_beta   90.00000000
_cell_angle_gamma   106.19598236
_symmetry_Int_Tables_number   1
_chemical_formula_structural   TlP2RhO7
_chemical_formula_sum   'Tl4 P8 Rh4 O28'
_cell_volume   616.10136874
_cell_formula_units_Z   4
loop_
 _symmetry_equiv_pos_site_id
 _symmetry_equiv_pos_as_xyz
  1  'x, y, z'
loop_
 _atom_site_type_symbol
 _atom_site_label
 _atom_site_symmetry_multiplicity
 _atom_site_fract_x
 _atom_site_fract_y
 _atom_site_fract_z
 _atom_site_occupancy
  Tl  Tl0  1  0.684335  0.052437  0.814287  1
  Tl  Tl1  1  0.315665  0.447563  0.314287  1
  Tl  Tl2  1  0.315665  0.947563  0.185713  1
  Tl  Tl3  1  0.684335  0.552437  0.685713  1
  P  P4  1  0.065749  0.309563  0.633271  1
  P  P5  1  0.934251  0.190437  0.133271  1
  P  P6  1  0.934251  0.690437  0.366729  1
  P  P7  1  0.065749  0.809563  0.866729  1
  P  P8  1  0.369980  0.169404  0.597500  1
  P  P9  1  0.630020  0.330596  0.097500  1
  P  P10  1  0.630020  0.830596  0.402500  1
  P  P11  1  0.369980  0.669404  0.902500  1
  Rh  Rh12  1  0.262633  0.739244  0.601882  1
  Rh  Rh13  1  0.737367  0.760756  0.101882  1
  Rh  Rh14  1  0.737367  0.260756  0.398118  1
  Rh  Rh15  1  0.262633  0.239244  0.898118  1
  O  O16  1  0.365323  0.989079  0.591829  1
  O  O17  1  0.634677  0.510921  0.091829  1
  O  O18  1  0.634677  0.010921  0.408171  1
  O  O19  1  0.365323  0.489079  0.908171  1
  O  O20  1  0.421688  0.751254  0.764367  1
  O  O21  1  0.578312  0.748746  0.264367  1
  O  O22  1  0.578312  0.248746  0.235633  1
  O  O23  1  0.421688  0.251254  0.735633  1
  O  O24  1  0.494221  0.718612  0.500462  1
  O  O25  1  0.505779  0.781388  0.000462  1
  O  O26  1  0.505779  0.281388  0.499538  1
  O  O27  1  0.494221  0.218612  0.999538  1
  O  O28  1  0.169081  0.186182  0.559183  1
  O  O29  1  0.830919  0.313818  0.059183  1
  O  O30  1  0.830919  0.813818  0.440817  1
  O  O31  1  0.169081  0.686182  0.940817  1
  O  O32  1  0.047843  0.760363  0.717910  1
  O  O33  1  0.952157  0.739637  0.217910  1
  O  O34  1  0.952157  0.239637  0.282090  1
  O  O35  1  0.047843  0.260363  0.782090  1
  O  O36  1  0.870210  0.761632  0.921142  1
  O  O37  1  0.129790  0.738368  0.421142  1
  O  O38  1  0.129790  0.238368  0.078858  1
  O  O39  1  0.870210  0.261632  0.578858  1
  O  O40  1  0.187416  0.982831  0.899544  1
  O  O41  1  0.812584  0.517169  0.399544  1
  O  O42  1  0.812584  0.017169  0.100456  1
  O  O43  1  0.187416  0.482831  0.600456  1
