# generated using pymatgen
data_K2ThBr6
_symmetry_space_group_name_H-M   'P 1'
_cell_length_a   8.57478400
_cell_length_b   7.89436801
_cell_length_c   13.29404039
_cell_angle_alpha   55.72588867
_cell_angle_beta   90.00000000
_cell_angle_gamma   90.00000000
_symmetry_Int_Tables_number   1
_chemical_formula_structural   K2ThBr6
_chemical_formula_sum   'K4 Th2 Br12'
_cell_volume   743.64056499
_cell_formula_units_Z   2
loop_
 _symmetry_equiv_pos_site_id
 _symmetry_equiv_pos_as_xyz
  1  'x, y, z'
loop_
 _atom_site_type_symbol
 _atom_site_label
 _atom_site_symmetry_multiplicity
 _atom_site_fract_x
 _atom_site_fract_y
 _atom_site_fract_z
 _atom_site_occupancy
  K  K0  1  0.091941  0.276892  0.246914  1
  K  K1  1  0.591941  0.723108  0.253086  1
  K  K2  1  0.908059  0.723108  0.753086  1
  K  K3  1  0.408059  0.276892  0.746914  1
  Th  Th4  1  0.500000  0.000000  0.500000  1
  Th  Th5  1  0.000000  0.000000  0.000000  1
  Br  Br6  1  0.539340  0.876218  0.745441  1
  Br  Br7  1  0.460660  0.123782  0.254559  1
  Br  Br8  1  0.834222  0.640829  0.059247  1
  Br  Br9  1  0.960660  0.876218  0.245441  1
  Br  Br10  1  0.165778  0.359171  0.940753  1
  Br  Br11  1  0.665778  0.640829  0.559247  1
  Br  Br12  1  0.289091  0.784937  0.061292  1
  Br  Br13  1  0.789091  0.215063  0.438708  1
  Br  Br14  1  0.710909  0.215063  0.938708  1
  Br  Br15  1  0.210909  0.784937  0.561292  1
  Br  Br16  1  0.334222  0.359171  0.440753  1
  Br  Br17  1  0.039340  0.123782  0.754559  1
