# generated using pymatgen
data_Ho5In4IrRh
_symmetry_space_group_name_H-M   'P 1'
_cell_length_a   3.62858000
_cell_length_b   8.00380487
_cell_length_c   18.24341936
_cell_angle_alpha   89.78148896
_cell_angle_beta   90.00000000
_cell_angle_gamma   90.00000000
_symmetry_Int_Tables_number   1
_chemical_formula_structural   Ho5In4IrRh
_chemical_formula_sum   'Ho10 In8 Ir2 Rh2'
_cell_volume   529.82967337
_cell_formula_units_Z   2
loop_
 _symmetry_equiv_pos_site_id
 _symmetry_equiv_pos_as_xyz
  1  'x, y, z'
loop_
 _atom_site_type_symbol
 _atom_site_label
 _atom_site_symmetry_multiplicity
 _atom_site_fract_x
 _atom_site_fract_y
 _atom_site_fract_z
 _atom_site_occupancy
  Ho  Ho0  1  0.000000  0.115467  0.411558  1
  Ho  Ho1  1  0.000000  0.884533  0.588442  1
  Ho  Ho2  1  0.000000  0.384472  0.910837  1
  Ho  Ho3  1  0.000000  0.615528  0.089163  1
  Ho  Ho4  1  0.000000  0.240966  0.221512  1
  Ho  Ho5  1  0.000000  0.759034  0.778488  1
  Ho  Ho6  1  0.000000  0.252441  0.720997  1
  Ho  Ho7  1  0.000000  0.747559  0.279003  1
  Ho  Ho8  1  0.000000  0.000000  0.000000  1
  Ho  Ho9  1  0.000000  0.500000  0.500000  1
  In  In10  1  0.500000  0.426359  0.350011  1
  In  In11  1  0.500000  0.573641  0.649989  1
  In  In12  1  0.500000  0.074067  0.850645  1
  In  In13  1  0.500000  0.925933  0.149355  1
  In  In14  1  0.500000  0.293041  0.067488  1
  In  In15  1  0.500000  0.706959  0.932512  1
  In  In16  1  0.500000  0.207229  0.567477  1
  In  In17  1  0.500000  0.792771  0.432523  1
  Ir  Ir18  1  0.500000  0.021372  0.304034  1
  Ir  Ir19  1  0.500000  0.978628  0.695966  1
  Rh  Rh20  1  0.500000  0.477610  0.804684  1
  Rh  Rh21  1  0.500000  0.522390  0.195316  1
