# generated using pymatgen
data_Cs4Ba2HfSb4
_symmetry_space_group_name_H-M   'P 1'
_cell_length_a   11.80189002
_cell_length_b   11.80188875
_cell_length_c   8.75685914
_cell_angle_alpha   87.75315495
_cell_angle_beta   87.75315585
_cell_angle_gamma   119.00025702
_symmetry_Int_Tables_number   1
_chemical_formula_structural   Cs4Ba2HfSb4
_chemical_formula_sum   'Cs8 Ba4 Hf2 Sb8'
_cell_volume   1063.57975131
_cell_formula_units_Z   2
loop_
 _symmetry_equiv_pos_site_id
 _symmetry_equiv_pos_as_xyz
  1  'x, y, z'
loop_
 _atom_site_type_symbol
 _atom_site_label
 _atom_site_symmetry_multiplicity
 _atom_site_fract_x
 _atom_site_fract_y
 _atom_site_fract_z
 _atom_site_occupancy
  Cs  Cs0  1  0.052847  0.523442  0.618747  1
  Cs  Cs1  1  0.523442  0.052847  0.118747  1
  Cs  Cs2  1  0.279338  0.135249  0.840821  1
  Cs  Cs3  1  0.873399  0.733674  0.772000  1
  Cs  Cs4  1  0.859148  0.144926  0.813885  1
  Cs  Cs5  1  0.733674  0.873399  0.272000  1
  Cs  Cs6  1  0.135249  0.279338  0.340821  1
  Cs  Cs7  1  0.144926  0.859148  0.313885  1
  Ba  Ba8  1  0.468296  0.932175  0.612209  1
  Ba  Ba9  1  0.472040  0.523837  0.627893  1
  Ba  Ba10  1  0.932175  0.468296  0.112209  1
  Ba  Ba11  1  0.523837  0.472040  0.127893  1
  Hf  Hf12  1  0.663254  0.335576  0.513818  1
  Hf  Hf13  1  0.335576  0.663254  0.013818  1
  Sb  Sb14  1  0.589954  0.784949  0.871397  1
  Sb  Sb15  1  0.208387  0.404257  0.929661  1
  Sb  Sb16  1  0.198992  0.787040  0.908257  1
  Sb  Sb17  1  0.404257  0.208387  0.429661  1
  Sb  Sb18  1  0.784949  0.589954  0.371397  1
  Sb  Sb19  1  0.787040  0.198992  0.408257  1
  Sb  Sb20  1  0.669068  0.359710  0.836946  1
  Sb  Sb21  1  0.359710  0.669068  0.336946  1
