# generated using pymatgen
data_RbMn4(SbO6)2
_symmetry_space_group_name_H-M   'P 1'
_cell_length_a   8.63827228
_cell_length_b   8.63827173
_cell_length_c   8.63827100
_cell_angle_alpha   106.41468452
_cell_angle_beta   106.41468346
_cell_angle_gamma   115.77418503
_symmetry_Int_Tables_number   1
_chemical_formula_structural   RbMn4(SbO6)2
_chemical_formula_sum   'Rb2 Mn8 Sb4 O24'
_cell_volume   491.64988757
_cell_formula_units_Z   2
loop_
 _symmetry_equiv_pos_site_id
 _symmetry_equiv_pos_as_xyz
  1  'x, y, z'
loop_
 _atom_site_type_symbol
 _atom_site_label
 _atom_site_symmetry_multiplicity
 _atom_site_fract_x
 _atom_site_fract_y
 _atom_site_fract_z
 _atom_site_occupancy
  Rb  Rb0  1  0.210411  0.209388  0.998612  1
  Rb  Rb1  1  0.789589  0.790612  0.001388  1
  Mn  Mn2  1  0.984233  0.505852  0.821215  1
  Mn  Mn3  1  0.681928  0.166041  0.180218  1
  Mn  Mn4  1  0.170437  0.984106  0.490788  1
  Mn  Mn5  1  0.510397  0.686845  0.518516  1
  Mn  Mn6  1  0.015767  0.494148  0.178785  1
  Mn  Mn7  1  0.318072  0.833959  0.819782  1
  Mn  Mn8  1  0.829563  0.015894  0.509212  1
  Mn  Mn9  1  0.489603  0.313155  0.481484  1
  Sb  Sb10  1  0.652597  0.163169  0.811373  1
  Sb  Sb11  1  0.347403  0.836831  0.188627  1
  Sb  Sb12  1  0.842676  0.652788  0.487174  1
  Sb  Sb13  1  0.157324  0.347212  0.512826  1
  O  O14  1  0.857749  0.210552  0.040528  1
  O  O15  1  0.142251  0.789448  0.959472  1
  O  O16  1  0.810139  0.854021  0.640916  1
  O  O17  1  0.189861  0.145979  0.359084  1
  O  O18  1  0.172017  0.533837  0.046515  1
  O  O19  1  0.499981  0.132098  0.954549  1
  O  O20  1  0.112080  0.184562  0.641694  1
  O  O21  1  0.547657  0.500595  0.364806  1
  O  O22  1  0.827983  0.466163  0.953485  1
  O  O23  1  0.500019  0.867902  0.045451  1
  O  O24  1  0.887920  0.815438  0.358306  1
  O  O25  1  0.452343  0.499405  0.635194  1
  O  O26  1  0.452807  0.159426  0.626122  1
  O  O27  1  0.547193  0.840574  0.373878  1
  O  O28  1  0.844925  0.456942  0.294993  1
  O  O29  1  0.155075  0.543058  0.705007  1
  O  O30  1  0.798275  0.505186  0.630851  1
  O  O31  1  0.865240  0.162930  0.365889  1
  O  O32  1  0.169064  0.775616  0.297324  1
  O  O33  1  0.512128  0.874447  0.705052  1
  O  O34  1  0.201725  0.494814  0.369149  1
  O  O35  1  0.134760  0.837070  0.634111  1
  O  O36  1  0.830936  0.224384  0.702676  1
  O  O37  1  0.487872  0.125553  0.294948  1
