# generated using pymatgen
data_Ba4Sr2Pr2Fe4O15
_symmetry_space_group_name_H-M   'P 1'
_cell_length_a   11.85332495
_cell_length_b   11.85332465
_cell_length_c   7.07027330
_cell_angle_alpha   89.90942154
_cell_angle_beta   89.90941238
_cell_angle_gamma   119.88149308
_symmetry_Int_Tables_number   1
_chemical_formula_structural   Ba4Sr2Pr2Fe4O15
_chemical_formula_sum   'Ba8 Sr4 Pr4 Fe8 O30'
_cell_volume   861.31580575
_cell_formula_units_Z   2
loop_
 _symmetry_equiv_pos_site_id
 _symmetry_equiv_pos_as_xyz
  1  'x, y, z'
loop_
 _atom_site_type_symbol
 _atom_site_label
 _atom_site_symmetry_multiplicity
 _atom_site_fract_x
 _atom_site_fract_y
 _atom_site_fract_z
 _atom_site_occupancy
  Ba  Ba0  1  0.666896  0.331016  0.977079  1
  Ba  Ba1  1  0.331016  0.666896  0.477079  1
  Ba  Ba2  1  0.343665  0.168547  0.665560  1
  Ba  Ba3  1  0.831095  0.657436  0.659809  1
  Ba  Ba4  1  0.826972  0.172107  0.662392  1
  Ba  Ba5  1  0.657436  0.831095  0.159809  1
  Ba  Ba6  1  0.168547  0.343665  0.165560  1
  Ba  Ba7  1  0.172107  0.826972  0.162392  1
  Sr  Sr8  1  0.999893  0.000087  0.481327  1
  Sr  Sr9  1  0.000087  0.999893  0.981327  1
  Sr  Sr10  1  0.955311  0.478268  0.328252  1
  Sr  Sr11  1  0.478268  0.955311  0.828252  1
  Pr  Pr12  1  0.522176  0.044583  0.327430  1
  Pr  Pr13  1  0.522275  0.477756  0.330046  1
  Pr  Pr14  1  0.044583  0.522176  0.827430  1
  Pr  Pr15  1  0.477756  0.522275  0.830046  1
  Fe  Fe16  1  0.350795  0.177269  0.160921  1
  Fe  Fe17  1  0.823062  0.646415  0.154627  1
  Fe  Fe18  1  0.825160  0.178519  0.158391  1
  Fe  Fe19  1  0.646415  0.823062  0.654627  1
  Fe  Fe20  1  0.177269  0.350795  0.660921  1
  Fe  Fe21  1  0.178519  0.825160  0.658391  1
  Fe  Fe22  1  0.668794  0.335189  0.522299  1
  Fe  Fe23  1  0.335189  0.668794  0.022299  1
  O  O24  1  0.605067  0.667462  0.522687  1
  O  O25  1  0.065509  0.394272  0.532728  1
  O  O26  1  0.326533  0.936517  0.509695  1
  O  O27  1  0.333125  0.394820  0.525912  1
  O  O28  1  0.609564  0.934972  0.509436  1
  O  O29  1  0.063778  0.672035  0.529165  1
  O  O30  1  0.394820  0.333125  0.025912  1
  O  O31  1  0.934972  0.609564  0.009436  1
  O  O32  1  0.672035  0.063778  0.029165  1
  O  O33  1  0.667462  0.605067  0.022687  1
  O  O34  1  0.394272  0.065509  0.032728  1
  O  O35  1  0.936517  0.326533  0.009695  1
  O  O36  1  0.830323  0.416311  0.671165  1
  O  O37  1  0.583613  0.169364  0.657395  1
  O  O38  1  0.582745  0.418442  0.664386  1
  O  O39  1  0.169364  0.583613  0.157395  1
  O  O40  1  0.416311  0.830323  0.171165  1
  O  O41  1  0.418442  0.582745  0.164386  1
  O  O42  1  0.494047  0.250084  0.338866  1
  O  O43  1  0.745887  0.503864  0.334321  1
  O  O44  1  0.747083  0.245746  0.334380  1
  O  O45  1  0.503864  0.745887  0.834321  1
  O  O46  1  0.250084  0.494047  0.838866  1
  O  O47  1  0.245746  0.747083  0.834380  1
  O  O48  1  0.816661  0.907107  0.747846  1
  O  O49  1  0.093016  0.179259  0.746882  1
  O  O50  1  0.095103  0.913231  0.748793  1
  O  O51  1  0.179259  0.093016  0.246882  1
  O  O52  1  0.907107  0.816661  0.247846  1
  O  O53  1  0.913231  0.095103  0.248793  1
