# generated using pymatgen
data_Ca3Y3(CoSn6)2
_symmetry_space_group_name_H-M   'P 1'
_cell_length_a   8.46416327
_cell_length_b   8.46416293
_cell_length_c   13.27903000
_cell_angle_alpha   90.01499772
_cell_angle_beta   89.98500263
_cell_angle_gamma   148.12516911
_symmetry_Int_Tables_number   1
_chemical_formula_structural   Ca3Y3(CoSn6)2
_chemical_formula_sum   'Ca3 Y3 Co2 Sn12'
_cell_volume   502.36809429
_cell_formula_units_Z   1
loop_
 _symmetry_equiv_pos_site_id
 _symmetry_equiv_pos_as_xyz
  1  'x, y, z'
loop_
 _atom_site_type_symbol
 _atom_site_label
 _atom_site_symmetry_multiplicity
 _atom_site_fract_x
 _atom_site_fract_y
 _atom_site_fract_z
 _atom_site_occupancy
  Ca  Ca0  1  0.100209  0.899791  0.596819  1
  Ca  Ca1  1  0.100604  0.899396  0.903758  1
  Ca  Ca2  1  0.900216  0.099784  0.402903  1
  Y  Y3  1  0.898313  0.101687  0.093941  1
  Y  Y4  1  0.900990  0.099010  0.754328  1
  Y  Y5  1  0.098796  0.901204  0.248105  1
  Co  Co6  1  0.298904  0.701096  0.249475  1
  Co  Co7  1  0.703194  0.296806  0.750220  1
  Sn  Sn8  1  0.758668  0.241332  0.572620  1
  Sn  Sn9  1  0.425969  0.574031  0.579052  1
  Sn  Sn10  1  0.573007  0.426993  0.422156  1
  Sn  Sn11  1  0.733531  0.266469  0.248424  1
  Sn  Sn12  1  0.267299  0.732701  0.750157  1
  Sn  Sn13  1  0.241585  0.758415  0.072624  1
  Sn  Sn14  1  0.242267  0.757733  0.427089  1
  Sn  Sn15  1  0.572000  0.428000  0.076210  1
  Sn  Sn16  1  0.454703  0.545297  0.248118  1
  Sn  Sn17  1  0.545741  0.454259  0.750099  1
  Sn  Sn18  1  0.757378  0.242622  0.929034  1
  Sn  Sn19  1  0.426627  0.573373  0.924867  1
