# generated using pymatgen
data_PrNd2Bi(MoO4)6
_symmetry_space_group_name_H-M   'P 1'
_cell_length_a   7.64934707
_cell_length_b   7.64922090
_cell_length_c   10.97790103
_cell_angle_alpha   89.96835794
_cell_angle_beta   89.97580628
_cell_angle_gamma   89.97837893
_symmetry_Int_Tables_number   1
_chemical_formula_structural   PrNd2Bi(MoO4)6
_chemical_formula_sum   'Pr1 Nd2 Bi1 Mo6 O24'
_cell_volume   642.33375465
_cell_formula_units_Z   1
loop_
 _symmetry_equiv_pos_site_id
 _symmetry_equiv_pos_as_xyz
  1  'x, y, z'
loop_
 _atom_site_type_symbol
 _atom_site_label
 _atom_site_symmetry_multiplicity
 _atom_site_fract_x
 _atom_site_fract_y
 _atom_site_fract_z
 _atom_site_occupancy
  Pr  Pr0  1  0.310927  0.189167  0.262108  1
  Nd  Nd1  1  0.812030  0.312052  0.738042  1
  Nd  Nd2  1  0.689929  0.810136  0.262227  1
  Bi  Bi3  1  0.194465  0.694474  0.738479  1
  Mo  Mo4  1  0.208648  0.709419  0.356084  1
  Mo  Mo5  1  0.790989  0.291755  0.356075  1
  Mo  Mo6  1  0.707205  0.792080  0.644899  1
  Mo  Mo7  1  0.292053  0.207246  0.645784  1
  Mo  Mo8  1  0.001245  0.997723  0.998282  1
  Mo  Mo9  1  0.498512  0.502947  0.998284  1
  O  O10  1  0.998213  0.226402  0.297498  1
  O  O11  1  0.000149  0.774499  0.298480  1
  O  O12  1  0.226373  0.998886  0.705193  1
  O  O13  1  0.499209  0.726493  0.704938  1
  O  O14  1  0.772854  0.999561  0.702872  1
  O  O15  1  0.499875  0.272971  0.703133  1
  O  O16  1  0.273911  0.501424  0.298487  1
  O  O17  1  0.725807  0.499488  0.297497  1
  O  O18  1  0.186111  0.041986  0.093199  1
  O  O19  1  0.816305  0.952009  0.093316  1
  O  O20  1  0.047377  0.811360  0.903582  1
  O  O21  1  0.311561  0.547868  0.903689  1
  O  O22  1  0.956728  0.184339  0.904657  1
  O  O23  1  0.684550  0.457232  0.904540  1
  O  O24  1  0.453336  0.316874  0.092032  1
  O  O25  1  0.543395  0.686629  0.094482  1
  O  O26  1  0.629498  0.127438  0.309525  1
  O  O27  1  0.373356  0.871301  0.310127  1
  O  O28  1  0.127405  0.368792  0.690142  1
  O  O29  1  0.868523  0.627662  0.689927  1
  O  O30  1  0.198144  0.698305  0.517702  1
  O  O31  1  0.802595  0.302749  0.517978  1
  O  O32  1  0.695515  0.803230  0.482868  1
  O  O33  1  0.303208  0.195506  0.483874  1
