# generated using pymatgen
data_Lu7Hf(Si4W3)4
_symmetry_space_group_name_H-M   'P 1'
_cell_length_a   6.67383751
_cell_length_b   6.86454669
_cell_length_c   12.80549330
_cell_angle_alpha   90.09992922
_cell_angle_beta   90.01046202
_cell_angle_gamma   90.11258373
_symmetry_Int_Tables_number   1
_chemical_formula_structural   Lu7Hf(Si4W3)4
_chemical_formula_sum   'Lu7 Hf1 Si16 W12'
_cell_volume   586.65435502
_cell_formula_units_Z   1
loop_
 _symmetry_equiv_pos_site_id
 _symmetry_equiv_pos_as_xyz
  1  'x, y, z'
loop_
 _atom_site_type_symbol
 _atom_site_label
 _atom_site_symmetry_multiplicity
 _atom_site_fract_x
 _atom_site_fract_y
 _atom_site_fract_z
 _atom_site_occupancy
  Lu  Lu0  1  0.493446  0.668772  0.592396  1
  Lu  Lu1  1  0.994488  0.831734  0.907311  1
  Lu  Lu2  1  0.505021  0.331488  0.093068  1
  Lu  Lu3  1  0.004853  0.167473  0.408189  1
  Lu  Lu4  1  0.504988  0.331338  0.407902  1
  Lu  Lu5  1  0.005214  0.168549  0.093007  1
  Lu  Lu6  1  0.494479  0.668993  0.906205  1
  Hf  Hf7  1  0.992319  0.830316  0.595131  1
  Si  Si8  1  0.665793  0.959509  0.455537  1
  Si  Si9  1  0.163243  0.539385  0.046001  1
  Si  Si10  1  0.337016  0.040662  0.953619  1
  Si  Si11  1  0.837539  0.461573  0.545789  1
  Si  Si12  1  0.331280  0.038337  0.545292  1
  Si  Si13  1  0.836615  0.459818  0.953296  1
  Si  Si14  1  0.663340  0.959684  0.046000  1
  Si  Si15  1  0.163526  0.541830  0.455482  1
  Si  Si16  1  0.465267  0.373998  0.749872  1
  Si  Si17  1  0.965148  0.124501  0.748871  1
  Si  Si18  1  0.536096  0.626351  0.250239  1
  Si  Si19  1  0.035518  0.874413  0.249822  1
  Si  Si20  1  0.699142  0.862357  0.749559  1
  Si  Si21  1  0.196019  0.638358  0.748968  1
  Si  Si22  1  0.302460  0.137464  0.250400  1
  Si  Si23  1  0.803136  0.363084  0.250585  1
  W  W24  1  0.669022  0.161298  0.624496  1
  W  W25  1  0.167448  0.335236  0.874091  1
  W  W26  1  0.331880  0.836808  0.124276  1
  W  W27  1  0.833724  0.665617  0.377101  1
  W  W28  1  0.332000  0.836298  0.375547  1
  W  W29  1  0.832339  0.664421  0.124902  1
  W  W30  1  0.668902  0.162088  0.874799  1
  W  W31  1  0.168566  0.336130  0.624163  1
  W  W32  1  0.833311  0.505885  0.748592  1
  W  W33  1  0.333029  0.995801  0.747938  1
  W  W34  1  0.167105  0.497817  0.250276  1
  W  W35  1  0.666727  0.002617  0.251276  1
