# generated using pymatgen
data_Yb2AsClO4
_symmetry_space_group_name_H-M   'P 1'
_cell_length_a   6.29059000
_cell_length_b   7.06504700
_cell_length_c   10.96868800
_cell_angle_alpha   90.00000000
_cell_angle_beta   90.00000000
_cell_angle_gamma   90.00000000
_symmetry_Int_Tables_number   1
_chemical_formula_structural   Yb2AsClO4
_chemical_formula_sum   'Yb8 As4 Cl4 O16'
_cell_volume   487.48484504
_cell_formula_units_Z   4
loop_
 _symmetry_equiv_pos_site_id
 _symmetry_equiv_pos_as_xyz
  1  'x, y, z'
loop_
 _atom_site_type_symbol
 _atom_site_label
 _atom_site_symmetry_multiplicity
 _atom_site_fract_x
 _atom_site_fract_y
 _atom_site_fract_z
 _atom_site_occupancy
  Yb  Yb0  1  0.855299  0.976134  0.250000  1
  Yb  Yb1  1  0.144701  0.023866  0.750000  1
  Yb  Yb2  1  0.144701  0.476134  0.250000  1
  Yb  Yb3  1  0.855299  0.523866  0.750000  1
  Yb  Yb4  1  0.623777  0.250000  0.500000  1
  Yb  Yb5  1  0.623777  0.250000  0.000000  1
  Yb  Yb6  1  0.376223  0.750000  0.500000  1
  Yb  Yb7  1  0.376223  0.750000  0.000000  1
  As  As8  1  0.126888  0.250000  0.000000  1
  As  As9  1  0.873112  0.750000  0.500000  1
  As  As10  1  0.126888  0.250000  0.500000  1
  As  As11  1  0.873112  0.750000  0.000000  1
  Cl  Cl12  1  0.505453  0.702327  0.250000  1
  Cl  Cl13  1  0.494547  0.202327  0.250000  1
  Cl  Cl14  1  0.505453  0.797673  0.750000  1
  Cl  Cl15  1  0.494547  0.297673  0.750000  1
  O  O16  1  0.962883  0.262683  0.625728  1
  O  O17  1  0.294570  0.064820  0.531438  1
  O  O18  1  0.294570  0.435180  0.031438  1
  O  O19  1  0.294570  0.435180  0.468562  1
  O  O20  1  0.705430  0.564820  0.531438  1
  O  O21  1  0.037117  0.737317  0.374272  1
  O  O22  1  0.962883  0.237317  0.125728  1
  O  O23  1  0.037117  0.762683  0.625728  1
  O  O24  1  0.037117  0.737317  0.125728  1
  O  O25  1  0.037117  0.762683  0.874272  1
  O  O26  1  0.962883  0.237317  0.374272  1
  O  O27  1  0.294570  0.064820  0.968562  1
  O  O28  1  0.705430  0.935180  0.468562  1
  O  O29  1  0.705430  0.564820  0.968562  1
  O  O30  1  0.705430  0.935180  0.031438  1
  O  O31  1  0.962883  0.262683  0.874272  1
