# generated using pymatgen
data_Lu3Sc7Tl5In3Rh4
_symmetry_space_group_name_H-M   'P 1'
_cell_length_a   3.46288600
_cell_length_b   7.79285841
_cell_length_c   17.79913702
_cell_angle_alpha   90.09836246
_cell_angle_beta   90.00000000
_cell_angle_gamma   90.00000000
_symmetry_Int_Tables_number   1
_chemical_formula_structural   Lu3Sc7Tl5In3Rh4
_chemical_formula_sum   'Lu3 Sc7 Tl5 In3 Rh4'
_cell_volume   480.32289282
_cell_formula_units_Z   1
loop_
 _symmetry_equiv_pos_site_id
 _symmetry_equiv_pos_as_xyz
  1  'x, y, z'
loop_
 _atom_site_type_symbol
 _atom_site_label
 _atom_site_symmetry_multiplicity
 _atom_site_fract_x
 _atom_site_fract_y
 _atom_site_fract_z
 _atom_site_occupancy
  Lu  Lu0  1  0.000000  0.747599  0.780230  1
  Lu  Lu1  1  0.000000  0.253129  0.220825  1
  Lu  Lu2  1  0.000000  0.247072  0.719317  1
  Sc  Sc3  1  0.000000  0.000584  0.000111  1
  Sc  Sc4  1  0.000000  0.499904  0.499820  1
  Sc  Sc5  1  0.000000  0.753910  0.279493  1
  Sc  Sc6  1  0.000000  0.879000  0.586759  1
  Sc  Sc7  1  0.000000  0.120223  0.411526  1
  Sc  Sc8  1  0.000000  0.379149  0.912223  1
  Sc  Sc9  1  0.000000  0.620757  0.088914  1
  Tl  Tl10  1  0.500000  0.796228  0.436225  1
  Tl  Tl11  1  0.500000  0.201311  0.559886  1
  Tl  Tl12  1  0.500000  0.300592  0.061626  1
  Tl  Tl13  1  0.500000  0.701462  0.939369  1
  Tl  Tl14  1  0.500000  0.922928  0.149363  1
  In  In15  1  0.500000  0.074568  0.852655  1
  In  In16  1  0.500000  0.430025  0.352517  1
  In  In17  1  0.500000  0.574605  0.646310  1
  Rh  Rh18  1  0.500000  0.958656  0.693739  1
  Rh  Rh19  1  0.500000  0.037303  0.306433  1
  Rh  Rh20  1  0.500000  0.458678  0.806103  1
  Rh  Rh21  1  0.500000  0.542316  0.196556  1
