# generated using pymatgen
data_La6AlPbI6
_symmetry_space_group_name_H-M   'P 1'
_cell_length_a   11.25187132
_cell_length_b   11.25187083
_cell_length_c   11.15957500
_cell_angle_alpha   109.45396206
_cell_angle_beta   109.45396658
_cell_angle_gamma   109.83819149
_symmetry_Int_Tables_number   1
_chemical_formula_structural   La6AlPbI6
_chemical_formula_sum   'La12 Al2 Pb2 I12'
_cell_volume   1083.11756107
_cell_formula_units_Z   2
loop_
 _symmetry_equiv_pos_site_id
 _symmetry_equiv_pos_as_xyz
  1  'x, y, z'
loop_
 _atom_site_type_symbol
 _atom_site_label
 _atom_site_symmetry_multiplicity
 _atom_site_fract_x
 _atom_site_fract_y
 _atom_site_fract_z
 _atom_site_occupancy
  La  La0  1  0.238438  0.755089  0.735077  1
  La  La1  1  0.520010  0.503359  0.764922  1
  La  La2  1  0.239303  0.984421  0.503222  1
  La  La3  1  0.981200  0.736081  0.996778  1
  La  La4  1  0.744910  0.261560  0.764922  1
  La  La5  1  0.762890  0.737109  0.249999  1
  La  La6  1  0.996641  0.979990  0.735079  1
  La  La7  1  0.505313  0.755313  0.510627  1
  La  La8  1  0.763920  0.518800  0.503222  1
  La  La9  1  0.987110  0.512890  0.250001  1
  La  La10  1  0.515579  0.260699  0.996778  1
  La  La11  1  0.744688  0.994687  0.989373  1
  Al  Al12  1  0.749645  0.499645  0.999292  1
  Al  Al13  1  0.000355  0.750355  0.500708  1
  Pb  Pb14  1  0.748947  0.751053  0.750000  1
  Pb  Pb15  1  0.501053  0.998947  0.750000  1
  I  I16  1  0.010832  0.255273  0.005440  1
  I  I17  1  0.749834  0.005392  0.494560  1
  I  I18  1  0.486224  0.493047  0.243130  1
  I  I19  1  0.749916  0.243095  0.256869  1
  I  I20  1  0.006954  0.013776  0.256870  1
  I  I21  1  0.255833  0.005833  0.011666  1
  I  I22  1  0.256905  0.750084  0.243131  1
  I  I23  1  0.006420  0.493580  0.750000  1
  I  I24  1  0.494608  0.750166  0.005440  1
  I  I25  1  0.494168  0.244167  0.488334  1
  I  I26  1  0.244727  0.489168  0.494561  1
  I  I27  1  0.243581  0.256419  0.750000  1
