# generated using pymatgen
data_Pr4Ho3Er9(CdIr)4
_symmetry_space_group_name_H-M   'P 1'
_cell_length_a   9.68111117
_cell_length_b   9.67595913
_cell_length_c   9.67595830
_cell_angle_alpha   60.02658042
_cell_angle_beta   59.98761206
_cell_angle_gamma   59.98761332
_symmetry_Int_Tables_number   1
_chemical_formula_structural   Pr4Ho3Er9(CdIr)4
_chemical_formula_sum   'Pr4 Ho3 Er9 Cd4 Ir4'
_cell_volume   640.92028258
_cell_formula_units_Z   1
loop_
 _symmetry_equiv_pos_site_id
 _symmetry_equiv_pos_as_xyz
  1  'x, y, z'
loop_
 _atom_site_type_symbol
 _atom_site_label
 _atom_site_symmetry_multiplicity
 _atom_site_fract_x
 _atom_site_fract_y
 _atom_site_fract_z
 _atom_site_occupancy
  Pr  Pr0  1  0.563417  0.936609  0.563572  1
  Pr  Pr1  1  0.936662  0.563469  0.936544  1
  Pr  Pr2  1  0.563417  0.563572  0.936609  1
  Pr  Pr3  1  0.936662  0.936544  0.563469  1
  Ho  Ho4  1  0.352634  0.345863  0.345863  1
  Ho  Ho5  1  0.345894  0.352494  0.955661  1
  Ho  Ho6  1  0.345894  0.955661  0.352494  1
  Er  Er7  1  0.956192  0.345672  0.345672  1
  Er  Er8  1  0.814878  0.185267  0.185267  1
  Er  Er9  1  0.184993  0.814964  0.814964  1
  Er  Er10  1  0.188931  0.811088  0.188938  1
  Er  Er11  1  0.810956  0.189113  0.810806  1
  Er  Er12  1  0.188931  0.188938  0.811088  1
  Er  Er13  1  0.810956  0.810806  0.189113  1
  Er  Er14  1  0.948893  0.551085  0.551085  1
  Er  Er15  1  0.551471  0.948514  0.948514  1
  Cd  Cd16  1  0.583091  0.578346  0.578346  1
  Cd  Cd17  1  0.578519  0.582885  0.260316  1
  Cd  Cd18  1  0.578519  0.260316  0.582885  1
  Cd  Cd19  1  0.260149  0.578410  0.578410  1
  Ir  Ir20  1  0.147547  0.138294  0.138294  1
  Ir  Ir21  1  0.137676  0.148405  0.575778  1
  Ir  Ir22  1  0.137676  0.575778  0.148405  1
  Ir  Ir23  1  0.576042  0.137906  0.137906  1
