# generated using pymatgen
data_LaYb19(SiSb2)4
_symmetry_space_group_name_H-M   'P 1'
_cell_length_a   7.97953504
_cell_length_b   9.51355776
_cell_length_c   12.58481656
_cell_angle_alpha   90.12233389
_cell_angle_beta   89.33551075
_cell_angle_gamma   89.96774520
_symmetry_Int_Tables_number   1
_chemical_formula_structural   LaYb19(SiSb2)4
_chemical_formula_sum   'La1 Yb19 Si4 Sb8'
_cell_volume   955.29424743
_cell_formula_units_Z   1
loop_
 _symmetry_equiv_pos_site_id
 _symmetry_equiv_pos_as_xyz
  1  'x, y, z'
loop_
 _atom_site_type_symbol
 _atom_site_label
 _atom_site_symmetry_multiplicity
 _atom_site_fract_x
 _atom_site_fract_y
 _atom_site_fract_z
 _atom_site_occupancy
  La  La0  1  0.321037  0.472809  0.429292  1
  Yb  Yb1  1  0.447532  0.749802  0.000410  1
  Yb  Yb2  1  0.945773  0.247126  0.499073  1
  Yb  Yb3  1  0.552894  0.249834  0.999401  1
  Yb  Yb4  1  0.047213  0.754214  0.500871  1
  Yb  Yb5  1  0.650470  0.752668  0.298117  1
  Yb  Yb6  1  0.147432  0.247510  0.198620  1
  Yb  Yb7  1  0.352557  0.247769  0.701851  1
  Yb  Yb8  1  0.851615  0.750527  0.801026  1
  Yb  Yb9  1  0.323729  0.749995  0.721047  1
  Yb  Yb10  1  0.827999  0.249188  0.781970  1
  Yb  Yb11  1  0.677957  0.247331  0.277984  1
  Yb  Yb12  1  0.171999  0.752610  0.216960  1
  Yb  Yb13  1  0.822107  0.529153  0.074310  1
  Yb  Yb14  1  0.677981  0.971955  0.576711  1
  Yb  Yb15  1  0.176705  0.028626  0.924443  1
  Yb  Yb16  1  0.682899  0.528841  0.577501  1
  Yb  Yb17  1  0.177512  0.470980  0.924824  1
  Yb  Yb18  1  0.322848  0.030490  0.424296  1
  Yb  Yb19  1  0.822556  0.970651  0.074425  1
  Si  Si20  1  0.062812  0.749699  0.988828  1
  Si  Si21  1  0.561616  0.251175  0.510095  1
  Si  Si22  1  0.937304  0.249935  0.010262  1
  Si  Si23  1  0.437864  0.749107  0.488979  1
  Sb  Sb24  1  0.442568  0.006752  0.169800  1
  Sb  Sb25  1  0.939453  0.992280  0.332130  1
  Sb  Sb26  1  0.559578  0.507416  0.830565  1
  Sb  Sb27  1  0.063071  0.490589  0.666112  1
  Sb  Sb28  1  0.557946  0.992136  0.830071  1
  Sb  Sb29  1  0.060071  0.007385  0.668549  1
  Sb  Sb30  1  0.440327  0.491999  0.170694  1
  Sb  Sb31  1  0.936573  0.509448  0.330781  1
