# generated using pymatgen
data_TbY4Tm3Au4
_symmetry_space_group_name_H-M   'P 1'
_cell_length_a   4.90862300
_cell_length_b   7.15476112
_cell_length_c   8.91153352
_cell_angle_alpha   89.81919766
_cell_angle_beta   90.00000000
_cell_angle_gamma   90.00000000
_symmetry_Int_Tables_number   1
_chemical_formula_structural   TbY4Tm3Au4
_chemical_formula_sum   'Tb1 Y4 Tm3 Au4'
_cell_volume   312.97172165
_cell_formula_units_Z   1
loop_
 _symmetry_equiv_pos_site_id
 _symmetry_equiv_pos_as_xyz
  1  'x, y, z'
loop_
 _atom_site_type_symbol
 _atom_site_label
 _atom_site_symmetry_multiplicity
 _atom_site_fract_x
 _atom_site_fract_y
 _atom_site_fract_z
 _atom_site_occupancy
  Tb  Tb0  1  0.250000  0.987864  0.324468  1
  Y  Y1  1  0.750000  0.648679  0.419480  1
  Y  Y2  1  0.250000  0.484412  0.175496  1
  Y  Y3  1  0.750000  0.514659  0.823179  1
  Y  Y4  1  0.750000  0.015267  0.678503  1
  Tm  Tm5  1  0.250000  0.852250  0.921310  1
  Tm  Tm6  1  0.250000  0.352372  0.580048  1
  Tm  Tm7  1  0.750000  0.147881  0.078681  1
  Au  Au8  1  0.250000  0.251738  0.899107  1
  Au  Au9  1  0.250000  0.753170  0.603673  1
  Au  Au10  1  0.750000  0.748718  0.096715  1
  Au  Au11  1  0.750000  0.242989  0.399340  1
