# generated using pymatgen
data_Dy8Sc12Sn5Sb11
_symmetry_space_group_name_H-M   'P 1'
_cell_length_a   7.81844214
_cell_length_b   7.84180152
_cell_length_c   14.67259600
_cell_angle_alpha   90.00000000
_cell_angle_beta   90.00000000
_cell_angle_gamma   90.15676424
_symmetry_Int_Tables_number   1
_chemical_formula_structural   Dy8Sc12Sn5Sb11
_chemical_formula_sum   'Dy8 Sc12 Sn5 Sb11'
_cell_volume   899.58334526
_cell_formula_units_Z   1
loop_
 _symmetry_equiv_pos_site_id
 _symmetry_equiv_pos_as_xyz
  1  'x, y, z'
loop_
 _atom_site_type_symbol
 _atom_site_label
 _atom_site_symmetry_multiplicity
 _atom_site_fract_x
 _atom_site_fract_y
 _atom_site_fract_z
 _atom_site_occupancy
  Dy  Dy0  1  0.979270  0.182905  0.093992  1
  Dy  Dy1  1  0.020250  0.816367  0.905034  1
  Dy  Dy2  1  0.519188  0.682616  0.907713  1
  Dy  Dy3  1  0.020250  0.816367  0.594966  1
  Dy  Dy4  1  0.479858  0.317762  0.093618  1
  Dy  Dy5  1  0.979270  0.182905  0.406008  1
  Dy  Dy6  1  0.479858  0.317762  0.406382  1
  Dy  Dy7  1  0.519188  0.682616  0.592287  1
  Sc  Sc8  1  0.177911  0.497571  0.750000  1
  Sc  Sc9  1  0.820513  0.503157  0.250000  1
  Sc  Sc10  1  0.320320  0.997254  0.250000  1
  Sc  Sc11  1  0.679825  0.002442  0.750000  1
  Sc  Sc12  1  0.354092  0.152570  0.627101  1
  Sc  Sc13  1  0.649518  0.850006  0.373493  1
  Sc  Sc14  1  0.151358  0.650309  0.374038  1
  Sc  Sc15  1  0.649518  0.850006  0.126507  1
  Sc  Sc16  1  0.851683  0.348193  0.625565  1
  Sc  Sc17  1  0.354092  0.152570  0.872899  1
  Sc  Sc18  1  0.851683  0.348193  0.874435  1
  Sc  Sc19  1  0.151358  0.650309  0.125962  1
  Sn  Sn20  1  0.543427  0.376852  0.750000  1
  Sn  Sn21  1  0.328332  0.842691  0.750000  1
  Sn  Sn22  1  0.672391  0.156859  0.250000  1
  Sn  Sn23  1  0.172556  0.343767  0.250000  1
  Sn  Sn24  1  0.820984  0.652175  0.750000  1
  Sb  Sb25  1  0.044023  0.126915  0.750000  1
  Sb  Sb26  1  0.955519  0.871627  0.250000  1
  Sb  Sb27  1  0.455461  0.627835  0.250000  1
  Sb  Sb28  1  0.201737  0.452524  0.544854  1
  Sb  Sb29  1  0.797732  0.546972  0.454295  1
  Sb  Sb30  1  0.296285  0.954596  0.455250  1
  Sb  Sb31  1  0.797732  0.546972  0.045705  1
  Sb  Sb32  1  0.703398  0.045607  0.544842  1
  Sb  Sb33  1  0.201737  0.452524  0.955146  1
  Sb  Sb34  1  0.703398  0.045607  0.955158  1
  Sb  Sb35  1  0.296285  0.954596  0.044750  1
