# generated using pymatgen
data_Tb3Sm4Ho3Sn8
_symmetry_space_group_name_H-M   'P 1'
_cell_length_a   8.09251100
_cell_length_b   8.25132307
_cell_length_c   15.58694314
_cell_angle_alpha   89.98456646
_cell_angle_beta   90.00000000
_cell_angle_gamma   90.00000000
_symmetry_Int_Tables_number   1
_chemical_formula_structural   Tb3Sm4Ho3Sn8
_chemical_formula_sum   'Tb6 Sm8 Ho6 Sn16'
_cell_volume   1040.80129943
_cell_formula_units_Z   2
loop_
 _symmetry_equiv_pos_site_id
 _symmetry_equiv_pos_as_xyz
  1  'x, y, z'
loop_
 _atom_site_type_symbol
 _atom_site_label
 _atom_site_symmetry_multiplicity
 _atom_site_fract_x
 _atom_site_fract_y
 _atom_site_fract_z
 _atom_site_occupancy
  Tb  Tb0  1  0.366230  0.835432  0.877990  1
  Tb  Tb1  1  0.866230  0.664568  0.622010  1
  Tb  Tb2  1  0.633880  0.164652  0.378011  1
  Tb  Tb3  1  0.133880  0.335348  0.121989  1
  Tb  Tb4  1  0.633873  0.164573  0.121811  1
  Tb  Tb5  1  0.133873  0.335427  0.378189  1
  Sm  Sm6  1  0.518967  0.320681  0.901932  1
  Sm  Sm7  1  0.018967  0.179319  0.598068  1
  Sm  Sm8  1  0.481080  0.679461  0.402204  1
  Sm  Sm9  1  0.981080  0.820539  0.097796  1
  Sm  Sm10  1  0.481084  0.679488  0.097952  1
  Sm  Sm11  1  0.981084  0.820512  0.402048  1
  Sm  Sm12  1  0.518887  0.320570  0.598001  1
  Sm  Sm13  1  0.018887  0.179430  0.901999  1
  Ho  Ho14  1  0.365993  0.835524  0.622194  1
  Ho  Ho15  1  0.865993  0.664476  0.877806  1
  Ho  Ho16  1  0.198015  0.503091  0.749948  1
  Ho  Ho17  1  0.698015  0.996909  0.750052  1
  Ho  Ho18  1  0.801935  0.497246  0.249960  1
  Ho  Ho19  1  0.301935  0.002754  0.250040  1
  Sn  Sn20  1  0.295897  0.036902  0.042085  1
  Sn  Sn21  1  0.795897  0.463098  0.457915  1
  Sn  Sn22  1  0.703247  0.962896  0.542221  1
  Sn  Sn23  1  0.203247  0.537104  0.957779  1
  Sn  Sn24  1  0.704653  0.962306  0.957731  1
  Sn  Sn25  1  0.204653  0.537694  0.542269  1
  Sn  Sn26  1  0.296136  0.036421  0.458421  1
  Sn  Sn27  1  0.796136  0.463579  0.041579  1
  Sn  Sn28  1  0.564425  0.621128  0.750021  1
  Sn  Sn29  1  0.064425  0.878872  0.749979  1
  Sn  Sn30  1  0.435535  0.379324  0.250000  1
  Sn  Sn31  1  0.935535  0.120676  0.250000  1
  Sn  Sn32  1  0.327023  0.144289  0.749814  1
  Sn  Sn33  1  0.827023  0.355711  0.750186  1
  Sn  Sn34  1  0.673141  0.855427  0.250015  1
  Sn  Sn35  1  0.173141  0.644573  0.249985  1
