# generated using pymatgen
data_ErPa3FeNi3Sn2
_symmetry_space_group_name_H-M   'P 1'
_cell_length_a   7.42183872
_cell_length_b   7.42183921
_cell_length_c   3.53133800
_cell_angle_alpha   90.00000000
_cell_angle_beta   90.00000000
_cell_angle_gamma   91.39541216
_symmetry_Int_Tables_number   1
_chemical_formula_structural   ErPa3FeNi3Sn2
_chemical_formula_sum   'Er1 Pa3 Fe1 Ni3 Sn2'
_cell_volume   194.46145464
_cell_formula_units_Z   1
loop_
 _symmetry_equiv_pos_site_id
 _symmetry_equiv_pos_as_xyz
  1  'x, y, z'
loop_
 _atom_site_type_symbol
 _atom_site_label
 _atom_site_symmetry_multiplicity
 _atom_site_fract_x
 _atom_site_fract_y
 _atom_site_fract_z
 _atom_site_occupancy
  Er  Er0  1  0.830775  0.669225  0.500000  1
  Pa  Pa1  1  0.663090  0.176112  0.500000  1
  Pa  Pa2  1  0.323888  0.836910  0.500000  1
  Pa  Pa3  1  0.180230  0.319770  0.500000  1
  Fe  Fe4  1  0.364501  0.135499  0.000000  1
  Ni  Ni5  1  0.884264  0.360273  0.000000  1
  Ni  Ni6  1  0.139727  0.615736  0.000000  1
  Ni  Ni7  1  0.616715  0.883285  0.000000  1
  Sn  Sn8  1  0.505835  0.509027  0.000000  1
  Sn  Sn9  1  0.990973  0.994165  0.000000  1
