# generated using pymatgen
data_HfZr3TiSi4Mo3
_symmetry_space_group_name_H-M   'P 1'
_cell_length_a   3.54553100
_cell_length_b   6.99348352
_cell_length_c   8.29071600
_cell_angle_alpha   90.38574921
_cell_angle_beta   90.00000000
_cell_angle_gamma   90.00000000
_symmetry_Int_Tables_number   1
_chemical_formula_structural   HfZr3TiSi4Mo3
_chemical_formula_sum   'Hf1 Zr3 Ti1 Si4 Mo3'
_cell_volume   205.56872317
_cell_formula_units_Z   1
loop_
 _symmetry_equiv_pos_site_id
 _symmetry_equiv_pos_as_xyz
  1  'x, y, z'
loop_
 _atom_site_type_symbol
 _atom_site_label
 _atom_site_symmetry_multiplicity
 _atom_site_fract_x
 _atom_site_fract_y
 _atom_site_fract_z
 _atom_site_occupancy
  Hf  Hf0  1  0.750000  0.454294  0.832543  1
  Zr  Zr1  1  0.250000  0.039406  0.329042  1
  Zr  Zr2  1  0.750000  0.955970  0.666554  1
  Zr  Zr3  1  0.250000  0.544625  0.165493  1
  Ti  Ti4  1  0.750000  0.374550  0.440402  1
  Si  Si5  1  0.250000  0.257081  0.639363  1
  Si  Si6  1  0.750000  0.743909  0.364436  1
  Si  Si7  1  0.250000  0.756562  0.862728  1
  Si  Si8  1  0.750000  0.243581  0.137799  1
  Mo  Mo9  1  0.250000  0.630486  0.561716  1
  Mo  Mo10  1  0.750000  0.868816  0.060786  1
  Mo  Mo11  1  0.250000  0.130718  0.939141  1
