# generated using pymatgen
data_Y3Er7Cd3Tc
_symmetry_space_group_name_H-M   'P 1'
_cell_length_a   9.50413800
_cell_length_b   9.50413804
_cell_length_c   9.90329400
_cell_angle_alpha   90.00000000
_cell_angle_beta   90.00000000
_cell_angle_gamma   119.99999985
_symmetry_Int_Tables_number   1
_chemical_formula_structural   Y3Er7Cd3Tc
_chemical_formula_sum   'Y6 Er14 Cd6 Tc2'
_cell_volume   774.70395627
_cell_formula_units_Z   2
loop_
 _symmetry_equiv_pos_site_id
 _symmetry_equiv_pos_as_xyz
  1  'x, y, z'
loop_
 _atom_site_type_symbol
 _atom_site_label
 _atom_site_symmetry_multiplicity
 _atom_site_fract_x
 _atom_site_fract_y
 _atom_site_fract_z
 _atom_site_occupancy
  Y  Y0  1  0.539368  0.460632  0.250000  1
  Y  Y1  1  0.539368  0.078737  0.250000  1
  Y  Y2  1  0.921263  0.460632  0.250000  1
  Y  Y3  1  0.460632  0.539368  0.750000  1
  Y  Y4  1  0.460632  0.921263  0.750000  1
  Y  Y5  1  0.078737  0.539368  0.750000  1
  Er  Er6  1  0.000000  0.000000  0.500000  1
  Er  Er7  1  0.000000  0.000000  0.000000  1
  Er  Er8  1  0.209933  0.790067  0.440586  1
  Er  Er9  1  0.209933  0.419868  0.440586  1
  Er  Er10  1  0.580132  0.790067  0.440586  1
  Er  Er11  1  0.790067  0.209933  0.559414  1
  Er  Er12  1  0.790067  0.580132  0.559414  1
  Er  Er13  1  0.419868  0.209933  0.559414  1
  Er  Er14  1  0.790067  0.209933  0.940586  1
  Er  Er15  1  0.790067  0.580132  0.940586  1
  Er  Er16  1  0.419868  0.209933  0.940586  1
  Er  Er17  1  0.209933  0.790067  0.059414  1
  Er  Er18  1  0.209933  0.419868  0.059414  1
  Er  Er19  1  0.580132  0.790067  0.059414  1
  Cd  Cd20  1  0.885830  0.114170  0.250000  1
  Cd  Cd21  1  0.885830  0.771662  0.250000  1
  Cd  Cd22  1  0.228338  0.114170  0.250000  1
  Cd  Cd23  1  0.114170  0.885830  0.750000  1
  Cd  Cd24  1  0.114170  0.228338  0.750000  1
  Cd  Cd25  1  0.771662  0.885830  0.750000  1
  Tc  Tc26  1  0.333333  0.666667  0.250000  1
  Tc  Tc27  1  0.666667  0.333333  0.750000  1
