# generated using pymatgen
data_Rb2Ba2Sb3PPt4
_symmetry_space_group_name_H-M   'P 1'
_cell_length_a   7.06110354
_cell_length_b   7.08761911
_cell_length_c   7.05629209
_cell_angle_alpha   90.47935525
_cell_angle_beta   90.13101359
_cell_angle_gamma   90.73320834
_symmetry_Int_Tables_number   1
_chemical_formula_structural   Rb2Ba2Sb3PPt4
_chemical_formula_sum   'Rb2 Ba2 Sb3 P1 Pt4'
_cell_volume   353.09981929
_cell_formula_units_Z   1
loop_
 _symmetry_equiv_pos_site_id
 _symmetry_equiv_pos_as_xyz
  1  'x, y, z'
loop_
 _atom_site_type_symbol
 _atom_site_label
 _atom_site_symmetry_multiplicity
 _atom_site_fract_x
 _atom_site_fract_y
 _atom_site_fract_z
 _atom_site_occupancy
  Rb  Rb0  1  0.610860  0.380695  0.869387  1
  Rb  Rb1  1  0.384696  0.873408  0.619054  1
  Ba  Ba2  1  0.129222  0.124395  0.121698  1
  Ba  Ba3  1  0.866553  0.613024  0.383904  1
  Sb  Sb4  1  0.584093  0.911494  0.098584  1
  Sb  Sb5  1  0.091898  0.580719  0.915272  1
  Sb  Sb6  1  0.914323  0.090511  0.579471  1
  P  P7  1  0.404236  0.402580  0.399689  1
  Pt  Pt8  1  0.175064  0.357577  0.623253  1
  Pt  Pt9  1  0.633261  0.183863  0.353506  1
  Pt  Pt10  1  0.855266  0.851951  0.854221  1
  Pt  Pt11  1  0.350530  0.629785  0.181964  1
