# generated using pymatgen
data_HoCd(ReO4)6
_symmetry_space_group_name_H-M   'P 1'
_cell_length_a   10.15203100
_cell_length_b   10.15203147
_cell_length_c   6.12821200
_cell_angle_alpha   90.00000000
_cell_angle_beta   90.00000000
_cell_angle_gamma   120.00000173
_symmetry_Int_Tables_number   1
_chemical_formula_structural   HoCd(ReO4)6
_chemical_formula_sum   'Ho1 Cd1 Re6 O24'
_cell_volume   546.97855002
_cell_formula_units_Z   1
loop_
 _symmetry_equiv_pos_site_id
 _symmetry_equiv_pos_as_xyz
  1  'x, y, z'
loop_
 _atom_site_type_symbol
 _atom_site_label
 _atom_site_symmetry_multiplicity
 _atom_site_fract_x
 _atom_site_fract_y
 _atom_site_fract_z
 _atom_site_occupancy
  Ho  Ho0  1  0.333333  0.666667  0.250000  1
  Cd  Cd1  1  0.666667  0.333333  0.750000  1
  Re  Re2  1  0.097685  0.391220  0.750000  1
  Re  Re3  1  0.395098  0.306210  0.250000  1
  Re  Re4  1  0.608780  0.706464  0.750000  1
  Re  Re5  1  0.911111  0.604902  0.250000  1
  Re  Re6  1  0.293536  0.902315  0.750000  1
  Re  Re7  1  0.693790  0.088889  0.250000  1
  O  O8  1  0.490482  0.651519  0.516618  1
  O  O9  1  0.348481  0.838964  0.516618  1
  O  O10  1  0.846158  0.733178  0.250000  1
  O  O11  1  0.098664  0.827964  0.750000  1
  O  O12  1  0.266822  0.112979  0.250000  1
  O  O13  1  0.172036  0.270699  0.750000  1
  O  O14  1  0.511924  0.356095  0.017787  1
  O  O15  1  0.887021  0.153842  0.250000  1
  O  O16  1  0.111887  0.700598  0.250000  1
  O  O17  1  0.161036  0.509518  0.983382  1
  O  O18  1  0.161036  0.509518  0.516618  1
  O  O19  1  0.899895  0.284224  0.750000  1
  O  O20  1  0.299402  0.411288  0.250000  1
  O  O21  1  0.715776  0.615671  0.750000  1
  O  O22  1  0.844171  0.488076  0.482213  1
  O  O23  1  0.384329  0.100105  0.750000  1
  O  O24  1  0.643905  0.155829  0.017787  1
  O  O25  1  0.490482  0.651519  0.983382  1
  O  O26  1  0.348481  0.838964  0.983382  1
  O  O27  1  0.643905  0.155829  0.482213  1
  O  O28  1  0.511924  0.356095  0.482213  1
  O  O29  1  0.844171  0.488076  0.017787  1
  O  O30  1  0.729301  0.901336  0.750000  1
  O  O31  1  0.588712  0.888113  0.250000  1
