# generated using pymatgen
data_Al4V12Zn3GaN4
_symmetry_space_group_name_H-M   'P 1'
_cell_length_a   6.59726829
_cell_length_b   6.59726757
_cell_length_c   6.59726802
_cell_angle_alpha   90.06916107
_cell_angle_beta   89.93084332
_cell_angle_gamma   89.93083930
_symmetry_Int_Tables_number   1
_chemical_formula_structural   Al4V12Zn3GaN4
_chemical_formula_sum   'Al4 V12 Zn3 Ga1 N4'
_cell_volume   287.13849659
_cell_formula_units_Z   1
loop_
 _symmetry_equiv_pos_site_id
 _symmetry_equiv_pos_as_xyz
  1  'x, y, z'
loop_
 _atom_site_type_symbol
 _atom_site_label
 _atom_site_symmetry_multiplicity
 _atom_site_fract_x
 _atom_site_fract_y
 _atom_site_fract_z
 _atom_site_occupancy
  Al  Al0  1  0.177799  0.822201  0.322201  1
  Al  Al1  1  0.318054  0.173459  0.821297  1
  Al  Al2  1  0.826541  0.321297  0.181946  1
  Al  Al3  1  0.678703  0.681946  0.673459  1
  V  V4  1  0.790853  0.960363  0.375635  1
  V  V5  1  0.708627  0.041089  0.876210  1
  V  V6  1  0.210132  0.460167  0.123004  1
  V  V7  1  0.291778  0.538437  0.626509  1
  V  V8  1  0.958911  0.376210  0.791373  1
  V  V9  1  0.039637  0.875635  0.709147  1
  V  V10  1  0.461563  0.126509  0.208222  1
  V  V11  1  0.539833  0.623004  0.289868  1
  V  V12  1  0.376996  0.789868  0.960167  1
  V  V13  1  0.873491  0.708222  0.038437  1
  V  V14  1  0.124365  0.209147  0.460363  1
  V  V15  1  0.623790  0.291373  0.541089  1
  Zn  Zn16  1  0.428886  0.929863  0.568892  1
  Zn  Zn17  1  0.931108  0.571114  0.429863  1
  Zn  Zn18  1  0.070137  0.068892  0.071114  1
  Ga  Ga19  1  0.571474  0.428526  0.928526  1
  N  N20  1  0.873734  0.126266  0.626266  1
  N  N21  1  0.625669  0.875014  0.127066  1
  N  N22  1  0.124986  0.627066  0.874331  1
  N  N23  1  0.372934  0.374331  0.375014  1
