# generated using pymatgen
data_TbSc3Al18(Pd2Rh)2
_symmetry_space_group_name_H-M   'P 1'
_cell_length_a   7.54020058
_cell_length_b   7.54441914
_cell_length_c   9.34757700
_cell_angle_alpha   90.00000000
_cell_angle_beta   90.00000000
_cell_angle_gamma   119.65658860
_symmetry_Int_Tables_number   1
_chemical_formula_structural   TbSc3Al18(Pd2Rh)2
_chemical_formula_sum   'Tb1 Sc3 Al18 Pd4 Rh2'
_cell_volume   462.09456828
_cell_formula_units_Z   1
loop_
 _symmetry_equiv_pos_site_id
 _symmetry_equiv_pos_as_xyz
  1  'x, y, z'
loop_
 _atom_site_type_symbol
 _atom_site_label
 _atom_site_symmetry_multiplicity
 _atom_site_fract_x
 _atom_site_fract_y
 _atom_site_fract_z
 _atom_site_occupancy
  Tb  Tb0  1  0.994534  0.667631  0.250000  1
  Sc  Sc1  1  0.004875  0.330620  0.750000  1
  Sc  Sc2  1  0.668447  0.995054  0.250000  1
  Sc  Sc3  1  0.332322  0.006347  0.750000  1
  Al  Al4  1  0.123804  0.124974  0.250000  1
  Al  Al5  1  0.878692  0.880291  0.750000  1
  Al  Al6  1  0.997000  0.327017  0.074668  1
  Al  Al7  1  0.003941  0.669084  0.916195  1
  Al  Al8  1  0.003941  0.669084  0.583805  1
  Al  Al9  1  0.334254  0.000350  0.425547  1
  Al  Al10  1  0.997000  0.327017  0.425332  1
  Al  Al11  1  0.668871  0.004013  0.579879  1
  Al  Al12  1  0.668871  0.004013  0.920121  1
  Al  Al13  1  0.334254  0.000350  0.074453  1
  Al  Al14  1  0.326603  0.326712  0.563893  1
  Al  Al15  1  0.669837  0.672697  0.444558  1
  Al  Al16  1  0.669837  0.672697  0.055442  1
  Al  Al17  1  0.326603  0.326712  0.936107  1
  Al  Al18  1  0.342725  0.549328  0.250000  1
  Al  Al19  1  0.658356  0.447823  0.750000  1
  Al  Al20  1  0.545660  0.337880  0.250000  1
  Al  Al21  1  0.448492  0.659695  0.750000  1
  Pd  Pd22  1  0.672806  0.328691  0.999661  1
  Pd  Pd23  1  0.327281  0.671958  0.999653  1
  Pd  Pd24  1  0.327281  0.671958  0.500347  1
  Pd  Pd25  1  0.672806  0.328691  0.500339  1
  Rh  Rh26  1  0.000451  0.999657  0.999267  1
  Rh  Rh27  1  0.000451  0.999657  0.500733  1
