# generated using pymatgen
data_SmYFe5Co3B8
_symmetry_space_group_name_H-M   'P 1'
_cell_length_a   6.97431417
_cell_length_b   6.97338446
_cell_length_c   3.80288121
_cell_angle_alpha   90.05565718
_cell_angle_beta   90.06875912
_cell_angle_gamma   90.11147025
_symmetry_Int_Tables_number   1
_chemical_formula_structural   SmYFe5Co3B8
_chemical_formula_sum   'Sm1 Y1 Fe5 Co3 B8'
_cell_volume   184.95093700
_cell_formula_units_Z   1
loop_
 _symmetry_equiv_pos_site_id
 _symmetry_equiv_pos_as_xyz
  1  'x, y, z'
loop_
 _atom_site_type_symbol
 _atom_site_label
 _atom_site_symmetry_multiplicity
 _atom_site_fract_x
 _atom_site_fract_y
 _atom_site_fract_z
 _atom_site_occupancy
  Sm  Sm0  1  0.501330  0.499028  0.502143  1
  Y  Y1  1  0.999999  0.000738  0.002839  1
  Fe  Fe2  1  0.385635  0.131642  0.893380  1
  Fe  Fe3  1  0.614937  0.867282  0.892454  1
  Fe  Fe4  1  0.366415  0.885432  0.393173  1
  Fe  Fe5  1  0.634410  0.113803  0.392728  1
  Fe  Fe6  1  0.114642  0.366459  0.608358  1
  Co  Co7  1  0.885526  0.637764  0.607792  1
  Co  Co8  1  0.135182  0.616906  0.108184  1
  Co  Co9  1  0.862922  0.386187  0.108225  1
  B  B10  1  0.796772  0.666032  0.102079  1
  B  B11  1  0.201286  0.332616  0.104356  1
  B  B12  1  0.839833  0.291891  0.604038  1
  B  B13  1  0.165795  0.700985  0.604603  1
  B  B14  1  0.699391  0.835876  0.392655  1
  B  B15  1  0.296861  0.165292  0.395065  1
  B  B16  1  0.666003  0.197849  0.893787  1
  B  B17  1  0.333060  0.804216  0.894142  1
