# generated using pymatgen
data_Rb8Li4Dy3InSb8
_symmetry_space_group_name_H-M   'P 1'
_cell_length_a   11.17892106
_cell_length_b   11.17892039
_cell_length_c   7.20332508
_cell_angle_alpha   89.98435229
_cell_angle_beta   90.01564081
_cell_angle_gamma   99.98283658
_symmetry_Int_Tables_number   1
_chemical_formula_structural   Rb8Li4Dy3InSb8
_chemical_formula_sum   'Rb8 Li4 Dy3 In1 Sb8'
_cell_volume   886.55792855
_cell_formula_units_Z   1
loop_
 _symmetry_equiv_pos_site_id
 _symmetry_equiv_pos_as_xyz
  1  'x, y, z'
loop_
 _atom_site_type_symbol
 _atom_site_label
 _atom_site_symmetry_multiplicity
 _atom_site_fract_x
 _atom_site_fract_y
 _atom_site_fract_z
 _atom_site_occupancy
  Rb  Rb0  1  0.570682  0.929340  0.746750  1
  Rb  Rb1  1  0.929340  0.570682  0.253250  1
  Rb  Rb2  1  0.429860  0.078898  0.256963  1
  Rb  Rb3  1  0.078898  0.429860  0.743037  1
  Rb  Rb4  1  0.669598  0.322333  0.773217  1
  Rb  Rb5  1  0.824168  0.175872  0.281033  1
  Rb  Rb6  1  0.322333  0.669598  0.226783  1
  Rb  Rb7  1  0.175872  0.824168  0.718967  1
  Li  Li8  1  0.618111  0.618111  0.000000  1
  Li  Li9  1  0.879055  0.879055  0.500000  1
  Li  Li10  1  0.379171  0.379171  0.000000  1
  Li  Li11  1  0.123526  0.123526  0.500000  1
  Dy  Dy12  1  0.869385  0.869385  0.000000  1
  Dy  Dy13  1  0.625068  0.625068  0.500000  1
  Dy  Dy14  1  0.131326  0.131326  0.000000  1
  In  In15  1  0.374242  0.374242  0.500000  1
  Sb  Sb16  1  0.348361  0.158700  0.744858  1
  Sb  Sb17  1  0.158700  0.348361  0.255142  1
  Sb  Sb18  1  0.651465  0.844586  0.249816  1
  Sb  Sb19  1  0.844586  0.651465  0.750184  1
  Sb  Sb20  1  0.905606  0.096560  0.760012  1
  Sb  Sb21  1  0.592309  0.401776  0.259372  1
  Sb  Sb22  1  0.096560  0.905606  0.239988  1
  Sb  Sb23  1  0.401776  0.592309  0.740628  1
