# generated using pymatgen
data_YF5
_symmetry_space_group_name_H-M   'P 1'
_cell_length_a   4.37138712
_cell_length_b   4.36575732
_cell_length_c   4.47664200
_cell_angle_alpha   92.91231952
_cell_angle_beta   86.87649630
_cell_angle_gamma   88.16062833
_symmetry_Int_Tables_number   1
_chemical_formula_structural   YF5
_chemical_formula_sum   'Y1 F5'
_cell_volume   85.14490757
_cell_formula_units_Z   1
loop_
 _symmetry_equiv_pos_site_id
 _symmetry_equiv_pos_as_xyz
  1  'x, y, z'
loop_
 _atom_site_type_symbol
 _atom_site_label
 _atom_site_symmetry_multiplicity
 _atom_site_fract_x
 _atom_site_fract_y
 _atom_site_fract_z
 _atom_site_occupancy
  Y  Y0  1  0.330845  0.473081  0.903680  1
  F  F1  1  0.318567  0.974184  0.917016  1
  F  F2  1  0.906091  0.873373  0.435845  1
  F  F3  1  0.829598  0.476517  0.914392  1
  F  F4  1  0.673556  0.117439  0.408619  1
  F  F5  1  0.308689  0.494325  0.406358  1
