# generated using pymatgen
data_Ce4Tm12CdRu4Pb3
_symmetry_space_group_name_H-M   'P 1'
_cell_length_a   9.52712222
_cell_length_b   9.57122921
_cell_length_c   9.57372305
_cell_angle_alpha   60.69062567
_cell_angle_beta   60.61949138
_cell_angle_gamma   60.65381955
_symmetry_Int_Tables_number   1
_chemical_formula_structural   Ce4Tm12CdRu4Pb3
_chemical_formula_sum   'Ce4 Tm12 Cd1 Ru4 Pb3'
_cell_volume   626.42176981
_cell_formula_units_Z   1
loop_
 _symmetry_equiv_pos_site_id
 _symmetry_equiv_pos_as_xyz
  1  'x, y, z'
loop_
 _atom_site_type_symbol
 _atom_site_label
 _atom_site_symmetry_multiplicity
 _atom_site_fract_x
 _atom_site_fract_y
 _atom_site_fract_z
 _atom_site_occupancy
  Ce  Ce0  1  0.347229  0.347113  0.960289  1
  Ce  Ce1  1  0.347228  0.960461  0.347048  1
  Ce  Ce2  1  0.959944  0.347346  0.347321  1
  Ce  Ce3  1  0.345556  0.345723  0.345751  1
  Tm  Tm4  1  0.560709  0.560714  0.936164  1
  Tm  Tm5  1  0.941881  0.557593  0.941948  1
  Tm  Tm6  1  0.557892  0.941695  0.941598  1
  Tm  Tm7  1  0.941756  0.941907  0.557718  1
  Tm  Tm8  1  0.560806  0.936114  0.560873  1
  Tm  Tm9  1  0.936037  0.560675  0.560740  1
  Tm  Tm10  1  0.187491  0.187430  0.812551  1
  Tm  Tm11  1  0.813420  0.186026  0.813237  1
  Tm  Tm12  1  0.185935  0.813343  0.813441  1
  Tm  Tm13  1  0.813463  0.813192  0.186022  1
  Tm  Tm14  1  0.187471  0.812519  0.187390  1
  Tm  Tm15  1  0.812666  0.187452  0.187425  1
  Cd  Cd16  1  0.584085  0.584118  0.584131  1
  Ru  Ru17  1  0.143262  0.143425  0.567376  1
  Ru  Ru18  1  0.143293  0.567354  0.143380  1
  Ru  Ru19  1  0.567530  0.143352  0.143261  1
  Ru  Ru20  1  0.143746  0.143930  0.143885  1
  Pb  Pb21  1  0.590671  0.590722  0.237093  1
  Pb  Pb22  1  0.590680  0.237114  0.590712  1
  Pb  Pb23  1  0.237243  0.590683  0.590645  1
