# generated using pymatgen
data_Sm3(ZnPt)4
_symmetry_space_group_name_H-M   'P 1'
_cell_length_a   8.32118075
_cell_length_b   8.32118074
_cell_length_c   8.32118135
_cell_angle_alpha   151.33943049
_cell_angle_beta   126.90891720
_cell_angle_gamma   61.44376565
_symmetry_Int_Tables_number   1
_chemical_formula_structural   Sm3(ZnPt)4
_chemical_formula_sum   'Sm3 Zn4 Pt4'
_cell_volume   219.15637839
_cell_formula_units_Z   1
loop_
 _symmetry_equiv_pos_site_id
 _symmetry_equiv_pos_as_xyz
  1  'x, y, z'
loop_
 _atom_site_type_symbol
 _atom_site_label
 _atom_site_symmetry_multiplicity
 _atom_site_fract_x
 _atom_site_fract_y
 _atom_site_fract_z
 _atom_site_occupancy
  Sm  Sm0  1  0.500000  0.000000  0.500000  1
  Sm  Sm1  1  0.873682  0.873682  0.000000  1
  Sm  Sm2  1  0.126318  0.126318  0.000000  1
  Zn  Zn3  1  0.478412  0.673230  0.805182  1
  Zn  Zn4  1  0.868048  0.673230  0.194818  1
  Zn  Zn5  1  0.131952  0.326770  0.805182  1
  Zn  Zn6  1  0.521588  0.326770  0.194818  1
  Pt  Pt7  1  0.281227  0.781227  0.500000  1
  Pt  Pt8  1  0.718773  0.218773  0.500000  1
  Pt  Pt9  1  0.804412  0.500000  0.304412  1
  Pt  Pt10  1  0.195588  0.500000  0.695588  1
