# generated using pymatgen
data_Gd2Ho2Cd2CuPd3
_symmetry_space_group_name_H-M   'P 1'
_cell_length_a   7.69954031
_cell_length_b   7.69953956
_cell_length_c   3.75689800
_cell_angle_alpha   90.00000000
_cell_angle_beta   90.00000000
_cell_angle_gamma   90.11425627
_symmetry_Int_Tables_number   1
_chemical_formula_structural   Gd2Ho2Cd2CuPd3
_chemical_formula_sum   'Gd2 Ho2 Cd2 Cu1 Pd3'
_cell_volume   222.71942280
_cell_formula_units_Z   1
loop_
 _symmetry_equiv_pos_site_id
 _symmetry_equiv_pos_as_xyz
  1  'x, y, z'
loop_
 _atom_site_type_symbol
 _atom_site_label
 _atom_site_symmetry_multiplicity
 _atom_site_fract_x
 _atom_site_fract_y
 _atom_site_fract_z
 _atom_site_occupancy
  Gd  Gd0  1  0.674010  0.174010  0.500000  1
  Gd  Gd1  1  0.330280  0.830280  0.500000  1
  Ho  Ho2  1  0.169936  0.327024  0.500000  1
  Ho  Ho3  1  0.827024  0.669936  0.500000  1
  Cd  Cd4  1  0.999687  0.996872  0.000000  1
  Cd  Cd5  1  0.496872  0.499687  0.000000  1
  Cu  Cu6  1  0.121185  0.621185  0.000000  1
  Pd  Pd7  1  0.876995  0.376995  0.000000  1
  Pd  Pd8  1  0.632264  0.871747  0.000000  1
  Pd  Pd9  1  0.371747  0.132264  0.000000  1
