# generated using pymatgen
data_YEr15In6FeCo
_symmetry_space_group_name_H-M   'P 1'
_cell_length_a   10.25570000
_cell_length_b   10.26767997
_cell_length_c   6.96888901
_cell_angle_alpha   90.01339717
_cell_angle_beta   90.00000000
_cell_angle_gamma   119.96139836
_symmetry_Int_Tables_number   1
_chemical_formula_structural   YEr15In6FeCo
_chemical_formula_sum   'Y1 Er15 In6 Fe1 Co1'
_cell_volume   635.77082458
_cell_formula_units_Z   1
loop_
 _symmetry_equiv_pos_site_id
 _symmetry_equiv_pos_as_xyz
  1  'x, y, z'
loop_
 _atom_site_type_symbol
 _atom_site_label
 _atom_site_symmetry_multiplicity
 _atom_site_fract_x
 _atom_site_fract_y
 _atom_site_fract_z
 _atom_site_occupancy
  Y  Y0  1  0.534455  0.068910  0.790978  1
  Er  Er1  1  0.929158  0.464442  0.791349  1
  Er  Er2  1  0.535285  0.464442  0.791349  1
  Er  Er3  1  0.464407  0.928814  0.291906  1
  Er  Er4  1  0.070386  0.535422  0.292498  1
  Er  Er5  1  0.465037  0.535422  0.292498  1
  Er  Er6  1  0.821741  0.643483  0.498157  1
  Er  Er7  1  0.357092  0.179209  0.496834  1
  Er  Er8  1  0.822118  0.179209  0.496834  1
  Er  Er9  1  0.178613  0.357225  0.998799  1
  Er  Er10  1  0.643294  0.820724  0.998926  1
  Er  Er11  1  0.177430  0.820724  0.998926  1
  Er  Er12  1  0.666940  0.333879  0.181804  1
  Er  Er13  1  0.332971  0.665943  0.682440  1
  Er  Er14  1  0.000117  0.000233  0.779621  1
  Er  Er15  1  0.999867  0.999734  0.279291  1
  In  In16  1  0.836752  0.673504  0.039185  1
  In  In17  1  0.325161  0.162379  0.039638  1
  In  In18  1  0.837217  0.162379  0.039638  1
  In  In19  1  0.163363  0.326726  0.540918  1
  In  In20  1  0.674267  0.837521  0.540763  1
  In  In21  1  0.163255  0.837521  0.540763  1
  Fe  Fe22  1  0.667702  0.335402  0.565413  1
  Co  Co23  1  0.333372  0.666747  0.067376  1
