# generated using pymatgen
data_Tm12CdCo5
_symmetry_space_group_name_H-M   'P 1'
_cell_length_a   8.15477581
_cell_length_b   8.15477588
_cell_length_c   8.15477518
_cell_angle_alpha   110.95360946
_cell_angle_beta   110.55855842
_cell_angle_gamma   106.93121777
_symmetry_Int_Tables_number   1
_chemical_formula_structural   Tm12CdCo5
_chemical_formula_sum   'Tm12 Cd1 Co5'
_cell_volume   416.84225407
_cell_formula_units_Z   1
loop_
 _symmetry_equiv_pos_site_id
 _symmetry_equiv_pos_as_xyz
  1  'x, y, z'
loop_
 _atom_site_type_symbol
 _atom_site_label
 _atom_site_symmetry_multiplicity
 _atom_site_fract_x
 _atom_site_fract_y
 _atom_site_fract_z
 _atom_site_occupancy
  Tm  Tm0  1  0.286972  0.184153  0.471125  1
  Tm  Tm1  1  0.713028  0.815847  0.528875  1
  Tm  Tm2  1  0.286972  0.815847  0.102819  1
  Tm  Tm3  1  0.713028  0.184153  0.897181  1
  Tm  Tm4  1  0.619277  0.314341  0.304936  1
  Tm  Tm5  1  0.380723  0.685659  0.695064  1
  Tm  Tm6  1  0.009405  0.314341  0.695064  1
  Tm  Tm7  1  0.990595  0.685659  0.304936  1
  Tm  Tm8  1  0.213231  0.406054  0.192825  1
  Tm  Tm9  1  0.786769  0.593946  0.807175  1
  Tm  Tm10  1  0.213231  0.020406  0.807175  1
  Tm  Tm11  1  0.786769  0.979594  0.192825  1
  Cd  Cd12  1  0.500000  0.500000  0.000000  1
  Co  Co13  1  0.000000  0.376179  0.376179  1
  Co  Co14  1  0.000000  0.623821  0.623821  1
  Co  Co15  1  0.386728  0.886728  0.500000  1
  Co  Co16  1  0.613272  0.113272  0.500000  1
  Co  Co17  1  0.000000  0.000000  0.000000  1
