# generated using pymatgen
data_K4As4PdPt3
_symmetry_space_group_name_H-M   'P 1'
_cell_length_a   6.80534608
_cell_length_b   6.80534632
_cell_length_c   6.80534585
_cell_angle_alpha   89.80663349
_cell_angle_beta   90.19336555
_cell_angle_gamma   89.80662991
_symmetry_Int_Tables_number   1
_chemical_formula_structural   K4As4PdPt3
_chemical_formula_sum   'K4 As4 Pd1 Pt3'
_cell_volume   315.16879510
_cell_formula_units_Z   1
loop_
 _symmetry_equiv_pos_site_id
 _symmetry_equiv_pos_as_xyz
  1  'x, y, z'
loop_
 _atom_site_type_symbol
 _atom_site_label
 _atom_site_symmetry_multiplicity
 _atom_site_fract_x
 _atom_site_fract_y
 _atom_site_fract_z
 _atom_site_occupancy
  K  K0  1  0.626819  0.376609  0.874612  1
  K  K1  1  0.374612  0.873181  0.623391  1
  K  K2  1  0.123391  0.125388  0.126819  1
  K  K3  1  0.872860  0.627140  0.372860  1
  As  As4  1  0.158436  0.341564  0.658436  1
  As  As5  1  0.656788  0.157979  0.346425  1
  As  As6  1  0.342021  0.653575  0.156788  1
  As  As7  1  0.846425  0.843212  0.842021  1
  Pd  Pd8  1  0.601854  0.898146  0.101854  1
  Pt  Pt9  1  0.103855  0.602562  0.895501  1
  Pt  Pt10  1  0.395501  0.396145  0.397438  1
  Pt  Pt11  1  0.897438  0.104499  0.603855  1
