# generated using pymatgen
data_Th5Ga2Tc3
_symmetry_space_group_name_H-M   'P 1'
_cell_length_a   8.54781937
_cell_length_b   8.54781954
_cell_length_c   8.54782018
_cell_angle_alpha   109.51378037
_cell_angle_beta   109.51378296
_cell_angle_gamma   109.51379147
_symmetry_Int_Tables_number   1
_chemical_formula_structural   Th5Ga2Tc3
_chemical_formula_sum   'Th10 Ga4 Tc6'
_cell_volume   480.01838355
_cell_formula_units_Z   2
loop_
 _symmetry_equiv_pos_site_id
 _symmetry_equiv_pos_as_xyz
  1  'x, y, z'
loop_
 _atom_site_type_symbol
 _atom_site_label
 _atom_site_symmetry_multiplicity
 _atom_site_fract_x
 _atom_site_fract_y
 _atom_site_fract_z
 _atom_site_occupancy
  Th  Th0  1  0.463876  0.157036  0.213098  1
  Th  Th1  1  0.157036  0.213098  0.463876  1
  Th  Th2  1  0.213098  0.463876  0.157036  1
  Th  Th3  1  0.407355  0.688067  0.906422  1
  Th  Th4  1  0.688067  0.906422  0.407355  1
  Th  Th5  1  0.906422  0.407355  0.688067  1
  Th  Th6  1  0.656537  0.101496  0.851712  1
  Th  Th7  1  0.101496  0.851712  0.656537  1
  Th  Th8  1  0.851712  0.656537  0.101496  1
  Th  Th9  1  0.626027  0.626027  0.626027  1
  Ga  Ga10  1  0.407340  0.310765  0.908725  1
  Ga  Ga11  1  0.310765  0.908725  0.407340  1
  Ga  Ga12  1  0.908725  0.407340  0.310765  1
  Ga  Ga13  1  0.004014  0.004014  0.004014  1
  Tc  Tc14  1  0.028917  0.157849  0.779905  1
  Tc  Tc15  1  0.157849  0.779905  0.028917  1
  Tc  Tc16  1  0.779905  0.028917  0.157849  1
  Tc  Tc17  1  0.659128  0.534744  0.286987  1
  Tc  Tc18  1  0.534744  0.286987  0.659128  1
  Tc  Tc19  1  0.286987  0.659128  0.534744  1
