# generated using pymatgen
data_Tb4InPb11
_symmetry_space_group_name_H-M   'P 1'
_cell_length_a   9.87730700
_cell_length_b   6.88258271
_cell_length_c   6.88290164
_cell_angle_alpha   90.05074280
_cell_angle_beta   90.00000000
_cell_angle_gamma   90.00000000
_symmetry_Int_Tables_number   1
_chemical_formula_structural   Tb4InPb11
_chemical_formula_sum   'Tb4 In1 Pb11'
_cell_volume   467.90898494
_cell_formula_units_Z   1
loop_
 _symmetry_equiv_pos_site_id
 _symmetry_equiv_pos_as_xyz
  1  'x, y, z'
loop_
 _atom_site_type_symbol
 _atom_site_label
 _atom_site_symmetry_multiplicity
 _atom_site_fract_x
 _atom_site_fract_y
 _atom_site_fract_z
 _atom_site_occupancy
  Tb  Tb0  1  0.250000  0.001931  0.001094  1
  Tb  Tb1  1  0.250000  0.498877  0.502335  1
  Tb  Tb2  1  0.750000  0.998198  0.997955  1
  Tb  Tb3  1  0.750000  0.500665  0.498644  1
  In  In4  1  0.750000  0.497932  0.998477  1
  Pb  Pb5  1  0.997540  0.249932  0.750083  1
  Pb  Pb6  1  0.502563  0.251570  0.248481  1
  Pb  Pb7  1  0.502697  0.750413  0.250312  1
  Pb  Pb8  1  0.997436  0.748486  0.751353  1
  Pb  Pb9  1  0.997303  0.750413  0.250312  1
  Pb  Pb10  1  0.502564  0.748486  0.751353  1
  Pb  Pb11  1  0.502460  0.249932  0.750083  1
  Pb  Pb12  1  0.997437  0.251570  0.248481  1
  Pb  Pb13  1  0.250000  0.999223  0.500428  1
  Pb  Pb14  1  0.250000  0.501603  0.001762  1
  Pb  Pb15  1  0.750000  0.000769  0.498840  1
