# generated using pymatgen
data_Rb8Mn3Cr5N16
_symmetry_space_group_name_H-M   'P 1'
_cell_length_a   5.73499302
_cell_length_b   8.12538703
_cell_length_c   11.47703100
_cell_angle_alpha   90.00000000
_cell_angle_beta   90.00000000
_cell_angle_gamma   89.99087203
_symmetry_Int_Tables_number   1
_chemical_formula_structural   Rb8Mn3Cr5N16
_chemical_formula_sum   'Rb8 Mn3 Cr5 N16'
_cell_volume   534.81859534
_cell_formula_units_Z   1
loop_
 _symmetry_equiv_pos_site_id
 _symmetry_equiv_pos_as_xyz
  1  'x, y, z'
loop_
 _atom_site_type_symbol
 _atom_site_label
 _atom_site_symmetry_multiplicity
 _atom_site_fract_x
 _atom_site_fract_y
 _atom_site_fract_z
 _atom_site_occupancy
  Rb  Rb0  1  0.750144  0.124568  0.999302  1
  Rb  Rb1  1  0.249994  0.875099  0.499232  1
  Rb  Rb2  1  0.249994  0.875099  0.000768  1
  Rb  Rb3  1  0.750144  0.124568  0.500698  1
  Rb  Rb4  1  0.738875  0.373965  0.250000  1
  Rb  Rb5  1  0.238732  0.626437  0.250000  1
  Rb  Rb6  1  0.260973  0.624804  0.750000  1
  Rb  Rb7  1  0.761053  0.375576  0.750000  1
  Mn  Mn8  1  0.241961  0.121632  0.250000  1
  Mn  Mn9  1  0.741911  0.879442  0.250000  1
  Mn  Mn10  1  0.758069  0.874114  0.750000  1
  Cr  Cr11  1  0.250009  0.373317  0.001513  1
  Cr  Cr12  1  0.749970  0.628069  0.499012  1
  Cr  Cr13  1  0.749970  0.628069  0.000988  1
  Cr  Cr14  1  0.250009  0.373317  0.498487  1
  Cr  Cr15  1  0.258038  0.121762  0.750000  1
  N  N16  1  0.987308  0.005015  0.250000  1
  N  N17  1  0.485881  0.994132  0.250000  1
  N  N18  1  0.012817  0.992949  0.750000  1
  N  N19  1  0.514572  0.004307  0.750000  1
  N  N20  1  0.248507  0.247904  0.374956  1
  N  N21  1  0.748532  0.753241  0.124438  1
  N  N22  1  0.751465  0.751674  0.874585  1
  N  N23  1  0.251325  0.248079  0.624367  1
  N  N24  1  0.751465  0.751674  0.625415  1
  N  N25  1  0.251325  0.248079  0.875633  1
  N  N26  1  0.248507  0.247904  0.125044  1
  N  N27  1  0.748532  0.753241  0.375562  1
  N  N28  1  0.499608  0.500479  0.498889  1
  N  N29  1  0.000351  0.500504  0.001179  1
  N  N30  1  0.499608  0.500479  0.001111  1
  N  N31  1  0.000351  0.500504  0.498821  1
