# generated using pymatgen
data_Th2Si2Ir3Rh
_symmetry_space_group_name_H-M   'P 1'
_cell_length_a   9.35749713
_cell_length_b   9.35749688
_cell_length_c   4.07597400
_cell_angle_alpha   90.00000000
_cell_angle_beta   90.00000000
_cell_angle_gamma   154.91229004
_symmetry_Int_Tables_number   1
_chemical_formula_structural   Th2Si2Ir3Rh
_chemical_formula_sum   'Th2 Si2 Ir3 Rh1'
_cell_volume   151.32892524
_cell_formula_units_Z   1
loop_
 _symmetry_equiv_pos_site_id
 _symmetry_equiv_pos_as_xyz
  1  'x, y, z'
loop_
 _atom_site_type_symbol
 _atom_site_label
 _atom_site_symmetry_multiplicity
 _atom_site_fract_x
 _atom_site_fract_y
 _atom_site_fract_z
 _atom_site_occupancy
  Th  Th0  1  0.102329  0.897671  0.750000  1
  Th  Th1  1  0.897866  0.102134  0.250000  1
  Si  Si2  1  0.320956  0.679044  0.750000  1
  Si  Si3  1  0.678913  0.321087  0.250000  1
  Ir  Ir4  1  0.547328  0.452672  0.250000  1
  Ir  Ir5  1  0.452564  0.547436  0.750000  1
  Ir  Ir6  1  0.249563  0.750437  0.250000  1
  Rh  Rh7  1  0.750483  0.249517  0.750000  1
