# generated using pymatgen
data_Tb9ErRu3Rh
_symmetry_space_group_name_H-M   'P 1'
_cell_length_a   6.38345335
_cell_length_b   7.29081503
_cell_length_c   8.53961186
_cell_angle_alpha   96.67024079
_cell_angle_beta   111.81639414
_cell_angle_gamma   90.05761240
_symmetry_Int_Tables_number   1
_chemical_formula_structural   Tb9ErRu3Rh
_chemical_formula_sum   'Tb9 Er1 Ru3 Rh1'
_cell_volume   366.05545241
_cell_formula_units_Z   1
loop_
 _symmetry_equiv_pos_site_id
 _symmetry_equiv_pos_as_xyz
  1  'x, y, z'
loop_
 _atom_site_type_symbol
 _atom_site_label
 _atom_site_symmetry_multiplicity
 _atom_site_fract_x
 _atom_site_fract_y
 _atom_site_fract_z
 _atom_site_occupancy
  Tb  Tb0  1  0.794204  0.582157  0.815229  1
  Tb  Tb1  1  0.980955  0.915249  0.188753  1
  Tb  Tb2  1  0.206648  0.414047  0.185854  1
  Tb  Tb3  1  0.023605  0.087243  0.815486  1
  Tb  Tb4  1  0.205010  0.683238  0.564509  1
  Tb  Tb5  1  0.642780  0.814883  0.431454  1
  Tb  Tb6  1  0.791462  0.313997  0.433263  1
  Tb  Tb7  1  0.357233  0.187378  0.565194  1
  Tb  Tb8  1  0.420593  0.749152  0.000460  1
  Er  Er9  1  0.578191  0.252578  0.001757  1
  Ru  Ru10  1  0.823948  0.575863  0.219064  1
  Ru  Ru11  1  0.396796  0.075648  0.220703  1
  Ru  Ru12  1  0.178444  0.423132  0.779847  1
  Rh  Rh13  1  0.600131  0.925435  0.778426  1
