# generated using pymatgen
data_BaHo(AgSn)2
_symmetry_space_group_name_H-M   'P 1'
_cell_length_a   4.87275300
_cell_length_b   4.87275385
_cell_length_c   8.19236300
_cell_angle_alpha   90.00000000
_cell_angle_beta   90.00000000
_cell_angle_gamma   120.00001459
_symmetry_Int_Tables_number   1
_chemical_formula_structural   BaHo(AgSn)2
_chemical_formula_sum   'Ba1 Ho1 Ag2 Sn2'
_cell_volume   168.45683085
_cell_formula_units_Z   1
loop_
 _symmetry_equiv_pos_site_id
 _symmetry_equiv_pos_as_xyz
  1  'x, y, z'
loop_
 _atom_site_type_symbol
 _atom_site_label
 _atom_site_symmetry_multiplicity
 _atom_site_fract_x
 _atom_site_fract_y
 _atom_site_fract_z
 _atom_site_occupancy
  Ba  Ba0  1  0.000000  0.000000  0.504794  1
  Ho  Ho1  1  0.000000  0.000000  0.004942  1
  Ag  Ag2  1  0.333333  0.666667  0.832242  1
  Ag  Ag3  1  0.666667  0.333333  0.183444  1
  Sn  Sn4  1  0.666667  0.333333  0.797954  1
  Sn  Sn5  1  0.333333  0.666667  0.209704  1
