# generated using pymatgen
data_Ce4B4Ir9Pt
_symmetry_space_group_name_H-M   'P 1'
_cell_length_a   10.98391585
_cell_length_b   10.98391561
_cell_length_c   10.98391558
_cell_angle_alpha   29.22583210
_cell_angle_beta   29.22583280
_cell_angle_gamma   29.22583813
_symmetry_Int_Tables_number   1
_chemical_formula_structural   Ce4B4Ir9Pt
_chemical_formula_sum   'Ce4 B4 Ir9 Pt1'
_cell_volume   279.50928077
_cell_formula_units_Z   1
loop_
 _symmetry_equiv_pos_site_id
 _symmetry_equiv_pos_as_xyz
  1  'x, y, z'
loop_
 _atom_site_type_symbol
 _atom_site_label
 _atom_site_symmetry_multiplicity
 _atom_site_fract_x
 _atom_site_fract_y
 _atom_site_fract_z
 _atom_site_occupancy
  Ce  Ce0  1  0.151626  0.151626  0.151626  1
  Ce  Ce1  1  0.949864  0.949864  0.949864  1
  Ce  Ce2  1  0.848374  0.848374  0.848374  1
  Ce  Ce3  1  0.050136  0.050136  0.050136  1
  B  B4  1  0.617367  0.617367  0.617367  1
  B  B5  1  0.716870  0.716870  0.716870  1
  B  B6  1  0.382633  0.382633  0.382633  1
  B  B7  1  0.283130  0.283130  0.283130  1
  Ir  Ir8  1  0.406508  0.900708  0.406508  1
  Ir  Ir9  1  0.900708  0.406508  0.406508  1
  Ir  Ir10  1  0.500000  0.500000  0.000000  1
  Ir  Ir11  1  0.500000  0.000000  0.500000  1
  Ir  Ir12  1  0.000000  0.500000  0.500000  1
  Ir  Ir13  1  0.593492  0.099292  0.593492  1
  Ir  Ir14  1  0.593492  0.593492  0.099292  1
  Ir  Ir15  1  0.099292  0.593492  0.593492  1
  Ir  Ir16  1  0.406508  0.406508  0.900708  1
  Pt  Pt17  1  0.500000  0.500000  0.500000  1
