# generated using pymatgen
data_Y20Cd3Hg3OsPd
_symmetry_space_group_name_H-M   'P 1'
_cell_length_a   9.73154600
_cell_length_b   9.73154645
_cell_length_c   9.74717100
_cell_angle_alpha   90.00000000
_cell_angle_beta   90.00000000
_cell_angle_gamma   120.00000526
_symmetry_Int_Tables_number   1
_chemical_formula_structural   Y20Cd3Hg3OsPd
_chemical_formula_sum   'Y20 Cd3 Hg3 Os1 Pd1'
_cell_volume   799.41610596
_cell_formula_units_Z   1
loop_
 _symmetry_equiv_pos_site_id
 _symmetry_equiv_pos_as_xyz
  1  'x, y, z'
loop_
 _atom_site_type_symbol
 _atom_site_label
 _atom_site_symmetry_multiplicity
 _atom_site_fract_x
 _atom_site_fract_y
 _atom_site_fract_z
 _atom_site_occupancy
  Y  Y0  1  0.209179  0.790821  0.938344  1
  Y  Y1  1  0.209179  0.418360  0.938344  1
  Y  Y2  1  0.581640  0.790821  0.938344  1
  Y  Y3  1  0.792655  0.207345  0.058335  1
  Y  Y4  1  0.792655  0.585310  0.058335  1
  Y  Y5  1  0.414690  0.207345  0.058335  1
  Y  Y6  1  0.792655  0.207345  0.441665  1
  Y  Y7  1  0.792655  0.585310  0.441665  1
  Y  Y8  1  0.414690  0.207345  0.441665  1
  Y  Y9  1  0.209179  0.790821  0.561656  1
  Y  Y10  1  0.209179  0.418360  0.561656  1
  Y  Y11  1  0.581640  0.790821  0.561656  1
  Y  Y12  1  0.540023  0.459977  0.750000  1
  Y  Y13  1  0.540023  0.080047  0.750000  1
  Y  Y14  1  0.919953  0.459977  0.750000  1
  Y  Y15  1  0.456722  0.543278  0.250000  1
  Y  Y16  1  0.456722  0.913444  0.250000  1
  Y  Y17  1  0.086556  0.543278  0.250000  1
  Y  Y18  1  0.000000  0.000000  0.987594  1
  Y  Y19  1  0.000000  0.000000  0.512406  1
  Cd  Cd20  1  0.112300  0.887700  0.250000  1
  Cd  Cd21  1  0.112300  0.224598  0.250000  1
  Cd  Cd22  1  0.775402  0.887700  0.250000  1
  Hg  Hg23  1  0.877622  0.122378  0.750000  1
  Hg  Hg24  1  0.877622  0.755245  0.750000  1
  Hg  Hg25  1  0.244755  0.122378  0.750000  1
  Os  Os26  1  0.333333  0.666667  0.750000  1
  Pd  Pd27  1  0.666667  0.333333  0.250000  1
