# generated using pymatgen
data_YEr11InCo4Ir
_symmetry_space_group_name_H-M   'P 1'
_cell_length_a   8.22957205
_cell_length_b   8.22957218
_cell_length_c   8.22547076
_cell_angle_alpha   111.17205148
_cell_angle_beta   110.79037069
_cell_angle_gamma   106.51326983
_symmetry_Int_Tables_number   1
_chemical_formula_structural   YEr11InCo4Ir
_chemical_formula_sum   'Y1 Er11 In1 Co4 Ir1'
_cell_volume   427.86247989
_cell_formula_units_Z   1
loop_
 _symmetry_equiv_pos_site_id
 _symmetry_equiv_pos_as_xyz
  1  'x, y, z'
loop_
 _atom_site_type_symbol
 _atom_site_label
 _atom_site_symmetry_multiplicity
 _atom_site_fract_x
 _atom_site_fract_y
 _atom_site_fract_z
 _atom_site_occupancy
  Y  Y0  1  0.185586  0.286970  0.472556  1
  Er  Er1  1  0.815913  0.713973  0.529887  1
  Er  Er2  1  0.183856  0.713945  0.897801  1
  Er  Er3  1  0.815601  0.286806  0.102407  1
  Er  Er4  1  0.315462  0.621207  0.305544  1
  Er  Er5  1  0.685842  0.379314  0.694917  1
  Er  Er6  1  0.315603  0.009074  0.694917  1
  Er  Er7  1  0.684337  0.990083  0.305544  1
  Er  Er8  1  0.412242  0.216574  0.194702  1
  Er  Er9  1  0.590507  0.784760  0.806601  1
  Er  Er10  1  0.021841  0.216093  0.806601  1
  Er  Er11  1  0.978127  0.782460  0.194702  1
  In  In12  1  0.499207  0.499982  0.999189  1
  Co  Co13  1  0.109933  0.613107  0.498598  1
  Co  Co14  1  0.885491  0.388665  0.498598  1
  Co  Co15  1  0.377897  0.999217  0.377114  1
  Co  Co16  1  0.622230  0.000004  0.622233  1
  Ir  Ir17  1  0.000326  0.997766  0.998092  1
