# generated using pymatgen
data_Tb2Ti(AlPt2)2
_symmetry_space_group_name_H-M   'P 1'
_cell_length_a   8.18734617
_cell_length_b   8.18734531
_cell_length_c   7.71506300
_cell_angle_alpha   90.00000000
_cell_angle_beta   90.00000000
_cell_angle_gamma   140.08653954
_symmetry_Int_Tables_number   1
_chemical_formula_structural   Tb2Ti(AlPt2)2
_chemical_formula_sum   'Tb4 Ti2 Al4 Pt8'
_cell_volume   331.82590956
_cell_formula_units_Z   2
loop_
 _symmetry_equiv_pos_site_id
 _symmetry_equiv_pos_as_xyz
  1  'x, y, z'
loop_
 _atom_site_type_symbol
 _atom_site_label
 _atom_site_symmetry_multiplicity
 _atom_site_fract_x
 _atom_site_fract_y
 _atom_site_fract_z
 _atom_site_occupancy
  Tb  Tb0  1  0.107375  0.892625  0.407889  1
  Tb  Tb1  1  0.892625  0.107375  0.592111  1
  Tb  Tb2  1  0.392625  0.607375  0.907889  1
  Tb  Tb3  1  0.607375  0.392625  0.092111  1
  Ti  Ti4  1  0.000000  0.000000  0.000000  1
  Ti  Ti5  1  0.500000  0.500000  0.500000  1
  Al  Al6  1  0.021546  0.478454  0.250000  1
  Al  Al7  1  0.478454  0.021546  0.750000  1
  Al  Al8  1  0.978454  0.521546  0.750000  1
  Al  Al9  1  0.521546  0.978454  0.250000  1
  Pt  Pt10  1  0.188071  0.311929  0.250000  1
  Pt  Pt11  1  0.311929  0.188071  0.750000  1
  Pt  Pt12  1  0.811929  0.688071  0.750000  1
  Pt  Pt13  1  0.688071  0.811929  0.250000  1
  Pt  Pt14  1  0.180685  0.819315  0.025669  1
  Pt  Pt15  1  0.819315  0.180685  0.974331  1
  Pt  Pt16  1  0.319315  0.680685  0.525669  1
  Pt  Pt17  1  0.680685  0.319315  0.474331  1
