# generated using pymatgen
data_TlTcF6
_symmetry_space_group_name_H-M   'P 1'
_cell_length_a   5.14995043
_cell_length_b   5.14995064
_cell_length_c   5.14995000
_cell_angle_alpha   96.89806360
_cell_angle_beta   96.89806389
_cell_angle_gamma   96.89806838
_symmetry_Int_Tables_number   1
_chemical_formula_structural   TlTcF6
_chemical_formula_sum   'Tl1 Tc1 F6'
_cell_volume   133.35673677
_cell_formula_units_Z   1
loop_
 _symmetry_equiv_pos_site_id
 _symmetry_equiv_pos_as_xyz
  1  'x, y, z'
loop_
 _atom_site_type_symbol
 _atom_site_label
 _atom_site_symmetry_multiplicity
 _atom_site_fract_x
 _atom_site_fract_y
 _atom_site_fract_z
 _atom_site_occupancy
  Tl  Tl0  1  0.000000  0.000000  0.000000  1
  Tc  Tc1  1  0.500000  0.500000  0.500000  1
  F  F2  1  0.575542  0.294278  0.191486  1
  F  F3  1  0.191486  0.575542  0.294279  1
  F  F4  1  0.705721  0.808513  0.424459  1
  F  F5  1  0.294279  0.191487  0.575541  1
  F  F6  1  0.808514  0.424458  0.705721  1
  F  F7  1  0.424458  0.705721  0.808513  1
