# generated using pymatgen
data_ZrSn(As2O7)2
_symmetry_space_group_name_H-M   'P 1'
_cell_length_a   5.48999713
_cell_length_b   5.56229199
_cell_length_c   9.88149332
_cell_angle_alpha   80.46951730
_cell_angle_beta   82.21244103
_cell_angle_gamma   99.02665548
_symmetry_Int_Tables_number   1
_chemical_formula_structural   ZrSn(As2O7)2
_chemical_formula_sum   'Zr1 Sn1 As4 O14'
_cell_volume   289.83318755
_cell_formula_units_Z   1
loop_
 _symmetry_equiv_pos_site_id
 _symmetry_equiv_pos_as_xyz
  1  'x, y, z'
loop_
 _atom_site_type_symbol
 _atom_site_label
 _atom_site_symmetry_multiplicity
 _atom_site_fract_x
 _atom_site_fract_y
 _atom_site_fract_z
 _atom_site_occupancy
  Zr  Zr0  1  0.000000  0.000000  0.000000  1
  Sn  Sn1  1  0.000000  0.000000  0.500000  1
  As  As2  1  0.173828  0.439863  0.205271  1
  As  As3  1  0.449607  0.172857  0.694803  1
  As  As4  1  0.550393  0.827143  0.305197  1
  As  As5  1  0.826172  0.560137  0.794729  1
  O  O6  1  0.083571  0.701279  0.131502  1
  O  O7  1  0.770823  0.743641  0.911660  1
  O  O8  1  0.299571  0.986514  0.846582  1
  O  O9  1  0.034346  0.700442  0.646380  1
  O  O10  1  0.465366  0.530111  0.260011  1
  O  O11  1  0.711845  0.068226  0.639749  1
  O  O12  1  0.736361  0.763747  0.426570  1
  O  O13  1  0.263639  0.236253  0.573430  1
  O  O14  1  0.229177  0.256359  0.088340  1
  O  O15  1  0.700429  0.013486  0.153418  1
  O  O16  1  0.916429  0.298721  0.868498  1
  O  O17  1  0.965654  0.299558  0.353620  1
  O  O18  1  0.288155  0.931774  0.360251  1
  O  O19  1  0.534634  0.469889  0.739989  1
