# generated using pymatgen
data_LiTb8Y8Cd(InPd2)2
_symmetry_space_group_name_H-M   'P 1'
_cell_length_a   9.75567084
_cell_length_b   9.75567169
_cell_length_c   9.76681500
_cell_angle_alpha   59.96220445
_cell_angle_beta   59.96220157
_cell_angle_gamma   60.19014460
_symmetry_Int_Tables_number   1
_chemical_formula_structural   LiTb8Y8Cd(InPd2)2
_chemical_formula_sum   'Li1 Tb8 Y8 Cd1 In2 Pd4'
_cell_volume   657.84475663
_cell_formula_units_Z   1
loop_
 _symmetry_equiv_pos_site_id
 _symmetry_equiv_pos_as_xyz
  1  'x, y, z'
loop_
 _atom_site_type_symbol
 _atom_site_label
 _atom_site_symmetry_multiplicity
 _atom_site_fract_x
 _atom_site_fract_y
 _atom_site_fract_z
 _atom_site_occupancy
  Li  Li0  1  0.576935  0.265385  0.578841  1
  Tb  Tb1  1  0.352802  0.353675  0.352672  1
  Tb  Tb2  1  0.352802  0.353675  0.940850  1
  Tb  Tb3  1  0.354373  0.937705  0.353962  1
  Tb  Tb4  1  0.938681  0.354639  0.353341  1
  Tb  Tb5  1  0.811343  0.188392  0.188820  1
  Tb  Tb6  1  0.190359  0.809546  0.810472  1
  Tb  Tb7  1  0.190359  0.809546  0.189622  1
  Tb  Tb8  1  0.811343  0.188392  0.811446  1
  Y  Y9  1  0.187276  0.186471  0.813126  1
  Y  Y10  1  0.808563  0.808310  0.191563  1
  Y  Y11  1  0.936792  0.566794  0.563512  1
  Y  Y12  1  0.566867  0.934660  0.933506  1
  Y  Y13  1  0.566867  0.934660  0.564966  1
  Y  Y14  1  0.936792  0.566794  0.932902  1
  Y  Y15  1  0.565813  0.566702  0.933742  1
  Y  Y16  1  0.935872  0.934406  0.564861  1
  Cd  Cd17  1  0.251973  0.579547  0.584241  1
  In  In18  1  0.582812  0.581182  0.584382  1
  In  In19  1  0.582812  0.581182  0.251624  1
  Pd  Pd20  1  0.143820  0.143528  0.146371  1
  Pd  Pd21  1  0.143820  0.143528  0.566277  1
  Pd  Pd22  1  0.144172  0.566873  0.144477  1
  Pd  Pd23  1  0.566748  0.144400  0.144425  1
