# generated using pymatgen
data_Hf3ReMo2AsP2
_symmetry_space_group_name_H-M   'P 1'
_cell_length_a   6.95124311
_cell_length_b   6.97739148
_cell_length_c   3.41863500
_cell_angle_alpha   90.00000000
_cell_angle_beta   90.00000000
_cell_angle_gamma   119.85574463
_symmetry_Int_Tables_number   1
_chemical_formula_structural   Hf3ReMo2AsP2
_chemical_formula_sum   'Hf3 Re1 Mo2 As1 P2'
_cell_volume   143.80314928
_cell_formula_units_Z   1
loop_
 _symmetry_equiv_pos_site_id
 _symmetry_equiv_pos_as_xyz
  1  'x, y, z'
loop_
 _atom_site_type_symbol
 _atom_site_label
 _atom_site_symmetry_multiplicity
 _atom_site_fract_x
 _atom_site_fract_y
 _atom_site_fract_z
 _atom_site_occupancy
  Hf  Hf0  1  0.009960  0.604164  0.500000  1
  Hf  Hf1  1  0.395668  0.406956  0.500000  1
  Hf  Hf2  1  0.593586  0.989645  0.500000  1
  Re  Re3  1  0.248441  0.994619  0.000000  1
  Mo  Mo4  1  0.747870  0.751401  0.000000  1
  Mo  Mo5  1  0.006196  0.253360  0.000000  1
  As  As6  1  0.666609  0.332920  0.000000  1
  P  P7  1  0.333444  0.666826  0.000000  1
  P  P8  1  0.998227  0.000107  0.500000  1
