# generated using pymatgen
data_Tb2PaRu2
_symmetry_space_group_name_H-M   'P 1'
_cell_length_a   5.94764529
_cell_length_b   5.94764370
_cell_length_c   5.94764499
_cell_angle_alpha   138.91904375
_cell_angle_beta   121.20411324
_cell_angle_gamma   74.22440444
_symmetry_Int_Tables_number   1
_chemical_formula_structural   Tb2PaRu2
_chemical_formula_sum   'Tb2 Pa1 Ru2'
_cell_volume   115.58864809
_cell_formula_units_Z   1
loop_
 _symmetry_equiv_pos_site_id
 _symmetry_equiv_pos_as_xyz
  1  'x, y, z'
loop_
 _atom_site_type_symbol
 _atom_site_label
 _atom_site_symmetry_multiplicity
 _atom_site_fract_x
 _atom_site_fract_y
 _atom_site_fract_z
 _atom_site_occupancy
  Tb  Tb0  1  0.305475  0.805475  0.500000  1
  Tb  Tb1  1  0.694525  0.194525  0.500000  1
  Pa  Pa2  1  0.000000  0.000000  0.000000  1
  Ru  Ru3  1  0.254470  0.500000  0.754470  1
  Ru  Ru4  1  0.745530  0.500000  0.245530  1
