# generated using pymatgen
data_SmEr3Ga18(PdRh2)2
_symmetry_space_group_name_H-M   'P 1'
_cell_length_a   7.60637258
_cell_length_b   7.60812068
_cell_length_c   9.50376500
_cell_angle_alpha   90.00000000
_cell_angle_beta   90.00000000
_cell_angle_gamma   119.84574488
_symmetry_Int_Tables_number   1
_chemical_formula_structural   SmEr3Ga18(PdRh2)2
_chemical_formula_sum   'Sm1 Er3 Ga18 Pd2 Rh4'
_cell_volume   477.03942048
_cell_formula_units_Z   1
loop_
 _symmetry_equiv_pos_site_id
 _symmetry_equiv_pos_as_xyz
  1  'x, y, z'
loop_
 _atom_site_type_symbol
 _atom_site_label
 _atom_site_symmetry_multiplicity
 _atom_site_fract_x
 _atom_site_fract_y
 _atom_site_fract_z
 _atom_site_occupancy
  Sm  Sm0  1  0.996583  0.669830  0.250000  1
  Er  Er1  1  0.003101  0.330371  0.750000  1
  Er  Er2  1  0.669510  0.996620  0.250000  1
  Er  Er3  1  0.330504  0.003177  0.750000  1
  Ga  Ga4  1  0.129022  0.129890  0.250000  1
  Ga  Ga5  1  0.871344  0.871527  0.750000  1
  Ga  Ga6  1  0.998747  0.335924  0.079926  1
  Ga  Ga7  1  0.001130  0.662598  0.918311  1
  Ga  Ga8  1  0.001130  0.662598  0.581689  1
  Ga  Ga9  1  0.338892  0.000189  0.420019  1
  Ga  Ga10  1  0.998747  0.335924  0.420074  1
  Ga  Ga11  1  0.662669  0.001187  0.580708  1
  Ga  Ga12  1  0.662669  0.001187  0.919292  1
  Ga  Ga13  1  0.338892  0.000189  0.079981  1
  Ga  Ga14  1  0.335750  0.335736  0.567247  1
  Ga  Ga15  1  0.662988  0.664242  0.433707  1
  Ga  Ga16  1  0.662988  0.664242  0.066293  1
  Ga  Ga17  1  0.335750  0.335736  0.932753  1
  Ga  Ga18  1  0.337802  0.547071  0.250000  1
  Ga  Ga19  1  0.662981  0.452617  0.750000  1
  Ga  Ga20  1  0.545919  0.335997  0.250000  1
  Ga  Ga21  1  0.452796  0.663103  0.750000  1
  Pd  Pd22  1  0.000163  0.000320  0.999525  1
  Pd  Pd23  1  0.000163  0.000320  0.500475  1
  Rh  Rh24  1  0.671138  0.328371  0.999386  1
  Rh  Rh25  1  0.328742  0.671333  0.999395  1
  Rh  Rh26  1  0.328742  0.671333  0.500605  1
  Rh  Rh27  1  0.671138  0.328371  0.500614  1
