# generated using pymatgen
data_Lu5TcOsO12
_symmetry_space_group_name_H-M   'P 1'
_cell_length_a   6.71570799
_cell_length_b   6.71570871
_cell_length_c   7.34520622
_cell_angle_alpha   73.92137279
_cell_angle_beta   73.92136932
_cell_angle_gamma   49.24508083
_symmetry_Int_Tables_number   1
_chemical_formula_structural   Lu5TcOsO12
_chemical_formula_sum   'Lu5 Tc1 Os1 O12'
_cell_volume   239.01379167
_cell_formula_units_Z   1
loop_
 _symmetry_equiv_pos_site_id
 _symmetry_equiv_pos_as_xyz
  1  'x, y, z'
loop_
 _atom_site_type_symbol
 _atom_site_label
 _atom_site_symmetry_multiplicity
 _atom_site_fract_x
 _atom_site_fract_y
 _atom_site_fract_z
 _atom_site_occupancy
  Lu  Lu0  1  0.698357  0.699373  0.640125  1
  Lu  Lu1  1  0.300627  0.301643  0.359875  1
  Lu  Lu2  1  0.687266  0.685540  0.176841  1
  Lu  Lu3  1  0.314460  0.312734  0.823159  1
  Lu  Lu4  1  0.999555  0.000445  0.500000  1
  Tc  Tc5  1  0.215870  0.784130  0.000000  1
  Os  Os6  1  0.779349  0.220651  0.000000  1
  O  O7  1  0.999574  0.004258  0.208108  1
  O  O8  1  0.995742  0.000426  0.791892  1
  O  O9  1  0.576663  0.086068  0.088402  1
  O  O10  1  0.424373  0.911845  0.912082  1
  O  O11  1  0.913932  0.423337  0.911598  1
  O  O12  1  0.088155  0.575627  0.087918  1
  O  O13  1  0.502206  0.496223  0.182446  1
  O  O14  1  0.503777  0.497794  0.817554  1
  O  O15  1  0.404558  0.900969  0.428044  1
  O  O16  1  0.595285  0.098780  0.571712  1
  O  O17  1  0.099031  0.595442  0.571956  1
  O  O18  1  0.901220  0.404715  0.428288  1
