# generated using pymatgen
data_Er3(In2Ir)2
_symmetry_space_group_name_H-M   'P 1'
_cell_length_a   7.86071700
_cell_length_b   7.86071708
_cell_length_c   3.78478100
_cell_angle_alpha   90.00000000
_cell_angle_beta   90.00000000
_cell_angle_gamma   119.99999544
_symmetry_Int_Tables_number   1
_chemical_formula_structural   Er3(In2Ir)2
_chemical_formula_sum   'Er3 In4 Ir2'
_cell_volume   202.53297100
_cell_formula_units_Z   1
loop_
 _symmetry_equiv_pos_site_id
 _symmetry_equiv_pos_as_xyz
  1  'x, y, z'
loop_
 _atom_site_type_symbol
 _atom_site_label
 _atom_site_symmetry_multiplicity
 _atom_site_fract_x
 _atom_site_fract_y
 _atom_site_fract_z
 _atom_site_occupancy
  Er  Er0  1  0.703338  0.959645  0.500000  1
  Er  Er1  1  0.256307  0.296662  0.500000  1
  Er  Er2  1  0.040355  0.743693  0.500000  1
  In  In3  1  0.926756  0.336385  0.000000  1
  In  In4  1  0.409630  0.073244  0.000000  1
  In  In5  1  0.663615  0.590370  0.000000  1
  In  In6  1  0.333333  0.666667  0.000000  1
  Ir  Ir7  1  0.666667  0.333333  0.500000  1
  Ir  Ir8  1  0.000000  0.000000  0.000000  1
