# generated using pymatgen
data_Hf15Zr(NiMo)4
_symmetry_space_group_name_H-M   'P 1'
_cell_length_a   8.70684012
_cell_length_b   8.71391311
_cell_length_c   8.70683963
_cell_angle_alpha   59.97311795
_cell_angle_beta   60.02445794
_cell_angle_gamma   59.97312068
_symmetry_Int_Tables_number   1
_chemical_formula_structural   Hf15Zr(NiMo)4
_chemical_formula_sum   'Hf15 Zr1 Ni4 Mo4'
_cell_volume   467.00648787
_cell_formula_units_Z   1
loop_
 _symmetry_equiv_pos_site_id
 _symmetry_equiv_pos_as_xyz
  1  'x, y, z'
loop_
 _atom_site_type_symbol
 _atom_site_label
 _atom_site_symmetry_multiplicity
 _atom_site_fract_x
 _atom_site_fract_y
 _atom_site_fract_z
 _atom_site_occupancy
  Hf  Hf0  1  0.192209  0.602629  0.602534  1
  Hf  Hf1  1  0.602270  0.191959  0.602270  1
  Hf  Hf2  1  0.602270  0.603502  0.602270  1
  Hf  Hf3  1  0.602534  0.602629  0.192209  1
  Hf  Hf4  1  0.450419  0.452575  0.048995  1
  Hf  Hf5  1  0.048995  0.048011  0.450419  1
  Hf  Hf6  1  0.450419  0.048011  0.048995  1
  Hf  Hf7  1  0.048995  0.452575  0.450419  1
  Hf  Hf8  1  0.048366  0.451634  0.048366  1
  Hf  Hf9  1  0.451190  0.048810  0.451190  1
  Hf  Hf10  1  0.814819  0.814290  0.186006  1
  Hf  Hf11  1  0.186006  0.184885  0.814819  1
  Hf  Hf12  1  0.814819  0.184885  0.186006  1
  Hf  Hf13  1  0.186006  0.814290  0.814819  1
  Hf  Hf14  1  0.184744  0.815256  0.184744  1
  Zr  Zr15  1  0.816032  0.183968  0.816032  1
  Ni  Ni16  1  0.824341  0.392049  0.391563  1
  Ni  Ni17  1  0.391919  0.824026  0.391919  1
  Ni  Ni18  1  0.391919  0.392137  0.391919  1
  Ni  Ni19  1  0.391563  0.392049  0.824341  1
  Mo  Mo20  1  0.499648  0.833446  0.833460  1
  Mo  Mo21  1  0.833530  0.500548  0.833530  1
  Mo  Mo22  1  0.833530  0.832392  0.833530  1
  Mo  Mo23  1  0.833460  0.833446  0.499648  1
