# generated using pymatgen
data_Er4ScZn3Pt4
_symmetry_space_group_name_H-M   'P 1'
_cell_length_a   4.08392700
_cell_length_b   7.06462654
_cell_length_c   8.38040114
_cell_angle_alpha   89.02452786
_cell_angle_beta   90.00000000
_cell_angle_gamma   90.00000000
_symmetry_Int_Tables_number   1
_chemical_formula_structural   Er4ScZn3Pt4
_chemical_formula_sum   'Er4 Sc1 Zn3 Pt4'
_cell_volume   241.75142442
_cell_formula_units_Z   1
loop_
 _symmetry_equiv_pos_site_id
 _symmetry_equiv_pos_as_xyz
  1  'x, y, z'
loop_
 _atom_site_type_symbol
 _atom_site_label
 _atom_site_symmetry_multiplicity
 _atom_site_fract_x
 _atom_site_fract_y
 _atom_site_fract_z
 _atom_site_occupancy
  Er  Er0  1  0.250000  0.051722  0.312097  1
  Er  Er1  1  0.250000  0.542657  0.173568  1
  Er  Er2  1  0.750000  0.969488  0.692132  1
  Er  Er3  1  0.750000  0.447837  0.830188  1
  Sc  Sc4  1  0.250000  0.622795  0.557272  1
  Zn  Zn5  1  0.250000  0.129740  0.939399  1
  Zn  Zn6  1  0.750000  0.360567  0.431506  1
  Zn  Zn7  1  0.750000  0.869487  0.062109  1
  Pt  Pt8  1  0.250000  0.250100  0.628598  1
  Pt  Pt9  1  0.250000  0.747900  0.869706  1
  Pt  Pt10  1  0.750000  0.758826  0.379214  1
  Pt  Pt11  1  0.750000  0.248881  0.124210  1
