# generated using pymatgen
data_PrDyBi2(TeO4)4
_symmetry_space_group_name_H-M   'P 1'
_cell_length_a   7.11758499
_cell_length_b   7.11758377
_cell_length_c   10.33391838
_cell_angle_alpha   66.27076265
_cell_angle_beta   66.27076744
_cell_angle_gamma   46.82672593
_symmetry_Int_Tables_number   1
_chemical_formula_structural   PrDyBi2(TeO4)4
_chemical_formula_sum   'Pr1 Dy1 Bi2 Te4 O16'
_cell_volume   343.12620933
_cell_formula_units_Z   1
loop_
 _symmetry_equiv_pos_site_id
 _symmetry_equiv_pos_as_xyz
  1  'x, y, z'
loop_
 _atom_site_type_symbol
 _atom_site_label
 _atom_site_symmetry_multiplicity
 _atom_site_fract_x
 _atom_site_fract_y
 _atom_site_fract_z
 _atom_site_occupancy
  Pr  Pr0  1  0.948319  0.051681  0.000000  1
  Dy  Dy1  1  0.061483  0.938517  0.500000  1
  Bi  Bi2  1  0.675554  0.776985  0.897298  1
  Bi  Bi3  1  0.223015  0.324446  0.102702  1
  Te  Te4  1  0.501664  0.500289  0.748313  1
  Te  Te5  1  0.499711  0.498336  0.251687  1
  Te  Te6  1  0.374576  0.194670  0.617130  1
  Te  Te7  1  0.805330  0.625424  0.382870  1
  O  O8  1  0.792328  0.343542  0.590417  1
  O  O9  1  0.656458  0.207672  0.409583  1
  O  O10  1  0.191808  0.650607  0.901681  1
  O  O11  1  0.349393  0.808192  0.098319  1
  O  O12  1  0.711741  0.487652  0.831843  1
  O  O13  1  0.512348  0.288259  0.168157  1
  O  O14  1  0.290815  0.499464  0.658192  1
  O  O15  1  0.500536  0.709185  0.341808  1
  O  O16  1  0.909330  0.714326  0.167917  1
  O  O17  1  0.285674  0.090670  0.832083  1
  O  O18  1  0.076324  0.270941  0.350074  1
  O  O19  1  0.729059  0.923676  0.649926  1
  O  O20  1  0.157453  0.649758  0.375075  1
  O  O21  1  0.350242  0.842547  0.624925  1
  O  O22  1  0.842548  0.365912  0.124323  1
  O  O23  1  0.634088  0.157452  0.875677  1
