# generated using pymatgen
data_VRuBr6
_symmetry_space_group_name_H-M   'P 1'
_cell_length_a   6.93353200
_cell_length_b   6.93353213
_cell_length_c   6.09576900
_cell_angle_alpha   90.00000000
_cell_angle_beta   90.00000000
_cell_angle_gamma   119.99999938
_symmetry_Int_Tables_number   1
_chemical_formula_structural   VRuBr6
_chemical_formula_sum   'V1 Ru1 Br6'
_cell_volume   253.78631050
_cell_formula_units_Z   1
loop_
 _symmetry_equiv_pos_site_id
 _symmetry_equiv_pos_as_xyz
  1  'x, y, z'
loop_
 _atom_site_type_symbol
 _atom_site_label
 _atom_site_symmetry_multiplicity
 _atom_site_fract_x
 _atom_site_fract_y
 _atom_site_fract_z
 _atom_site_occupancy
  V  V0  1  0.000000  0.000000  0.500000  1
  Ru  Ru1  1  0.000000  0.000000  0.000000  1
  Br  Br2  1  0.710720  0.000000  0.751066  1
  Br  Br3  1  0.710720  0.710720  0.248934  1
  Br  Br4  1  0.289280  0.000000  0.248934  1
  Br  Br5  1  0.289280  0.289280  0.751066  1
  Br  Br6  1  0.000000  0.710720  0.751066  1
  Br  Br7  1  0.000000  0.289280  0.248934  1
