# generated using pymatgen
data_Tm15Si9C
_symmetry_space_group_name_H-M   'P 1'
_cell_length_a   14.52181400
_cell_length_b   14.52181414
_cell_length_c   6.28277600
_cell_angle_alpha   90.00000000
_cell_angle_beta   90.00000000
_cell_angle_gamma   119.99999967
_symmetry_Int_Tables_number   1
_chemical_formula_structural   Tm15Si9C
_chemical_formula_sum   'Tm30 Si18 C2'
_cell_volume   1147.42406279
_cell_formula_units_Z   2
loop_
 _symmetry_equiv_pos_site_id
 _symmetry_equiv_pos_as_xyz
  1  'x, y, z'
loop_
 _atom_site_type_symbol
 _atom_site_label
 _atom_site_symmetry_multiplicity
 _atom_site_fract_x
 _atom_site_fract_y
 _atom_site_fract_z
 _atom_site_occupancy
  Tm  Tm0  1  0.989456  0.328517  0.497572  1
  Tm  Tm1  1  0.671483  0.660939  0.497572  1
  Tm  Tm2  1  0.339061  0.010544  0.497572  1
  Tm  Tm3  1  0.671483  0.010544  0.497572  1
  Tm  Tm4  1  0.339061  0.328517  0.497572  1
  Tm  Tm5  1  0.989456  0.660939  0.497572  1
  Tm  Tm6  1  0.010544  0.671483  0.997572  1
  Tm  Tm7  1  0.328517  0.339061  0.997572  1
  Tm  Tm8  1  0.660939  0.989456  0.997572  1
  Tm  Tm9  1  0.328517  0.989456  0.997572  1
  Tm  Tm10  1  0.660939  0.671483  0.997572  1
  Tm  Tm11  1  0.010544  0.339061  0.997572  1
  Tm  Tm12  1  0.587451  0.412549  0.214695  1
  Tm  Tm13  1  0.587451  0.174903  0.214695  1
  Tm  Tm14  1  0.825097  0.412549  0.214695  1
  Tm  Tm15  1  0.412549  0.587451  0.714695  1
  Tm  Tm16  1  0.412549  0.825097  0.714695  1
  Tm  Tm17  1  0.174903  0.587451  0.714695  1
  Tm  Tm18  1  0.746001  0.253999  0.771662  1
  Tm  Tm19  1  0.746001  0.492002  0.771662  1
  Tm  Tm20  1  0.507998  0.253999  0.771662  1
  Tm  Tm21  1  0.253999  0.746001  0.271662  1
  Tm  Tm22  1  0.253999  0.507998  0.271662  1
  Tm  Tm23  1  0.492002  0.746001  0.271662  1
  Tm  Tm24  1  0.919106  0.080894  0.243171  1
  Tm  Tm25  1  0.919106  0.838212  0.243171  1
  Tm  Tm26  1  0.161788  0.080894  0.243171  1
  Tm  Tm27  1  0.080894  0.919106  0.743171  1
  Tm  Tm28  1  0.080894  0.161788  0.743171  1
  Tm  Tm29  1  0.838212  0.919106  0.743171  1
  Si  Si30  1  0.867883  0.132117  0.764172  1
  Si  Si31  1  0.867883  0.735764  0.764172  1
  Si  Si32  1  0.264236  0.132117  0.764172  1
  Si  Si33  1  0.132117  0.867883  0.264172  1
  Si  Si34  1  0.132117  0.264236  0.264172  1
  Si  Si35  1  0.735764  0.867883  0.264172  1
  Si  Si36  1  0.533409  0.466591  0.758324  1
  Si  Si37  1  0.533409  0.066817  0.758324  1
  Si  Si38  1  0.933183  0.466591  0.758324  1
  Si  Si39  1  0.466591  0.533409  0.258324  1
  Si  Si40  1  0.466591  0.933183  0.258324  1
  Si  Si41  1  0.066817  0.533409  0.258324  1
  Si  Si42  1  0.800668  0.199332  0.221940  1
  Si  Si43  1  0.800668  0.601334  0.221940  1
  Si  Si44  1  0.398666  0.199332  0.221940  1
  Si  Si45  1  0.199332  0.800668  0.721940  1
  Si  Si46  1  0.199332  0.398666  0.721940  1
  Si  Si47  1  0.601334  0.800668  0.721940  1
  C  C48  1  0.666667  0.333333  0.993674  1
  C  C49  1  0.333333  0.666667  0.493674  1
