# generated using pymatgen
data_Al4Hg11(PBr4)4
_symmetry_space_group_name_H-M   'P 1'
_cell_length_a   7.79218875
_cell_length_b   7.79218963
_cell_length_c   22.52623539
_cell_angle_alpha   81.95472812
_cell_angle_beta   81.95472643
_cell_angle_gamma   59.49384597
_symmetry_Int_Tables_number   1
_chemical_formula_structural   Al4Hg11(PBr4)4
_chemical_formula_sum   'Al4 Hg11 P4 Br16'
_cell_volume   1163.00994228
_cell_formula_units_Z   1
loop_
 _symmetry_equiv_pos_site_id
 _symmetry_equiv_pos_as_xyz
  1  'x, y, z'
loop_
 _atom_site_type_symbol
 _atom_site_label
 _atom_site_symmetry_multiplicity
 _atom_site_fract_x
 _atom_site_fract_y
 _atom_site_fract_z
 _atom_site_occupancy
  Al  Al0  1  0.638687  0.638687  0.110300  1
  Al  Al1  1  0.361313  0.361313  0.889700  1
  Al  Al2  1  0.758693  0.758693  0.613967  1
  Al  Al3  1  0.241307  0.241307  0.386033  1
  Hg  Hg4  1  0.032236  0.032236  0.878892  1
  Hg  Hg5  1  0.765087  0.765087  0.283332  1
  Hg  Hg6  1  0.470586  0.470586  0.559909  1
  Hg  Hg7  1  0.733607  0.234953  0.720663  1
  Hg  Hg8  1  0.266393  0.765047  0.279337  1
  Hg  Hg9  1  0.765047  0.266393  0.279337  1
  Hg  Hg10  1  0.234953  0.733607  0.720663  1
  Hg  Hg11  1  0.529414  0.529414  0.440091  1
  Hg  Hg12  1  0.967764  0.967764  0.121108  1
  Hg  Hg13  1  0.000000  0.000000  0.000000  1
  Hg  Hg14  1  0.234913  0.234913  0.716668  1
  P  P15  1  0.941708  0.941708  0.236664  1
  P  P16  1  0.058292  0.058292  0.763336  1
  P  P17  1  0.585568  0.585568  0.326206  1
  P  P18  1  0.414432  0.414432  0.673794  1
  Br  Br19  1  0.533917  0.048335  0.850413  1
  Br  Br20  1  0.070955  0.070955  0.421339  1
  Br  Br21  1  0.532193  0.532193  0.850038  1
  Br  Br22  1  0.433891  0.928805  0.584524  1
  Br  Br23  1  0.737423  0.737423  0.718392  1
  Br  Br24  1  0.336170  0.336170  0.992236  1
  Br  Br25  1  0.466083  0.951665  0.149587  1
  Br  Br26  1  0.951665  0.466083  0.149587  1
  Br  Br27  1  0.467807  0.467807  0.149962  1
  Br  Br28  1  0.566109  0.071195  0.415476  1
  Br  Br29  1  0.663830  0.663830  0.007764  1
  Br  Br30  1  0.928805  0.433891  0.584524  1
  Br  Br31  1  0.262577  0.262577  0.281608  1
  Br  Br32  1  0.071195  0.566109  0.415476  1
  Br  Br33  1  0.929045  0.929045  0.578661  1
  Br  Br34  1  0.048335  0.533917  0.850413  1
