# generated using pymatgen
data_Pr10InSn19Pd8
_symmetry_space_group_name_H-M   'P 1'
_cell_length_a   14.36356558
_cell_length_b   14.34952158
_cell_length_c   4.68444000
_cell_angle_alpha   90.00000000
_cell_angle_beta   90.00000000
_cell_angle_gamma   89.96749399
_symmetry_Int_Tables_number   1
_chemical_formula_structural   Pr10InSn19Pd8
_chemical_formula_sum   'Pr10 In1 Sn19 Pd8'
_cell_volume   965.51115112
_cell_formula_units_Z   1
loop_
 _symmetry_equiv_pos_site_id
 _symmetry_equiv_pos_as_xyz
  1  'x, y, z'
loop_
 _atom_site_type_symbol
 _atom_site_label
 _atom_site_symmetry_multiplicity
 _atom_site_fract_x
 _atom_site_fract_y
 _atom_site_fract_z
 _atom_site_occupancy
  Pr  Pr0  1  0.497581  0.500696  0.000000  1
  Pr  Pr1  1  0.999616  0.999890  0.000000  1
  Pr  Pr2  1  0.680593  0.180383  0.500000  1
  Pr  Pr3  1  0.320879  0.818480  0.500000  1
  Pr  Pr4  1  0.179774  0.319855  0.500000  1
  Pr  Pr5  1  0.819234  0.679526  0.500000  1
  Pr  Pr6  1  0.892809  0.392714  0.500000  1
  Pr  Pr7  1  0.107644  0.607860  0.500000  1
  Pr  Pr8  1  0.392907  0.108469  0.500000  1
  Pr  Pr9  1  0.607807  0.891787  0.500000  1
  In  In10  1  0.662562  0.499179  0.500000  1
  Sn  Sn11  1  0.569428  0.068995  0.000000  1
  Sn  Sn12  1  0.431004  0.931137  0.000000  1
  Sn  Sn13  1  0.068869  0.430596  0.000000  1
  Sn  Sn14  1  0.930934  0.569249  0.000000  1
  Sn  Sn15  1  0.651980  0.699081  0.000000  1
  Sn  Sn16  1  0.348276  0.299419  0.000000  1
  Sn  Sn17  1  0.152053  0.798693  0.000000  1
  Sn  Sn18  1  0.847094  0.202875  0.000000  1
  Sn  Sn19  1  0.298539  0.651831  0.000000  1
  Sn  Sn20  1  0.699346  0.350474  0.000000  1
  Sn  Sn21  1  0.201817  0.152095  0.000000  1
  Sn  Sn22  1  0.797978  0.847576  0.000000  1
  Sn  Sn23  1  0.336405  0.499954  0.500000  1
  Sn  Sn24  1  0.162543  0.999013  0.500000  1
  Sn  Sn25  1  0.837506  0.000819  0.500000  1
  Sn  Sn26  1  0.502839  0.661439  0.500000  1
  Sn  Sn27  1  0.502737  0.338991  0.500000  1
  Sn  Sn28  1  0.000216  0.162588  0.500000  1
  Sn  Sn29  1  0.998856  0.837573  0.500000  1
  Pd  Pd30  1  0.746992  0.532258  0.000000  1
  Pd  Pd31  1  0.254338  0.467989  0.000000  1
  Pd  Pd32  1  0.244619  0.967616  0.000000  1
  Pd  Pd33  1  0.755757  0.032219  0.000000  1
  Pd  Pd34  1  0.467651  0.744782  0.000000  1
  Pd  Pd35  1  0.530803  0.254113  0.000000  1
  Pd  Pd36  1  0.032130  0.244262  0.000000  1
  Pd  Pd37  1  0.967881  0.755525  0.000000  1
