# generated using pymatgen
data_CrRuBr18
_symmetry_space_group_name_H-M   'P 1'
_cell_length_a   9.10794993
_cell_length_b   9.10795095
_cell_length_c   9.10795037
_cell_angle_alpha   90.68910045
_cell_angle_beta   90.68908957
_cell_angle_gamma   90.68910020
_symmetry_Int_Tables_number   1
_chemical_formula_structural   CrRuBr18
_chemical_formula_sum   'Cr1 Ru1 Br18'
_cell_volume   755.38258951
_cell_formula_units_Z   1
loop_
 _symmetry_equiv_pos_site_id
 _symmetry_equiv_pos_as_xyz
  1  'x, y, z'
loop_
 _atom_site_type_symbol
 _atom_site_label
 _atom_site_symmetry_multiplicity
 _atom_site_fract_x
 _atom_site_fract_y
 _atom_site_fract_z
 _atom_site_occupancy
  Cr  Cr0  1  0.500000  0.500000  0.500000  1
  Ru  Ru1  1  0.000000  0.000000  0.000000  1
  Br  Br2  1  0.726184  0.978383  0.019584  1
  Br  Br3  1  0.742866  0.130625  0.618424  1
  Br  Br4  1  0.019584  0.726184  0.978383  1
  Br  Br5  1  0.257134  0.869375  0.381576  1
  Br  Br6  1  0.130625  0.618424  0.742866  1
  Br  Br7  1  0.021617  0.980416  0.273816  1
  Br  Br8  1  0.618424  0.742866  0.130625  1
  Br  Br9  1  0.980416  0.273816  0.021617  1
  Br  Br10  1  0.869375  0.381576  0.257134  1
  Br  Br11  1  0.381576  0.257134  0.869375  1
  Br  Br12  1  0.978383  0.019584  0.726184  1
  Br  Br13  1  0.273816  0.021617  0.980416  1
  Br  Br14  1  0.774230  0.527375  0.484663  1
  Br  Br15  1  0.515337  0.225770  0.472625  1
  Br  Br16  1  0.472625  0.515337  0.225770  1
  Br  Br17  1  0.484663  0.774230  0.527375  1
  Br  Br18  1  0.527375  0.484663  0.774230  1
  Br  Br19  1  0.225770  0.472625  0.515337  1
