# generated using pymatgen
data_Mn4NbAl
_symmetry_space_group_name_H-M   'P 1'
_cell_length_a   4.72187800
_cell_length_b   4.72187687
_cell_length_c   7.82927500
_cell_angle_alpha   90.00000000
_cell_angle_beta   90.00000000
_cell_angle_gamma   120.00000790
_symmetry_Int_Tables_number   1
_chemical_formula_structural   Mn4NbAl
_chemical_formula_sum   'Mn8 Nb2 Al2'
_cell_volume   151.17555271
_cell_formula_units_Z   2
loop_
 _symmetry_equiv_pos_site_id
 _symmetry_equiv_pos_as_xyz
  1  'x, y, z'
loop_
 _atom_site_type_symbol
 _atom_site_label
 _atom_site_symmetry_multiplicity
 _atom_site_fract_x
 _atom_site_fract_y
 _atom_site_fract_z
 _atom_site_occupancy
  Mn  Mn0  1  0.173461  0.346921  0.751325  1
  Mn  Mn1  1  0.826539  0.173461  0.251325  1
  Mn  Mn2  1  0.346921  0.173461  0.251325  1
  Mn  Mn3  1  0.653079  0.826539  0.751325  1
  Mn  Mn4  1  0.000000  0.000000  0.992417  1
  Mn  Mn5  1  0.000000  0.000000  0.492417  1
  Mn  Mn6  1  0.826539  0.653079  0.251325  1
  Mn  Mn7  1  0.173461  0.826539  0.751325  1
  Nb  Nb8  1  0.666667  0.333333  0.566948  1
  Nb  Nb9  1  0.333333  0.666667  0.066948  1
  Al  Al10  1  0.333333  0.666667  0.436661  1
  Al  Al11  1  0.666667  0.333333  0.936661  1
