# generated using pymatgen
data_Y16Cd3Co4Ag
_symmetry_space_group_name_H-M   'P 1'
_cell_length_a   9.53332197
_cell_length_b   9.53332215
_cell_length_c   9.54306849
_cell_angle_alpha   60.03378038
_cell_angle_beta   60.03378080
_cell_angle_gamma   60.00000054
_symmetry_Int_Tables_number   1
_chemical_formula_structural   Y16Cd3Co4Ag
_chemical_formula_sum   'Y16 Cd3 Co4 Ag1'
_cell_volume   613.59686686
_cell_formula_units_Z   1
loop_
 _symmetry_equiv_pos_site_id
 _symmetry_equiv_pos_as_xyz
  1  'x, y, z'
loop_
 _atom_site_type_symbol
 _atom_site_label
 _atom_site_symmetry_multiplicity
 _atom_site_fract_x
 _atom_site_fract_y
 _atom_site_fract_z
 _atom_site_occupancy
  Y  Y0  1  0.438246  0.438246  0.061691  1
  Y  Y1  1  0.596853  0.596853  0.597625  1
  Y  Y2  1  0.186732  0.812958  0.813577  1
  Y  Y3  1  0.061847  0.061847  0.437882  1
  Y  Y4  1  0.438246  0.061817  0.061691  1
  Y  Y5  1  0.812958  0.186732  0.813577  1
  Y  Y6  1  0.438423  0.061847  0.437882  1
  Y  Y7  1  0.596853  0.208668  0.597625  1
  Y  Y8  1  0.812708  0.812708  0.190556  1
  Y  Y9  1  0.208668  0.596853  0.597625  1
  Y  Y10  1  0.812708  0.184028  0.190556  1
  Y  Y11  1  0.061847  0.438423  0.437882  1
  Y  Y12  1  0.184028  0.812708  0.190556  1
  Y  Y13  1  0.597045  0.597045  0.208863  1
  Y  Y14  1  0.186732  0.186732  0.813577  1
  Y  Y15  1  0.061817  0.438246  0.061691  1
  Cd  Cd16  1  0.830260  0.830260  0.827658  1
  Cd  Cd17  1  0.511823  0.830260  0.827658  1
  Cd  Cd18  1  0.830260  0.511823  0.827658  1
  Co  Co19  1  0.391280  0.391280  0.391114  1
  Co  Co20  1  0.826328  0.391280  0.391114  1
  Co  Co21  1  0.391280  0.826328  0.391114  1
  Co  Co22  1  0.391177  0.391177  0.826472  1
  Ag  Ag23  1  0.831881  0.831881  0.504356  1
