# generated using pymatgen
data_InFe2P3PbO12
_symmetry_space_group_name_H-M   'P 1'
_cell_length_a   9.42839266
_cell_length_b   9.42839225
_cell_length_c   9.42839315
_cell_angle_alpha   138.72521892
_cell_angle_beta   108.96181641
_cell_angle_gamma   85.61302132
_symmetry_Int_Tables_number   1
_chemical_formula_structural   InFe2P3PbO12
_chemical_formula_sum   'In2 Fe4 P6 Pb2 O24'
_cell_volume   503.64071448
_cell_formula_units_Z   2
loop_
 _symmetry_equiv_pos_site_id
 _symmetry_equiv_pos_as_xyz
  1  'x, y, z'
loop_
 _atom_site_type_symbol
 _atom_site_label
 _atom_site_symmetry_multiplicity
 _atom_site_fract_x
 _atom_site_fract_y
 _atom_site_fract_z
 _atom_site_occupancy
  In  In0  1  0.000000  0.000000  0.000000  1
  In  In1  1  0.500000  0.500000  0.000000  1
  Fe  Fe2  1  0.617181  0.617181  0.500000  1
  Fe  Fe3  1  0.382819  0.382819  0.500000  1
  Fe  Fe4  1  0.117181  0.617181  0.000000  1
  Fe  Fe5  1  0.882819  0.382819  0.000000  1
  P  P6  1  0.323514  0.823514  0.000000  1
  P  P7  1  0.750000  0.650971  0.900971  1
  P  P8  1  0.176486  0.176486  0.500000  1
  P  P9  1  0.676486  0.176486  0.000000  1
  P  P10  1  0.250000  0.349029  0.099029  1
  P  P11  1  0.823514  0.823514  0.500000  1
  Pb  Pb12  1  0.750000  0.144811  0.394811  1
  Pb  Pb13  1  0.250000  0.855189  0.605189  1
  O  O14  1  0.580360  0.930160  0.782507  1
  O  O15  1  0.080360  0.297853  0.650200  1
  O  O16  1  0.839557  0.880329  0.040773  1
  O  O17  1  0.352347  0.702147  0.782507  1
  O  O18  1  0.143279  0.214602  0.356460  1
  O  O19  1  0.339557  0.298783  0.959227  1
  O  O20  1  0.641858  0.713182  0.356460  1
  O  O21  1  0.856721  0.785398  0.643540  1
  O  O22  1  0.364345  0.490231  0.354577  1
  O  O23  1  0.147653  0.930160  0.349800  1
  O  O24  1  0.643279  0.286818  0.928676  1
  O  O25  1  0.635655  0.509769  0.645423  1
  O  O26  1  0.858142  0.214602  0.071324  1
  O  O27  1  0.852347  0.069840  0.650200  1
  O  O28  1  0.356721  0.713182  0.071324  1
  O  O29  1  0.358142  0.286818  0.643540  1
  O  O30  1  0.660443  0.701217  0.040773  1
  O  O31  1  0.919640  0.702147  0.349800  1
  O  O32  1  0.160443  0.119670  0.959227  1
  O  O33  1  0.864345  0.509769  0.874114  1
  O  O34  1  0.135655  0.490231  0.125886  1
  O  O35  1  0.141858  0.785398  0.928676  1
  O  O36  1  0.647653  0.297853  0.217493  1
  O  O37  1  0.419640  0.069840  0.217493  1
