# generated using pymatgen
data_Nd7CoI12
_symmetry_space_group_name_H-M   'P 1'
_cell_length_a   9.99445392
_cell_length_b   9.99445440
_cell_length_c   9.99445483
_cell_angle_alpha   107.15019274
_cell_angle_beta   107.15019520
_cell_angle_gamma   107.15019367
_symmetry_Int_Tables_number   1
_chemical_formula_structural   Nd7CoI12
_chemical_formula_sum   'Nd7 Co1 I12'
_cell_volume   827.99474312
_cell_formula_units_Z   1
loop_
 _symmetry_equiv_pos_site_id
 _symmetry_equiv_pos_as_xyz
  1  'x, y, z'
loop_
 _atom_site_type_symbol
 _atom_site_label
 _atom_site_symmetry_multiplicity
 _atom_site_fract_x
 _atom_site_fract_y
 _atom_site_fract_z
 _atom_site_occupancy
  Nd  Nd0  1  0.526724  0.597816  0.798601  1
  Nd  Nd1  1  0.798601  0.526724  0.597816  1
  Nd  Nd2  1  0.597816  0.798601  0.526724  1
  Nd  Nd3  1  0.473439  0.402519  0.202900  1
  Nd  Nd4  1  0.202900  0.473439  0.402519  1
  Nd  Nd5  1  0.402519  0.202900  0.473439  1
  Nd  Nd6  1  0.989105  0.989105  0.989105  1
  Co  Co7  1  0.501310  0.501310  0.501310  1
  I  I8  1  0.272319  0.817438  0.425562  1
  I  I9  1  0.425562  0.272319  0.817438  1
  I  I10  1  0.817438  0.425562  0.272319  1
  I  I11  1  0.727256  0.181777  0.574125  1
  I  I12  1  0.574125  0.727256  0.181777  1
  I  I13  1  0.181777  0.574125  0.727256  1
  I  I14  1  0.031000  0.109133  0.334791  1
  I  I15  1  0.334791  0.031000  0.109133  1
  I  I16  1  0.109133  0.334791  0.031000  1
  I  I17  1  0.968664  0.887908  0.652980  1
  I  I18  1  0.652980  0.968664  0.887908  1
  I  I19  1  0.887908  0.652980  0.968664  1
