# generated using pymatgen
data_Tb3DyScPt3O14
_symmetry_space_group_name_H-M   'P 1'
_cell_length_a   7.28046381
_cell_length_b   7.28046338
_cell_length_c   7.35223058
_cell_angle_alpha   60.32237039
_cell_angle_beta   60.32237994
_cell_angle_gamma   60.00000202
_symmetry_Int_Tables_number   1
_chemical_formula_structural   Tb3DyScPt3O14
_chemical_formula_sum   'Tb3 Dy1 Sc1 Pt3 O14'
_cell_volume   276.89893518
_cell_formula_units_Z   1
loop_
 _symmetry_equiv_pos_site_id
 _symmetry_equiv_pos_as_xyz
  1  'x, y, z'
loop_
 _atom_site_type_symbol
 _atom_site_label
 _atom_site_symmetry_multiplicity
 _atom_site_fract_x
 _atom_site_fract_y
 _atom_site_fract_z
 _atom_site_occupancy
  Tb  Tb0  1  0.625000  0.625000  0.625000  1
  Tb  Tb1  1  0.625000  0.125000  0.625000  1
  Tb  Tb2  1  0.125000  0.625000  0.625000  1
  Dy  Dy3  1  0.625000  0.625000  0.125000  1
  Sc  Sc4  1  0.125000  0.125000  0.625000  1
  Pt  Pt5  1  0.125000  0.125000  0.125000  1
  Pt  Pt6  1  0.625000  0.125000  0.125000  1
  Pt  Pt7  1  0.125000  0.625000  0.125000  1
  O  O8  1  0.031892  0.476456  0.459760  1
  O  O9  1  0.789073  0.789073  0.202904  1
  O  O10  1  0.789073  0.218950  0.202904  1
  O  O11  1  0.476456  0.031892  0.459760  1
  O  O12  1  0.031050  0.460927  0.047096  1
  O  O13  1  0.747021  0.747021  0.758938  1
  O  O14  1  0.031892  0.031892  0.459760  1
  O  O15  1  0.218950  0.789073  0.202904  1
  O  O16  1  0.218108  0.218108  0.790240  1
  O  O17  1  0.502979  0.502979  0.491062  1
  O  O18  1  0.773544  0.218108  0.790240  1
  O  O19  1  0.460927  0.031050  0.047096  1
  O  O20  1  0.460927  0.460927  0.047096  1
  O  O21  1  0.218108  0.773544  0.790240  1
