# generated using pymatgen
data_Tb2Dy5(ErPb2)3
_symmetry_space_group_name_H-M   'P 1'
_cell_length_a   9.04679500
_cell_length_b   9.04890231
_cell_length_c   6.62921100
_cell_angle_alpha   89.99955754
_cell_angle_beta   90.00022002
_cell_angle_gamma   120.00768301
_symmetry_Int_Tables_number   1
_chemical_formula_structural   Tb2Dy5(ErPb2)3
_chemical_formula_sum   'Tb2 Dy5 Er3 Pb6'
_cell_volume   469.94766417
_cell_formula_units_Z   1
loop_
 _symmetry_equiv_pos_site_id
 _symmetry_equiv_pos_as_xyz
  1  'x, y, z'
loop_
 _atom_site_type_symbol
 _atom_site_label
 _atom_site_symmetry_multiplicity
 _atom_site_fract_x
 _atom_site_fract_y
 _atom_site_fract_z
 _atom_site_occupancy
  Tb  Tb0  1  0.238124  0.238296  0.750103  1
  Tb  Tb1  1  0.238124  0.999828  0.249897  1
  Dy  Dy2  1  0.999963  0.761711  0.750098  1
  Dy  Dy3  1  0.761815  0.761922  0.249897  1
  Dy  Dy4  1  0.999963  0.238253  0.249902  1
  Dy  Dy5  1  0.761815  0.999893  0.750103  1
  Dy  Dy6  1  0.666758  0.333378  0.500000  1
  Er  Er7  1  0.333336  0.666669  0.000000  1
  Er  Er8  1  0.666784  0.333392  0.000000  1
  Er  Er9  1  0.333343  0.666672  0.500000  1
  Pb  Pb10  1  0.000158  0.395536  0.750441  1
  Pb  Pb11  1  0.394874  0.395738  0.249568  1
  Pb  Pb12  1  0.604954  0.999561  0.249573  1
  Pb  Pb13  1  0.604954  0.605393  0.750427  1
  Pb  Pb14  1  0.394874  0.999136  0.750432  1
  Pb  Pb15  1  0.000158  0.604624  0.249559  1
