# generated using pymatgen
data_HfPaMn12P7
_symmetry_space_group_name_H-M   'P 1'
_cell_length_a   9.16614900
_cell_length_b   9.16614848
_cell_length_c   3.61243600
_cell_angle_alpha   90.00000000
_cell_angle_beta   90.00000000
_cell_angle_gamma   120.00000548
_symmetry_Int_Tables_number   1
_chemical_formula_structural   HfPaMn12P7
_chemical_formula_sum   'Hf1 Pa1 Mn12 P7'
_cell_volume   262.84793530
_cell_formula_units_Z   1
loop_
 _symmetry_equiv_pos_site_id
 _symmetry_equiv_pos_as_xyz
  1  'x, y, z'
loop_
 _atom_site_type_symbol
 _atom_site_label
 _atom_site_symmetry_multiplicity
 _atom_site_fract_x
 _atom_site_fract_y
 _atom_site_fract_z
 _atom_site_occupancy
  Hf  Hf0  1  0.666667  0.333333  0.000000  1
  Pa  Pa1  1  0.333333  0.666667  0.500000  1
  Mn  Mn2  1  0.378962  0.949806  0.000000  1
  Mn  Mn3  1  0.050194  0.429156  0.000000  1
  Mn  Mn4  1  0.570844  0.621038  0.000000  1
  Mn  Mn5  1  0.875435  0.719771  0.000000  1
  Mn  Mn6  1  0.280229  0.155664  0.000000  1
  Mn  Mn7  1  0.844336  0.124565  0.000000  1
  Mn  Mn8  1  0.952119  0.561715  0.500000  1
  Mn  Mn9  1  0.438285  0.390405  0.500000  1
  Mn  Mn10  1  0.609595  0.047881  0.500000  1
  Mn  Mn11  1  0.123350  0.894100  0.500000  1
  Mn  Mn12  1  0.105900  0.229249  0.500000  1
  Mn  Mn13  1  0.770751  0.876650  0.500000  1
  P  P14  1  0.116700  0.710593  0.000000  1
  P  P15  1  0.289407  0.406107  0.000000  1
  P  P16  1  0.593893  0.883300  0.000000  1
  P  P17  1  0.715986  0.585875  0.500000  1
  P  P18  1  0.414125  0.130113  0.500000  1
  P  P19  1  0.869887  0.284014  0.500000  1
  P  P20  1  0.000000  0.000000  0.000000  1
