# generated using pymatgen
data_YEr7Re3B24Ru
_symmetry_space_group_name_H-M   'P 1'
_cell_length_a   3.65617700
_cell_length_b   9.12913505
_cell_length_c   11.50867605
_cell_angle_alpha   90.09877855
_cell_angle_beta   90.00000000
_cell_angle_gamma   90.00000000
_symmetry_Int_Tables_number   1
_chemical_formula_structural   YEr7Re3B24Ru
_chemical_formula_sum   'Y1 Er7 Re3 B24 Ru1'
_cell_volume   384.13295215
_cell_formula_units_Z   1
loop_
 _symmetry_equiv_pos_site_id
 _symmetry_equiv_pos_as_xyz
  1  'x, y, z'
loop_
 _atom_site_type_symbol
 _atom_site_label
 _atom_site_symmetry_multiplicity
 _atom_site_fract_x
 _atom_site_fract_y
 _atom_site_fract_z
 _atom_site_occupancy
  Y  Y0  1  0.000000  0.321451  0.414218  1
  Er  Er1  1  0.000000  0.677613  0.587729  1
  Er  Er2  1  0.000000  0.824723  0.084007  1
  Er  Er3  1  0.000000  0.176835  0.913727  1
  Er  Er4  1  0.000000  0.941483  0.369768  1
  Er  Er5  1  0.000000  0.056349  0.629271  1
  Er  Er6  1  0.000000  0.443107  0.130266  1
  Er  Er7  1  0.000000  0.557100  0.871166  1
  Re  Re8  1  0.000000  0.362137  0.678633  1
  Re  Re9  1  0.000000  0.138056  0.179384  1
  Re  Re10  1  0.000000  0.861777  0.820803  1
  B  B11  1  0.500000  0.554285  0.432899  1
  B  B12  1  0.500000  0.447461  0.566869  1
  B  B13  1  0.500000  0.053039  0.066499  1
  B  B14  1  0.500000  0.947260  0.933121  1
  B  B15  1  0.500000  0.748695  0.418754  1
  B  B16  1  0.500000  0.250253  0.581377  1
  B  B17  1  0.500000  0.249705  0.081068  1
  B  B18  1  0.500000  0.751105  0.919037  1
  B  B19  1  0.500000  0.791039  0.265177  1
  B  B20  1  0.500000  0.207761  0.734520  1
  B  B21  1  0.500000  0.291841  0.234888  1
  B  B22  1  0.500000  0.707751  0.765637  1
  B  B23  1  0.500000  0.631437  0.185393  1
  B  B24  1  0.500000  0.369620  0.814520  1
  B  B25  1  0.500000  0.130328  0.314946  1
  B  B26  1  0.500000  0.868903  0.685197  1
  B  B27  1  0.500000  0.981546  0.211800  1
  B  B28  1  0.500000  0.018310  0.787647  1
  B  B29  1  0.500000  0.483467  0.287976  1
  B  B30  1  0.500000  0.518896  0.712121  1
  B  B31  1  0.500000  0.601810  0.028847  1
  B  B32  1  0.500000  0.398893  0.972270  1
  B  B33  1  0.500000  0.099679  0.471642  1
  B  B34  1  0.500000  0.897539  0.528068  1
  Ru  Ru35  1  0.000000  0.638747  0.320756  1
