# generated using pymatgen
data_Sm4Lu4Tc(B8Ru)3
_symmetry_space_group_name_H-M   'P 1'
_cell_length_a   3.66496600
_cell_length_b   9.12716046
_cell_length_c   11.55052306
_cell_angle_alpha   89.92328390
_cell_angle_beta   90.00000000
_cell_angle_gamma   90.00000000
_symmetry_Int_Tables_number   1
_chemical_formula_structural   Sm4Lu4Tc(B8Ru)3
_chemical_formula_sum   'Sm4 Lu4 Tc1 B24 Ru3'
_cell_volume   386.37311363
_cell_formula_units_Z   1
loop_
 _symmetry_equiv_pos_site_id
 _symmetry_equiv_pos_as_xyz
  1  'x, y, z'
loop_
 _atom_site_type_symbol
 _atom_site_label
 _atom_site_symmetry_multiplicity
 _atom_site_fract_x
 _atom_site_fract_y
 _atom_site_fract_z
 _atom_site_occupancy
  Sm  Sm0  1  0.000000  0.323508  0.413479  1
  Sm  Sm1  1  0.000000  0.677669  0.583590  1
  Sm  Sm2  1  0.000000  0.820599  0.087159  1
  Sm  Sm3  1  0.000000  0.177139  0.915213  1
  Lu  Lu4  1  0.000000  0.943399  0.372133  1
  Lu  Lu5  1  0.000000  0.056912  0.628348  1
  Lu  Lu6  1  0.000000  0.444636  0.128514  1
  Lu  Lu7  1  0.000000  0.556368  0.871172  1
  Tc  Tc8  1  0.000000  0.639254  0.319275  1
  B  B9  1  0.500000  0.554597  0.431299  1
  B  B10  1  0.500000  0.444610  0.569068  1
  B  B11  1  0.500000  0.055504  0.068892  1
  B  B12  1  0.500000  0.944166  0.931513  1
  B  B13  1  0.500000  0.750716  0.417547  1
  B  B14  1  0.500000  0.249534  0.582453  1
  B  B15  1  0.500000  0.250485  0.082078  1
  B  B16  1  0.500000  0.749339  0.917734  1
  B  B17  1  0.500000  0.791984  0.266137  1
  B  B18  1  0.500000  0.208595  0.734026  1
  B  B19  1  0.500000  0.291335  0.233243  1
  B  B20  1  0.500000  0.709026  0.765947  1
  B  B21  1  0.500000  0.629930  0.184979  1
  B  B22  1  0.500000  0.369804  0.815557  1
  B  B23  1  0.500000  0.130004  0.314989  1
  B  B24  1  0.500000  0.870457  0.684601  1
  B  B25  1  0.500000  0.983970  0.214118  1
  B  B26  1  0.500000  0.015939  0.786432  1
  B  B27  1  0.500000  0.483075  0.285914  1
  B  B28  1  0.500000  0.515876  0.714026  1
  B  B29  1  0.500000  0.600800  0.026888  1
  B  B30  1  0.500000  0.398733  0.972015  1
  B  B31  1  0.500000  0.101750  0.472627  1
  B  B32  1  0.500000  0.899826  0.528076  1
  Ru  Ru33  1  0.000000  0.360463  0.681378  1
  Ru  Ru34  1  0.000000  0.139366  0.180611  1
  Ru  Ru35  1  0.000000  0.860629  0.818966  1
