# generated using pymatgen
data_Sr4Al13Au9
_symmetry_space_group_name_H-M   'P 1'
_cell_length_a   11.95270700
_cell_length_b   11.95270547
_cell_length_c   4.29134500
_cell_angle_alpha   90.00000000
_cell_angle_beta   90.00000000
_cell_angle_gamma   119.99999594
_symmetry_Int_Tables_number   1
_chemical_formula_structural   Sr4Al13Au9
_chemical_formula_sum   'Sr4 Al13 Au9'
_cell_volume   530.95360243
_cell_formula_units_Z   1
loop_
 _symmetry_equiv_pos_site_id
 _symmetry_equiv_pos_as_xyz
  1  'x, y, z'
loop_
 _atom_site_type_symbol
 _atom_site_label
 _atom_site_symmetry_multiplicity
 _atom_site_fract_x
 _atom_site_fract_y
 _atom_site_fract_z
 _atom_site_occupancy
  Sr  Sr0  1  0.204816  0.795184  0.500000  1
  Sr  Sr1  1  0.590368  0.795184  0.500000  1
  Sr  Sr2  1  0.204816  0.409632  0.500000  1
  Sr  Sr3  1  0.666667  0.333333  0.000000  1
  Al  Al4  1  0.945819  0.290362  0.000000  1
  Al  Al5  1  0.709638  0.655457  0.000000  1
  Al  Al6  1  0.945819  0.655457  0.000000  1
  Al  Al7  1  0.344543  0.054181  0.000000  1
  Al  Al8  1  0.163211  0.081606  0.500000  1
  Al  Al9  1  0.918394  0.836789  0.500000  1
  Al  Al10  1  0.709638  0.054181  0.000000  1
  Al  Al11  1  0.532570  0.065139  0.500000  1
  Al  Al12  1  0.918394  0.081606  0.500000  1
  Al  Al13  1  0.344543  0.290362  0.000000  1
  Al  Al14  1  0.532570  0.467430  0.500000  1
  Al  Al15  1  0.934861  0.467430  0.500000  1
  Al  Al16  1  0.333333  0.666667  0.000000  1
  Au  Au17  1  0.458153  0.541847  0.000000  1
  Au  Au18  1  0.828764  0.914382  0.000000  1
  Au  Au19  1  0.458153  0.916305  0.000000  1
  Au  Au20  1  0.085618  0.171236  0.000000  1
  Au  Au21  1  0.085618  0.914382  0.000000  1
  Au  Au22  1  0.792161  0.584321  0.500000  1
  Au  Au23  1  0.083695  0.541847  0.000000  1
  Au  Au24  1  0.792161  0.207839  0.500000  1
  Au  Au25  1  0.415679  0.207839  0.500000  1
