# generated using pymatgen
data_La5YbYOsBr12
_symmetry_space_group_name_H-M   'P 1'
_cell_length_a   9.76646840
_cell_length_b   9.69347730
_cell_length_c   9.66225155
_cell_angle_alpha   107.75345189
_cell_angle_beta   107.79472802
_cell_angle_gamma   105.97085113
_symmetry_Int_Tables_number   1
_chemical_formula_structural   La5YbYOsBr12
_chemical_formula_sum   'La5 Yb1 Y1 Os1 Br12'
_cell_volume   757.98397776
_cell_formula_units_Z   1
loop_
 _symmetry_equiv_pos_site_id
 _symmetry_equiv_pos_as_xyz
  1  'x, y, z'
loop_
 _atom_site_type_symbol
 _atom_site_label
 _atom_site_symmetry_multiplicity
 _atom_site_fract_x
 _atom_site_fract_y
 _atom_site_fract_z
 _atom_site_occupancy
  La  La0  1  0.020952  0.309591  0.109709  1
  La  La1  1  0.114756  0.028446  0.314686  1
  La  La2  1  0.892071  0.973793  0.688486  1
  La  La3  1  0.977267  0.690823  0.891067  1
  La  La4  1  0.673284  0.887739  0.973576  1
  Yb  Yb5  1  0.501222  0.498525  0.496550  1
  Y  Y6  1  0.312645  0.109565  0.027966  1
  Os  Os7  1  0.999582  0.000702  0.001896  1
  Br  Br8  1  0.669032  0.213867  0.066305  1
  Br  Br9  1  0.376256  0.445563  0.163082  1
  Br  Br10  1  0.071129  0.681935  0.217564  1
  Br  Br11  1  0.790076  0.933933  0.320642  1
  Br  Br12  1  0.463923  0.171058  0.368912  1
  Br  Br13  1  0.180188  0.384434  0.467189  1
  Br  Br14  1  0.823601  0.616621  0.533435  1
  Br  Br15  1  0.536592  0.824900  0.615501  1
  Br  Br16  1  0.223000  0.071332  0.697361  1
  Br  Br17  1  0.930208  0.318427  0.783365  1
  Br  Br18  1  0.623157  0.539833  0.825724  1
  Br  Br19  1  0.321064  0.798917  0.936988  1
