# generated using pymatgen
data_Co8Ge3Mo12AsN4
_symmetry_space_group_name_H-M   'P 1'
_cell_length_a   7.88169660
_cell_length_b   7.86510786
_cell_length_c   7.88397103
_cell_angle_alpha   59.92822005
_cell_angle_beta   60.00692316
_cell_angle_gamma   59.93191692
_symmetry_Int_Tables_number   1
_chemical_formula_structural   Co8Ge3Mo12AsN4
_chemical_formula_sum   'Co8 Ge3 Mo12 As1 N4'
_cell_volume   345.23691087
_cell_formula_units_Z   1
loop_
 _symmetry_equiv_pos_site_id
 _symmetry_equiv_pos_as_xyz
  1  'x, y, z'
loop_
 _atom_site_type_symbol
 _atom_site_label
 _atom_site_symmetry_multiplicity
 _atom_site_fract_x
 _atom_site_fract_y
 _atom_site_fract_z
 _atom_site_occupancy
  Co  Co0  1  0.254921  0.912191  0.916465  1
  Co  Co1  1  0.915199  0.254381  0.915250  1
  Co  Co2  1  0.916460  0.912181  0.916484  1
  Co  Co3  1  0.916462  0.912208  0.254900  1
  Co  Co4  1  0.994884  0.337834  0.333606  1
  Co  Co5  1  0.333700  0.337790  0.994841  1
  Co  Co6  1  0.334988  0.995205  0.334867  1
  Co  Co7  1  0.333737  0.337844  0.333644  1
  Ge  Ge8  1  0.624998  0.125106  0.124918  1
  Ge  Ge9  1  0.124926  0.125110  0.624976  1
  Ge  Ge10  1  0.124981  0.125159  0.124966  1
  Mo  Mo11  1  0.694036  0.305843  0.694069  1
  Mo  Mo12  1  0.557861  0.555849  0.943157  1
  Mo  Mo13  1  0.556030  0.944108  0.555968  1
  Mo  Mo14  1  0.943849  0.944078  0.556035  1
  Mo  Mo15  1  0.943110  0.555914  0.557849  1
  Mo  Mo16  1  0.943073  0.555918  0.943112  1
  Mo  Mo17  1  0.694091  0.305868  0.306030  1
  Mo  Mo18  1  0.306687  0.694262  0.306677  1
  Mo  Mo19  1  0.305987  0.305809  0.694154  1
  Mo  Mo20  1  0.306689  0.694185  0.692416  1
  Mo  Mo21  1  0.692354  0.694183  0.306713  1
  Mo  Mo22  1  0.556056  0.944066  0.943879  1
  As  As23  1  0.125036  0.624822  0.125040  1
  N  N24  1  0.624939  0.625026  0.624982  1
  N  N25  1  0.125082  0.624997  0.624944  1
  N  N26  1  0.624946  0.125050  0.624988  1
  N  N27  1  0.624919  0.625015  0.125072  1
