# generated using pymatgen
data_Li6ScU4CrO16
_symmetry_space_group_name_H-M   'P 1'
_cell_length_a   5.13506251
_cell_length_b   6.15793764
_cell_length_c   10.76694846
_cell_angle_alpha   88.44051944
_cell_angle_beta   89.75515803
_cell_angle_gamma   89.74697372
_symmetry_Int_Tables_number   1
_chemical_formula_structural   Li6ScU4CrO16
_chemical_formula_sum   'Li6 Sc1 U4 Cr1 O16'
_cell_volume   340.33356586
_cell_formula_units_Z   1
loop_
 _symmetry_equiv_pos_site_id
 _symmetry_equiv_pos_as_xyz
  1  'x, y, z'
loop_
 _atom_site_type_symbol
 _atom_site_label
 _atom_site_symmetry_multiplicity
 _atom_site_fract_x
 _atom_site_fract_y
 _atom_site_fract_z
 _atom_site_occupancy
  Li  Li0  1  0.544711  0.736706  0.922432  1
  Li  Li1  1  0.045742  0.254753  0.574766  1
  Li  Li2  1  0.455289  0.263294  0.077568  1
  Li  Li3  1  0.954258  0.745247  0.425234  1
  Li  Li4  1  0.500000  0.500000  0.500000  1
  Li  Li5  1  0.000000  0.500000  0.000000  1
  Sc  Sc6  1  0.000000  0.000000  0.000000  1
  U  U7  1  0.986087  0.745685  0.730552  1
  U  U8  1  0.487069  0.251831  0.763007  1
  U  U9  1  0.013913  0.254315  0.269448  1
  U  U10  1  0.512931  0.748169  0.236993  1
  Cr  Cr11  1  0.500000  0.000000  0.500000  1
  O  O12  1  0.180531  0.750778  0.901213  1
  O  O13  1  0.251367  0.228722  0.423975  1
  O  O14  1  0.260818  0.236946  0.922387  1
  O  O15  1  0.739182  0.763054  0.077613  1
  O  O16  1  0.245645  0.010362  0.161289  1
  O  O17  1  0.741733  0.994021  0.345683  1
  O  O18  1  0.728176  0.514122  0.829045  1
  O  O19  1  0.224727  0.480828  0.665009  1
  O  O20  1  0.754355  0.989638  0.838711  1
  O  O21  1  0.258267  0.005979  0.654317  1
  O  O22  1  0.271824  0.485878  0.170955  1
  O  O23  1  0.775273  0.519172  0.334991  1
  O  O24  1  0.819469  0.249222  0.098787  1
  O  O25  1  0.320378  0.758254  0.408768  1
  O  O26  1  0.748633  0.771278  0.576025  1
  O  O27  1  0.679622  0.241746  0.591232  1
