# generated using pymatgen
data_Pu(AlAu)3
_symmetry_space_group_name_H-M   'P 1'
_cell_length_a   4.41778500
_cell_length_b   7.18308400
_cell_length_c   8.68475000
_cell_angle_alpha   90.00000000
_cell_angle_beta   90.00000000
_cell_angle_gamma   90.00000000
_symmetry_Int_Tables_number   1
_chemical_formula_structural   Pu(AlAu)3
_chemical_formula_sum   'Pu2 Al6 Au6'
_cell_volume   275.59595737
_cell_formula_units_Z   2
loop_
 _symmetry_equiv_pos_site_id
 _symmetry_equiv_pos_as_xyz
  1  'x, y, z'
loop_
 _atom_site_type_symbol
 _atom_site_label
 _atom_site_symmetry_multiplicity
 _atom_site_fract_x
 _atom_site_fract_y
 _atom_site_fract_z
 _atom_site_occupancy
  Pu  Pu0  1  0.000000  0.500000  0.258871  1
  Pu  Pu1  1  0.500000  0.000000  0.741129  1
  Al  Al2  1  0.500000  0.500000  0.633934  1
  Al  Al3  1  0.000000  0.303733  0.894310  1
  Al  Al4  1  0.000000  0.696267  0.894310  1
  Al  Al5  1  0.500000  0.803733  0.105690  1
  Al  Al6  1  0.000000  0.000000  0.366066  1
  Al  Al7  1  0.500000  0.196267  0.105690  1
  Au  Au8  1  0.000000  0.723787  0.601222  1
  Au  Au9  1  0.500000  0.500000  0.945689  1
  Au  Au10  1  0.000000  0.276213  0.601222  1
  Au  Au11  1  0.500000  0.776213  0.398778  1
  Au  Au12  1  0.000000  0.000000  0.054311  1
  Au  Au13  1  0.500000  0.223787  0.398778  1
