# generated using pymatgen
data_LaAgAsRh2
_symmetry_space_group_name_H-M   'P 1'
_cell_length_a   4.08505200
_cell_length_b   4.08505200
_cell_length_c   11.67870400
_cell_angle_alpha   90.00000000
_cell_angle_beta   90.00000000
_cell_angle_gamma   90.00000000
_symmetry_Int_Tables_number   1
_chemical_formula_structural   LaAgAsRh2
_chemical_formula_sum   'La2 Ag2 As2 Rh4'
_cell_volume   194.89012297
_cell_formula_units_Z   2
loop_
 _symmetry_equiv_pos_site_id
 _symmetry_equiv_pos_as_xyz
  1  'x, y, z'
loop_
 _atom_site_type_symbol
 _atom_site_label
 _atom_site_symmetry_multiplicity
 _atom_site_fract_x
 _atom_site_fract_y
 _atom_site_fract_z
 _atom_site_occupancy
  La  La0  1  0.000000  0.500000  0.250470  1
  La  La1  1  0.500000  0.000000  0.749530  1
  Ag  Ag2  1  0.000000  0.000000  0.500000  1
  Ag  Ag3  1  0.500000  0.500000  0.500000  1
  As  As4  1  0.000000  0.500000  0.878271  1
  As  As5  1  0.500000  0.000000  0.121729  1
  Rh  Rh6  1  0.000000  0.000000  0.000000  1
  Rh  Rh7  1  0.500000  0.500000  0.000000  1
  Rh  Rh8  1  0.000000  0.500000  0.671554  1
  Rh  Rh9  1  0.500000  0.000000  0.328446  1
