# generated using pymatgen
data_Er16Sc4(Ir3Pt)3
_symmetry_space_group_name_H-M   'P 1'
_cell_length_a   10.77622126
_cell_length_b   10.77622126
_cell_length_c   6.23600301
_cell_angle_alpha   90.00377245
_cell_angle_beta   90.00377245
_cell_angle_gamma   90.08900437
_symmetry_Int_Tables_number   1
_chemical_formula_structural   Er16Sc4(Ir3Pt)3
_chemical_formula_sum   'Er16 Sc4 Ir9 Pt3'
_cell_volume   724.16709859
_cell_formula_units_Z   1
loop_
 _symmetry_equiv_pos_site_id
 _symmetry_equiv_pos_as_xyz
  1  'x, y, z'
loop_
 _atom_site_type_symbol
 _atom_site_label
 _atom_site_symmetry_multiplicity
 _atom_site_fract_x
 _atom_site_fract_y
 _atom_site_fract_z
 _atom_site_occupancy
  Er  Er0  1  0.290576  0.085326  0.373138  1
  Er  Er1  1  0.289957  0.911139  0.877306  1
  Er  Er2  1  0.708454  0.087737  0.874951  1
  Er  Er3  1  0.707699  0.912027  0.374507  1
  Er  Er4  1  0.583768  0.787832  0.877967  1
  Er  Er5  1  0.583977  0.212090  0.378074  1
  Er  Er6  1  0.413503  0.788203  0.377696  1
  Er  Er7  1  0.415662  0.212109  0.877906  1
  Er  Er8  1  0.212168  0.416232  0.622033  1
  Er  Er9  1  0.211797  0.586497  0.122304  1
  Er  Er10  1  0.787910  0.416023  0.121926  1
  Er  Er11  1  0.787891  0.584338  0.622094  1
  Er  Er12  1  0.914674  0.709424  0.126862  1
  Er  Er13  1  0.912263  0.291546  0.625049  1
  Er  Er14  1  0.088861  0.710043  0.622694  1
  Er  Er15  1  0.087973  0.292301  0.125493  1
  Sc  Sc16  1  0.001759  0.997739  0.498057  1
  Sc  Sc17  1  0.002261  0.998241  0.001943  1
  Sc  Sc18  1  0.499798  0.500094  0.000311  1
  Sc  Sc19  1  0.499906  0.500202  0.499689  1
  Ir  Ir20  1  0.146937  0.853063  0.250000  1
  Ir  Ir21  1  0.649350  0.350650  0.750000  1
  Ir  Ir22  1  0.649270  0.649349  0.250136  1
  Ir  Ir23  1  0.350651  0.350730  0.249864  1
  Ir  Ir24  1  0.351277  0.648723  0.750000  1
  Ir  Ir25  1  0.500441  0.000072  0.121933  1
  Ir  Ir26  1  0.500314  0.000137  0.623115  1
  Ir  Ir27  1  0.999863  0.499686  0.876885  1
  Ir  Ir28  1  0.999928  0.499559  0.378067  1
  Pt  Pt29  1  0.851719  0.148281  0.250000  1
  Pt  Pt30  1  0.851010  0.851617  0.750023  1
  Pt  Pt31  1  0.148383  0.148990  0.749977  1
