# generated using pymatgen
data_La18Nd2(Ir3Ru)3
_symmetry_space_group_name_H-M   'P 1'
_cell_length_a   11.38065900
_cell_length_b   11.38065900
_cell_length_c   6.67166700
_cell_angle_alpha   90.00000000
_cell_angle_beta   90.00000000
_cell_angle_gamma   90.00000000
_symmetry_Int_Tables_number   1
_chemical_formula_structural   La18Nd2(Ir3Ru)3
_chemical_formula_sum   'La18 Nd2 Ir9 Ru3'
_cell_volume   864.11030200
_cell_formula_units_Z   1
loop_
 _symmetry_equiv_pos_site_id
 _symmetry_equiv_pos_as_xyz
  1  'x, y, z'
loop_
 _atom_site_type_symbol
 _atom_site_label
 _atom_site_symmetry_multiplicity
 _atom_site_fract_x
 _atom_site_fract_y
 _atom_site_fract_z
 _atom_site_occupancy
  La  La0  1  0.089368  0.291609  0.117301  1
  La  La1  1  0.791609  0.410632  0.117301  1
  La  La2  1  0.208391  0.589368  0.117301  1
  La  La3  1  0.910632  0.708391  0.117301  1
  La  La4  1  0.412369  0.793447  0.385702  1
  La  La5  1  0.587631  0.206553  0.385702  1
  La  La6  1  0.293447  0.087631  0.385702  1
  La  La7  1  0.706553  0.912369  0.385702  1
  La  La8  1  0.411849  0.206475  0.884971  1
  La  La9  1  0.706475  0.088151  0.884971  1
  La  La10  1  0.293525  0.911849  0.884971  1
  La  La11  1  0.588151  0.793525  0.884971  1
  La  La12  1  0.089904  0.708224  0.613451  1
  La  La13  1  0.910096  0.291776  0.613451  1
  La  La14  1  0.208224  0.410096  0.613451  1
  La  La15  1  0.791776  0.589904  0.613451  1
  La  La16  1  0.000000  0.000000  0.997853  1
  La  La17  1  0.500000  0.500000  0.997853  1
  Nd  Nd18  1  0.500000  0.500000  0.498458  1
  Nd  Nd19  1  0.000000  0.000000  0.498458  1
  Ir  Ir20  1  0.152880  0.846548  0.249413  1
  Ir  Ir21  1  0.346548  0.347120  0.249413  1
  Ir  Ir22  1  0.653452  0.652880  0.249413  1
  Ir  Ir23  1  0.847120  0.153452  0.249413  1
  Ir  Ir24  1  0.346459  0.652399  0.749767  1
  Ir  Ir25  1  0.152399  0.153541  0.749767  1
  Ir  Ir26  1  0.847601  0.846459  0.749767  1
  Ir  Ir27  1  0.653541  0.347601  0.749767  1
  Ir  Ir28  1  0.000000  0.500000  0.879453  1
  Ru  Ru29  1  0.000000  0.500000  0.381628  1
  Ru  Ru30  1  0.500000  0.000000  0.121600  1
  Ru  Ru31  1  0.500000  0.000000  0.622274  1
