# generated using pymatgen
data_LaPr5UO12
_symmetry_space_group_name_H-M   'P 1'
_cell_length_a   6.88056124
_cell_length_b   6.88936152
_cell_length_c   6.89085237
_cell_angle_alpha   98.89344985
_cell_angle_beta   98.69819709
_cell_angle_gamma   98.70714226
_symmetry_Int_Tables_number   1
_chemical_formula_structural   LaPr5UO12
_chemical_formula_sum   'La1 Pr5 U1 O12'
_cell_volume   313.85680459
_cell_formula_units_Z   1
loop_
 _symmetry_equiv_pos_site_id
 _symmetry_equiv_pos_as_xyz
  1  'x, y, z'
loop_
 _atom_site_type_symbol
 _atom_site_label
 _atom_site_symmetry_multiplicity
 _atom_site_fract_x
 _atom_site_fract_y
 _atom_site_fract_z
 _atom_site_occupancy
  La  La0  1  0.145293  0.313488  0.606880  1
  Pr  Pr1  1  0.314302  0.610630  0.144934  1
  Pr  Pr2  1  0.609559  0.144763  0.313154  1
  Pr  Pr3  1  0.390603  0.854980  0.686367  1
  Pr  Pr4  1  0.686631  0.390269  0.855578  1
  Pr  Pr5  1  0.854608  0.686436  0.389620  1
  U  U6  1  0.999483  0.999130  0.999754  1
  O  O7  1  0.437686  0.178436  0.591854  1
  O  O8  1  0.929896  0.701552  0.043595  1
  O  O9  1  0.177785  0.593430  0.436311  1
  O  O10  1  0.823039  0.409724  0.563193  1
  O  O11  1  0.563161  0.822884  0.408904  1
  O  O12  1  0.590790  0.436345  0.177680  1
  O  O13  1  0.410843  0.564730  0.822909  1
  O  O14  1  0.952865  0.067675  0.296753  1
  O  O15  1  0.043964  0.928417  0.702533  1
  O  O16  1  0.701562  0.044100  0.929469  1
  O  O17  1  0.069790  0.296888  0.959804  1
  O  O18  1  0.298139  0.956121  0.070708  1
