# generated using pymatgen
data_Er11TmPb10
_symmetry_space_group_name_H-M   'P 1'
_cell_length_a   11.65758969
_cell_length_b   11.65758887
_cell_length_c   11.65898340
_cell_angle_alpha   146.80153477
_cell_angle_beta   132.70474589
_cell_angle_gamma   58.99046216
_symmetry_Int_Tables_number   1
_chemical_formula_structural   Er11TmPb10
_chemical_formula_sum   'Er11 Tm1 Pb10'
_cell_volume   632.10985571
_cell_formula_units_Z   1
loop_
 _symmetry_equiv_pos_site_id
 _symmetry_equiv_pos_as_xyz
  1  'x, y, z'
loop_
 _atom_site_type_symbol
 _atom_site_label
 _atom_site_symmetry_multiplicity
 _atom_site_fract_x
 _atom_site_fract_y
 _atom_site_fract_z
 _atom_site_occupancy
  Er  Er0  1  0.696333  0.946333  0.250000  1
  Er  Er1  1  0.249565  0.636214  0.611262  1
  Er  Er2  1  0.681509  0.941240  0.739784  1
  Er  Er3  1  0.024952  0.138301  0.888738  1
  Er  Er4  1  0.975374  0.861925  0.113028  1
  Er  Er5  1  0.798764  0.559719  0.240993  1
  Er  Er6  1  0.201456  0.441724  0.760216  1
  Er  Er7  1  0.302885  0.052885  0.750000  1
  Er  Er8  1  0.318725  0.057770  0.259007  1
  Er  Er9  1  0.304165  0.554165  0.250000  1
  Er  Er10  1  0.748896  0.362347  0.386972  1
  Tm  Tm11  1  0.696519  0.446519  0.750000  1
  Pb  Pb12  1  0.481050  0.569337  0.900651  1
  Pb  Pb13  1  0.599422  0.789838  0.800749  1
  Pb  Pb14  1  0.668688  0.080399  0.599349  1
  Pb  Pb15  1  0.999993  0.749993  0.750000  1
  Pb  Pb16  1  0.989090  0.298674  0.699251  1
  Pb  Pb17  1  0.519257  0.423422  0.091683  1
  Pb  Pb18  1  0.009731  0.703998  0.302080  1
  Pb  Pb19  1  0.401917  0.207652  0.197920  1
  Pb  Pb20  1  0.331738  0.927574  0.408317  1
  Pb  Pb21  1  0.999971  0.249971  0.250000  1
