# generated using pymatgen
data_Er2BeSiI2
_symmetry_space_group_name_H-M   'P 1'
_cell_length_a   3.94326700
_cell_length_b   3.94326591
_cell_length_c   11.68423200
_cell_angle_alpha   90.00000000
_cell_angle_beta   90.00000000
_cell_angle_gamma   119.99998400
_symmetry_Int_Tables_number   1
_chemical_formula_structural   Er2BeSiI2
_chemical_formula_sum   'Er2 Be1 Si1 I2'
_cell_volume   157.34144039
_cell_formula_units_Z   1
loop_
 _symmetry_equiv_pos_site_id
 _symmetry_equiv_pos_as_xyz
  1  'x, y, z'
loop_
 _atom_site_type_symbol
 _atom_site_label
 _atom_site_symmetry_multiplicity
 _atom_site_fract_x
 _atom_site_fract_y
 _atom_site_fract_z
 _atom_site_occupancy
  Er  Er0  1  0.000000  0.000000  0.163420  1
  Er  Er1  1  0.000000  0.000000  0.834721  1
  Be  Be2  1  0.333333  0.666667  0.010984  1
  Si  Si3  1  0.666667  0.333333  0.991359  1
  I  I4  1  0.333333  0.666667  0.658151  1
  I  I5  1  0.666667  0.333333  0.341365  1
