# generated using pymatgen
data_Yb4TiRh7
_symmetry_space_group_name_H-M   'P 1'
_cell_length_a   5.39242200
_cell_length_b   5.39242062
_cell_length_c   8.13069700
_cell_angle_alpha   90.00000000
_cell_angle_beta   90.00000000
_cell_angle_gamma   119.99998393
_symmetry_Int_Tables_number   1
_chemical_formula_structural   Yb4TiRh7
_chemical_formula_sum   'Yb4 Ti1 Rh7'
_cell_volume   204.75103765
_cell_formula_units_Z   1
loop_
 _symmetry_equiv_pos_site_id
 _symmetry_equiv_pos_as_xyz
  1  'x, y, z'
loop_
 _atom_site_type_symbol
 _atom_site_label
 _atom_site_symmetry_multiplicity
 _atom_site_fract_x
 _atom_site_fract_y
 _atom_site_fract_z
 _atom_site_occupancy
  Yb  Yb0  1  0.333333  0.666667  0.060743  1
  Yb  Yb1  1  0.666667  0.333333  0.576739  1
  Yb  Yb2  1  0.666667  0.333333  0.939257  1
  Yb  Yb3  1  0.333333  0.666667  0.423261  1
  Ti  Ti4  1  0.000000  0.000000  0.500000  1
  Rh  Rh5  1  0.000000  0.000000  0.000000  1
  Rh  Rh6  1  0.828160  0.656320  0.256919  1
  Rh  Rh7  1  0.171840  0.828160  0.743081  1
  Rh  Rh8  1  0.656320  0.828160  0.743081  1
  Rh  Rh9  1  0.343680  0.171840  0.256919  1
  Rh  Rh10  1  0.828160  0.171840  0.256919  1
  Rh  Rh11  1  0.171840  0.343680  0.743081  1
