# generated using pymatgen
data_BaLaNdO4
_symmetry_space_group_name_H-M   'P 1'
_cell_length_a   7.34440225
_cell_length_b   7.39477579
_cell_length_c   7.39477539
_cell_angle_alpha   60.46954955
_cell_angle_beta   60.22508269
_cell_angle_gamma   60.22508609
_symmetry_Int_Tables_number   1
_chemical_formula_structural   BaLaNdO4
_chemical_formula_sum   'Ba2 La2 Nd2 O8'
_cell_volume   285.94902103
_cell_formula_units_Z   2
loop_
 _symmetry_equiv_pos_site_id
 _symmetry_equiv_pos_as_xyz
  1  'x, y, z'
loop_
 _atom_site_type_symbol
 _atom_site_label
 _atom_site_symmetry_multiplicity
 _atom_site_fract_x
 _atom_site_fract_y
 _atom_site_fract_z
 _atom_site_occupancy
  Ba  Ba0  1  0.500172  0.499828  0.499828  1
  Ba  Ba1  1  0.749828  0.750172  0.750172  1
  La  La2  1  0.125000  0.625000  0.125000  1
  La  La3  1  0.125000  0.125000  0.625000  1
  Nd  Nd4  1  0.125000  0.125000  0.125000  1
  Nd  Nd5  1  0.625000  0.125000  0.125000  1
  O  O6  1  0.357824  0.353333  0.931018  1
  O  O7  1  0.930416  0.354984  0.354984  1
  O  O8  1  0.357824  0.931018  0.353333  1
  O  O9  1  0.890386  0.895016  0.895016  1
  O  O10  1  0.359614  0.354984  0.354984  1
  O  O11  1  0.892176  0.318982  0.896667  1
  O  O12  1  0.319584  0.895016  0.895016  1
  O  O13  1  0.892176  0.896667  0.318982  1
