# generated using pymatgen
data_Zr2Cr9Fe3P7
_symmetry_space_group_name_H-M   'P 1'
_cell_length_a   9.15804900
_cell_length_b   9.15804954
_cell_length_c   3.60070300
_cell_angle_alpha   90.00000000
_cell_angle_beta   90.00000000
_cell_angle_gamma   119.99999442
_symmetry_Int_Tables_number   1
_chemical_formula_structural   Zr2Cr9Fe3P7
_chemical_formula_sum   'Zr2 Cr9 Fe3 P7'
_cell_volume   261.53144191
_cell_formula_units_Z   1
loop_
 _symmetry_equiv_pos_site_id
 _symmetry_equiv_pos_as_xyz
  1  'x, y, z'
loop_
 _atom_site_type_symbol
 _atom_site_label
 _atom_site_symmetry_multiplicity
 _atom_site_fract_x
 _atom_site_fract_y
 _atom_site_fract_z
 _atom_site_occupancy
  Zr  Zr0  1  0.000000  0.000000  0.000000  1
  Zr  Zr1  1  0.333333  0.666667  0.500000  1
  Cr  Cr2  1  0.098812  0.371836  0.000000  1
  Cr  Cr3  1  0.273025  0.901188  0.000000  1
  Cr  Cr4  1  0.628164  0.726975  0.000000  1
  Cr  Cr5  1  0.070699  0.771993  0.500000  1
  Cr  Cr6  1  0.701295  0.929301  0.500000  1
  Cr  Cr7  1  0.228007  0.298705  0.500000  1
  Cr  Cr8  1  0.884921  0.430186  0.500000  1
  Cr  Cr9  1  0.545266  0.115079  0.500000  1
  Cr  Cr10  1  0.569814  0.454734  0.500000  1
  Fe  Fe11  1  0.825712  0.610000  0.000000  1
  Fe  Fe12  1  0.784289  0.174288  0.000000  1
  Fe  Fe13  1  0.390000  0.215711  0.000000  1
  P  P14  1  0.072005  0.607275  0.000000  1
  P  P15  1  0.535270  0.927995  0.000000  1
  P  P16  1  0.392725  0.464730  0.000000  1
  P  P17  1  0.802161  0.738972  0.500000  1
  P  P18  1  0.936811  0.197839  0.500000  1
  P  P19  1  0.261028  0.063189  0.500000  1
  P  P20  1  0.666667  0.333333  0.000000  1
