# generated using pymatgen
data_Yb2YLu(Pt2O7)2
_symmetry_space_group_name_H-M   'P 1'
_cell_length_a   7.21245282
_cell_length_b   7.24351031
_cell_length_c   7.24350985
_cell_angle_alpha   60.21382426
_cell_angle_beta   60.17694835
_cell_angle_gamma   60.17694600
_symmetry_Int_Tables_number   1
_chemical_formula_structural   Yb2YLu(Pt2O7)2
_chemical_formula_sum   'Yb2 Y1 Lu1 Pt4 O14'
_cell_volume   268.73432936
_cell_formula_units_Z   1
loop_
 _symmetry_equiv_pos_site_id
 _symmetry_equiv_pos_as_xyz
  1  'x, y, z'
loop_
 _atom_site_type_symbol
 _atom_site_label
 _atom_site_symmetry_multiplicity
 _atom_site_fract_x
 _atom_site_fract_y
 _atom_site_fract_z
 _atom_site_occupancy
  Yb  Yb0  1  0.625000  0.625000  0.125000  1
  Yb  Yb1  1  0.625000  0.125000  0.625000  1
  Y  Y2  1  0.625000  0.625000  0.625000  1
  Lu  Lu3  1  0.125000  0.625000  0.625000  1
  Pt  Pt4  1  0.125000  0.125000  0.125000  1
  Pt  Pt5  1  0.625000  0.125000  0.125000  1
  Pt  Pt6  1  0.125000  0.125000  0.625000  1
  Pt  Pt7  1  0.125000  0.625000  0.125000  1
  O  O8  1  0.041632  0.463240  0.463240  1
  O  O9  1  0.789504  0.788336  0.215272  1
  O  O10  1  0.791296  0.209453  0.209453  1
  O  O11  1  0.460496  0.034728  0.461664  1
  O  O12  1  0.761386  0.743531  0.743531  1
  O  O13  1  0.048834  0.460984  0.029219  1
  O  O14  1  0.048834  0.029219  0.460984  1
  O  O15  1  0.201166  0.789016  0.220781  1
  O  O16  1  0.201166  0.220781  0.789016  1
  O  O17  1  0.789504  0.215272  0.788336  1
  O  O18  1  0.488614  0.506469  0.506469  1
  O  O19  1  0.458704  0.040547  0.040547  1
  O  O20  1  0.460496  0.461664  0.034728  1
  O  O21  1  0.208368  0.786760  0.786760  1
