# generated using pymatgen
data_Lu10In5SnSe2
_symmetry_space_group_name_H-M   'P 1'
_cell_length_a   8.93171246
_cell_length_b   9.00461978
_cell_length_c   6.65703300
_cell_angle_alpha   90.00000000
_cell_angle_beta   90.00000000
_cell_angle_gamma   120.27038124
_symmetry_Int_Tables_number   1
_chemical_formula_structural   Lu10In5SnSe2
_chemical_formula_sum   'Lu10 In5 Sn1 Se2'
_cell_volume   462.40417002
_cell_formula_units_Z   1
loop_
 _symmetry_equiv_pos_site_id
 _symmetry_equiv_pos_as_xyz
  1  'x, y, z'
loop_
 _atom_site_type_symbol
 _atom_site_label
 _atom_site_symmetry_multiplicity
 _atom_site_fract_x
 _atom_site_fract_y
 _atom_site_fract_z
 _atom_site_occupancy
  Lu  Lu0  1  0.668721  0.334584  0.998433  1
  Lu  Lu1  1  0.331279  0.665865  0.998433  1
  Lu  Lu2  1  0.331279  0.665865  0.501567  1
  Lu  Lu3  1  0.668721  0.334584  0.501567  1
  Lu  Lu4  1  0.749418  0.747826  0.750000  1
  Lu  Lu5  1  0.250582  0.998408  0.750000  1
  Lu  Lu6  1  0.000000  0.255452  0.750000  1
  Lu  Lu7  1  0.250371  0.250954  0.250000  1
  Lu  Lu8  1  0.749629  0.000583  0.250000  1
  Lu  Lu9  1  0.000000  0.744795  0.250000  1
  In  In10  1  0.398541  0.399019  0.750000  1
  In  In11  1  0.601459  0.000479  0.750000  1
  In  In12  1  0.000000  0.602645  0.750000  1
  In  In13  1  0.600782  0.600900  0.250000  1
  In  In14  1  0.399218  0.000118  0.250000  1
  Sn  Sn15  1  0.000000  0.397227  0.250000  1
  Se  Se16  1  0.000000  0.000348  0.000407  1
  Se  Se17  1  0.000000  0.000348  0.499593  1
