# generated using pymatgen
data_YbY2Ho2(In2Pt)2
_symmetry_space_group_name_H-M   'P 1'
_cell_length_a   3.60613200
_cell_length_b   8.18635900
_cell_length_c   18.39651100
_cell_angle_alpha   90.00000000
_cell_angle_beta   90.00000000
_cell_angle_gamma   90.00000000
_symmetry_Int_Tables_number   1
_chemical_formula_structural   YbY2Ho2(In2Pt)2
_chemical_formula_sum   'Yb2 Y4 Ho4 In8 Pt4'
_cell_volume   543.08507814
_cell_formula_units_Z   2
loop_
 _symmetry_equiv_pos_site_id
 _symmetry_equiv_pos_as_xyz
  1  'x, y, z'
loop_
 _atom_site_type_symbol
 _atom_site_label
 _atom_site_symmetry_multiplicity
 _atom_site_fract_x
 _atom_site_fract_y
 _atom_site_fract_z
 _atom_site_occupancy
  Yb  Yb0  1  0.000000  0.000000  0.000000  1
  Yb  Yb1  1  0.000000  0.500000  0.500000  1
  Y  Y2  1  0.000000  0.119195  0.414457  1
  Y  Y3  1  0.000000  0.880805  0.585543  1
  Y  Y4  1  0.000000  0.380805  0.914457  1
  Y  Y5  1  0.000000  0.619195  0.085543  1
  Ho  Ho6  1  0.000000  0.243429  0.220439  1
  Ho  Ho7  1  0.000000  0.756571  0.779561  1
  Ho  Ho8  1  0.000000  0.256571  0.720439  1
  Ho  Ho9  1  0.000000  0.743429  0.279561  1
  In  In10  1  0.500000  0.425230  0.350865  1
  In  In11  1  0.500000  0.574770  0.649135  1
  In  In12  1  0.500000  0.074770  0.850865  1
  In  In13  1  0.500000  0.925230  0.149135  1
  In  In14  1  0.500000  0.292179  0.067312  1
  In  In15  1  0.500000  0.707821  0.932688  1
  In  In16  1  0.500000  0.207821  0.567312  1
  In  In17  1  0.500000  0.792179  0.432688  1
  Pt  Pt18  1  0.500000  0.022716  0.302275  1
  Pt  Pt19  1  0.500000  0.977284  0.697725  1
  Pt  Pt20  1  0.500000  0.477284  0.802275  1
  Pt  Pt21  1  0.500000  0.522716  0.197725  1
