# generated using pymatgen
data_Tm3Lu7Ru3Rh
_symmetry_space_group_name_H-M   'P 1'
_cell_length_a   6.20831467
_cell_length_b   7.22867369
_cell_length_c   8.28210342
_cell_angle_alpha   96.85494250
_cell_angle_beta   112.07638438
_cell_angle_gamma   90.11447864
_symmetry_Int_Tables_number   1
_chemical_formula_structural   Tm3Lu7Ru3Rh
_chemical_formula_sum   'Tm3 Lu7 Ru3 Rh1'
_cell_volume   341.52683459
_cell_formula_units_Z   1
loop_
 _symmetry_equiv_pos_site_id
 _symmetry_equiv_pos_as_xyz
  1  'x, y, z'
loop_
 _atom_site_type_symbol
 _atom_site_label
 _atom_site_symmetry_multiplicity
 _atom_site_fract_x
 _atom_site_fract_y
 _atom_site_fract_z
 _atom_site_occupancy
  Tm  Tm0  1  0.524912  0.084256  0.814506  1
  Tm  Tm1  1  0.475559  0.917856  0.183779  1
  Tm  Tm2  1  0.710399  0.415794  0.183911  1
  Lu  Lu3  1  0.288977  0.583399  0.810462  1
  Lu  Lu4  1  0.293191  0.313811  0.436999  1
  Lu  Lu5  1  0.708701  0.683955  0.566553  1
  Lu  Lu6  1  0.855421  0.182798  0.563802  1
  Lu  Lu7  1  0.141560  0.819623  0.437790  1
  Lu  Lu8  1  0.080872  0.248387  0.998292  1
  Lu  Lu9  1  0.918357  0.750824  0.999768  1
  Ru  Ru10  1  0.677289  0.425017  0.780421  1
  Ru  Ru11  1  0.105347  0.921847  0.781249  1
  Ru  Ru12  1  0.898168  0.076817  0.219673  1
  Rh  Rh13  1  0.321246  0.575616  0.222797  1
