# generated using pymatgen
data_La5Sm3(HoPb4)2
_symmetry_space_group_name_H-M   'P 1'
_cell_length_a   8.38499100
_cell_length_b   16.19051746
_cell_length_c   8.45867600
_cell_angle_alpha   90.10160038
_cell_angle_beta   90.00000000
_cell_angle_gamma   90.00000000
_symmetry_Int_Tables_number   1
_chemical_formula_structural   La5Sm3(HoPb4)2
_chemical_formula_sum   'La10 Sm6 Ho4 Pb16'
_cell_volume   1148.32557487
_cell_formula_units_Z   2
loop_
 _symmetry_equiv_pos_site_id
 _symmetry_equiv_pos_as_xyz
  1  'x, y, z'
loop_
 _atom_site_type_symbol
 _atom_site_label
 _atom_site_symmetry_multiplicity
 _atom_site_fract_x
 _atom_site_fract_y
 _atom_site_fract_z
 _atom_site_occupancy
  La  La0  1  0.629142  0.883424  0.156721  1
  La  La1  1  0.129142  0.616576  0.343279  1
  La  La2  1  0.472463  0.596905  0.679947  1
  La  La3  1  0.972463  0.903095  0.820053  1
  La  La4  1  0.527380  0.099150  0.321903  1
  La  La5  1  0.027380  0.400850  0.178097  1
  La  La6  1  0.525856  0.401169  0.321460  1
  La  La7  1  0.025856  0.098831  0.178540  1
  La  La8  1  0.474601  0.902850  0.679178  1
  La  La9  1  0.974601  0.597150  0.820822  1
  Sm  Sm10  1  0.632996  0.621091  0.156504  1
  Sm  Sm11  1  0.132996  0.878909  0.343496  1
  Sm  Sm12  1  0.367582  0.120783  0.845550  1
  Sm  Sm13  1  0.867582  0.379217  0.654450  1
  Sm  Sm14  1  0.369824  0.377062  0.844535  1
  Sm  Sm15  1  0.869824  0.122938  0.655465  1
  Ho  Ho16  1  0.797510  0.749956  0.495261  1
  Ho  Ho17  1  0.297510  0.750044  0.004739  1
  Ho  Ho18  1  0.203004  0.248620  0.505067  1
  Ho  Ho19  1  0.703004  0.251380  0.994933  1
  Pb  Pb20  1  0.710040  0.454858  0.962692  1
  Pb  Pb21  1  0.210040  0.045142  0.537308  1
  Pb  Pb22  1  0.282363  0.955419  0.034767  1
  Pb  Pb23  1  0.782363  0.544581  0.465233  1
  Pb  Pb24  1  0.295955  0.544116  0.032815  1
  Pb  Pb25  1  0.795955  0.955884  0.467185  1
  Pb  Pb26  1  0.710141  0.049767  0.959279  1
  Pb  Pb27  1  0.210141  0.450233  0.540721  1
  Pb  Pb28  1  0.436600  0.750460  0.374613  1
  Pb  Pb29  1  0.936600  0.749540  0.125387  1
  Pb  Pb30  1  0.563361  0.249366  0.628718  1
  Pb  Pb31  1  0.063361  0.250634  0.871282  1
  Pb  Pb32  1  0.664059  0.749291  0.847749  1
  Pb  Pb33  1  0.164059  0.750709  0.652251  1
  Pb  Pb34  1  0.337123  0.249622  0.151511  1
  Pb  Pb35  1  0.837123  0.250378  0.348489  1
