# generated using pymatgen
data_NdY2Ga8Ag3
_symmetry_space_group_name_H-M   'P 1'
_cell_length_a   4.36477498
_cell_length_b   8.41727319
_cell_length_c   8.41727392
_cell_angle_alpha   69.25127822
_cell_angle_beta   74.97295682
_cell_angle_gamma   74.97296105
_symmetry_Int_Tables_number   1
_chemical_formula_structural   NdY2Ga8Ag3
_chemical_formula_sum   'Nd1 Y2 Ga8 Ag3'
_cell_volume   274.45972014
_cell_formula_units_Z   1
loop_
 _symmetry_equiv_pos_site_id
 _symmetry_equiv_pos_as_xyz
  1  'x, y, z'
loop_
 _atom_site_type_symbol
 _atom_site_label
 _atom_site_symmetry_multiplicity
 _atom_site_fract_x
 _atom_site_fract_y
 _atom_site_fract_z
 _atom_site_occupancy
  Nd  Nd0  1  0.000000  0.000000  0.000000  1
  Y  Y1  1  0.300626  0.699374  0.699374  1
  Y  Y2  1  0.699374  0.300626  0.300626  1
  Ga  Ga3  1  0.339602  0.292243  0.028553  1
  Ga  Ga4  1  0.660398  0.707757  0.971447  1
  Ga  Ga5  1  0.339602  0.028553  0.292243  1
  Ga  Ga6  1  0.660398  0.971447  0.707757  1
  Ga  Ga7  1  0.144550  0.572623  0.138278  1
  Ga  Ga8  1  0.855450  0.427377  0.861722  1
  Ga  Ga9  1  0.144550  0.138278  0.572623  1
  Ga  Ga10  1  0.855450  0.861722  0.427377  1
  Ag  Ag11  1  0.500000  0.304586  0.695414  1
  Ag  Ag12  1  0.500000  0.695414  0.304586  1
  Ag  Ag13  1  0.000000  0.500000  0.500000  1
