# generated using pymatgen
data_CeTiP7Ru12
_symmetry_space_group_name_H-M   'P 1'
_cell_length_a   9.41430200
_cell_length_b   9.41430090
_cell_length_c   3.90167400
_cell_angle_alpha   90.00000000
_cell_angle_beta   90.00000000
_cell_angle_gamma   120.00000292
_symmetry_Int_Tables_number   1
_chemical_formula_structural   CeTiP7Ru12
_chemical_formula_sum   'Ce1 Ti1 P7 Ru12'
_cell_volume   299.47308714
_cell_formula_units_Z   1
loop_
 _symmetry_equiv_pos_site_id
 _symmetry_equiv_pos_as_xyz
  1  'x, y, z'
loop_
 _atom_site_type_symbol
 _atom_site_label
 _atom_site_symmetry_multiplicity
 _atom_site_fract_x
 _atom_site_fract_y
 _atom_site_fract_z
 _atom_site_occupancy
  Ce  Ce0  1  0.333333  0.666667  0.000000  1
  Ti  Ti1  1  0.666667  0.333333  0.500000  1
  P  P2  1  0.602635  0.718093  0.500000  1
  P  P3  1  0.000000  0.000000  0.000000  1
  P  P4  1  0.281907  0.884542  0.500000  1
  P  P5  1  0.115458  0.397365  0.500000  1
  P  P6  1  0.884043  0.570937  0.000000  1
  P  P7  1  0.429063  0.313106  0.000000  1
  P  P8  1  0.686894  0.115957  0.000000  1
  Ru  Ru9  1  0.557770  0.954104  0.500000  1
  Ru  Ru10  1  0.396334  0.442230  0.500000  1
  Ru  Ru11  1  0.912706  0.121362  0.500000  1
  Ru  Ru12  1  0.208657  0.087294  0.500000  1
  Ru  Ru13  1  0.878638  0.791343  0.500000  1
  Ru  Ru14  1  0.725532  0.889362  0.000000  1
  Ru  Ru15  1  0.110638  0.836169  0.000000  1
  Ru  Ru16  1  0.163831  0.274468  0.000000  1
  Ru  Ru17  1  0.429816  0.076802  0.000000  1
  Ru  Ru18  1  0.923198  0.353015  0.000000  1
  Ru  Ru19  1  0.646985  0.570184  0.000000  1
  Ru  Ru20  1  0.045896  0.603666  0.500000  1
