# generated using pymatgen
data_Al11(CrRh)2
_symmetry_space_group_name_H-M   'P 1'
_cell_length_a   5.10451102
_cell_length_b   5.14491407
_cell_length_c   8.96048945
_cell_angle_alpha   74.31309322
_cell_angle_beta   89.12136868
_cell_angle_gamma   79.01480840
_symmetry_Int_Tables_number   1
_chemical_formula_structural   Al11(CrRh)2
_chemical_formula_sum   'Al11 Cr2 Rh2'
_cell_volume   222.24342663
_cell_formula_units_Z   1
loop_
 _symmetry_equiv_pos_site_id
 _symmetry_equiv_pos_as_xyz
  1  'x, y, z'
loop_
 _atom_site_type_symbol
 _atom_site_label
 _atom_site_symmetry_multiplicity
 _atom_site_fract_x
 _atom_site_fract_y
 _atom_site_fract_z
 _atom_site_occupancy
  Al  Al0  1  0.184024  0.280472  0.370152  1
  Al  Al1  1  0.815976  0.719528  0.629848  1
  Al  Al2  1  0.846004  0.468111  0.122750  1
  Al  Al3  1  0.153996  0.531889  0.877250  1
  Al  Al4  1  0.000000  0.000000  0.000000  1
  Al  Al5  1  0.482672  0.105421  0.121909  1
  Al  Al6  1  0.517328  0.894579  0.878091  1
  Al  Al7  1  0.424428  0.332472  0.630256  1
  Al  Al8  1  0.575572  0.667528  0.369744  1
  Al  Al9  1  0.058452  0.824321  0.317303  1
  Al  Al10  1  0.941548  0.175679  0.682697  1
  Cr  Cr11  1  0.337301  0.609455  0.134212  1
  Cr  Cr12  1  0.662699  0.390545  0.865788  1
  Rh  Rh13  1  0.700713  0.144173  0.400267  1
  Rh  Rh14  1  0.299287  0.855827  0.599733  1
