# generated using pymatgen
data_Sr4CdHgPt4
_symmetry_space_group_name_H-M   'P 1'
_cell_length_a   5.99287474
_cell_length_b   5.99287564
_cell_length_c   8.59618618
_cell_angle_alpha   77.41815207
_cell_angle_beta   77.41813694
_cell_angle_gamma   59.18007290
_symmetry_Int_Tables_number   1
_chemical_formula_structural   Sr4CdHgPt4
_chemical_formula_sum   'Sr4 Cd1 Hg1 Pt4'
_cell_volume   256.67655306
_cell_formula_units_Z   1
loop_
 _symmetry_equiv_pos_site_id
 _symmetry_equiv_pos_as_xyz
  1  'x, y, z'
loop_
 _atom_site_type_symbol
 _atom_site_label
 _atom_site_symmetry_multiplicity
 _atom_site_fract_x
 _atom_site_fract_y
 _atom_site_fract_z
 _atom_site_occupancy
  Sr  Sr0  1  0.502604  0.794522  0.350486  1
  Sr  Sr1  1  0.205478  0.497396  0.149514  1
  Sr  Sr2  1  0.498685  0.205677  0.645874  1
  Sr  Sr3  1  0.794323  0.501315  0.854126  1
  Cd  Cd4  1  0.134002  0.865998  0.750000  1
  Hg  Hg5  1  0.851359  0.148641  0.250000  1
  Pt  Pt6  1  0.284752  0.992655  0.990815  1
  Pt  Pt7  1  0.007345  0.715248  0.509185  1
  Pt  Pt8  1  0.720630  0.999179  0.003770  1
  Pt  Pt9  1  0.000821  0.279370  0.496230  1
