# generated using pymatgen
data_Pr2ErGa(SiRh3)2
_symmetry_space_group_name_H-M   'P 1'
_cell_length_a   5.66290100
_cell_length_b   5.66289928
_cell_length_c   15.26973400
_cell_angle_alpha   90.00000000
_cell_angle_beta   90.00000000
_cell_angle_gamma   119.99999255
_symmetry_Int_Tables_number   1
_chemical_formula_structural   Pr2ErGa(SiRh3)2
_chemical_formula_sum   'Pr4 Er2 Ga2 Si4 Rh12'
_cell_volume   424.07233573
_cell_formula_units_Z   2
loop_
 _symmetry_equiv_pos_site_id
 _symmetry_equiv_pos_as_xyz
  1  'x, y, z'
loop_
 _atom_site_type_symbol
 _atom_site_label
 _atom_site_symmetry_multiplicity
 _atom_site_fract_x
 _atom_site_fract_y
 _atom_site_fract_z
 _atom_site_occupancy
  Pr  Pr0  1  0.333333  0.666667  0.539951  1
  Pr  Pr1  1  0.666667  0.333333  0.460049  1
  Pr  Pr2  1  0.333333  0.666667  0.751832  1
  Pr  Pr3  1  0.666667  0.333333  0.248168  1
  Er  Er4  1  0.666667  0.333333  0.034857  1
  Er  Er5  1  0.333333  0.666667  0.965143  1
  Ga  Ga6  1  0.000000  0.000000  0.000000  1
  Ga  Ga7  1  0.000000  0.000000  0.500000  1
  Si  Si8  1  0.000000  0.000000  0.246033  1
  Si  Si9  1  0.000000  0.000000  0.753967  1
  Si  Si10  1  0.333333  0.666667  0.247626  1
  Si  Si11  1  0.666667  0.333333  0.752374  1
  Rh  Rh12  1  0.168128  0.336256  0.131140  1
  Rh  Rh13  1  0.831872  0.663744  0.868860  1
  Rh  Rh14  1  0.663744  0.831872  0.131140  1
  Rh  Rh15  1  0.833225  0.666451  0.637046  1
  Rh  Rh16  1  0.336256  0.168128  0.868860  1
  Rh  Rh17  1  0.166775  0.333549  0.362954  1
  Rh  Rh18  1  0.168128  0.831872  0.131140  1
  Rh  Rh19  1  0.333549  0.166775  0.637046  1
  Rh  Rh20  1  0.831872  0.168128  0.868860  1
  Rh  Rh21  1  0.666451  0.833225  0.362954  1
  Rh  Rh22  1  0.833225  0.166775  0.637046  1
  Rh  Rh23  1  0.166775  0.833225  0.362954  1
