# generated using pymatgen
data_Nd4SmSc15(BO3)20
_symmetry_space_group_name_H-M   'P 1'
_cell_length_a   7.81471708
_cell_length_b   7.81471726
_cell_length_c   18.87973414
_cell_angle_alpha   87.77766982
_cell_angle_beta   87.77766880
_cell_angle_gamma   78.27932600
_symmetry_Int_Tables_number   1
_chemical_formula_structural   Nd4SmSc15(BO3)20
_chemical_formula_sum   'Nd4 Sm1 Sc15 B20 O60'
_cell_volume   1127.52968849
_cell_formula_units_Z   1
loop_
 _symmetry_equiv_pos_site_id
 _symmetry_equiv_pos_as_xyz
  1  'x, y, z'
loop_
 _atom_site_type_symbol
 _atom_site_label
 _atom_site_symmetry_multiplicity
 _atom_site_fract_x
 _atom_site_fract_y
 _atom_site_fract_z
 _atom_site_occupancy
  Nd  Nd0  1  0.399706  0.399708  0.699175  1
  Nd  Nd1  1  0.800108  0.800034  0.899888  1
  Nd  Nd2  1  0.199966  0.199892  0.100112  1
  Nd  Nd3  1  0.600292  0.600294  0.300825  1
  Sm  Sm4  1  0.999917  0.000083  0.500000  1
  Sc  Sc5  1  0.709483  0.162080  0.081043  1
  Sc  Sc6  1  0.109485  0.562162  0.281150  1
  Sc  Sc7  1  0.509412  0.962273  0.481173  1
  Sc  Sc8  1  0.909470  0.362120  0.680983  1
  Sc  Sc9  1  0.309580  0.762020  0.880972  1
  Sc  Sc10  1  0.237980  0.690420  0.119028  1
  Sc  Sc11  1  0.637880  0.090530  0.319017  1
  Sc  Sc12  1  0.037727  0.490588  0.518827  1
  Sc  Sc13  1  0.437838  0.890515  0.718850  1
  Sc  Sc14  1  0.837920  0.290517  0.918957  1
  Sc  Sc15  1  0.252621  0.347401  0.899880  1
  Sc  Sc16  1  0.652599  0.747379  0.100120  1
  Sc  Sc17  1  0.052582  0.147152  0.300376  1
  Sc  Sc18  1  0.452641  0.547359  0.500000  1
  Sc  Sc19  1  0.852848  0.947418  0.699624  1
  B  B20  1  0.500021  0.499979  0.000000  1
  B  B21  1  0.900046  0.899905  0.200063  1
  B  B22  1  0.299884  0.299918  0.400064  1
  B  B23  1  0.700082  0.700116  0.599936  1
  B  B24  1  0.100095  0.099954  0.799937  1
  B  B25  1  0.849365  0.752135  0.400577  1
  B  B26  1  0.247865  0.150635  0.599423  1
  B  B27  1  0.648735  0.550978  0.799865  1
  B  B28  1  0.049010  0.950990  0.000000  1
  B  B29  1  0.449022  0.351265  0.200135  1
  B  B30  1  0.390129  0.939025  0.219668  1
  B  B31  1  0.791277  0.337617  0.419976  1
  B  B32  1  0.189389  0.739933  0.619025  1
  B  B33  1  0.590170  0.139403  0.819318  1
  B  B34  1  0.990188  0.539197  0.019591  1
  B  B35  1  0.662383  0.208723  0.580024  1
  B  B36  1  0.060975  0.609870  0.780332  1
  B  B37  1  0.460803  0.009812  0.980409  1
  B  B38  1  0.860597  0.409830  0.180682  1
  B  B39  1  0.260067  0.810611  0.380975  1
  O  O40  1  0.640562  0.359438  0.000000  1
  O  O41  1  0.040391  0.759198  0.200000  1
  O  O42  1  0.440709  0.159681  0.400259  1
  O  O43  1  0.840319  0.559291  0.599741  1
  O  O44  1  0.240802  0.959609  0.800000  1
  O  O45  1  0.471970  0.612332  0.056243  1
  O  O46  1  0.872157  0.011989  0.256408  1
  O  O47  1  0.271494  0.413037  0.456032  1
  O  O48  1  0.672295  0.812080  0.656265  1
  O  O49  1  0.071721  0.212360  0.856148  1
  O  O50  1  0.387668  0.528030  0.943757  1
  O  O51  1  0.787640  0.928279  0.143852  1
  O  O52  1  0.187920  0.327705  0.343735  1
  O  O53  1  0.586963  0.728506  0.543968  1
  O  O54  1  0.988011  0.127843  0.743592  1
  O  O55  1  0.908540  0.091460  0.000000  1
  O  O56  1  0.308500  0.491650  0.200126  1
  O  O57  1  0.707628  0.891233  0.399936  1
  O  O58  1  0.108767  0.292372  0.600064  1
  O  O59  1  0.508350  0.691500  0.799874  1
  O  O60  1  0.418076  0.827188  0.163337  1
  O  O61  1  0.817901  0.227091  0.363239  1
  O  O62  1  0.218857  0.625202  0.563648  1
  O  O63  1  0.618525  0.027039  0.763112  1
  O  O64  1  0.018267  0.426856  0.963393  1
  O  O65  1  0.172812  0.581924  0.836663  1
  O  O66  1  0.573144  0.981733  0.036607  1
  O  O67  1  0.972961  0.381475  0.236888  1
  O  O68  1  0.374798  0.781143  0.436352  1
  O  O69  1  0.772909  0.182099  0.636761  1
  O  O70  1  0.079669  0.849948  0.940497  1
  O  O71  1  0.479609  0.250019  0.140676  1
  O  O72  1  0.880902  0.649823  0.341413  1
  O  O73  1  0.276353  0.050050  0.539654  1
  O  O74  1  0.679225  0.450010  0.740322  1
  O  O75  1  0.712524  0.114067  0.871762  1
  O  O76  1  0.112805  0.513874  0.071917  1
  O  O77  1  0.513007  0.913654  0.271907  1
  O  O78  1  0.914759  0.310184  0.472089  1
  O  O79  1  0.310844  0.715501  0.671795  1
  O  O80  1  0.730071  0.558931  0.180433  1
  O  O81  1  0.129092  0.959592  0.381767  1
  O  O82  1  0.530847  0.356952  0.579208  1
  O  O83  1  0.930466  0.758894  0.779735  1
  O  O84  1  0.330129  0.158736  0.980014  1
  O  O85  1  0.441069  0.269929  0.819567  1
  O  O86  1  0.841264  0.669871  0.019986  1
  O  O87  1  0.241106  0.069534  0.220265  1
  O  O88  1  0.643048  0.469153  0.420792  1
  O  O89  1  0.040408  0.870908  0.618233  1
  O  O90  1  0.150052  0.920331  0.059503  1
  O  O91  1  0.549990  0.320775  0.259678  1
  O  O92  1  0.949950  0.723647  0.460346  1
  O  O93  1  0.350177  0.119098  0.658587  1
  O  O94  1  0.749981  0.520391  0.859324  1
  O  O95  1  0.885933  0.287476  0.128238  1
  O  O96  1  0.284499  0.689156  0.328205  1
  O  O97  1  0.689816  0.085241  0.527911  1
  O  O98  1  0.086346  0.486993  0.728093  1
  O  O99  1  0.486126  0.887195  0.928083  1
