# generated using pymatgen
data_Zr2BS
_symmetry_space_group_name_H-M   'P 1'
_cell_length_a   3.52340000
_cell_length_b   3.52339958
_cell_length_c   12.37522200
_cell_angle_alpha   90.00000000
_cell_angle_beta   90.00000000
_cell_angle_gamma   119.99998517
_symmetry_Int_Tables_number   1
_chemical_formula_structural   Zr2BS
_chemical_formula_sum   'Zr4 B2 S2'
_cell_volume   133.04775271
_cell_formula_units_Z   2
loop_
 _symmetry_equiv_pos_site_id
 _symmetry_equiv_pos_as_xyz
  1  'x, y, z'
loop_
 _atom_site_type_symbol
 _atom_site_label
 _atom_site_symmetry_multiplicity
 _atom_site_fract_x
 _atom_site_fract_y
 _atom_site_fract_z
 _atom_site_occupancy
  Zr  Zr0  1  0.333333  0.666667  0.394674  1
  Zr  Zr1  1  0.666667  0.333333  0.894674  1
  Zr  Zr2  1  0.666667  0.333333  0.605326  1
  Zr  Zr3  1  0.333333  0.666667  0.105326  1
  B  B4  1  0.000000  0.000000  0.500000  1
  B  B5  1  0.000000  0.000000  0.000000  1
  S  S6  1  0.666667  0.333333  0.250000  1
  S  S7  1  0.333333  0.666667  0.750000  1
