# generated using pymatgen
data_Y15Er5(Ir2Ru)4
_symmetry_space_group_name_H-M   'P 1'
_cell_length_a   10.85700713
_cell_length_b   10.85773536
_cell_length_c   6.44770148
_cell_angle_alpha   89.99276314
_cell_angle_beta   89.95647503
_cell_angle_gamma   89.97129103
_symmetry_Int_Tables_number   1
_chemical_formula_structural   Y15Er5(Ir2Ru)4
_chemical_formula_sum   'Y15 Er5 Ir8 Ru4'
_cell_volume   760.07091434
_cell_formula_units_Z   1
loop_
 _symmetry_equiv_pos_site_id
 _symmetry_equiv_pos_as_xyz
  1  'x, y, z'
loop_
 _atom_site_type_symbol
 _atom_site_label
 _atom_site_symmetry_multiplicity
 _atom_site_fract_x
 _atom_site_fract_y
 _atom_site_fract_z
 _atom_site_occupancy
  Y  Y0  1  0.292941  0.913577  0.877813  1
  Y  Y1  1  0.706946  0.086488  0.878129  1
  Y  Y2  1  0.706968  0.913274  0.377920  1
  Y  Y3  1  0.586656  0.793079  0.878023  1
  Y  Y4  1  0.586318  0.206815  0.377940  1
  Y  Y5  1  0.413079  0.793367  0.377992  1
  Y  Y6  1  0.413141  0.206919  0.877952  1
  Y  Y7  1  0.207026  0.413257  0.621922  1
  Y  Y8  1  0.206991  0.586697  0.122051  1
  Y  Y9  1  0.793000  0.413325  0.121981  1
  Y  Y10  1  0.792928  0.586623  0.622081  1
  Y  Y11  1  0.913431  0.707083  0.122037  1
  Y  Y12  1  0.913351  0.293072  0.622128  1
  Y  Y13  1  0.086724  0.706999  0.622112  1
  Y  Y14  1  0.087073  0.292612  0.122216  1
  Er  Er15  1  0.293817  0.086470  0.378904  1
  Er  Er16  1  0.000391  0.000130  0.499750  1
  Er  Er17  1  0.000129  0.000048  0.000092  1
  Er  Er18  1  0.499954  0.499964  0.999990  1
  Er  Er19  1  0.499852  0.499977  0.500212  1
  Ir  Ir20  1  0.848955  0.151113  0.249921  1
  Ir  Ir21  1  0.849090  0.849136  0.749953  1
  Ir  Ir22  1  0.151607  0.150554  0.748114  1
  Ir  Ir23  1  0.151566  0.849719  0.250348  1
  Ir  Ir24  1  0.650923  0.348918  0.749956  1
  Ir  Ir25  1  0.651009  0.650964  0.249882  1
  Ir  Ir26  1  0.348966  0.347897  0.250647  1
  Ir  Ir27  1  0.349012  0.651103  0.750022  1
  Ru  Ru28  1  0.499166  0.000485  0.125143  1
  Ru  Ru29  1  0.499019  0.000412  0.623026  1
  Ru  Ru30  1  0.000018  0.500036  0.876028  1
  Ru  Ru31  1  0.999954  0.499885  0.375715  1
