# generated using pymatgen
data_Nd3Y5(Si3Ni)4
_symmetry_space_group_name_H-M   'P 1'
_cell_length_a   8.00713300
_cell_length_b   7.98234594
_cell_length_c   8.29670400
_cell_angle_alpha   90.00000000
_cell_angle_beta   90.00000000
_cell_angle_gamma   120.10276117
_symmetry_Int_Tables_number   1
_chemical_formula_structural   Nd3Y5(Si3Ni)4
_chemical_formula_sum   'Nd3 Y5 Si12 Ni4'
_cell_volume   458.76806200
_cell_formula_units_Z   1
loop_
 _symmetry_equiv_pos_site_id
 _symmetry_equiv_pos_as_xyz
  1  'x, y, z'
loop_
 _atom_site_type_symbol
 _atom_site_label
 _atom_site_symmetry_multiplicity
 _atom_site_fract_x
 _atom_site_fract_y
 _atom_site_fract_z
 _atom_site_occupancy
  Nd  Nd0  1  0.500274  0.000548  0.250000  1
  Nd  Nd1  1  0.999986  0.999972  0.750000  1
  Nd  Nd2  1  0.000003  0.000006  0.250000  1
  Y  Y3  1  0.499789  0.500229  0.750000  1
  Y  Y4  1  0.500134  0.499858  0.250000  1
  Y  Y5  1  0.000439  0.500229  0.750000  1
  Y  Y6  1  0.999723  0.499858  0.250000  1
  Y  Y7  1  0.499743  0.999486  0.750000  1
  Si  Si8  1  0.829525  0.173027  0.997598  1
  Si  Si9  1  0.170504  0.826958  0.998215  1
  Si  Si10  1  0.343503  0.173027  0.997598  1
  Si  Si11  1  0.170504  0.826958  0.501785  1
  Si  Si12  1  0.656454  0.826958  0.998215  1
  Si  Si13  1  0.829525  0.173027  0.502402  1
  Si  Si14  1  0.827941  0.655882  0.999381  1
  Si  Si15  1  0.656454  0.826958  0.501785  1
  Si  Si16  1  0.172048  0.344096  0.999838  1
  Si  Si17  1  0.343503  0.173027  0.502402  1
  Si  Si18  1  0.172048  0.344096  0.500162  1
  Si  Si19  1  0.827941  0.655882  0.500619  1
  Ni  Ni20  1  0.666801  0.333601  0.996015  1
  Ni  Ni21  1  0.333179  0.666359  0.997759  1
  Ni  Ni22  1  0.333179  0.666359  0.502241  1
  Ni  Ni23  1  0.666801  0.333601  0.503985  1
