# generated using pymatgen
data_DyHo6Zn(Co3Sn11)2
_symmetry_space_group_name_H-M   'P 1'
_cell_length_a   9.65089600
_cell_length_b   9.65089454
_cell_length_c   9.93816300
_cell_angle_alpha   90.00000000
_cell_angle_beta   90.00000000
_cell_angle_gamma   119.99999814
_symmetry_Int_Tables_number   1
_chemical_formula_structural   DyHo6Zn(Co3Sn11)2
_chemical_formula_sum   'Dy1 Ho6 Zn1 Co6 Sn22'
_cell_volume   801.62630694
_cell_formula_units_Z   1
loop_
 _symmetry_equiv_pos_site_id
 _symmetry_equiv_pos_as_xyz
  1  'x, y, z'
loop_
 _atom_site_type_symbol
 _atom_site_label
 _atom_site_symmetry_multiplicity
 _atom_site_fract_x
 _atom_site_fract_y
 _atom_site_fract_z
 _atom_site_occupancy
  Dy  Dy0  1  0.000000  0.000000  0.000000  1
  Ho  Ho1  1  0.520662  0.479338  0.693952  1
  Ho  Ho2  1  0.520662  0.041323  0.693952  1
  Ho  Ho3  1  0.958677  0.479338  0.693952  1
  Ho  Ho4  1  0.041323  0.520662  0.306048  1
  Ho  Ho5  1  0.479338  0.958677  0.306048  1
  Ho  Ho6  1  0.479338  0.520662  0.306048  1
  Zn  Zn7  1  0.000000  0.000000  0.500000  1
  Co  Co8  1  0.167852  0.832148  0.802667  1
  Co  Co9  1  0.167852  0.335704  0.802667  1
  Co  Co10  1  0.664296  0.832148  0.802667  1
  Co  Co11  1  0.335704  0.167852  0.197333  1
  Co  Co12  1  0.832148  0.664296  0.197333  1
  Co  Co13  1  0.832148  0.167852  0.197333  1
  Sn  Sn14  1  0.666667  0.333333  0.181132  1
  Sn  Sn15  1  0.666667  0.333333  0.880135  1
  Sn  Sn16  1  0.333333  0.666667  0.119865  1
  Sn  Sn17  1  0.346086  0.346086  0.000000  1
  Sn  Sn18  1  0.000000  0.653914  0.000000  1
  Sn  Sn19  1  0.653914  0.000000  0.000000  1
  Sn  Sn20  1  0.653914  0.653914  0.000000  1
  Sn  Sn21  1  0.333333  0.666667  0.818868  1
  Sn  Sn22  1  0.433915  0.216958  0.453498  1
  Sn  Sn23  1  0.216958  0.783042  0.546502  1
  Sn  Sn24  1  0.216958  0.433915  0.546502  1
  Sn  Sn25  1  0.566085  0.783042  0.546502  1
  Sn  Sn26  1  0.113968  0.886032  0.276379  1
  Sn  Sn27  1  0.783042  0.566085  0.453498  1
  Sn  Sn28  1  0.783042  0.216958  0.453498  1
  Sn  Sn29  1  0.346086  0.000000  0.000000  1
  Sn  Sn30  1  0.113968  0.227936  0.276379  1
  Sn  Sn31  1  0.772064  0.886032  0.276379  1
  Sn  Sn32  1  0.227936  0.113968  0.723621  1
  Sn  Sn33  1  0.886032  0.772064  0.723621  1
  Sn  Sn34  1  0.886032  0.113968  0.723621  1
  Sn  Sn35  1  0.000000  0.346086  0.000000  1
