# generated using pymatgen
data_Hf18Re2SiMo6As
_symmetry_space_group_name_H-M   'P 1'
_cell_length_a   8.66306400
_cell_length_b   8.66306357
_cell_length_c   8.70037100
_cell_angle_alpha   90.00000000
_cell_angle_beta   90.00000000
_cell_angle_gamma   120.00000165
_symmetry_Int_Tables_number   1
_chemical_formula_structural   Hf18Re2SiMo6As
_chemical_formula_sum   'Hf18 Re2 Si1 Mo6 As1'
_cell_volume   565.47241074
_cell_formula_units_Z   1
loop_
 _symmetry_equiv_pos_site_id
 _symmetry_equiv_pos_as_xyz
  1  'x, y, z'
loop_
 _atom_site_type_symbol
 _atom_site_label
 _atom_site_symmetry_multiplicity
 _atom_site_fract_x
 _atom_site_fract_y
 _atom_site_fract_z
 _atom_site_occupancy
  Hf  Hf0  1  0.610159  0.805080  0.044222  1
  Hf  Hf1  1  0.803701  0.607403  0.545695  1
  Hf  Hf2  1  0.194920  0.389841  0.044222  1
  Hf  Hf3  1  0.194920  0.805080  0.044222  1
  Hf  Hf4  1  0.803701  0.196299  0.545695  1
  Hf  Hf5  1  0.392597  0.196299  0.545695  1
  Hf  Hf6  1  0.803701  0.607403  0.954305  1
  Hf  Hf7  1  0.803701  0.196299  0.954305  1
  Hf  Hf8  1  0.392597  0.196299  0.954305  1
  Hf  Hf9  1  0.610159  0.805080  0.455778  1
  Hf  Hf10  1  0.194920  0.805080  0.455778  1
  Hf  Hf11  1  0.194920  0.389841  0.455778  1
  Hf  Hf12  1  0.539302  0.078604  0.250000  1
  Hf  Hf13  1  0.462310  0.924620  0.750000  1
  Hf  Hf14  1  0.921396  0.460698  0.250000  1
  Hf  Hf15  1  0.539302  0.460698  0.250000  1
  Hf  Hf16  1  0.462310  0.537690  0.750000  1
  Hf  Hf17  1  0.075380  0.537690  0.750000  1
  Re  Re18  1  0.000000  0.000000  0.999817  1
  Re  Re19  1  0.000000  0.000000  0.500183  1
  Si  Si20  1  0.666667  0.333333  0.750000  1
  Mo  Mo21  1  0.890261  0.780522  0.250000  1
  Mo  Mo22  1  0.109474  0.218948  0.750000  1
  Mo  Mo23  1  0.219478  0.109739  0.250000  1
  Mo  Mo24  1  0.890261  0.109739  0.250000  1
  Mo  Mo25  1  0.109474  0.890526  0.750000  1
  Mo  Mo26  1  0.781052  0.890526  0.750000  1
  As  As27  1  0.333333  0.666667  0.250000  1
