# generated using pymatgen
data_TbYb2Tl(Ru2O7)2
_symmetry_space_group_name_H-M   'P 1'
_cell_length_a   7.19133912
_cell_length_b   7.19133842
_cell_length_c   7.20386151
_cell_angle_alpha   61.12876627
_cell_angle_beta   61.12876921
_cell_angle_gamma   61.03855041
_symmetry_Int_Tables_number   1
_chemical_formula_structural   TbYb2Tl(Ru2O7)2
_chemical_formula_sum   'Tb1 Yb2 Tl1 Ru4 O14'
_cell_volume   269.94743103
_cell_formula_units_Z   1
loop_
 _symmetry_equiv_pos_site_id
 _symmetry_equiv_pos_as_xyz
  1  'x, y, z'
loop_
 _atom_site_type_symbol
 _atom_site_label
 _atom_site_symmetry_multiplicity
 _atom_site_fract_x
 _atom_site_fract_y
 _atom_site_fract_z
 _atom_site_occupancy
  Tb  Tb0  1  0.625000  0.625000  0.125000  1
  Yb  Yb1  1  0.625000  0.125000  0.625000  1
  Yb  Yb2  1  0.125000  0.625000  0.625000  1
  Tl  Tl3  1  0.625000  0.625000  0.625000  1
  Ru  Ru4  1  0.125000  0.125000  0.625000  1
  Ru  Ru5  1  0.125000  0.625000  0.125000  1
  Ru  Ru6  1  0.625000  0.125000  0.125000  1
  Ru  Ru7  1  0.125000  0.125000  0.125000  1
  O  O8  1  0.743748  0.743748  0.748721  1
  O  O9  1  0.506252  0.506252  0.501279  1
  O  O10  1  0.042068  0.456102  0.044320  1
  O  O11  1  0.803259  0.193131  0.804241  1
  O  O12  1  0.050052  0.050052  0.448378  1
  O  O13  1  0.456102  0.042068  0.044320  1
  O  O14  1  0.056869  0.446741  0.445759  1
  O  O15  1  0.452600  0.452600  0.050872  1
  O  O16  1  0.446741  0.056869  0.445759  1
  O  O17  1  0.193131  0.803259  0.804241  1
  O  O18  1  0.793898  0.207932  0.205680  1
  O  O19  1  0.207932  0.793898  0.205680  1
  O  O20  1  0.797400  0.797400  0.199128  1
  O  O21  1  0.199948  0.199948  0.801622  1
