# generated using pymatgen
data_Ho6Al24NiPdRu6
_symmetry_space_group_name_H-M   'P 1'
_cell_length_a   8.83937777
_cell_length_b   8.77721940
_cell_length_c   9.54013692
_cell_angle_alpha   90.21026901
_cell_angle_beta   90.10289878
_cell_angle_gamma   120.08461349
_symmetry_Int_Tables_number   1
_chemical_formula_structural   Ho6Al24NiPdRu6
_chemical_formula_sum   'Ho6 Al24 Ni1 Pd1 Ru6'
_cell_volume   640.45144498
_cell_formula_units_Z   1
loop_
 _symmetry_equiv_pos_site_id
 _symmetry_equiv_pos_as_xyz
  1  'x, y, z'
loop_
 _atom_site_type_symbol
 _atom_site_label
 _atom_site_symmetry_multiplicity
 _atom_site_fract_x
 _atom_site_fract_y
 _atom_site_fract_z
 _atom_site_occupancy
  Ho  Ho0  1  0.191916  0.387799  0.249821  1
  Ho  Ho1  1  0.808084  0.612201  0.750179  1
  Ho  Ho2  1  0.615589  0.807848  0.250303  1
  Ho  Ho3  1  0.384411  0.192152  0.749697  1
  Ho  Ho4  1  0.190709  0.803442  0.251800  1
  Ho  Ho5  1  0.809291  0.196558  0.748200  1
  Al  Al6  1  0.332282  0.671571  0.024725  1
  Al  Al7  1  0.667718  0.328429  0.975275  1
  Al  Al8  1  0.666545  0.333609  0.520708  1
  Al  Al9  1  0.333455  0.666391  0.479292  1
  Al  Al10  1  0.163749  0.326466  0.576778  1
  Al  Al11  1  0.836251  0.673534  0.423222  1
  Al  Al12  1  0.674567  0.838190  0.577528  1
  Al  Al13  1  0.841159  0.673896  0.078115  1
  Al  Al14  1  0.325433  0.161810  0.422472  1
  Al  Al15  1  0.158841  0.326104  0.921885  1
  Al  Al16  1  0.164448  0.838072  0.577636  1
  Al  Al17  1  0.324936  0.157163  0.078215  1
  Al  Al18  1  0.835552  0.161928  0.422364  1
  Al  Al19  1  0.675064  0.842837  0.921785  1
  Al  Al20  1  0.837454  0.163820  0.076868  1
  Al  Al21  1  0.162546  0.836180  0.923132  1
  Al  Al22  1  0.560197  0.120423  0.246250  1
  Al  Al23  1  0.439803  0.879577  0.753750  1
  Al  Al24  1  0.876084  0.437386  0.248275  1
  Al  Al25  1  0.123916  0.562614  0.751725  1
  Al  Al26  1  0.561950  0.436789  0.251457  1
  Al  Al27  1  0.438050  0.563211  0.748543  1
  Al  Al28  1  0.998919  0.999078  0.250283  1
  Al  Al29  1  0.001081  0.000922  0.749717  1
  Ni  Ni30  1  0.500000  0.000000  0.000000  1
  Pd  Pd31  1  0.500000  0.500000  0.000000  1
  Ru  Ru32  1  0.000000  0.500000  0.000000  1
  Ru  Ru33  1  0.500000  0.000000  0.500000  1
  Ru  Ru34  1  0.000000  0.500000  0.500000  1
  Ru  Ru35  1  0.500000  0.500000  0.500000  1
  Ru  Ru36  1  0.000000  0.000000  0.000000  1
  Ru  Ru37  1  0.000000  0.000000  0.500000  1
