# generated using pymatgen
data_Ti6PtRh9
_symmetry_space_group_name_H-M   'P 1'
_cell_length_a   4.14006200
_cell_length_b   5.42912155
_cell_length_c   10.56936242
_cell_angle_alpha   90.76504499
_cell_angle_beta   90.00000000
_cell_angle_gamma   90.00000000
_symmetry_Int_Tables_number   1
_chemical_formula_structural   Ti6PtRh9
_chemical_formula_sum   'Ti6 Pt1 Rh9'
_cell_volume   237.54532265
_cell_formula_units_Z   1
loop_
 _symmetry_equiv_pos_site_id
 _symmetry_equiv_pos_as_xyz
  1  'x, y, z'
loop_
 _atom_site_type_symbol
 _atom_site_label
 _atom_site_symmetry_multiplicity
 _atom_site_fract_x
 _atom_site_fract_y
 _atom_site_fract_z
 _atom_site_occupancy
  Ti  Ti0  1  0.000000  0.001982  0.995997  1
  Ti  Ti1  1  0.000000  0.498877  0.500972  1
  Ti  Ti2  1  0.500000  0.345957  0.141363  1
  Ti  Ti3  1  0.500000  0.661711  0.855183  1
  Ti  Ti4  1  0.500000  0.834628  0.358962  1
  Ti  Ti5  1  0.500000  0.161521  0.644715  1
  Pt  Pt6  1  0.000000  0.096039  0.239742  1
  Rh  Rh7  1  0.000000  0.999189  0.501955  1
  Rh  Rh8  1  0.000000  0.503350  0.998574  1
  Rh  Rh9  1  0.000000  0.897272  0.764142  1
  Rh  Rh10  1  0.000000  0.597542  0.262273  1
  Rh  Rh11  1  0.000000  0.396586  0.735318  1
  Rh  Rh12  1  0.500000  0.313602  0.392707  1
  Rh  Rh13  1  0.500000  0.687212  0.607315  1
  Rh  Rh14  1  0.500000  0.815976  0.107275  1
  Rh  Rh15  1  0.500000  0.188556  0.893508  1
