# generated using pymatgen
data_EuDyBO4
_symmetry_space_group_name_H-M   'P 1'
_cell_length_a   3.66668000
_cell_length_b   9.70596400
_cell_length_c   10.90899500
_cell_angle_alpha   90.00000000
_cell_angle_beta   90.00000000
_cell_angle_gamma   90.00000000
_symmetry_Int_Tables_number   1
_chemical_formula_structural   EuDyBO4
_chemical_formula_sum   'Eu4 Dy4 B4 O16'
_cell_volume   388.23655850
_cell_formula_units_Z   4
loop_
 _symmetry_equiv_pos_site_id
 _symmetry_equiv_pos_as_xyz
  1  'x, y, z'
loop_
 _atom_site_type_symbol
 _atom_site_label
 _atom_site_symmetry_multiplicity
 _atom_site_fract_x
 _atom_site_fract_y
 _atom_site_fract_z
 _atom_site_occupancy
  Eu  Eu0  1  0.250000  0.657044  0.081216  1
  Eu  Eu1  1  0.750000  0.342956  0.918784  1
  Eu  Eu2  1  0.750000  0.157044  0.418784  1
  Eu  Eu3  1  0.250000  0.842956  0.581216  1
  Dy  Dy4  1  0.250000  0.083583  0.110911  1
  Dy  Dy5  1  0.750000  0.916417  0.889089  1
  Dy  Dy6  1  0.750000  0.583583  0.389089  1
  Dy  Dy7  1  0.250000  0.416417  0.610911  1
  B  B8  1  0.250000  0.364067  0.206463  1
  B  B9  1  0.750000  0.635933  0.793537  1
  B  B10  1  0.750000  0.864067  0.293537  1
  B  B11  1  0.250000  0.135933  0.706463  1
  O  O12  1  0.250000  0.492199  0.262829  1
  O  O13  1  0.750000  0.507801  0.737171  1
  O  O14  1  0.750000  0.992199  0.237171  1
  O  O15  1  0.250000  0.007801  0.762829  1
  O  O16  1  0.250000  0.241896  0.273840  1
  O  O17  1  0.750000  0.758104  0.726160  1
  O  O18  1  0.750000  0.741896  0.226160  1
  O  O19  1  0.250000  0.258104  0.773840  1
  O  O20  1  0.250000  0.354537  0.078039  1
  O  O21  1  0.750000  0.645463  0.921961  1
  O  O22  1  0.750000  0.854537  0.421961  1
  O  O23  1  0.250000  0.145463  0.578039  1
  O  O24  1  0.250000  0.613825  0.502424  1
  O  O25  1  0.750000  0.386175  0.497576  1
  O  O26  1  0.750000  0.113825  0.997576  1
  O  O27  1  0.250000  0.886175  0.002424  1
