# generated using pymatgen
data_Tm3In3(Ni7B2)2
_symmetry_space_group_name_H-M   'P 1'
_cell_length_a   4.98952500
_cell_length_b   4.98952627
_cell_length_c   14.13189700
_cell_angle_alpha   90.00000000
_cell_angle_beta   90.00000000
_cell_angle_gamma   120.00001149
_symmetry_Int_Tables_number   1
_chemical_formula_structural   Tm3In3(Ni7B2)2
_chemical_formula_sum   'Tm3 In3 Ni14 B4'
_cell_volume   304.68393869
_cell_formula_units_Z   1
loop_
 _symmetry_equiv_pos_site_id
 _symmetry_equiv_pos_as_xyz
  1  'x, y, z'
loop_
 _atom_site_type_symbol
 _atom_site_label
 _atom_site_symmetry_multiplicity
 _atom_site_fract_x
 _atom_site_fract_y
 _atom_site_fract_z
 _atom_site_occupancy
  Tm  Tm0  1  0.333333  0.666667  0.968214  1
  Tm  Tm1  1  0.333333  0.666667  0.743608  1
  Tm  Tm2  1  0.666667  0.333333  0.251840  1
  In  In3  1  0.333333  0.666667  0.527817  1
  In  In4  1  0.666667  0.333333  0.034209  1
  In  In5  1  0.666667  0.333333  0.469481  1
  Ni  Ni6  1  0.000000  0.000000  0.000695  1
  Ni  Ni7  1  0.000000  0.000000  0.500305  1
  Ni  Ni8  1  0.166178  0.332355  0.148373  1
  Ni  Ni9  1  0.833629  0.667259  0.646090  1
  Ni  Ni10  1  0.667645  0.833822  0.148373  1
  Ni  Ni11  1  0.166178  0.833822  0.148373  1
  Ni  Ni12  1  0.833629  0.166371  0.646090  1
  Ni  Ni13  1  0.332741  0.166371  0.646090  1
  Ni  Ni14  1  0.833831  0.667662  0.852357  1
  Ni  Ni15  1  0.833831  0.166169  0.852357  1
  Ni  Ni16  1  0.332338  0.166169  0.852357  1
  Ni  Ni17  1  0.667374  0.833687  0.353567  1
  Ni  Ni18  1  0.166313  0.833687  0.353567  1
  Ni  Ni19  1  0.166313  0.332626  0.353567  1
  B  B20  1  0.333333  0.666667  0.250774  1
  B  B21  1  0.666667  0.333333  0.749677  1
  B  B22  1  0.000000  0.000000  0.252373  1
  B  B23  1  0.000000  0.000000  0.749847  1
