# generated using pymatgen
data_Hf16Co4OsPt3
_symmetry_space_group_name_H-M   'P 1'
_cell_length_a   8.62117692
_cell_length_b   8.62308484
_cell_length_c   8.62308400
_cell_angle_alpha   59.99999556
_cell_angle_beta   59.99267454
_cell_angle_gamma   59.99267614
_symmetry_Int_Tables_number   1
_chemical_formula_structural   Hf16Co4OsPt3
_chemical_formula_sum   'Hf16 Co4 Os1 Pt3'
_cell_volume   453.24052152
_cell_formula_units_Z   1
loop_
 _symmetry_equiv_pos_site_id
 _symmetry_equiv_pos_as_xyz
  1  'x, y, z'
loop_
 _atom_site_type_symbol
 _atom_site_label
 _atom_site_symmetry_multiplicity
 _atom_site_fract_x
 _atom_site_fract_y
 _atom_site_fract_z
 _atom_site_occupancy
  Hf  Hf0  1  0.075603  0.641466  0.641466  1
  Hf  Hf1  1  0.645582  0.062819  0.645800  1
  Hf  Hf2  1  0.645582  0.645800  0.062819  1
  Hf  Hf3  1  0.645582  0.645800  0.645800  1
  Hf  Hf4  1  0.806431  0.803143  0.195213  1
  Hf  Hf5  1  0.191386  0.191246  0.808684  1
  Hf  Hf6  1  0.806431  0.195213  0.803143  1
  Hf  Hf7  1  0.191386  0.808684  0.191246  1
  Hf  Hf8  1  0.191386  0.808684  0.808684  1
  Hf  Hf9  1  0.806431  0.195213  0.195213  1
  Hf  Hf10  1  0.435616  0.437351  0.063516  1
  Hf  Hf11  1  0.054205  0.069187  0.438304  1
  Hf  Hf12  1  0.435616  0.063516  0.437351  1
  Hf  Hf13  1  0.054205  0.438304  0.069187  1
  Hf  Hf14  1  0.054205  0.438304  0.438304  1
  Hf  Hf15  1  0.435616  0.063516  0.063516  1
  Co  Co16  1  0.428039  0.857321  0.857321  1
  Co  Co17  1  0.862387  0.430591  0.853511  1
  Co  Co18  1  0.862387  0.853511  0.430591  1
  Co  Co19  1  0.862387  0.853511  0.853511  1
  Os  Os20  1  0.751336  0.416221  0.416221  1
  Pt  Pt21  1  0.419401  0.763437  0.408581  1
  Pt  Pt22  1  0.419401  0.408581  0.763437  1
  Pt  Pt23  1  0.419401  0.408581  0.408581  1
