# generated using pymatgen
data_Zr6Fe23C
_symmetry_space_group_name_H-M   'P 1'
_cell_length_a   8.26636877
_cell_length_b   8.26636836
_cell_length_c   8.26636800
_cell_angle_alpha   59.99999344
_cell_angle_beta   59.99999509
_cell_angle_gamma   59.99999507
_symmetry_Int_Tables_number   1
_chemical_formula_structural   Zr6Fe23C
_chemical_formula_sum   'Zr6 Fe23 C1'
_cell_volume   399.41945376
_cell_formula_units_Z   1
loop_
 _symmetry_equiv_pos_site_id
 _symmetry_equiv_pos_as_xyz
  1  'x, y, z'
loop_
 _atom_site_type_symbol
 _atom_site_label
 _atom_site_symmetry_multiplicity
 _atom_site_fract_x
 _atom_site_fract_y
 _atom_site_fract_z
 _atom_site_occupancy
  Zr  Zr0  1  0.699375  0.300625  0.300625  1
  Zr  Zr1  1  0.300625  0.699375  0.699375  1
  Zr  Zr2  1  0.300625  0.699375  0.300625  1
  Zr  Zr3  1  0.699375  0.300625  0.699375  1
  Zr  Zr4  1  0.300625  0.300625  0.699375  1
  Zr  Zr5  1  0.699375  0.699375  0.300625  1
  Fe  Fe6  1  0.120910  0.120910  0.120910  1
  Fe  Fe7  1  0.879090  0.879090  0.879090  1
  Fe  Fe8  1  0.120910  0.120910  0.637272  1
  Fe  Fe9  1  0.120910  0.637272  0.120910  1
  Fe  Fe10  1  0.879090  0.879090  0.362728  1
  Fe  Fe11  1  0.879090  0.362728  0.879090  1
  Fe  Fe12  1  0.637272  0.120910  0.120910  1
  Fe  Fe13  1  0.362728  0.879090  0.879090  1
  Fe  Fe14  1  0.500000  0.000000  0.000000  1
  Fe  Fe15  1  0.000000  0.500000  0.500000  1
  Fe  Fe16  1  0.000000  0.500000  0.000000  1
  Fe  Fe17  1  0.500000  0.000000  0.500000  1
  Fe  Fe18  1  0.000000  0.000000  0.500000  1
  Fe  Fe19  1  0.500000  0.500000  0.000000  1
  Fe  Fe20  1  0.326187  0.326187  0.326187  1
  Fe  Fe21  1  0.673813  0.673813  0.673813  1
  Fe  Fe22  1  0.326187  0.326187  0.021439  1
  Fe  Fe23  1  0.326187  0.021439  0.326187  1
  Fe  Fe24  1  0.673813  0.673813  0.978561  1
  Fe  Fe25  1  0.673813  0.978561  0.673813  1
  Fe  Fe26  1  0.021439  0.326187  0.326187  1
  Fe  Fe27  1  0.978561  0.673813  0.673813  1
  Fe  Fe28  1  0.000000  0.000000  0.000000  1
  C  C29  1  0.500000  0.500000  0.500000  1
