# generated using pymatgen
data_Ho4ErCo2Rh
_symmetry_space_group_name_H-M   'P 1'
_cell_length_a   7.07879437
_cell_length_b   7.07879412
_cell_length_c   8.71152300
_cell_angle_alpha   113.97192885
_cell_angle_beta   113.97192973
_cell_angle_gamma   90.00000581
_symmetry_Int_Tables_number   1
_chemical_formula_structural   Ho4ErCo2Rh
_chemical_formula_sum   'Ho8 Er2 Co4 Rh2'
_cell_volume   357.27627493
_cell_formula_units_Z   2
loop_
 _symmetry_equiv_pos_site_id
 _symmetry_equiv_pos_as_xyz
  1  'x, y, z'
loop_
 _atom_site_type_symbol
 _atom_site_label
 _atom_site_symmetry_multiplicity
 _atom_site_fract_x
 _atom_site_fract_y
 _atom_site_fract_z
 _atom_site_occupancy
  Ho  Ho0  1  0.463897  0.318582  0.282479  1
  Ho  Ho1  1  0.963898  0.463897  0.282479  1
  Ho  Ho2  1  0.318582  0.818581  0.282479  1
  Ho  Ho3  1  0.818581  0.963898  0.282479  1
  Ho  Ho4  1  0.181418  0.036103  0.717520  1
  Ho  Ho5  1  0.681417  0.181418  0.717520  1
  Ho  Ho6  1  0.036103  0.536102  0.717520  1
  Ho  Ho7  1  0.536102  0.681417  0.717520  1
  Er  Er8  1  0.000000  0.000000  0.000000  1
  Er  Er9  1  0.500000  0.500000  0.000000  1
  Co  Co10  1  0.612458  0.112458  0.000000  1
  Co  Co11  1  0.112458  0.387543  0.000000  1
  Co  Co12  1  0.887542  0.612458  0.000000  1
  Co  Co13  1  0.387543  0.887542  0.000000  1
  Rh  Rh14  1  0.250000  0.250000  0.500000  1
  Rh  Rh15  1  0.750000  0.750000  0.500000  1
