# generated using pymatgen
data_YErTcB6
_symmetry_space_group_name_H-M   'P 1'
_cell_length_a   3.67122300
_cell_length_b   9.14365400
_cell_length_c   11.53331600
_cell_angle_alpha   90.00000000
_cell_angle_beta   90.00000000
_cell_angle_gamma   90.00000000
_symmetry_Int_Tables_number   1
_chemical_formula_structural   YErTcB6
_chemical_formula_sum   'Y4 Er4 Tc4 B24'
_cell_volume   387.15488257
_cell_formula_units_Z   4
loop_
 _symmetry_equiv_pos_site_id
 _symmetry_equiv_pos_as_xyz
  1  'x, y, z'
loop_
 _atom_site_type_symbol
 _atom_site_label
 _atom_site_symmetry_multiplicity
 _atom_site_fract_x
 _atom_site_fract_y
 _atom_site_fract_z
 _atom_site_occupancy
  Y  Y0  1  0.000000  0.323484  0.414311  1
  Y  Y1  1  0.000000  0.676516  0.585689  1
  Y  Y2  1  0.000000  0.823484  0.085689  1
  Y  Y3  1  0.000000  0.176516  0.914311  1
  Er  Er4  1  0.000000  0.942878  0.369785  1
  Er  Er5  1  0.000000  0.057122  0.630215  1
  Er  Er6  1  0.000000  0.442878  0.130215  1
  Er  Er7  1  0.000000  0.557122  0.869785  1
  Tc  Tc8  1  0.000000  0.638945  0.320110  1
  Tc  Tc9  1  0.000000  0.361055  0.679890  1
  Tc  Tc10  1  0.000000  0.138945  0.179890  1
  Tc  Tc11  1  0.000000  0.861055  0.820110  1
  B  B12  1  0.500000  0.553442  0.432612  1
  B  B13  1  0.500000  0.446558  0.567388  1
  B  B14  1  0.500000  0.053442  0.067388  1
  B  B15  1  0.500000  0.946558  0.932612  1
  B  B16  1  0.500000  0.749179  0.418304  1
  B  B17  1  0.500000  0.250821  0.581696  1
  B  B18  1  0.500000  0.249179  0.081696  1
  B  B19  1  0.500000  0.750821  0.918304  1
  B  B20  1  0.500000  0.792118  0.265588  1
  B  B21  1  0.500000  0.207882  0.734412  1
  B  B22  1  0.500000  0.292118  0.234412  1
  B  B23  1  0.500000  0.707882  0.765588  1
  B  B24  1  0.500000  0.630422  0.185464  1
  B  B25  1  0.500000  0.369578  0.814536  1
  B  B26  1  0.500000  0.130422  0.314536  1
  B  B27  1  0.500000  0.869578  0.685464  1
  B  B28  1  0.500000  0.981921  0.212269  1
  B  B29  1  0.500000  0.018079  0.787731  1
  B  B30  1  0.500000  0.481921  0.287731  1
  B  B31  1  0.500000  0.518079  0.712269  1
  B  B32  1  0.500000  0.599629  0.027787  1
  B  B33  1  0.500000  0.400371  0.972213  1
  B  B34  1  0.500000  0.099629  0.472213  1
  B  B35  1  0.500000  0.900371  0.527787  1
