# generated using pymatgen
data_Na4USe5
_symmetry_space_group_name_H-M   'P 1'
_cell_length_a   5.79066084
_cell_length_b   7.30408301
_cell_length_c   7.30366930
_cell_angle_alpha   99.04268171
_cell_angle_beta   66.64831283
_cell_angle_gamma   113.35024436
_symmetry_Int_Tables_number   1
_chemical_formula_structural   Na4USe5
_chemical_formula_sum   'Na4 U1 Se5'
_cell_volume   260.38105975
_cell_formula_units_Z   1
loop_
 _symmetry_equiv_pos_site_id
 _symmetry_equiv_pos_as_xyz
  1  'x, y, z'
loop_
 _atom_site_type_symbol
 _atom_site_label
 _atom_site_symmetry_multiplicity
 _atom_site_fract_x
 _atom_site_fract_y
 _atom_site_fract_z
 _atom_site_occupancy
  Na  Na0  1  0.197629  0.602631  0.207424  1
  Na  Na1  1  0.405033  0.207414  0.397371  1
  Na  Na2  1  0.594966  0.792587  0.602629  1
  Na  Na3  1  0.802372  0.397370  0.792577  1
  U  U4  1  0.000000  0.000000  0.000000  1
  Se  Se5  1  0.499999  0.000000  0.000000  1
  Se  Se6  1  0.731533  0.646196  0.183494  1
  Se  Se7  1  0.914853  0.183433  0.353819  1
  Se  Se8  1  0.085148  0.816568  0.646182  1
  Se  Se9  1  0.268466  0.353804  0.816505  1
