# generated using pymatgen
data_Ho2Zn3PRh4
_symmetry_space_group_name_H-M   'P 1'
_cell_length_a   4.01847200
_cell_length_b   4.01847200
_cell_length_c   10.73866700
_cell_angle_alpha   90.00000000
_cell_angle_beta   90.00000000
_cell_angle_gamma   90.00000000
_symmetry_Int_Tables_number   1
_chemical_formula_structural   Ho2Zn3PRh4
_chemical_formula_sum   'Ho2 Zn3 P1 Rh4'
_cell_volume   173.40925345
_cell_formula_units_Z   1
loop_
 _symmetry_equiv_pos_site_id
 _symmetry_equiv_pos_as_xyz
  1  'x, y, z'
loop_
 _atom_site_type_symbol
 _atom_site_label
 _atom_site_symmetry_multiplicity
 _atom_site_fract_x
 _atom_site_fract_y
 _atom_site_fract_z
 _atom_site_occupancy
  Ho  Ho0  1  0.000000  0.500000  0.240541  1
  Ho  Ho1  1  0.500000  0.000000  0.748390  1
  Zn  Zn2  1  0.000000  0.000000  0.493841  1
  Zn  Zn3  1  0.500000  0.500000  0.493841  1
  Zn  Zn4  1  0.000000  0.500000  0.873347  1
  P  P5  1  0.500000  0.000000  0.125916  1
  Rh  Rh6  1  0.000000  0.000000  0.020484  1
  Rh  Rh7  1  0.500000  0.500000  0.020484  1
  Rh  Rh8  1  0.000000  0.500000  0.642845  1
  Rh  Rh9  1  0.500000  0.000000  0.340312  1
