# generated using pymatgen
data_YbPa3(Al8Pt3)3
_symmetry_space_group_name_H-M   'P 1'
_cell_length_a   7.57441137
_cell_length_b   7.57249833
_cell_length_c   13.13958431
_cell_angle_alpha   84.50504872
_cell_angle_beta   101.08211999
_cell_angle_gamma   119.86903300
_symmetry_Int_Tables_number   1
_chemical_formula_structural   YbPa3(Al8Pt3)3
_chemical_formula_sum   'Yb1 Pa3 Al24 Pt9'
_cell_volume   641.35292927
_cell_formula_units_Z   1
loop_
 _symmetry_equiv_pos_site_id
 _symmetry_equiv_pos_as_xyz
  1  'x, y, z'
loop_
 _atom_site_type_symbol
 _atom_site_label
 _atom_site_symmetry_multiplicity
 _atom_site_fract_x
 _atom_site_fract_y
 _atom_site_fract_z
 _atom_site_occupancy
  Yb  Yb0  1  0.232829  0.499110  0.192894  1
  Pa  Pa1  1  0.436844  0.831363  0.805893  1
  Pa  Pa2  1  0.564701  0.168071  0.196344  1
  Pa  Pa3  1  0.766199  0.501774  0.805805  1
  Al  Al4  1  0.482471  0.166340  0.946603  1
  Al  Al5  1  0.517158  0.833560  0.055759  1
  Al  Al6  1  0.021801  0.167493  0.559418  1
  Al  Al7  1  0.979122  0.833522  0.438098  1
  Al  Al8  1  0.351864  0.832274  0.557483  1
  Al  Al9  1  0.647344  0.166691  0.441432  1
  Al  Al10  1  0.615999  0.830540  0.330400  1
  Al  Al11  1  0.379573  0.165368  0.668470  1
  Al  Al12  1  0.055170  0.490051  0.668604  1
  Al  Al13  1  0.948350  0.509495  0.330300  1
  Al  Al14  1  0.733192  0.843862  0.667229  1
  Al  Al15  1  0.267266  0.161144  0.331266  1
  Al  Al16  1  0.148153  0.500043  0.946229  1
  Al  Al17  1  0.852414  0.499213  0.055561  1
  Al  Al18  1  0.816505  0.832186  0.954126  1
  Al  Al19  1  0.184570  0.168035  0.049654  1
  Al  Al20  1  0.313359  0.500118  0.440110  1
  Al  Al21  1  0.685524  0.500444  0.557384  1
  Al  Al22  1  0.102941  0.839872  0.182537  1
  Al  Al23  1  0.899913  0.164267  0.817625  1
  Al  Al24  1  0.306109  0.367132  0.816678  1
  Al  Al25  1  0.695222  0.629674  0.183781  1
  Al  Al26  1  0.102800  0.960182  0.817358  1
  Al  Al27  1  0.893093  0.038239  0.182747  1
  Pt  Pt28  1  0.389282  0.509152  0.640235  1
  Pt  Pt29  1  0.612506  0.490855  0.360520  1
  Pt  Pt30  1  0.170677  0.828703  0.999337  1
  Pt  Pt31  1  0.829512  0.171645  0.999623  1
  Pt  Pt32  1  0.296350  0.834957  0.360840  1
  Pt  Pt33  1  0.704172  0.167069  0.639427  1
  Pt  Pt34  1  0.046929  0.824139  0.638965  1
  Pt  Pt35  1  0.951962  0.174402  0.361144  1
  Pt  Pt36  1  0.498124  0.499015  0.000122  1
