# generated using pymatgen
data_Dy3Ho7In8(PtAu)2
_symmetry_space_group_name_H-M   'P 1'
_cell_length_a   3.64578200
_cell_length_b   8.16582699
_cell_length_c   18.33218608
_cell_angle_alpha   90.06866938
_cell_angle_beta   90.00000000
_cell_angle_gamma   90.00000000
_symmetry_Int_Tables_number   1
_chemical_formula_structural   Dy3Ho7In8(PtAu)2
_chemical_formula_sum   'Dy3 Ho7 In8 Pt2 Au2'
_cell_volume   545.76391285
_cell_formula_units_Z   1
loop_
 _symmetry_equiv_pos_site_id
 _symmetry_equiv_pos_as_xyz
  1  'x, y, z'
loop_
 _atom_site_type_symbol
 _atom_site_label
 _atom_site_symmetry_multiplicity
 _atom_site_fract_x
 _atom_site_fract_y
 _atom_site_fract_z
 _atom_site_occupancy
  Dy  Dy0  1  0.000000  0.119589  0.419394  1
  Dy  Dy1  1  0.000000  0.000005  0.999993  1
  Dy  Dy2  1  0.000000  0.500032  0.499999  1
  Ho  Ho3  1  0.000000  0.880525  0.580797  1
  Ho  Ho4  1  0.000000  0.384539  0.916212  1
  Ho  Ho5  1  0.000000  0.615465  0.083781  1
  Ho  Ho6  1  0.000000  0.253031  0.216718  1
  Ho  Ho7  1  0.000000  0.746975  0.783265  1
  Ho  Ho8  1  0.000000  0.268267  0.721074  1
  Ho  Ho9  1  0.000000  0.731667  0.278901  1
  In  In10  1  0.500000  0.422193  0.352318  1
  In  In11  1  0.500000  0.577964  0.647635  1
  In  In12  1  0.500000  0.078113  0.852623  1
  In  In13  1  0.500000  0.921876  0.147361  1
  In  In14  1  0.500000  0.291755  0.065525  1
  In  In15  1  0.500000  0.708234  0.934464  1
  In  In16  1  0.500000  0.209933  0.567502  1
  In  In17  1  0.500000  0.789912  0.432591  1
  Pt  Pt18  1  0.500000  0.472284  0.804026  1
  Pt  Pt19  1  0.500000  0.527758  0.195979  1
  Au  Au20  1  0.500000  0.029231  0.302106  1
  Au  Au21  1  0.500000  0.970653  0.697737  1
