# generated using pymatgen
data_Tb12B3CCl12
_symmetry_space_group_name_H-M   'P 1'
_cell_length_a   9.41744869
_cell_length_b   9.41744837
_cell_length_c   9.41744882
_cell_angle_alpha   109.29387401
_cell_angle_beta   109.29387597
_cell_angle_gamma   109.29387050
_symmetry_Int_Tables_number   1
_chemical_formula_structural   Tb12B3CCl12
_chemical_formula_sum   'Tb12 B3 C1 Cl12'
_cell_volume   647.13827181
_cell_formula_units_Z   1
loop_
 _symmetry_equiv_pos_site_id
 _symmetry_equiv_pos_as_xyz
  1  'x, y, z'
loop_
 _atom_site_type_symbol
 _atom_site_label
 _atom_site_symmetry_multiplicity
 _atom_site_fract_x
 _atom_site_fract_y
 _atom_site_fract_z
 _atom_site_occupancy
  Tb  Tb0  1  0.466657  0.480157  0.235695  1
  Tb  Tb1  1  0.750000  0.236192  0.263808  1
  Tb  Tb2  1  0.750000  0.014662  0.485338  1
  Tb  Tb3  1  0.235695  0.466657  0.480157  1
  Tb  Tb4  1  0.263808  0.750000  0.236192  1
  Tb  Tb5  1  0.033343  0.264305  0.019843  1
  Tb  Tb6  1  0.019843  0.033343  0.264305  1
  Tb  Tb7  1  0.485338  0.750000  0.014662  1
  Tb  Tb8  1  0.480157  0.235695  0.466657  1
  Tb  Tb9  1  0.014662  0.485338  0.750000  1
  Tb  Tb10  1  0.264305  0.019843  0.033343  1
  Tb  Tb11  1  0.236192  0.263808  0.750000  1
  B  B12  1  0.499205  0.000795  0.250000  1
  B  B13  1  0.000795  0.250000  0.499205  1
  B  B14  1  0.250000  0.499205  0.000795  1
  C  C15  1  0.250000  0.250000  0.250000  1
  Cl  Cl16  1  0.250000  0.756059  0.743941  1
  Cl  Cl17  1  0.511673  0.505556  0.754087  1
  Cl  Cl18  1  0.988327  0.745913  0.994444  1
  Cl  Cl19  1  0.743941  0.250000  0.756059  1
  Cl  Cl20  1  0.994444  0.988327  0.745913  1
  Cl  Cl21  1  0.250000  0.994630  0.505370  1
  Cl  Cl22  1  0.754087  0.511673  0.505556  1
  Cl  Cl23  1  0.505370  0.250000  0.994630  1
  Cl  Cl24  1  0.756059  0.743941  0.250000  1
  Cl  Cl25  1  0.745913  0.994444  0.988327  1
  Cl  Cl26  1  0.994630  0.505370  0.250000  1
  Cl  Cl27  1  0.505556  0.754087  0.511673  1
