# generated using pymatgen
data_Y6HfCo22
_symmetry_space_group_name_H-M   'P 1'
_cell_length_a   8.43775596
_cell_length_b   8.43775543
_cell_length_c   8.43775500
_cell_angle_alpha   59.99999778
_cell_angle_beta   59.99999984
_cell_angle_gamma   59.99999330
_symmetry_Int_Tables_number   1
_chemical_formula_structural   Y6HfCo22
_chemical_formula_sum   'Y6 Hf1 Co22'
_cell_volume   424.78167880
_cell_formula_units_Z   1
loop_
 _symmetry_equiv_pos_site_id
 _symmetry_equiv_pos_as_xyz
  1  'x, y, z'
loop_
 _atom_site_type_symbol
 _atom_site_label
 _atom_site_symmetry_multiplicity
 _atom_site_fract_x
 _atom_site_fract_y
 _atom_site_fract_z
 _atom_site_occupancy
  Y  Y0  1  0.787459  0.787459  0.212541  1
  Y  Y1  1  0.212541  0.787459  0.212541  1
  Y  Y2  1  0.787459  0.212541  0.212541  1
  Y  Y3  1  0.212541  0.212541  0.787459  1
  Y  Y4  1  0.787459  0.212541  0.787459  1
  Y  Y5  1  0.212541  0.787459  0.787459  1
  Hf  Hf6  1  0.500000  0.500000  0.500000  1
  Co  Co7  1  0.000000  0.000000  0.500000  1
  Co  Co8  1  0.500000  0.000000  0.500000  1
  Co  Co9  1  0.000000  0.500000  0.500000  1
  Co  Co10  1  0.500000  0.500000  0.000000  1
  Co  Co11  1  0.000000  0.500000  0.000000  1
  Co  Co12  1  0.500000  0.000000  0.000000  1
  Co  Co13  1  0.822717  0.822717  0.531848  1
  Co  Co14  1  0.822717  0.531848  0.822717  1
  Co  Co15  1  0.531848  0.822717  0.822717  1
  Co  Co16  1  0.822717  0.822717  0.822717  1
  Co  Co17  1  0.177283  0.177283  0.468152  1
  Co  Co18  1  0.177283  0.468152  0.177283  1
  Co  Co19  1  0.468152  0.177283  0.177283  1
  Co  Co20  1  0.177283  0.177283  0.177283  1
  Co  Co21  1  0.627940  0.627940  0.116181  1
  Co  Co22  1  0.627940  0.116181  0.627940  1
  Co  Co23  1  0.116181  0.627940  0.627940  1
  Co  Co24  1  0.627940  0.627940  0.627940  1
  Co  Co25  1  0.372060  0.372060  0.883819  1
  Co  Co26  1  0.372060  0.883819  0.372060  1
  Co  Co27  1  0.883819  0.372060  0.372060  1
  Co  Co28  1  0.372060  0.372060  0.372060  1
