# generated using pymatgen
data_Th14Tc2RuPt3
_symmetry_space_group_name_H-M   'P 1'
_cell_length_a   10.10145800
_cell_length_b   10.07552239
_cell_length_c   6.33092081
_cell_angle_alpha   89.80089363
_cell_angle_beta   90.00000000
_cell_angle_gamma   120.08518783
_symmetry_Int_Tables_number   1
_chemical_formula_structural   Th14Tc2RuPt3
_chemical_formula_sum   'Th14 Tc2 Ru1 Pt3'
_cell_volume   557.53508522
_cell_formula_units_Z   1
loop_
 _symmetry_equiv_pos_site_id
 _symmetry_equiv_pos_as_xyz
  1  'x, y, z'
loop_
 _atom_site_type_symbol
 _atom_site_label
 _atom_site_symmetry_multiplicity
 _atom_site_fract_x
 _atom_site_fract_y
 _atom_site_fract_z
 _atom_site_occupancy
  Th  Th0  1  0.667111  0.334221  0.579465  1
  Th  Th1  1  0.333201  0.666403  0.040786  1
  Th  Th2  1  0.877319  0.754638  0.753103  1
  Th  Th3  1  0.248372  0.123375  0.752752  1
  Th  Th4  1  0.875005  0.123375  0.752752  1
  Th  Th5  1  0.129719  0.259438  0.242728  1
  Th  Th6  1  0.739232  0.869907  0.249237  1
  Th  Th7  1  0.130675  0.869907  0.249237  1
  Th  Th8  1  0.455884  0.911769  0.545345  1
  Th  Th9  1  0.088033  0.543326  0.543882  1
  Th  Th10  1  0.455293  0.543326  0.543882  1
  Th  Th11  1  0.538190  0.076379  0.035271  1
  Th  Th12  1  0.921113  0.462249  0.035397  1
  Th  Th13  1  0.541138  0.462249  0.035397  1
  Tc  Tc14  1  0.631637  0.814686  0.800636  1
  Tc  Tc15  1  0.183050  0.814686  0.800636  1
  Ru  Ru16  1  0.184001  0.368001  0.801918  1
  Pt  Pt17  1  0.810582  0.621165  0.308043  1
  Pt  Pt18  1  0.379484  0.190449  0.308814  1
  Pt  Pt19  1  0.810964  0.190449  0.308814  1
