# generated using pymatgen
data_Ce2ErTmAs6Ru7
_symmetry_space_group_name_H-M   'P 1'
_cell_length_a   7.26132915
_cell_length_b   7.25470147
_cell_length_c   7.25622357
_cell_angle_alpha   109.60934125
_cell_angle_beta   109.39015538
_cell_angle_gamma   109.38166020
_symmetry_Int_Tables_number   1
_chemical_formula_structural   Ce2ErTmAs6Ru7
_chemical_formula_sum   'Ce2 Er1 Tm1 As6 Ru7'
_cell_volume   294.37225699
_cell_formula_units_Z   1
loop_
 _symmetry_equiv_pos_site_id
 _symmetry_equiv_pos_as_xyz
  1  'x, y, z'
loop_
 _atom_site_type_symbol
 _atom_site_label
 _atom_site_symmetry_multiplicity
 _atom_site_fract_x
 _atom_site_fract_y
 _atom_site_fract_z
 _atom_site_occupancy
  Ce  Ce0  1  0.500000  0.000000  0.000000  1
  Ce  Ce1  1  0.500000  0.500000  0.500000  1
  Er  Er2  1  0.000000  0.500000  0.000000  1
  Tm  Tm3  1  0.000000  0.000000  0.500000  1
  As  As4  1  0.312415  0.995075  0.317406  1
  As  As5  1  0.000000  0.317240  0.317298  1
  As  As6  1  0.000000  0.682760  0.682702  1
  As  As7  1  0.312415  0.317340  0.995009  1
  As  As8  1  0.687585  0.682660  0.004991  1
  As  As9  1  0.687585  0.004925  0.682594  1
  Ru  Ru10  1  0.750291  0.500023  0.250363  1
  Ru  Ru11  1  0.500096  0.750048  0.250048  1
  Ru  Ru12  1  0.499904  0.249952  0.749952  1
  Ru  Ru13  1  0.750291  0.250269  0.499929  1
  Ru  Ru14  1  0.249709  0.749731  0.500071  1
  Ru  Ru15  1  0.249709  0.499977  0.749637  1
  Ru  Ru16  1  0.000000  0.000000  0.000000  1
