# generated using pymatgen
data_Ho7Tm3(Tl3P)2
_symmetry_space_group_name_H-M   'P 1'
_cell_length_a   9.09540900
_cell_length_b   9.09540717
_cell_length_c   6.74343300
_cell_angle_alpha   90.00000000
_cell_angle_beta   90.00000000
_cell_angle_gamma   119.99999576
_symmetry_Int_Tables_number   1
_chemical_formula_structural   Ho7Tm3(Tl3P)2
_chemical_formula_sum   'Ho7 Tm3 Tl6 P2'
_cell_volume   483.12117820
_cell_formula_units_Z   1
loop_
 _symmetry_equiv_pos_site_id
 _symmetry_equiv_pos_as_xyz
  1  'x, y, z'
loop_
 _atom_site_type_symbol
 _atom_site_label
 _atom_site_symmetry_multiplicity
 _atom_site_fract_x
 _atom_site_fract_y
 _atom_site_fract_z
 _atom_site_occupancy
  Ho  Ho0  1  0.762225  0.762322  0.250022  1
  Ho  Ho1  1  0.237678  0.999903  0.250022  1
  Ho  Ho2  1  0.000097  0.237775  0.250022  1
  Ho  Ho3  1  0.237678  0.237775  0.749978  1
  Ho  Ho4  1  0.762225  0.999903  0.749978  1
  Ho  Ho5  1  0.000097  0.762322  0.749978  1
  Ho  Ho6  1  0.666667  0.333333  0.500000  1
  Tm  Tm7  1  0.333333  0.666667  0.500000  1
  Tm  Tm8  1  0.333333  0.666667  0.000000  1
  Tm  Tm9  1  0.666667  0.333333  0.000000  1
  Tl  Tl10  1  0.402294  0.402695  0.249865  1
  Tl  Tl11  1  0.597305  0.999599  0.249865  1
  Tl  Tl12  1  0.000401  0.597706  0.249865  1
  Tl  Tl13  1  0.597305  0.597706  0.750135  1
  Tl  Tl14  1  0.402294  0.999599  0.750135  1
  Tl  Tl15  1  0.000401  0.402695  0.750135  1
  P  P16  1  0.000000  0.000000  0.500000  1
  P  P17  1  0.000000  0.000000  0.000000  1
