# generated using pymatgen
data_Pr9U3S20
_symmetry_space_group_name_H-M   'P 1'
_cell_length_a   7.57803586
_cell_length_b   8.16003600
_cell_length_c   12.02959989
_cell_angle_alpha   90.00000000
_cell_angle_beta   89.92014038
_cell_angle_gamma   90.00000000
_symmetry_Int_Tables_number   1
_chemical_formula_structural   Pr9U3S20
_chemical_formula_sum   'Pr9 U3 S20'
_cell_volume   743.87419230
_cell_formula_units_Z   1
loop_
 _symmetry_equiv_pos_site_id
 _symmetry_equiv_pos_as_xyz
  1  'x, y, z'
loop_
 _atom_site_type_symbol
 _atom_site_label
 _atom_site_symmetry_multiplicity
 _atom_site_fract_x
 _atom_site_fract_y
 _atom_site_fract_z
 _atom_site_occupancy
  Pr  Pr0  1  0.925184  0.750000  0.492900  1
  Pr  Pr1  1  0.475624  0.999196  0.322812  1
  Pr  Pr2  1  0.979282  0.998558  0.177514  1
  Pr  Pr3  1  0.522122  0.499563  0.676854  1
  Pr  Pr4  1  0.024126  0.499291  0.823529  1
  Pr  Pr5  1  0.522122  0.000437  0.676854  1
  Pr  Pr6  1  0.024126  0.000709  0.823529  1
  Pr  Pr7  1  0.475624  0.500804  0.322812  1
  Pr  Pr8  1  0.979282  0.501442  0.177514  1
  U  U9  1  0.432061  0.250000  0.009799  1
  U  U10  1  0.061821  0.250000  0.505166  1
  U  U11  1  0.573050  0.750000  0.988879  1
  S  S12  1  0.175653  0.750000  0.307436  1
  S  S13  1  0.666203  0.250000  0.183542  1
  S  S14  1  0.831431  0.250000  0.684436  1
  S  S15  1  0.331492  0.750000  0.815191  1
  S  S16  1  0.538062  0.750000  0.498988  1
  S  S17  1  0.048776  0.250000  0.001871  1
  S  S18  1  0.449440  0.250000  0.499646  1
  S  S19  1  0.953114  0.750000  0.999789  1
  S  S20  1  0.799496  0.750000  0.721742  1
  S  S21  1  0.308145  0.250000  0.792212  1
  S  S22  1  0.196913  0.250000  0.286270  1
  S  S23  1  0.695891  0.750000  0.212049  1
  S  S24  1  0.164070  0.527410  0.598972  1
  S  S25  1  0.659882  0.457233  0.906231  1
  S  S26  1  0.838629  0.051459  0.402165  1
  S  S27  1  0.342897  0.959055  0.091965  1
  S  S28  1  0.838629  0.448541  0.402165  1
  S  S29  1  0.342897  0.540945  0.091965  1
  S  S30  1  0.164070  0.972590  0.598972  1
  S  S31  1  0.659882  0.042767  0.906231  1
