# generated using pymatgen
data_Cs3Na2TiP3
_symmetry_space_group_name_H-M   'P 1'
_cell_length_a   10.65783499
_cell_length_b   10.65783561
_cell_length_c   16.43674500
_cell_angle_alpha   90.00000000
_cell_angle_beta   90.00000000
_cell_angle_gamma   142.49556400
_symmetry_Int_Tables_number   1
_chemical_formula_structural   Cs3Na2TiP3
_chemical_formula_sum   'Cs12 Na8 Ti4 P12'
_cell_volume   1136.69715086
_cell_formula_units_Z   4
loop_
 _symmetry_equiv_pos_site_id
 _symmetry_equiv_pos_as_xyz
  1  'x, y, z'
loop_
 _atom_site_type_symbol
 _atom_site_label
 _atom_site_symmetry_multiplicity
 _atom_site_fract_x
 _atom_site_fract_y
 _atom_site_fract_z
 _atom_site_occupancy
  Cs  Cs0  1  0.943777  0.607959  0.825606  1
  Cs  Cs1  1  0.556223  0.892041  0.325606  1
  Cs  Cs2  1  0.392041  0.056223  0.174394  1
  Cs  Cs3  1  0.056223  0.392041  0.174394  1
  Cs  Cs4  1  0.892041  0.556223  0.325606  1
  Cs  Cs5  1  0.443777  0.107959  0.674394  1
  Cs  Cs6  1  0.607959  0.943777  0.825606  1
  Cs  Cs7  1  0.273943  0.273943  0.317670  1
  Cs  Cs8  1  0.773943  0.773943  0.182330  1
  Cs  Cs9  1  0.226057  0.226057  0.817670  1
  Cs  Cs10  1  0.726057  0.726057  0.682330  1
  Cs  Cs11  1  0.107959  0.443777  0.674394  1
  Na  Na12  1  0.920380  0.079620  0.000000  1
  Na  Na13  1  0.579620  0.420380  0.500000  1
  Na  Na14  1  0.079620  0.920380  0.000000  1
  Na  Na15  1  0.420380  0.579620  0.500000  1
  Na  Na16  1  0.754863  0.245137  0.000000  1
  Na  Na17  1  0.745137  0.254863  0.500000  1
  Na  Na18  1  0.245137  0.754863  0.000000  1
  Na  Na19  1  0.254863  0.745137  0.500000  1
  Ti  Ti20  1  0.584393  0.415607  0.000000  1
  Ti  Ti21  1  0.915607  0.084393  0.500000  1
  Ti  Ti22  1  0.415607  0.584393  0.000000  1
  Ti  Ti23  1  0.084393  0.915607  0.500000  1
  P  P24  1  0.857264  0.551885  0.085959  1
  P  P25  1  0.448115  0.142736  0.914041  1
  P  P26  1  0.642736  0.948115  0.585959  1
  P  P27  1  0.948115  0.642736  0.585959  1
  P  P28  1  0.142736  0.448115  0.914041  1
  P  P29  1  0.551885  0.857264  0.085959  1
  P  P30  1  0.357264  0.051885  0.414041  1
  P  P31  1  0.186533  0.186533  0.576610  1
  P  P32  1  0.686533  0.686533  0.923390  1
  P  P33  1  0.313467  0.313467  0.076610  1
  P  P34  1  0.051885  0.357264  0.414041  1
  P  P35  1  0.813467  0.813467  0.423390  1
