# generated using pymatgen
data_Ti4MoWC6
_symmetry_space_group_name_H-M   'P 1'
_cell_length_a   3.04695100
_cell_length_b   3.04695128
_cell_length_c   15.23610000
_cell_angle_alpha   90.00000000
_cell_angle_beta   90.00000000
_cell_angle_gamma   120.00000786
_symmetry_Int_Tables_number   1
_chemical_formula_structural   Ti4MoWC6
_chemical_formula_sum   'Ti4 Mo1 W1 C6'
_cell_volume   122.49980328
_cell_formula_units_Z   1
loop_
 _symmetry_equiv_pos_site_id
 _symmetry_equiv_pos_as_xyz
  1  'x, y, z'
loop_
 _atom_site_type_symbol
 _atom_site_label
 _atom_site_symmetry_multiplicity
 _atom_site_fract_x
 _atom_site_fract_y
 _atom_site_fract_z
 _atom_site_occupancy
  Ti  Ti0  1  0.333333  0.666667  0.416719  1
  Ti  Ti1  1  0.666667  0.333333  0.917050  1
  Ti  Ti2  1  0.666667  0.333333  0.582950  1
  Ti  Ti3  1  0.333333  0.666667  0.083281  1
  Mo  Mo4  1  0.000000  0.000000  0.250000  1
  W  W5  1  0.000000  0.000000  0.750000  1
  C  C6  1  0.333333  0.666667  0.834532  1
  C  C7  1  0.666667  0.333333  0.334204  1
  C  C8  1  0.666667  0.333333  0.165796  1
  C  C9  1  0.333333  0.666667  0.665468  1
  C  C10  1  0.000000  0.000000  0.499819  1
  C  C11  1  0.000000  0.000000  0.000181  1
