# generated using pymatgen
data_Zn4P6PdN12
_symmetry_space_group_name_H-M   'P 1'
_cell_length_a   7.19989712
_cell_length_b   7.19989735
_cell_length_c   7.19989800
_cell_angle_alpha   109.47122245
_cell_angle_beta   109.47122311
_cell_angle_gamma   109.47122546
_symmetry_Int_Tables_number   1
_chemical_formula_structural   Zn4P6PdN12
_chemical_formula_sum   'Zn4 P6 Pd1 N12'
_cell_volume   287.31413992
_cell_formula_units_Z   1
loop_
 _symmetry_equiv_pos_site_id
 _symmetry_equiv_pos_as_xyz
  1  'x, y, z'
loop_
 _atom_site_type_symbol
 _atom_site_label
 _atom_site_symmetry_multiplicity
 _atom_site_fract_x
 _atom_site_fract_y
 _atom_site_fract_z
 _atom_site_occupancy
  Zn  Zn0  1  0.000000  0.347914  0.000000  1
  Zn  Zn1  1  0.652086  0.652086  0.652086  1
  Zn  Zn2  1  0.347914  0.000000  0.000000  1
  Zn  Zn3  1  0.000000  0.000000  0.347914  1
  P  P4  1  0.750000  0.250000  0.500000  1
  P  P5  1  0.250000  0.750000  0.500000  1
  P  P6  1  0.500000  0.750000  0.250000  1
  P  P7  1  0.500000  0.250000  0.750000  1
  P  P8  1  0.750000  0.500000  0.250000  1
  P  P9  1  0.250000  0.500000  0.750000  1
  Pd  Pd10  1  0.000000  0.000000  0.000000  1
  N  N11  1  0.556036  0.273626  0.000000  1
  N  N12  1  0.443964  0.443964  0.717590  1
  N  N13  1  0.000000  0.273626  0.556036  1
  N  N14  1  0.273626  0.000000  0.556036  1
  N  N15  1  0.717590  0.443964  0.443964  1
  N  N16  1  0.000000  0.556036  0.273626  1
  N  N17  1  0.556036  0.000000  0.273626  1
  N  N18  1  0.443964  0.717590  0.443964  1
  N  N19  1  0.273626  0.556036  0.000000  1
  N  N20  1  0.726374  0.282410  0.726374  1
  N  N21  1  0.726374  0.726374  0.282410  1
  N  N22  1  0.282410  0.726374  0.726374  1
