# generated using pymatgen
data_AlPBr8
_symmetry_space_group_name_H-M   'P 1'
_cell_length_a   15.36659130
_cell_length_b   13.55016129
_cell_length_c   12.50359985
_cell_angle_alpha   72.15924961
_cell_angle_beta   57.07572152
_cell_angle_gamma   50.76502127
_symmetry_Int_Tables_number   1
_chemical_formula_structural   AlPBr8
_chemical_formula_sum   'Al3 P3 Br24'
_cell_volume   1689.87542466
_cell_formula_units_Z   3
loop_
 _symmetry_equiv_pos_site_id
 _symmetry_equiv_pos_as_xyz
  1  'x, y, z'
loop_
 _atom_site_type_symbol
 _atom_site_label
 _atom_site_symmetry_multiplicity
 _atom_site_fract_x
 _atom_site_fract_y
 _atom_site_fract_z
 _atom_site_occupancy
  Al  Al0  1  0.780744  0.284928  0.715072  1
  Al  Al1  1  0.281180  0.281180  0.718820  1
  Al  Al2  1  0.284928  0.780744  0.219256  1
  P  P3  1  0.762873  0.200105  0.237127  1
  P  P4  1  0.694067  0.694067  0.305933  1
  P  P5  1  0.200105  0.762873  0.799895  1
  Br  Br6  1  0.267928  0.930980  0.069020  1
  Br  Br7  1  0.010796  0.911865  0.814090  1
  Br  Br8  1  0.619262  0.873352  0.380738  1
  Br  Br9  1  0.911865  0.010796  0.263250  1
  Br  Br10  1  0.089856  0.358212  0.910144  1
  Br  Br11  1  0.732214  0.141636  0.858364  1
  Br  Br12  1  0.930980  0.267928  0.732072  1
  Br  Br13  1  0.227941  0.853854  0.407647  1
  Br  Br14  1  0.873352  0.619262  0.126648  1
  Br  Br15  1  0.185910  0.736750  0.989204  1
  Br  Br16  1  0.433317  0.251191  0.748809  1
  Br  Br17  1  0.829682  0.319838  0.170318  1
  Br  Br18  1  0.358212  0.089856  0.641788  1
  Br  Br19  1  0.736750  0.185910  0.088135  1
  Br  Br20  1  0.552649  0.724681  0.275319  1
  Br  Br21  1  0.319838  0.829682  0.680162  1
  Br  Br22  1  0.141636  0.732214  0.267786  1
  Br  Br23  1  0.853854  0.227941  0.510557  1
  Br  Br24  1  0.592353  0.489443  0.772059  1
  Br  Br25  1  0.585169  0.277224  0.414831  1
  Br  Br26  1  0.251191  0.433317  0.566683  1
  Br  Br27  1  0.277224  0.585169  0.722776  1
  Br  Br28  1  0.724681  0.552649  0.447351  1
  Br  Br29  1  0.489443  0.592353  0.146146  1
