# generated using pymatgen
data_Li4Tm3ZrPt4
_symmetry_space_group_name_H-M   'P 1'
_cell_length_a   3.87911600
_cell_length_b   6.93318218
_cell_length_c   8.43305146
_cell_angle_alpha   90.34488680
_cell_angle_beta   90.00000000
_cell_angle_gamma   90.00000000
_symmetry_Int_Tables_number   1
_chemical_formula_structural   Li4Tm3ZrPt4
_chemical_formula_sum   'Li4 Tm3 Zr1 Pt4'
_cell_volume   226.79958813
_cell_formula_units_Z   1
loop_
 _symmetry_equiv_pos_site_id
 _symmetry_equiv_pos_as_xyz
  1  'x, y, z'
loop_
 _atom_site_type_symbol
 _atom_site_label
 _atom_site_symmetry_multiplicity
 _atom_site_fract_x
 _atom_site_fract_y
 _atom_site_fract_z
 _atom_site_occupancy
  Li  Li0  1  0.250000  0.884252  0.945454  1
  Li  Li1  1  0.250000  0.375218  0.554640  1
  Li  Li2  1  0.750000  0.123221  0.057342  1
  Li  Li3  1  0.750000  0.620279  0.441639  1
  Tm  Tm4  1  0.250000  0.449438  0.182497  1
  Tm  Tm5  1  0.750000  0.052497  0.674726  1
  Tm  Tm6  1  0.750000  0.557609  0.823500  1
  Zr  Zr7  1  0.250000  0.939024  0.323135  1
  Pt  Pt8  1  0.250000  0.262994  0.872062  1
  Pt  Pt9  1  0.250000  0.761388  0.620503  1
  Pt  Pt10  1  0.750000  0.752863  0.135843  1
  Pt  Pt11  1  0.750000  0.221214  0.368658  1
