# generated using pymatgen
data_Tb3Er17(CoSb2)4
_symmetry_space_group_name_H-M   'P 1'
_cell_length_a   12.12249080
_cell_length_b   8.73925100
_cell_length_c   7.83830220
_cell_angle_alpha   90.00011020
_cell_angle_beta   89.93703990
_cell_angle_gamma   90.00007901
_symmetry_Int_Tables_number   1
_chemical_formula_structural   Tb3Er17(CoSb2)4
_chemical_formula_sum   'Tb3 Er17 Co4 Sb8'
_cell_volume   830.40091184
_cell_formula_units_Z   1
loop_
 _symmetry_equiv_pos_site_id
 _symmetry_equiv_pos_as_xyz
  1  'x, y, z'
loop_
 _atom_site_type_symbol
 _atom_site_label
 _atom_site_symmetry_multiplicity
 _atom_site_fract_x
 _atom_site_fract_y
 _atom_site_fract_z
 _atom_site_occupancy
  Tb  Tb0  1  0.692437  0.750007  0.622501  1
  Tb  Tb1  1  0.806809  0.250006  0.123052  1
  Tb  Tb2  1  0.193142  0.749999  0.876831  1
  Er  Er3  1  0.308097  0.250000  0.377468  1
  Er  Er4  1  0.002231  0.750000  0.451671  1
  Er  Er5  1  0.498024  0.250001  0.952580  1
  Er  Er6  1  0.501787  0.750000  0.049017  1
  Er  Er7  1  0.997890  0.250000  0.548705  1
  Er  Er8  1  0.797397  0.749989  0.155052  1
  Er  Er9  1  0.703847  0.249990  0.655449  1
  Er  Er10  1  0.296766  0.750001  0.345016  1
  Er  Er11  1  0.203415  0.249999  0.844368  1
  Er  Er12  1  0.065454  0.465297  0.176737  1
  Er  Er13  1  0.433863  0.534746  0.676582  1
  Er  Er14  1  0.565283  0.035945  0.322881  1
  Er  Er15  1  0.934561  0.964042  0.823276  1
  Er  Er16  1  0.934558  0.535958  0.823279  1
  Er  Er17  1  0.565282  0.464057  0.322886  1
  Er  Er18  1  0.433863  0.965258  0.676581  1
  Er  Er19  1  0.065454  0.034705  0.176738  1
  Co  Co20  1  0.507893  0.750002  0.434796  1
  Co  Co21  1  0.991705  0.249999  0.935119  1
  Co  Co22  1  0.008733  0.750000  0.065120  1
  Co  Co23  1  0.491379  0.250002  0.565084  1
  Sb  Sb24  1  0.327621  0.490842  0.070886  1
  Sb  Sb25  1  0.172233  0.507301  0.568314  1
  Sb  Sb26  1  0.828170  0.008366  0.430097  1
  Sb  Sb27  1  0.672046  0.991333  0.930289  1
  Sb  Sb28  1  0.672045  0.508665  0.930286  1
  Sb  Sb29  1  0.828161  0.491636  0.430136  1
  Sb  Sb30  1  0.172232  0.992698  0.568315  1
  Sb  Sb31  1  0.327621  0.009159  0.070885  1
