# generated using pymatgen
data_RbFe(PO3)4
_symmetry_space_group_name_H-M   'P 1'
_cell_length_a   10.66159094
_cell_length_b   10.66159076
_cell_length_c   5.31100530
_cell_angle_alpha   80.75034825
_cell_angle_beta   80.75035074
_cell_angle_gamma   72.32414343
_symmetry_Int_Tables_number   1
_chemical_formula_structural   RbFe(PO3)4
_chemical_formula_sum   'Rb2 Fe2 P8 O24'
_cell_volume   563.68355124
_cell_formula_units_Z   2
loop_
 _symmetry_equiv_pos_site_id
 _symmetry_equiv_pos_as_xyz
  1  'x, y, z'
loop_
 _atom_site_type_symbol
 _atom_site_label
 _atom_site_symmetry_multiplicity
 _atom_site_fract_x
 _atom_site_fract_y
 _atom_site_fract_z
 _atom_site_occupancy
  Rb  Rb0  1  0.402795  0.402795  0.748385  1
  Rb  Rb1  1  0.597205  0.597205  0.251615  1
  Fe  Fe2  1  0.500000  0.000000  0.000000  1
  Fe  Fe3  1  0.000000  0.500000  0.000000  1
  P  P4  1  0.802176  0.351308  0.836964  1
  P  P5  1  0.068898  0.306653  0.538356  1
  P  P6  1  0.306653  0.068898  0.538356  1
  P  P7  1  0.648692  0.197824  0.163036  1
  P  P8  1  0.351308  0.802176  0.836964  1
  P  P9  1  0.693347  0.931102  0.461644  1
  P  P10  1  0.931102  0.693347  0.461644  1
  P  P11  1  0.197824  0.648692  0.163036  1
  O  O12  1  0.421785  0.852938  0.009068  1
  O  O13  1  0.395759  0.098691  0.702058  1
  O  O14  1  0.426735  0.681801  0.714771  1
  O  O15  1  0.147062  0.578215  0.990932  1
  O  O16  1  0.578215  0.147062  0.990932  1
  O  O17  1  0.912702  0.657239  0.747745  1
  O  O18  1  0.213202  0.786798  0.000000  1
  O  O19  1  0.573265  0.318199  0.285229  1
  O  O20  1  0.604241  0.901309  0.297942  1
  O  O21  1  0.711446  0.075664  0.374602  1
  O  O22  1  0.318199  0.573265  0.285229  1
  O  O23  1  0.901309  0.604241  0.297942  1
  O  O24  1  0.852938  0.421785  0.009068  1
  O  O25  1  0.075664  0.711446  0.374602  1
  O  O26  1  0.156524  0.156524  0.608805  1
  O  O27  1  0.098691  0.395759  0.702058  1
  O  O28  1  0.681801  0.426735  0.714771  1
  O  O29  1  0.288554  0.924336  0.625398  1
  O  O30  1  0.786798  0.213202  0.000000  1
  O  O31  1  0.342761  0.087298  0.252255  1
  O  O32  1  0.657239  0.912702  0.747745  1
  O  O33  1  0.843476  0.843476  0.391195  1
  O  O34  1  0.924336  0.288554  0.625398  1
  O  O35  1  0.087298  0.342761  0.252255  1
