# generated using pymatgen
data_Tb2Fe2Si2B
_symmetry_space_group_name_H-M   'P 1'
_cell_length_a   5.73115563
_cell_length_b   5.73115483
_cell_length_c   6.85676975
_cell_angle_alpha   52.27878793
_cell_angle_beta   52.27879266
_cell_angle_gamma   41.20262665
_symmetry_Int_Tables_number   1
_chemical_formula_structural   Tb2Fe2Si2B
_chemical_formula_sum   'Tb2 Fe2 Si2 B1'
_cell_volume   112.28008232
_cell_formula_units_Z   1
loop_
 _symmetry_equiv_pos_site_id
 _symmetry_equiv_pos_as_xyz
  1  'x, y, z'
loop_
 _atom_site_type_symbol
 _atom_site_label
 _atom_site_symmetry_multiplicity
 _atom_site_fract_x
 _atom_site_fract_y
 _atom_site_fract_z
 _atom_site_occupancy
  Tb  Tb0  1  0.439448  0.439448  0.300122  1
  Tb  Tb1  1  0.560552  0.560552  0.699878  1
  Fe  Fe2  1  0.790877  0.790877  0.100415  1
  Fe  Fe3  1  0.209123  0.209123  0.899585  1
  Si  Si4  1  0.834007  0.834007  0.725980  1
  Si  Si5  1  0.165993  0.165993  0.274020  1
  B  B6  1  0.000000  0.000000  0.000000  1
