# generated using pymatgen
data_Tm4Tc5Os3
_symmetry_space_group_name_H-M   'P 1'
_cell_length_a   5.29276470
_cell_length_b   5.22341313
_cell_length_c   8.98508300
_cell_angle_alpha   90.00000000
_cell_angle_beta   90.00000000
_cell_angle_gamma   119.47544891
_symmetry_Int_Tables_number   1
_chemical_formula_structural   Tm4Tc5Os3
_chemical_formula_sum   'Tm4 Tc5 Os3'
_cell_volume   216.25246504
_cell_formula_units_Z   1
loop_
 _symmetry_equiv_pos_site_id
 _symmetry_equiv_pos_as_xyz
  1  'x, y, z'
loop_
 _atom_site_type_symbol
 _atom_site_label
 _atom_site_symmetry_multiplicity
 _atom_site_fract_x
 _atom_site_fract_y
 _atom_site_fract_z
 _atom_site_occupancy
  Tm  Tm0  1  0.668239  0.334239  0.562896  1
  Tm  Tm1  1  0.330887  0.665350  0.435308  1
  Tm  Tm2  1  0.330887  0.665350  0.064692  1
  Tm  Tm3  1  0.668239  0.334239  0.937104  1
  Tc  Tc4  1  0.171219  0.342921  0.750000  1
  Tc  Tc5  1  0.170868  0.828690  0.750000  1
  Tc  Tc6  1  0.657589  0.828342  0.750000  1
  Tc  Tc7  1  0.829878  0.659068  0.250000  1
  Tc  Tc8  1  0.830286  0.170974  0.250000  1
  Os  Os9  1  0.998029  0.998997  0.499275  1
  Os  Os10  1  0.998029  0.998997  0.000725  1
  Os  Os11  1  0.345849  0.172831  0.250000  1
