# generated using pymatgen
data_Ho4Sc4Tc(B8Ir)3
_symmetry_space_group_name_H-M   'P 1'
_cell_length_a   3.55837000
_cell_length_b   8.98032016
_cell_length_c   11.36104428
_cell_angle_alpha   90.05440265
_cell_angle_beta   90.00000000
_cell_angle_gamma   90.00000000
_symmetry_Int_Tables_number   1
_chemical_formula_structural   Ho4Sc4Tc(B8Ir)3
_chemical_formula_sum   'Ho4 Sc4 Tc1 B24 Ir3'
_cell_volume   363.04543557
_cell_formula_units_Z   1
loop_
 _symmetry_equiv_pos_site_id
 _symmetry_equiv_pos_as_xyz
  1  'x, y, z'
loop_
 _atom_site_type_symbol
 _atom_site_label
 _atom_site_symmetry_multiplicity
 _atom_site_fract_x
 _atom_site_fract_y
 _atom_site_fract_z
 _atom_site_occupancy
  Ho  Ho0  1  0.500000  0.316251  0.410462  1
  Ho  Ho1  1  0.500000  0.680815  0.586208  1
  Ho  Ho2  1  0.500000  0.180574  0.916845  1
  Ho  Ho3  1  0.500000  0.822207  0.087370  1
  Sc  Sc4  1  0.500000  0.440936  0.123948  1
  Sc  Sc5  1  0.500000  0.555915  0.876172  1
  Sc  Sc6  1  0.500000  0.055538  0.624355  1
  Sc  Sc7  1  0.500000  0.947759  0.373987  1
  Tc  Tc8  1  0.500000  0.139705  0.181165  1
  B  B9  1  0.000000  0.099879  0.473489  1
  B  B10  1  0.000000  0.899632  0.527596  1
  B  B11  1  0.000000  0.400444  0.972235  1
  B  B12  1  0.000000  0.601163  0.027089  1
  B  B13  1  0.000000  0.128907  0.316724  1
  B  B14  1  0.000000  0.870612  0.681506  1
  B  B15  1  0.000000  0.371478  0.818583  1
  B  B16  1  0.000000  0.628949  0.182137  1
  B  B17  1  0.000000  0.054248  0.066681  1
  B  B18  1  0.000000  0.945770  0.933802  1
  B  B19  1  0.000000  0.444933  0.565734  1
  B  B20  1  0.000000  0.553891  0.433694  1
  B  B21  1  0.000000  0.480785  0.285255  1
  B  B22  1  0.000000  0.519377  0.714880  1
  B  B23  1  0.000000  0.019471  0.785219  1
  B  B24  1  0.000000  0.980816  0.214480  1
  B  B25  1  0.000000  0.253308  0.081028  1
  B  B26  1  0.000000  0.746360  0.920252  1
  B  B27  1  0.000000  0.245560  0.579876  1
  B  B28  1  0.000000  0.754146  0.419857  1
  B  B29  1  0.000000  0.294367  0.234307  1
  B  B30  1  0.000000  0.705461  0.764584  1
  B  B31  1  0.000000  0.206085  0.735596  1
  B  B32  1  0.000000  0.794297  0.265753  1
  Ir  Ir33  1  0.500000  0.860493  0.819295  1
  Ir  Ir34  1  0.500000  0.360146  0.680339  1
  Ir  Ir35  1  0.500000  0.639724  0.319491  1
