# generated using pymatgen
data_Dy5ErAl24(CoRu3)2
_symmetry_space_group_name_H-M   'P 1'
_cell_length_a   8.74901311
_cell_length_b   8.74901350
_cell_length_c   9.51918100
_cell_angle_alpha   90.00000000
_cell_angle_beta   90.00000000
_cell_angle_gamma   120.01851816
_symmetry_Int_Tables_number   1
_chemical_formula_structural   Dy5ErAl24(CoRu3)2
_chemical_formula_sum   'Dy5 Er1 Al24 Co2 Ru6'
_cell_volume   630.90983946
_cell_formula_units_Z   1
loop_
 _symmetry_equiv_pos_site_id
 _symmetry_equiv_pos_as_xyz
  1  'x, y, z'
loop_
 _atom_site_type_symbol
 _atom_site_label
 _atom_site_symmetry_multiplicity
 _atom_site_fract_x
 _atom_site_fract_y
 _atom_site_fract_z
 _atom_site_occupancy
  Dy  Dy0  1  0.193840  0.387663  0.250000  1
  Dy  Dy1  1  0.806146  0.612217  0.750000  1
  Dy  Dy2  1  0.612337  0.806160  0.250000  1
  Dy  Dy3  1  0.387783  0.193854  0.750000  1
  Dy  Dy4  1  0.193854  0.806146  0.250000  1
  Er  Er5  1  0.805763  0.194237  0.750000  1
  Al  Al6  1  0.333338  0.666662  0.016291  1
  Al  Al7  1  0.666768  0.333232  0.983566  1
  Al  Al8  1  0.666768  0.333232  0.516434  1
  Al  Al9  1  0.333338  0.666662  0.483709  1
  Al  Al10  1  0.159500  0.319316  0.576787  1
  Al  Al11  1  0.840277  0.680567  0.423328  1
  Al  Al12  1  0.680684  0.840500  0.576787  1
  Al  Al13  1  0.840277  0.680567  0.076672  1
  Al  Al14  1  0.319433  0.159723  0.423328  1
  Al  Al15  1  0.159500  0.319316  0.923213  1
  Al  Al16  1  0.159715  0.840285  0.576710  1
  Al  Al17  1  0.319433  0.159723  0.076672  1
  Al  Al18  1  0.840291  0.159709  0.423504  1
  Al  Al19  1  0.680684  0.840500  0.923213  1
  Al  Al20  1  0.840291  0.159709  0.076496  1
  Al  Al21  1  0.159715  0.840285  0.923290  1
  Al  Al22  1  0.561400  0.122779  0.250000  1
  Al  Al23  1  0.438966  0.877516  0.750000  1
  Al  Al24  1  0.877221  0.438600  0.250000  1
  Al  Al25  1  0.122484  0.561034  0.750000  1
  Al  Al26  1  0.561391  0.438609  0.250000  1
  Al  Al27  1  0.438604  0.561396  0.750000  1
  Al  Al28  1  0.000010  0.999990  0.250000  1
  Al  Al29  1  0.999818  0.000182  0.750000  1
  Co  Co30  1  0.000027  0.999973  0.000032  1
  Co  Co31  1  0.000027  0.999973  0.499968  1
  Ru  Ru32  1  0.500249  0.000136  0.999860  1
  Ru  Ru33  1  0.999864  0.499751  0.999860  1
  Ru  Ru34  1  0.500249  0.000136  0.500140  1
  Ru  Ru35  1  0.500046  0.499954  0.999954  1
  Ru  Ru36  1  0.999864  0.499751  0.500140  1
  Ru  Ru37  1  0.500046  0.499954  0.500046  1
