# generated using pymatgen
data_TbHo3(Ga8Pd3)3
_symmetry_space_group_name_H-M   'P 1'
_cell_length_a   7.50974611
_cell_length_b   7.57743472
_cell_length_c   13.44487876
_cell_angle_alpha   85.11480133
_cell_angle_beta   100.11636919
_cell_angle_gamma   119.72007082
_symmetry_Int_Tables_number   1
_chemical_formula_structural   TbHo3(Ga8Pd3)3
_chemical_formula_sum   'Tb1 Ho3 Ga24 Pd9'
_cell_volume   654.10433530
_cell_formula_units_Z   1
loop_
 _symmetry_equiv_pos_site_id
 _symmetry_equiv_pos_as_xyz
  1  'x, y, z'
loop_
 _atom_site_type_symbol
 _atom_site_label
 _atom_site_symmetry_multiplicity
 _atom_site_fract_x
 _atom_site_fract_y
 _atom_site_fract_z
 _atom_site_occupancy
  Tb  Tb0  1  0.227791  0.496467  0.188356  1
  Ho  Ho1  1  0.437006  0.831052  0.811286  1
  Ho  Ho2  1  0.562980  0.168950  0.188638  1
  Ho  Ho3  1  0.771947  0.503560  0.811258  1
  Ga  Ga4  1  0.481006  0.166830  0.939107  1
  Ga  Ga5  1  0.519682  0.833706  0.060320  1
  Ga  Ga6  1  0.021754  0.164344  0.558340  1
  Ga  Ga7  1  0.978266  0.835691  0.441959  1
  Ga  Ga8  1  0.355675  0.832602  0.556344  1
  Ga  Ga9  1  0.644285  0.167311  0.443778  1
  Ga  Ga10  1  0.612161  0.835223  0.324412  1
  Ga  Ga11  1  0.388207  0.165033  0.676201  1
  Ga  Ga12  1  0.060900  0.495982  0.674369  1
  Ga  Ga13  1  0.938856  0.503762  0.326288  1
  Ga  Ga14  1  0.730984  0.836881  0.674079  1
  Ga  Ga15  1  0.269143  0.162864  0.326416  1
  Ga  Ga16  1  0.144802  0.500902  0.940086  1
  Ga  Ga17  1  0.854015  0.499128  0.058914  1
  Ga  Ga18  1  0.812247  0.831973  0.944394  1
  Ga  Ga19  1  0.187435  0.167204  0.054840  1
  Ga  Ga20  1  0.311457  0.500170  0.443234  1
  Ga  Ga21  1  0.688612  0.499730  0.556996  1
  Ga  Ga22  1  0.102280  0.836170  0.181914  1
  Ga  Ga23  1  0.897789  0.164581  0.817944  1
  Ga  Ga24  1  0.309586  0.370658  0.816880  1
  Ga  Ga25  1  0.690961  0.629062  0.183059  1
  Ga  Ga26  1  0.103827  0.960970  0.816796  1
  Ga  Ga27  1  0.895455  0.038460  0.183194  1
  Pd  Pd28  1  0.388297  0.502688  0.639060  1
  Pd  Pd29  1  0.612137  0.497602  0.361299  1
  Pd  Pd30  1  0.170617  0.830653  0.998343  1
  Pd  Pd31  1  0.830019  0.169728  0.001459  1
  Pd  Pd32  1  0.289167  0.833500  0.360570  1
  Pd  Pd33  1  0.710793  0.166660  0.639764  1
  Pd  Pd34  1  0.050965  0.827900  0.638787  1
  Pd  Pd35  1  0.949205  0.171933  0.361585  1
  Pd  Pd36  1  0.499693  0.500070  0.999729  1
