# generated using pymatgen
data_Ho6Er4InPb5
_symmetry_space_group_name_H-M   'P 1'
_cell_length_a   8.99645303
_cell_length_b   8.99645225
_cell_length_c   6.62419400
_cell_angle_alpha   90.00000000
_cell_angle_beta   90.00000000
_cell_angle_gamma   120.05612137
_symmetry_Int_Tables_number   1
_chemical_formula_structural   Ho6Er4InPb5
_chemical_formula_sum   'Ho6 Er4 In1 Pb5'
_cell_volume   464.04531488
_cell_formula_units_Z   1
loop_
 _symmetry_equiv_pos_site_id
 _symmetry_equiv_pos_as_xyz
  1  'x, y, z'
loop_
 _atom_site_type_symbol
 _atom_site_label
 _atom_site_symmetry_multiplicity
 _atom_site_fract_x
 _atom_site_fract_y
 _atom_site_fract_z
 _atom_site_occupancy
  Ho  Ho0  1  0.760395  0.760395  0.750000  1
  Ho  Ho1  1  0.239211  0.004763  0.750000  1
  Ho  Ho2  1  0.004763  0.239211  0.750000  1
  Ho  Ho3  1  0.238012  0.238012  0.250000  1
  Ho  Ho4  1  0.762198  0.999581  0.250000  1
  Ho  Ho5  1  0.999581  0.762198  0.250000  1
  Er  Er6  1  0.663876  0.333631  0.998161  1
  Er  Er7  1  0.333631  0.663876  0.998161  1
  Er  Er8  1  0.333631  0.663876  0.501839  1
  Er  Er9  1  0.663876  0.333631  0.501839  1
  In  In10  1  0.396161  0.396161  0.750000  1
  Pb  Pb11  1  0.606482  0.000386  0.750000  1
  Pb  Pb12  1  0.000386  0.606482  0.750000  1
  Pb  Pb13  1  0.604912  0.604912  0.250000  1
  Pb  Pb14  1  0.394136  0.998747  0.250000  1
  Pb  Pb15  1  0.998747  0.394136  0.250000  1
