# generated using pymatgen
data_Ca4Tb5Y(AgPb3)2
_symmetry_space_group_name_H-M   'P 1'
_cell_length_a   9.38583901
_cell_length_b   9.38583995
_cell_length_c   6.85385000
_cell_angle_alpha   90.00000000
_cell_angle_beta   90.00000000
_cell_angle_gamma   119.98408059
_symmetry_Int_Tables_number   1
_chemical_formula_structural   Ca4Tb5Y(AgPb3)2
_chemical_formula_sum   'Ca4 Tb5 Y1 Ag2 Pb6'
_cell_volume   522.97522658
_cell_formula_units_Z   1
loop_
 _symmetry_equiv_pos_site_id
 _symmetry_equiv_pos_as_xyz
  1  'x, y, z'
loop_
 _atom_site_type_symbol
 _atom_site_label
 _atom_site_symmetry_multiplicity
 _atom_site_fract_x
 _atom_site_fract_y
 _atom_site_fract_z
 _atom_site_occupancy
  Ca  Ca0  1  0.666670  0.333286  0.500019  1
  Ca  Ca1  1  0.333286  0.666670  0.500019  1
  Ca  Ca2  1  0.333286  0.666670  0.999981  1
  Ca  Ca3  1  0.666670  0.333286  0.999981  1
  Tb  Tb4  1  0.270598  0.999948  0.250000  1
  Tb  Tb5  1  0.999948  0.270598  0.250000  1
  Tb  Tb6  1  0.270752  0.270752  0.750000  1
  Tb  Tb7  1  0.729313  0.999967  0.750000  1
  Tb  Tb8  1  0.999967  0.729313  0.750000  1
  Y  Y9  1  0.729052  0.729052  0.250000  1
  Ag  Ag10  1  0.000360  0.000360  0.500288  1
  Ag  Ag11  1  0.000360  0.000360  0.999712  1
  Pb  Pb12  1  0.379100  0.379100  0.250000  1
  Pb  Pb13  1  0.620649  0.000092  0.250000  1
  Pb  Pb14  1  0.000092  0.620649  0.250000  1
  Pb  Pb15  1  0.620676  0.620676  0.750000  1
  Pb  Pb16  1  0.379247  0.999974  0.750000  1
  Pb  Pb17  1  0.999974  0.379247  0.750000  1
