# generated using pymatgen
data_Tm3Hf(NiP)4
_symmetry_space_group_name_H-M   'P 1'
_cell_length_a   3.85438500
_cell_length_b   3.85438497
_cell_length_c   14.79962300
_cell_angle_alpha   90.00000000
_cell_angle_beta   90.00000000
_cell_angle_gamma   120.00000886
_symmetry_Int_Tables_number   1
_chemical_formula_structural   Tm3Hf(NiP)4
_chemical_formula_sum   'Tm3 Hf1 Ni4 P4'
_cell_volume   190.41073385
_cell_formula_units_Z   1
loop_
 _symmetry_equiv_pos_site_id
 _symmetry_equiv_pos_as_xyz
  1  'x, y, z'
loop_
 _atom_site_type_symbol
 _atom_site_label
 _atom_site_symmetry_multiplicity
 _atom_site_fract_x
 _atom_site_fract_y
 _atom_site_fract_z
 _atom_site_occupancy
  Tm  Tm0  1  0.000000  0.000000  0.494557  1
  Tm  Tm1  1  0.000000  0.000000  0.005443  1
  Tm  Tm2  1  0.000000  0.000000  0.750000  1
  Hf  Hf3  1  0.000000  0.000000  0.250000  1
  Ni  Ni4  1  0.333333  0.666667  0.348259  1
  Ni  Ni5  1  0.666667  0.333333  0.625830  1
  Ni  Ni6  1  0.666667  0.333333  0.874170  1
  Ni  Ni7  1  0.333333  0.666667  0.151741  1
  P  P8  1  0.333333  0.666667  0.880722  1
  P  P9  1  0.666667  0.333333  0.125108  1
  P  P10  1  0.666667  0.333333  0.374892  1
  P  P11  1  0.333333  0.666667  0.619278  1
