# generated using pymatgen
data_BaAc2(H6Ru)2
_symmetry_space_group_name_H-M   'P 1'
_cell_length_a   5.23952100
_cell_length_b   5.23952237
_cell_length_c   8.84440500
_cell_angle_alpha   90.00000000
_cell_angle_beta   90.00000000
_cell_angle_gamma   120.00001032
_symmetry_Int_Tables_number   1
_chemical_formula_structural   BaAc2(H6Ru)2
_chemical_formula_sum   'Ba1 Ac2 H12 Ru2'
_cell_volume   210.27250659
_cell_formula_units_Z   1
loop_
 _symmetry_equiv_pos_site_id
 _symmetry_equiv_pos_as_xyz
  1  'x, y, z'
loop_
 _atom_site_type_symbol
 _atom_site_label
 _atom_site_symmetry_multiplicity
 _atom_site_fract_x
 _atom_site_fract_y
 _atom_site_fract_z
 _atom_site_occupancy
  Ba  Ba0  1  0.000000  0.000000  0.000000  1
  Ac  Ac1  1  0.666667  0.333333  0.357729  1
  Ac  Ac2  1  0.333333  0.666667  0.642271  1
  H  H3  1  0.177545  0.822455  0.375900  1
  H  H4  1  0.644910  0.822455  0.375900  1
  H  H5  1  0.177545  0.355090  0.375900  1
  H  H6  1  0.822455  0.177545  0.624100  1
  H  H7  1  0.355090  0.177545  0.624100  1
  H  H8  1  0.822455  0.644910  0.624100  1
  H  H9  1  0.518693  0.037386  0.856754  1
  H  H10  1  0.518693  0.481307  0.856754  1
  H  H11  1  0.962614  0.481307  0.856754  1
  H  H12  1  0.481307  0.962614  0.143246  1
  H  H13  1  0.481307  0.518693  0.143246  1
  H  H14  1  0.037386  0.518693  0.143246  1
  Ru  Ru15  1  0.666667  0.333333  0.737176  1
  Ru  Ru16  1  0.333333  0.666667  0.262824  1
