# generated using pymatgen
data_Ho4Al12Ga6Ir5Pt
_symmetry_space_group_name_H-M   'P 1'
_cell_length_a   7.53948000
_cell_length_b   7.53948063
_cell_length_c   9.55095537
_cell_angle_alpha   90.03075580
_cell_angle_beta   90.03075365
_cell_angle_gamma   119.79469772
_symmetry_Int_Tables_number   1
_chemical_formula_structural   Ho4Al12Ga6Ir5Pt
_chemical_formula_sum   'Ho4 Al12 Ga6 Ir5 Pt1'
_cell_volume   471.14518978
_cell_formula_units_Z   1
loop_
 _symmetry_equiv_pos_site_id
 _symmetry_equiv_pos_as_xyz
  1  'x, y, z'
loop_
 _atom_site_type_symbol
 _atom_site_label
 _atom_site_symmetry_multiplicity
 _atom_site_fract_x
 _atom_site_fract_y
 _atom_site_fract_z
 _atom_site_occupancy
  Ho  Ho0  1  0.996768  0.668985  0.250721  1
  Ho  Ho1  1  0.003232  0.331015  0.749279  1
  Ho  Ho2  1  0.668985  0.996768  0.250721  1
  Ho  Ho3  1  0.331015  0.003232  0.749279  1
  Al  Al4  1  0.001178  0.337240  0.075238  1
  Al  Al5  1  0.998822  0.662760  0.924762  1
  Al  Al6  1  0.999413  0.665970  0.573132  1
  Al  Al7  1  0.334030  0.000587  0.426868  1
  Al  Al8  1  0.000587  0.334030  0.426868  1
  Al  Al9  1  0.665970  0.999413  0.573132  1
  Al  Al10  1  0.662760  0.998822  0.924762  1
  Al  Al11  1  0.337240  0.001178  0.075238  1
  Al  Al12  1  0.334041  0.334041  0.556952  1
  Al  Al13  1  0.665959  0.665959  0.443048  1
  Al  Al14  1  0.662980  0.662980  0.058784  1
  Al  Al15  1  0.337020  0.337020  0.941216  1
  Ga  Ga16  1  0.128398  0.128398  0.252054  1
  Ga  Ga17  1  0.871602  0.871602  0.747946  1
  Ga  Ga18  1  0.338390  0.547337  0.250141  1
  Ga  Ga19  1  0.661610  0.452663  0.749859  1
  Ga  Ga20  1  0.547337  0.338390  0.250141  1
  Ga  Ga21  1  0.452663  0.661610  0.749859  1
  Ir  Ir22  1  0.671728  0.328272  0.000000  1
  Ir  Ir23  1  0.328272  0.671728  0.000000  1
  Ir  Ir24  1  0.328229  0.671771  0.500000  1
  Ir  Ir25  1  0.671771  0.328229  0.500000  1
  Ir  Ir26  1  0.000000  0.000000  0.500000  1
  Pt  Pt27  1  0.000000  0.000000  0.000000  1
