# generated using pymatgen
data_Pr2Dy2Al17GaIr6
_symmetry_space_group_name_H-M   'P 1'
_cell_length_a   7.58450583
_cell_length_b   7.58450483
_cell_length_c   9.57659100
_cell_angle_alpha   90.00000000
_cell_angle_beta   90.00000000
_cell_angle_gamma   119.31358605
_symmetry_Int_Tables_number   1
_chemical_formula_structural   Pr2Dy2Al17GaIr6
_chemical_formula_sum   'Pr2 Dy2 Al17 Ga1 Ir6'
_cell_volume   480.35093422
_cell_formula_units_Z   1
loop_
 _symmetry_equiv_pos_site_id
 _symmetry_equiv_pos_as_xyz
  1  'x, y, z'
loop_
 _atom_site_type_symbol
 _atom_site_label
 _atom_site_symmetry_multiplicity
 _atom_site_fract_x
 _atom_site_fract_y
 _atom_site_fract_z
 _atom_site_occupancy
  Pr  Pr0  1  0.993791  0.674473  0.750000  1
  Pr  Pr1  1  0.674473  0.993791  0.750000  1
  Dy  Dy2  1  0.004913  0.327105  0.250000  1
  Dy  Dy3  1  0.327105  0.004913  0.250000  1
  Al  Al4  1  0.870155  0.870155  0.250000  1
  Al  Al5  1  0.003255  0.336016  0.568260  1
  Al  Al6  1  0.998745  0.663842  0.423195  1
  Al  Al7  1  0.998745  0.663842  0.076805  1
  Al  Al8  1  0.336016  0.003255  0.931740  1
  Al  Al9  1  0.003255  0.336016  0.931740  1
  Al  Al10  1  0.663842  0.998745  0.076805  1
  Al  Al11  1  0.663842  0.998745  0.423195  1
  Al  Al12  1  0.336016  0.003255  0.568260  1
  Al  Al13  1  0.332879  0.332879  0.055192  1
  Al  Al14  1  0.664564  0.664564  0.957009  1
  Al  Al15  1  0.664564  0.664564  0.542991  1
  Al  Al16  1  0.332879  0.332879  0.444808  1
  Al  Al17  1  0.338496  0.546861  0.750000  1
  Al  Al18  1  0.659945  0.449995  0.250000  1
  Al  Al19  1  0.546861  0.338496  0.750000  1
  Al  Al20  1  0.449995  0.659945  0.250000  1
  Ga  Ga21  1  0.138289  0.138289  0.750000  1
  Ir  Ir22  1  0.670399  0.327576  0.497805  1
  Ir  Ir23  1  0.327576  0.670399  0.497805  1
  Ir  Ir24  1  0.327576  0.670399  0.002195  1
  Ir  Ir25  1  0.670399  0.327576  0.002195  1
  Ir  Ir26  1  0.000711  0.000711  0.494700  1
  Ir  Ir27  1  0.000711  0.000711  0.005300  1
