# generated using pymatgen
data_TbDy(ThNi2)2
_symmetry_space_group_name_H-M   'P 1'
_cell_length_a   3.66409900
_cell_length_b   4.25106000
_cell_length_c   10.62692300
_cell_angle_alpha   90.00000000
_cell_angle_beta   90.00000000
_cell_angle_gamma   90.00000000
_symmetry_Int_Tables_number   1
_chemical_formula_structural   TbDy(ThNi2)2
_chemical_formula_sum   'Tb1 Dy1 Th2 Ni4'
_cell_volume   165.52819062
_cell_formula_units_Z   1
loop_
 _symmetry_equiv_pos_site_id
 _symmetry_equiv_pos_as_xyz
  1  'x, y, z'
loop_
 _atom_site_type_symbol
 _atom_site_label
 _atom_site_symmetry_multiplicity
 _atom_site_fract_x
 _atom_site_fract_y
 _atom_site_fract_z
 _atom_site_occupancy
  Tb  Tb0  1  0.000000  0.000000  0.142845  1
  Dy  Dy1  1  0.500000  0.500000  0.357900  1
  Th  Th2  1  0.000000  0.500000  0.871438  1
  Th  Th3  1  0.500000  0.000000  0.628235  1
  Ni  Ni4  1  0.500000  0.500000  0.076586  1
  Ni  Ni5  1  0.000000  0.500000  0.586482  1
  Ni  Ni6  1  0.000000  0.000000  0.423406  1
  Ni  Ni7  1  0.500000  0.000000  0.913108  1
