# generated using pymatgen
data_TmLuV6O18
_symmetry_space_group_name_H-M   'P 1'
_cell_length_a   8.36592894
_cell_length_b   8.36893256
_cell_length_c   10.75106722
_cell_angle_alpha   57.64961754
_cell_angle_beta   122.33875728
_cell_angle_gamma   127.77875985
_symmetry_Int_Tables_number   1
_chemical_formula_structural   TmLuV6O18
_chemical_formula_sum   'Tm1 Lu1 V6 O18'
_cell_volume   477.80897640
_cell_formula_units_Z   1
loop_
 _symmetry_equiv_pos_site_id
 _symmetry_equiv_pos_as_xyz
  1  'x, y, z'
loop_
 _atom_site_type_symbol
 _atom_site_label
 _atom_site_symmetry_multiplicity
 _atom_site_fract_x
 _atom_site_fract_y
 _atom_site_fract_z
 _atom_site_occupancy
  Tm  Tm0  1  0.389008  0.130769  0.354917  1
  Lu  Lu1  1  0.869146  0.610724  0.854899  1
  V  V2  1  0.651888  0.122732  0.177699  1
  V  V3  1  0.878392  0.349297  0.678658  1
  V  V4  1  0.080682  0.100324  0.525781  1
  V  V5  1  0.898551  0.918017  0.024745  1
  V  V6  1  0.328431  0.583454  0.592641  1
  V  V7  1  0.415530  0.672678  0.091483  1
  O  O8  1  0.850720  0.072750  0.357215  1
  O  O9  1  0.927455  0.149328  0.857338  1
  O  O10  1  0.239134  0.053143  0.511863  1
  O  O11  1  0.945866  0.759983  0.010199  1
  O  O12  1  0.006900  0.925957  0.687496  1
  O  O13  1  0.071720  0.991420  0.186522  1
  O  O14  1  0.214538  0.371809  0.521450  1
  O  O15  1  0.627445  0.785235  0.020835  1
  O  O16  1  0.539537  0.220620  0.193445  1
  O  O17  1  0.780440  0.461422  0.694889  1
  O  O18  1  0.457335  0.868948  0.144548  1
  O  O19  1  0.131926  0.543010  0.644971  1
  O  O20  1  0.391687  0.820960  0.453827  1
  O  O21  1  0.176979  0.608798  0.953364  1
  O  O22  1  0.415665  0.454422  0.246132  1
  O  O23  1  0.547818  0.584289  0.746729  1
  O  O24  1  0.704675  0.241858  0.532685  1
  O  O25  1  0.759130  0.297458  0.031464  1
