# generated using pymatgen
data_DyHo3Fe5Si10Rh
_symmetry_space_group_name_H-M   'P 1'
_cell_length_a   8.01077151
_cell_length_b   8.01417696
_cell_length_c   8.01417659
_cell_angle_alpha   140.39888850
_cell_angle_beta   108.06375564
_cell_angle_gamma   85.38393153
_symmetry_Int_Tables_number   1
_chemical_formula_structural   DyHo3Fe5Si10Rh
_chemical_formula_sum   'Dy1 Ho3 Fe5 Si10 Rh1'
_cell_volume   300.95853120
_cell_formula_units_Z   1
loop_
 _symmetry_equiv_pos_site_id
 _symmetry_equiv_pos_as_xyz
  1  'x, y, z'
loop_
 _atom_site_type_symbol
 _atom_site_label
 _atom_site_symmetry_multiplicity
 _atom_site_fract_x
 _atom_site_fract_y
 _atom_site_fract_z
 _atom_site_occupancy
  Dy  Dy0  1  0.135652  0.863358  0.272293  1
  Ho  Ho1  1  0.593455  0.361961  0.231492  1
  Ho  Ho2  1  0.405232  0.637465  0.767770  1
  Ho  Ho3  1  0.871970  0.139260  0.732709  1
  Fe  Fe4  1  0.996111  0.747550  0.744897  1
  Fe  Fe5  1  0.447743  0.856693  0.591051  1
  Fe  Fe6  1  0.263241  0.354421  0.908820  1
  Fe  Fe7  1  0.737034  0.644667  0.092367  1
  Fe  Fe8  1  0.996111  0.251213  0.248561  1
  Si  Si9  1  0.248774  0.091111  0.157664  1
  Si  Si10  1  0.735434  0.906687  0.828748  1
  Si  Si11  1  0.075038  0.406050  0.668988  1
  Si  Si12  1  0.923741  0.594074  0.329667  1
  Si  Si13  1  0.797116  0.035348  0.246546  1
  Si  Si14  1  0.210644  0.462344  0.251046  1
  Si  Si15  1  0.210644  0.959597  0.748299  1
  Si  Si16  1  0.502981  0.734592  0.243609  1
  Si  Si17  1  0.502981  0.259372  0.768390  1
  Si  Si18  1  0.797116  0.550570  0.761769  1
  Rh  Rh19  1  0.548981  0.143666  0.405315  1
