# generated using pymatgen
data_Cs12TmLuSe8
_symmetry_space_group_name_H-M   'P 1'
_cell_length_a   11.57013100
_cell_length_b   11.57013129
_cell_length_c   8.78250100
_cell_angle_alpha   90.00000000
_cell_angle_beta   90.00000000
_cell_angle_gamma   119.99999630
_symmetry_Int_Tables_number   1
_chemical_formula_structural   Cs12TmLuSe8
_chemical_formula_sum   'Cs12 Tm1 Lu1 Se8'
_cell_volume   1018.18200973
_cell_formula_units_Z   1
loop_
 _symmetry_equiv_pos_site_id
 _symmetry_equiv_pos_as_xyz
  1  'x, y, z'
loop_
 _atom_site_type_symbol
 _atom_site_label
 _atom_site_symmetry_multiplicity
 _atom_site_fract_x
 _atom_site_fract_y
 _atom_site_fract_z
 _atom_site_occupancy
  Cs  Cs0  1  0.133158  0.866842  0.546247  1
  Cs  Cs1  1  0.267387  0.133694  0.045271  1
  Cs  Cs2  1  0.866306  0.732613  0.045271  1
  Cs  Cs3  1  0.133158  0.266316  0.546247  1
  Cs  Cs4  1  0.733684  0.866842  0.546247  1
  Cs  Cs5  1  0.866306  0.133694  0.045271  1
  Cs  Cs6  1  0.532631  0.467369  0.359852  1
  Cs  Cs7  1  0.062476  0.531238  0.859075  1
  Cs  Cs8  1  0.468762  0.937524  0.859075  1
  Cs  Cs9  1  0.532631  0.065263  0.359852  1
  Cs  Cs10  1  0.934737  0.467369  0.359852  1
  Cs  Cs11  1  0.468762  0.531238  0.859075  1
  Tm  Tm12  1  0.666667  0.333333  0.758538  1
  Lu  Lu13  1  0.333333  0.666667  0.258241  1
  Se  Se14  1  0.333333  0.666667  0.564599  1
  Se  Se15  1  0.666667  0.333333  0.067236  1
  Se  Se16  1  0.206600  0.793400  0.157104  1
  Se  Se17  1  0.411731  0.205865  0.656048  1
  Se  Se18  1  0.794135  0.588269  0.656048  1
  Se  Se19  1  0.206600  0.413202  0.157104  1
  Se  Se20  1  0.586798  0.793400  0.157104  1
  Se  Se21  1  0.794135  0.205865  0.656048  1
