# generated using pymatgen
data_La2YRh2
_symmetry_space_group_name_H-M   'P 1'
_cell_length_a   7.63869442
_cell_length_b   7.63869398
_cell_length_c   7.63869529
_cell_angle_alpha   71.03666269
_cell_angle_beta   71.03666303
_cell_angle_gamma   71.03666050
_symmetry_Int_Tables_number   1
_chemical_formula_structural   La2YRh2
_chemical_formula_sum   'La6 Y3 Rh6'
_cell_volume   386.47127279
_cell_formula_units_Z   3
loop_
 _symmetry_equiv_pos_site_id
 _symmetry_equiv_pos_as_xyz
  1  'x, y, z'
loop_
 _atom_site_type_symbol
 _atom_site_label
 _atom_site_symmetry_multiplicity
 _atom_site_fract_x
 _atom_site_fract_y
 _atom_site_fract_z
 _atom_site_occupancy
  La  La0  1  0.160735  0.389248  0.670465  1
  La  La1  1  0.670465  0.160735  0.389248  1
  La  La2  1  0.389248  0.670465  0.160735  1
  La  La3  1  0.839265  0.610752  0.329535  1
  La  La4  1  0.329535  0.839265  0.610752  1
  La  La5  1  0.610752  0.329535  0.839265  1
  Y  Y6  1  0.000000  0.000000  0.000000  1
  Y  Y7  1  0.801484  0.801484  0.801484  1
  Y  Y8  1  0.198516  0.198516  0.198516  1
  Rh  Rh9  1  0.957155  0.161943  0.592467  1
  Rh  Rh10  1  0.592467  0.957155  0.161943  1
  Rh  Rh11  1  0.161943  0.592467  0.957155  1
  Rh  Rh12  1  0.042845  0.838057  0.407533  1
  Rh  Rh13  1  0.407533  0.042845  0.838057  1
  Rh  Rh14  1  0.838057  0.407533  0.042845  1
