# generated using pymatgen
data_CeGd5HfO12
_symmetry_space_group_name_H-M   'P 1'
_cell_length_a   6.57222486
_cell_length_b   6.60343570
_cell_length_c   6.60078300
_cell_angle_alpha   98.85185726
_cell_angle_beta   98.71658847
_cell_angle_gamma   98.94995642
_symmetry_Int_Tables_number   1
_chemical_formula_structural   CeGd5HfO12
_chemical_formula_sum   'Ce1 Gd5 Hf1 O12'
_cell_volume   275.05451106
_cell_formula_units_Z   1
loop_
 _symmetry_equiv_pos_site_id
 _symmetry_equiv_pos_as_xyz
  1  'x, y, z'
loop_
 _atom_site_type_symbol
 _atom_site_label
 _atom_site_symmetry_multiplicity
 _atom_site_fract_x
 _atom_site_fract_y
 _atom_site_fract_z
 _atom_site_occupancy
  Ce  Ce0  1  0.862615  0.394916  0.701241  1
  Gd  Gd1  1  0.607516  0.295014  0.136396  1
  Gd  Gd2  1  0.296416  0.134053  0.609039  1
  Gd  Gd3  1  0.704203  0.863591  0.389564  1
  Gd  Gd4  1  0.393536  0.705467  0.864872  1
  Gd  Gd5  1  0.136192  0.608702  0.296757  1
  Hf  Hf6  1  0.000192  0.002129  0.001530  1
  O  O7  1  0.929700  0.052822  0.691784  1
  O  O8  1  0.950468  0.309067  0.068014  1
  O  O9  1  0.590533  0.177815  0.439113  1
  O  O10  1  0.820869  0.562163  0.415142  1
  O  O11  1  0.308960  0.068503  0.949420  1
  O  O12  1  0.571158  0.414661  0.820962  1
  O  O13  1  0.435533  0.587888  0.175904  1
  O  O14  1  0.691636  0.930943  0.049591  1
  O  O15  1  0.171995  0.433835  0.591743  1
  O  O16  1  0.412024  0.819246  0.563474  1
  O  O17  1  0.045976  0.689795  0.927367  1
  O  O18  1  0.070480  0.949384  0.308086  1
