# generated using pymatgen
data_Ca2NdCd(Ru2O7)2
_symmetry_space_group_name_H-M   'P 1'
_cell_length_a   7.27297392
_cell_length_b   7.26937319
_cell_length_c   7.26937254
_cell_angle_alpha   60.48442621
_cell_angle_beta   60.72152461
_cell_angle_gamma   60.72152438
_symmetry_Int_Tables_number   1
_chemical_formula_structural   Ca2NdCd(Ru2O7)2
_chemical_formula_sum   'Ca2 Nd1 Cd1 Ru4 O14'
_cell_volume   275.70267077
_cell_formula_units_Z   1
loop_
 _symmetry_equiv_pos_site_id
 _symmetry_equiv_pos_as_xyz
  1  'x, y, z'
loop_
 _atom_site_type_symbol
 _atom_site_label
 _atom_site_symmetry_multiplicity
 _atom_site_fract_x
 _atom_site_fract_y
 _atom_site_fract_z
 _atom_site_occupancy
  Ca  Ca0  1  0.125000  0.625000  0.125000  1
  Ca  Ca1  1  0.125000  0.125000  0.625000  1
  Nd  Nd2  1  0.625000  0.125000  0.125000  1
  Cd  Cd3  1  0.125000  0.125000  0.125000  1
  Ru  Ru4  1  0.625000  0.125000  0.625000  1
  Ru  Ru5  1  0.625000  0.625000  0.125000  1
  Ru  Ru6  1  0.125000  0.625000  0.625000  1
  Ru  Ru7  1  0.625000  0.625000  0.625000  1
  O  O8  1  0.704157  0.702557  0.297808  1
  O  O9  1  0.942285  0.555400  0.555400  1
  O  O10  1  0.551774  0.946105  0.946105  1
  O  O11  1  0.937480  0.941083  0.561382  1
  O  O12  1  0.937480  0.561382  0.941083  1
  O  O13  1  0.545843  0.952192  0.547443  1
  O  O14  1  0.312520  0.688618  0.308917  1
  O  O15  1  0.307715  0.694600  0.694600  1
  O  O16  1  0.698226  0.303895  0.303895  1
  O  O17  1  0.704157  0.297808  0.702557  1
  O  O18  1  0.545843  0.547443  0.952192  1
  O  O19  1  0.312520  0.308917  0.688618  1
  O  O20  1  0.240545  0.247221  0.247221  1
  O  O21  1  0.009455  0.002779  0.002779  1
