# generated using pymatgen
data_PrNd(Ga3Pt)2
_symmetry_space_group_name_H-M   'P 1'
_cell_length_a   6.10743612
_cell_length_b   6.10743670
_cell_length_c   6.02992300
_cell_angle_alpha   90.00000000
_cell_angle_beta   90.00000000
_cell_angle_gamma   117.80859270
_symmetry_Int_Tables_number   1
_chemical_formula_structural   PrNd(Ga3Pt)2
_chemical_formula_sum   'Pr1 Nd1 Ga6 Pt2'
_cell_volume   198.94495142
_cell_formula_units_Z   1
loop_
 _symmetry_equiv_pos_site_id
 _symmetry_equiv_pos_as_xyz
  1  'x, y, z'
loop_
 _atom_site_type_symbol
 _atom_site_label
 _atom_site_symmetry_multiplicity
 _atom_site_fract_x
 _atom_site_fract_y
 _atom_site_fract_z
 _atom_site_occupancy
  Pr  Pr0  1  0.763263  0.236737  0.250000  1
  Nd  Nd1  1  0.235968  0.764032  0.750000  1
  Ga  Ga2  1  0.660265  0.339735  0.750000  1
  Ga  Ga3  1  0.339871  0.660129  0.250000  1
  Ga  Ga4  1  0.725247  0.725055  0.999758  1
  Ga  Ga5  1  0.725247  0.725055  0.500242  1
  Ga  Ga6  1  0.274945  0.274753  0.999758  1
  Ga  Ga7  1  0.274945  0.274753  0.500242  1
  Pt  Pt8  1  0.895698  0.104302  0.750000  1
  Pt  Pt9  1  0.104549  0.895451  0.250000  1
