# generated using pymatgen
data_Tb2MnCr2FeNi8P7
_symmetry_space_group_name_H-M   'P 1'
_cell_length_a   9.11420800
_cell_length_b   9.15801410
_cell_length_c   3.67026800
_cell_angle_alpha   90.00000000
_cell_angle_beta   90.00000000
_cell_angle_gamma   119.97453755
_symmetry_Int_Tables_number   1
_chemical_formula_structural   Tb2MnCr2FeNi8P7
_chemical_formula_sum   'Tb2 Mn1 Cr2 Fe1 Ni8 P7'
_cell_volume   265.37501080
_cell_formula_units_Z   1
loop_
 _symmetry_equiv_pos_site_id
 _symmetry_equiv_pos_as_xyz
  1  'x, y, z'
loop_
 _atom_site_type_symbol
 _atom_site_label
 _atom_site_symmetry_multiplicity
 _atom_site_fract_x
 _atom_site_fract_y
 _atom_site_fract_z
 _atom_site_occupancy
  Tb  Tb0  1  0.666592  0.331645  0.000000  1
  Tb  Tb1  1  0.334390  0.668814  0.500000  1
  Mn  Mn2  1  0.121239  0.221166  0.500000  1
  Cr  Cr3  1  0.097867  0.881617  0.500000  1
  Cr  Cr4  1  0.783428  0.901250  0.500000  1
  Fe  Fe5  1  0.879537  0.156412  0.000000  1
  Ni  Ni6  1  0.059911  0.625394  0.000000  1
  Ni  Ni7  1  0.565862  0.937151  0.000000  1
  Ni  Ni8  1  0.370882  0.433716  0.000000  1
  Ni  Ni9  1  0.276199  0.123164  0.000000  1
  Ni  Ni10  1  0.845469  0.720671  0.000000  1
  Ni  Ni11  1  0.438382  0.052995  0.500000  1
  Ni  Ni12  1  0.614338  0.563105  0.500000  1
  Ni  Ni13  1  0.949078  0.385153  0.500000  1
  P  P14  1  0.292819  0.887265  0.000000  1
  P  P15  1  0.593919  0.706151  0.000000  1
  P  P16  1  0.110049  0.405376  0.000000  1
  P  P17  1  0.403871  0.290188  0.500000  1
  P  P18  1  0.886208  0.596879  0.500000  1
  P  P19  1  0.714101  0.112556  0.500000  1
  P  P20  1  0.995856  0.999333  0.000000  1
