# generated using pymatgen
data_Pr5P12Pd2Ru17
_symmetry_space_group_name_H-M   'P 1'
_cell_length_a   12.67914182
_cell_length_b   12.77946241
_cell_length_c   4.03005400
_cell_angle_alpha   90.00000000
_cell_angle_beta   90.00000000
_cell_angle_gamma   120.26208120
_symmetry_Int_Tables_number   1
_chemical_formula_structural   Pr5P12Pd2Ru17
_chemical_formula_sum   'Pr5 P12 Pd2 Ru17'
_cell_volume   564.01537475
_cell_formula_units_Z   1
loop_
 _symmetry_equiv_pos_site_id
 _symmetry_equiv_pos_as_xyz
  1  'x, y, z'
loop_
 _atom_site_type_symbol
 _atom_site_label
 _atom_site_symmetry_multiplicity
 _atom_site_fract_x
 _atom_site_fract_y
 _atom_site_fract_z
 _atom_site_occupancy
  Pr  Pr0  1  0.182718  0.181810  0.500000  1
  Pr  Pr1  1  0.817282  0.999093  0.500000  1
  Pr  Pr2  1  0.000000  0.815950  0.500000  1
  Pr  Pr3  1  0.328343  0.664230  0.000000  1
  Pr  Pr4  1  0.671657  0.335886  0.000000  1
  P  P5  1  0.809416  0.810716  0.000000  1
  P  P6  1  0.190584  0.001299  0.000000  1
  P  P7  1  0.000000  0.185621  0.000000  1
  P  P8  1  0.169055  0.475219  0.500000  1
  P  P9  1  0.519903  0.700563  0.500000  1
  P  P10  1  0.297981  0.823168  0.500000  1
  P  P11  1  0.702019  0.525189  0.500000  1
  P  P12  1  0.830945  0.306164  0.500000  1
  P  P13  1  0.480097  0.180661  0.500000  1
  P  P14  1  0.368690  0.368445  0.000000  1
  P  P15  1  0.631310  0.999756  0.000000  1
  P  P16  1  0.000000  0.623413  0.000000  1
  Pd  Pd17  1  0.552530  0.553151  0.000000  1
  Pd  Pd18  1  0.447470  0.000621  0.000000  1
  Ru  Ru19  1  0.000000  0.444332  0.000000  1
  Ru  Ru20  1  0.709801  0.711794  0.500000  1
  Ru  Ru21  1  0.290199  0.001993  0.500000  1
  Ru  Ru22  1  0.000000  0.283947  0.500000  1
  Ru  Ru23  1  0.184492  0.377576  0.000000  1
  Ru  Ru24  1  0.617724  0.804507  0.000000  1
  Ru  Ru25  1  0.193131  0.815732  0.000000  1
  Ru  Ru26  1  0.806869  0.622602  0.000000  1
  Ru  Ru27  1  0.815508  0.193083  0.000000  1
  Ru  Ru28  1  0.382276  0.186783  0.000000  1
  Ru  Ru29  1  0.366064  0.492395  0.500000  1
  Ru  Ru30  1  0.508392  0.879005  0.500000  1
  Ru  Ru31  1  0.122574  0.631648  0.500000  1
  Ru  Ru32  1  0.877426  0.509074  0.500000  1
  Ru  Ru33  1  0.633936  0.126331  0.500000  1
  Ru  Ru34  1  0.491608  0.370613  0.500000  1
  Ru  Ru35  1  0.000000  0.997630  0.000000  1
