# generated using pymatgen
data_Hf18MnCuRe8
_symmetry_space_group_name_H-M   'P 1'
_cell_length_a   8.57948400
_cell_length_b   8.57948392
_cell_length_c   8.54239600
_cell_angle_alpha   90.00000000
_cell_angle_beta   90.00000000
_cell_angle_gamma   120.00000032
_symmetry_Int_Tables_number   1
_chemical_formula_structural   Hf18MnCuRe8
_chemical_formula_sum   'Hf18 Mn1 Cu1 Re8'
_cell_volume   544.54360680
_cell_formula_units_Z   1
loop_
 _symmetry_equiv_pos_site_id
 _symmetry_equiv_pos_as_xyz
  1  'x, y, z'
loop_
 _atom_site_type_symbol
 _atom_site_label
 _atom_site_symmetry_multiplicity
 _atom_site_fract_x
 _atom_site_fract_y
 _atom_site_fract_z
 _atom_site_occupancy
  Hf  Hf0  1  0.194936  0.805064  0.445816  1
  Hf  Hf1  1  0.194936  0.389871  0.445816  1
  Hf  Hf2  1  0.610129  0.805064  0.445816  1
  Hf  Hf3  1  0.799319  0.200681  0.557882  1
  Hf  Hf4  1  0.799319  0.598639  0.557882  1
  Hf  Hf5  1  0.401361  0.200681  0.557882  1
  Hf  Hf6  1  0.799319  0.200681  0.942118  1
  Hf  Hf7  1  0.799319  0.598639  0.942118  1
  Hf  Hf8  1  0.401361  0.200681  0.942118  1
  Hf  Hf9  1  0.194936  0.805064  0.054184  1
  Hf  Hf10  1  0.194936  0.389871  0.054184  1
  Hf  Hf11  1  0.610129  0.805064  0.054184  1
  Hf  Hf12  1  0.541147  0.458853  0.250000  1
  Hf  Hf13  1  0.541147  0.082294  0.250000  1
  Hf  Hf14  1  0.917706  0.458853  0.250000  1
  Hf  Hf15  1  0.459616  0.540384  0.750000  1
  Hf  Hf16  1  0.459616  0.919231  0.750000  1
  Hf  Hf17  1  0.080769  0.540384  0.750000  1
  Mn  Mn18  1  0.666667  0.333333  0.750000  1
  Cu  Cu19  1  0.333333  0.666667  0.250000  1
  Re  Re20  1  0.888995  0.111005  0.250000  1
  Re  Re21  1  0.888995  0.777988  0.250000  1
  Re  Re22  1  0.222012  0.111005  0.250000  1
  Re  Re23  1  0.110159  0.889841  0.750000  1
  Re  Re24  1  0.110159  0.220318  0.750000  1
  Re  Re25  1  0.779682  0.889841  0.750000  1
  Re  Re26  1  0.000000  0.000000  0.499631  1
  Re  Re27  1  0.000000  0.000000  0.000369  1
