# generated using pymatgen
data_DyNpB6Mo
_symmetry_space_group_name_H-M   'P 1'
_cell_length_a   3.63079500
_cell_length_b   9.33467200
_cell_length_c   11.39801200
_cell_angle_alpha   90.00000000
_cell_angle_beta   90.00000000
_cell_angle_gamma   90.00000000
_symmetry_Int_Tables_number   1
_chemical_formula_structural   DyNpB6Mo
_chemical_formula_sum   'Dy4 Np4 B24 Mo4'
_cell_volume   386.30461898
_cell_formula_units_Z   4
loop_
 _symmetry_equiv_pos_site_id
 _symmetry_equiv_pos_as_xyz
  1  'x, y, z'
loop_
 _atom_site_type_symbol
 _atom_site_label
 _atom_site_symmetry_multiplicity
 _atom_site_fract_x
 _atom_site_fract_y
 _atom_site_fract_z
 _atom_site_occupancy
  Dy  Dy0  1  0.000000  0.338281  0.408005  1
  Dy  Dy1  1  0.000000  0.661719  0.591995  1
  Dy  Dy2  1  0.000000  0.838281  0.091995  1
  Dy  Dy3  1  0.000000  0.161719  0.908005  1
  Np  Np4  1  0.000000  0.959089  0.400449  1
  Np  Np5  1  0.000000  0.040911  0.599551  1
  Np  Np6  1  0.000000  0.459089  0.099551  1
  Np  Np7  1  0.000000  0.540911  0.900449  1
  B  B8  1  0.500000  0.552320  0.431920  1
  B  B9  1  0.500000  0.447680  0.568080  1
  B  B10  1  0.500000  0.052320  0.068080  1
  B  B11  1  0.500000  0.947680  0.931920  1
  B  B12  1  0.500000  0.746479  0.423650  1
  B  B13  1  0.500000  0.253521  0.576350  1
  B  B14  1  0.500000  0.246479  0.076350  1
  B  B15  1  0.500000  0.753521  0.923650  1
  B  B16  1  0.500000  0.806444  0.275236  1
  B  B17  1  0.500000  0.193556  0.724764  1
  B  B18  1  0.500000  0.306444  0.224764  1
  B  B19  1  0.500000  0.693556  0.775236  1
  B  B20  1  0.500000  0.644165  0.186888  1
  B  B21  1  0.500000  0.355835  0.813112  1
  B  B22  1  0.500000  0.144165  0.313112  1
  B  B23  1  0.500000  0.855835  0.686888  1
  B  B24  1  0.500000  0.988422  0.221597  1
  B  B25  1  0.500000  0.011578  0.778403  1
  B  B26  1  0.500000  0.488422  0.278403  1
  B  B27  1  0.500000  0.511578  0.721597  1
  B  B28  1  0.500000  0.638089  0.038293  1
  B  B29  1  0.500000  0.361911  0.961707  1
  B  B30  1  0.500000  0.138089  0.461707  1
  B  B31  1  0.500000  0.861911  0.538293  1
  Mo  Mo32  1  0.000000  0.647741  0.317626  1
  Mo  Mo33  1  0.000000  0.352259  0.682374  1
  Mo  Mo34  1  0.000000  0.147741  0.182374  1
  Mo  Mo35  1  0.000000  0.852259  0.817626  1
