# generated using pymatgen
data_Gd8Si13Pt3
_symmetry_space_group_name_H-M   'P 1'
_cell_length_a   8.13630100
_cell_length_b   8.13630131
_cell_length_c   8.07730400
_cell_angle_alpha   90.00000000
_cell_angle_beta   90.00000000
_cell_angle_gamma   119.99999469
_symmetry_Int_Tables_number   1
_chemical_formula_structural   Gd8Si13Pt3
_chemical_formula_sum   'Gd8 Si13 Pt3'
_cell_volume   463.07476314
_cell_formula_units_Z   1
loop_
 _symmetry_equiv_pos_site_id
 _symmetry_equiv_pos_as_xyz
  1  'x, y, z'
loop_
 _atom_site_type_symbol
 _atom_site_label
 _atom_site_symmetry_multiplicity
 _atom_site_fract_x
 _atom_site_fract_y
 _atom_site_fract_z
 _atom_site_occupancy
  Gd  Gd0  1  0.000000  0.000000  0.252052  1
  Gd  Gd1  1  0.000000  0.000000  0.748280  1
  Gd  Gd2  1  0.997925  0.498963  0.252823  1
  Gd  Gd3  1  0.501037  0.498963  0.252823  1
  Gd  Gd4  1  0.502887  0.005773  0.746681  1
  Gd  Gd5  1  0.501037  0.002075  0.252823  1
  Gd  Gd6  1  0.502887  0.497113  0.746681  1
  Gd  Gd7  1  0.994227  0.497113  0.746681  1
  Si  Si8  1  0.165881  0.331759  0.998900  1
  Si  Si9  1  0.668241  0.834119  0.998900  1
  Si  Si10  1  0.165858  0.331715  0.500455  1
  Si  Si11  1  0.330265  0.165134  0.001407  1
  Si  Si12  1  0.165881  0.834119  0.998900  1
  Si  Si13  1  0.668285  0.834142  0.500455  1
  Si  Si14  1  0.834866  0.669735  0.001407  1
  Si  Si15  1  0.331594  0.165797  0.499757  1
  Si  Si16  1  0.165858  0.834142  0.500455  1
  Si  Si17  1  0.834203  0.668406  0.499757  1
  Si  Si18  1  0.834866  0.165134  0.001407  1
  Si  Si19  1  0.834203  0.165797  0.499757  1
  Si  Si20  1  0.666667  0.333333  0.497727  1
  Pt  Pt21  1  0.333333  0.666667  0.998893  1
  Pt  Pt22  1  0.333333  0.666667  0.502207  1
  Pt  Pt23  1  0.666667  0.333333  0.000774  1
