# generated using pymatgen
data_Pu8Zn2CoSi12Pd
_symmetry_space_group_name_H-M   'P 1'
_cell_length_a   8.16228900
_cell_length_b   8.16228821
_cell_length_c   8.00138100
_cell_angle_alpha   90.00000000
_cell_angle_beta   90.00000000
_cell_angle_gamma   119.99999916
_symmetry_Int_Tables_number   1
_chemical_formula_structural   Pu8Zn2CoSi12Pd
_chemical_formula_sum   'Pu8 Zn2 Co1 Si12 Pd1'
_cell_volume   461.65705745
_cell_formula_units_Z   1
loop_
 _symmetry_equiv_pos_site_id
 _symmetry_equiv_pos_as_xyz
  1  'x, y, z'
loop_
 _atom_site_type_symbol
 _atom_site_label
 _atom_site_symmetry_multiplicity
 _atom_site_fract_x
 _atom_site_fract_y
 _atom_site_fract_z
 _atom_site_occupancy
  Pu  Pu0  1  0.495253  0.990507  0.245578  1
  Pu  Pu1  1  0.493204  0.986406  0.755070  1
  Pu  Pu2  1  0.009493  0.504747  0.245578  1
  Pu  Pu3  1  0.013594  0.506796  0.755070  1
  Pu  Pu4  1  0.495253  0.504747  0.245578  1
  Pu  Pu5  1  0.493204  0.506796  0.755070  1
  Pu  Pu6  1  0.000000  0.000000  0.248716  1
  Pu  Pu7  1  0.000000  0.000000  0.751078  1
  Zn  Zn8  1  0.666667  0.333333  0.993571  1
  Zn  Zn9  1  0.666667  0.333333  0.506078  1
  Co  Co10  1  0.333333  0.666667  0.992462  1
  Si  Si11  1  0.169539  0.339079  0.002402  1
  Si  Si12  1  0.836320  0.672640  0.000145  1
  Si  Si13  1  0.660921  0.830461  0.002402  1
  Si  Si14  1  0.834871  0.669741  0.501324  1
  Si  Si15  1  0.327360  0.163680  0.000145  1
  Si  Si16  1  0.163774  0.327547  0.497599  1
  Si  Si17  1  0.169539  0.830461  0.002402  1
  Si  Si18  1  0.330259  0.165129  0.501324  1
  Si  Si19  1  0.836320  0.163680  0.000145  1
  Si  Si20  1  0.672453  0.836226  0.497599  1
  Si  Si21  1  0.834871  0.165129  0.501324  1
  Si  Si22  1  0.163774  0.836226  0.497599  1
  Pd  Pd23  1  0.333333  0.666667  0.501741  1
