# generated using pymatgen
data_SrNd(Zn9Ag2)2
_symmetry_space_group_name_H-M   'P 1'
_cell_length_a   8.40671250
_cell_length_b   8.40671142
_cell_length_c   8.40871300
_cell_angle_alpha   99.84062157
_cell_angle_beta   99.50121779
_cell_angle_gamma   131.60150395
_symmetry_Int_Tables_number   1
_chemical_formula_structural   SrNd(Zn9Ag2)2
_chemical_formula_sum   'Sr1 Nd1 Zn18 Ag4'
_cell_volume   405.34819210
_cell_formula_units_Z   1
loop_
 _symmetry_equiv_pos_site_id
 _symmetry_equiv_pos_as_xyz
  1  'x, y, z'
loop_
 _atom_site_type_symbol
 _atom_site_label
 _atom_site_symmetry_multiplicity
 _atom_site_fract_x
 _atom_site_fract_y
 _atom_site_fract_z
 _atom_site_occupancy
  Sr  Sr0  1  0.001263  0.001263  0.999999  1
  Nd  Nd1  1  0.248450  0.748451  0.500000  1
  Zn  Zn2  1  0.625334  0.378330  0.748026  1
  Zn  Zn3  1  0.125273  0.374177  0.745447  1
  Zn  Zn4  1  0.628729  0.379825  0.254552  1
  Zn  Zn5  1  0.630304  0.877308  0.251975  1
  Zn  Zn6  1  0.181327  0.098640  0.667143  1
  Zn  Zn7  1  0.759216  0.932527  0.583249  1
  Zn  Zn8  1  0.349279  0.175967  0.416751  1
  Zn  Zn9  1  0.431496  0.514183  0.332857  1
  Zn  Zn10  1  0.904270  0.818661  0.330223  1
  Zn  Zn11  1  0.488438  0.574048  0.669777  1
  Zn  Zn12  1  0.068840  0.242852  0.414084  1
  Zn  Zn13  1  0.828767  0.654756  0.585916  1
  Zn  Zn14  1  0.062346  0.642844  0.826565  1
  Zn  Zn15  1  0.487401  0.814710  0.916556  1
  Zn  Zn16  1  0.898154  0.570845  0.083444  1
  Zn  Zn17  1  0.816279  0.235782  0.173436  1
  Zn  Zn18  1  0.350590  0.935552  0.177744  1
  Zn  Zn19  1  0.757807  0.172845  0.822255  1
  Ag  Ag20  1  0.421842  0.091620  0.912931  1
  Ag  Ag21  1  0.178688  0.508911  0.087069  1
  Ag  Ag22  1  0.506993  0.506993  0.000000  1
  Ag  Ag23  1  0.748913  0.248914  0.500000  1
