# generated using pymatgen
data_Ho3Er5Ti11Si16Os
_symmetry_space_group_name_H-M   'P 1'
_cell_length_a   6.99900479
_cell_length_b   6.99894731
_cell_length_c   12.84321902
_cell_angle_alpha   90.03369801
_cell_angle_beta   89.97408257
_cell_angle_gamma   89.92838432
_symmetry_Int_Tables_number   1
_chemical_formula_structural   Ho3Er5Ti11Si16Os
_chemical_formula_sum   'Ho3 Er5 Ti11 Si16 Os1'
_cell_volume   629.13296898
_cell_formula_units_Z   1
loop_
 _symmetry_equiv_pos_site_id
 _symmetry_equiv_pos_as_xyz
  1  'x, y, z'
loop_
 _atom_site_type_symbol
 _atom_site_label
 _atom_site_symmetry_multiplicity
 _atom_site_fract_x
 _atom_site_fract_y
 _atom_site_fract_z
 _atom_site_occupancy
  Ho  Ho0  1  0.340681  0.004088  0.467394  1
  Ho  Ho1  1  0.497000  0.840565  0.718269  1
  Ho  Ho2  1  0.499972  0.159348  0.214975  1
  Er  Er3  1  0.840822  0.497297  0.281738  1
  Er  Er4  1  0.159342  0.499498  0.785109  1
  Er  Er5  1  0.657843  0.998807  0.968667  1
  Er  Er6  1  0.003657  0.341150  0.532602  1
  Er  Er7  1  0.998832  0.657851  0.031378  1
  Ti  Ti8  1  0.174105  0.827577  0.248159  1
  Ti  Ti9  1  0.827850  0.174379  0.751842  1
  Ti  Ti10  1  0.674070  0.673715  0.499977  1
  Ti  Ti11  1  0.150834  0.003487  0.875284  1
  Ti  Ti12  1  0.492175  0.655356  0.124652  1
  Ti  Ti13  1  0.506900  0.349420  0.628094  1
  Ti  Ti14  1  0.655428  0.492233  0.875331  1
  Ti  Ti15  1  0.349354  0.506742  0.371971  1
  Ti  Ti16  1  0.848811  0.994055  0.375042  1
  Ti  Ti17  1  0.003292  0.151005  0.124737  1
  Ti  Ti18  1  0.994069  0.848711  0.624995  1
  Si  Si19  1  0.202595  0.132327  0.684849  1
  Si  Si20  1  0.371853  0.699574  0.933387  1
  Si  Si21  1  0.632117  0.297439  0.434235  1
  Si  Si22  1  0.700071  0.372340  0.066608  1
  Si  Si23  1  0.296533  0.630956  0.565771  1
  Si  Si24  1  0.796760  0.867536  0.183411  1
  Si  Si25  1  0.131146  0.203531  0.315150  1
  Si  Si26  1  0.868424  0.796353  0.816665  1
  Si  Si27  1  0.287416  0.954869  0.064191  1
  Si  Si28  1  0.547203  0.791818  0.315195  1
  Si  Si29  1  0.450301  0.209206  0.818438  1
  Si  Si30  1  0.792919  0.546487  0.684734  1
  Si  Si31  1  0.208422  0.450735  0.181660  1
  Si  Si32  1  0.708798  0.048365  0.565777  1
  Si  Si33  1  0.955281  0.287762  0.935645  1
  Si  Si34  1  0.047595  0.707683  0.434195  1
  Os  Os35  1  0.327530  0.327736  0.999872  1
