# generated using pymatgen
data_Y2Er2Ga3SiRu4
_symmetry_space_group_name_H-M   'P 1'
_cell_length_a   4.44675900
_cell_length_b   7.10683707
_cell_length_c   7.15448421
_cell_angle_alpha   90.26892912
_cell_angle_beta   90.00000000
_cell_angle_gamma   90.00000000
_symmetry_Int_Tables_number   1
_chemical_formula_structural   Y2Er2Ga3SiRu4
_chemical_formula_sum   'Y2 Er2 Ga3 Si1 Ru4'
_cell_volume   226.09632205
_cell_formula_units_Z   1
loop_
 _symmetry_equiv_pos_site_id
 _symmetry_equiv_pos_as_xyz
  1  'x, y, z'
loop_
 _atom_site_type_symbol
 _atom_site_label
 _atom_site_symmetry_multiplicity
 _atom_site_fract_x
 _atom_site_fract_y
 _atom_site_fract_z
 _atom_site_occupancy
  Y  Y0  1  0.750000  0.013833  0.193038  1
  Y  Y1  1  0.750000  0.513451  0.308474  1
  Er  Er2  1  0.250000  0.985030  0.805409  1
  Er  Er3  1  0.250000  0.476661  0.696416  1
  Ga  Ga4  1  0.250000  0.301891  0.106547  1
  Ga  Ga5  1  0.750000  0.694968  0.891060  1
  Ga  Ga6  1  0.250000  0.800192  0.398366  1
  Si  Si7  1  0.750000  0.197218  0.601982  1
  Ru  Ru8  1  0.750000  0.858252  0.567773  1
  Ru  Ru9  1  0.250000  0.164283  0.448478  1
  Ru  Ru10  1  0.750000  0.332178  0.919295  1
  Ru  Ru11  1  0.250000  0.662043  0.063163  1
