# generated using pymatgen
data_Li2Yb6Ag14N
_symmetry_space_group_name_H-M   'P 1'
_cell_length_a   8.53188289
_cell_length_b   8.43081985
_cell_length_c   8.47707011
_cell_angle_alpha   109.32782772
_cell_angle_beta   109.81009863
_cell_angle_gamma   109.29678928
_symmetry_Int_Tables_number   1
_chemical_formula_structural   Li2Yb6Ag14N
_chemical_formula_sum   'Li2 Yb6 Ag14 N1'
_cell_volume   469.26423476
_cell_formula_units_Z   1
loop_
 _symmetry_equiv_pos_site_id
 _symmetry_equiv_pos_as_xyz
  1  'x, y, z'
loop_
 _atom_site_type_symbol
 _atom_site_label
 _atom_site_symmetry_multiplicity
 _atom_site_fract_x
 _atom_site_fract_y
 _atom_site_fract_z
 _atom_site_occupancy
  Li  Li0  1  0.690638  0.344860  0.344089  1
  Li  Li1  1  0.346548  0.000771  0.655911  1
  Yb  Yb2  1  0.002981  0.255481  0.255918  1
  Yb  Yb3  1  0.251572  0.997560  0.251671  1
  Yb  Yb4  1  0.747062  0.999563  0.744082  1
  Yb  Yb5  1  0.741727  0.741949  0.000000  1
  Yb  Yb6  1  0.252446  0.258278  0.000000  1
  Yb  Yb7  1  0.999901  0.745889  0.748329  1
  Ag  Ag8  1  0.501335  0.496756  0.497016  1
  Ag  Ag9  1  0.497979  0.004786  0.000000  1
  Ag  Ag10  1  0.999040  0.499618  0.000000  1
  Ag  Ag11  1  0.004319  0.999740  0.502984  1
  Ag  Ag12  1  0.350759  0.700383  0.350622  1
  Ag  Ag13  1  0.349782  0.343252  0.694828  1
  Ag  Ag14  1  0.348657  0.652875  0.000000  1
  Ag  Ag15  1  0.000136  0.349762  0.649378  1
  Ag  Ag16  1  0.003958  0.653008  0.352917  1
  Ag  Ag17  1  0.654954  0.648424  0.305172  1
  Ag  Ag18  1  0.652131  0.004879  0.349560  1
  Ag  Ag19  1  0.649961  0.346552  0.000000  1
  Ag  Ag20  1  0.651041  0.300092  0.647083  1
  Ag  Ag21  1  0.302571  0.655319  0.650440  1
  N  N22  1  0.000503  0.000205  0.000000  1
