# generated using pymatgen
data_CaTb4Sm2FeI12
_symmetry_space_group_name_H-M   'P 1'
_cell_length_a   9.85426709
_cell_length_b   9.77577478
_cell_length_c   9.77348639
_cell_angle_alpha   106.80036042
_cell_angle_beta   106.72327088
_cell_angle_gamma   107.08803968
_symmetry_Int_Tables_number   1
_chemical_formula_structural   CaTb4Sm2FeI12
_chemical_formula_sum   'Ca1 Tb4 Sm2 Fe1 I12'
_cell_volume   786.84411549
_cell_formula_units_Z   1
loop_
 _symmetry_equiv_pos_site_id
 _symmetry_equiv_pos_as_xyz
  1  'x, y, z'
loop_
 _atom_site_type_symbol
 _atom_site_label
 _atom_site_symmetry_multiplicity
 _atom_site_fract_x
 _atom_site_fract_y
 _atom_site_fract_z
 _atom_site_occupancy
  Ca  Ca0  1  0.499925  0.499865  0.499916  1
  Tb  Tb1  1  0.300870  0.024565  0.096918  1
  Tb  Tb2  1  0.906968  0.712463  0.975109  1
  Tb  Tb3  1  0.975408  0.906066  0.713236  1
  Tb  Tb4  1  0.698535  0.974276  0.901577  1
  Sm  Sm5  1  0.093945  0.290305  0.024182  1
  Sm  Sm6  1  0.024153  0.093369  0.289785  1
  Fe  Fe7  1  0.999951  0.000674  0.000204  1
  I  I8  1  0.458188  0.378347  0.150638  1
  I  I9  1  0.152916  0.460333  0.381927  1
  I  I10  1  0.379827  0.149803  0.456486  1
  I  I11  1  0.545793  0.621803  0.851132  1
  I  I12  1  0.849478  0.544500  0.622153  1
  I  I13  1  0.623870  0.850501  0.543985  1
  I  I14  1  0.773350  0.317314  0.926387  1
  I  I15  1  0.925575  0.770854  0.315749  1
  I  I16  1  0.316140  0.926560  0.774025  1
  I  I17  1  0.222857  0.683187  0.072382  1
  I  I18  1  0.072452  0.222705  0.680570  1
  I  I19  1  0.679799  0.072510  0.223640  1
