# generated using pymatgen
data_SmEr2P4Pd7
_symmetry_space_group_name_H-M   'P 1'
_cell_length_a   7.93455838
_cell_length_b   7.93455827
_cell_length_c   9.46853717
_cell_angle_alpha   55.93772410
_cell_angle_beta   55.93772327
_cell_angle_gamma   29.27854948
_symmetry_Int_Tables_number   1
_chemical_formula_structural   SmEr2P4Pd7
_chemical_formula_sum   'Sm1 Er2 P4 Pd7'
_cell_volume   237.71793418
_cell_formula_units_Z   1
loop_
 _symmetry_equiv_pos_site_id
 _symmetry_equiv_pos_as_xyz
  1  'x, y, z'
loop_
 _atom_site_type_symbol
 _atom_site_label
 _atom_site_symmetry_multiplicity
 _atom_site_fract_x
 _atom_site_fract_y
 _atom_site_fract_z
 _atom_site_occupancy
  Sm  Sm0  1  0.500000  0.500000  0.500000  1
  Er  Er1  1  0.820981  0.820981  0.175341  1
  Er  Er2  1  0.179019  0.179019  0.824659  1
  P  P3  1  0.393117  0.393117  0.317676  1
  P  P4  1  0.606883  0.606883  0.682324  1
  P  P5  1  0.838342  0.838342  0.756359  1
  P  P6  1  0.161658  0.161658  0.243641  1
  Pd  Pd7  1  0.670288  0.670288  0.074076  1
  Pd  Pd8  1  0.009858  0.009858  0.211806  1
  Pd  Pd9  1  0.990142  0.990142  0.788194  1
  Pd  Pd10  1  0.500000  0.500000  0.000000  1
  Pd  Pd11  1  0.195689  0.195689  0.469310  1
  Pd  Pd12  1  0.804311  0.804311  0.530690  1
  Pd  Pd13  1  0.329712  0.329712  0.925924  1
