# generated using pymatgen
data_Er16In6IrAu
_symmetry_space_group_name_H-M   'P 1'
_cell_length_a   10.45750900
_cell_length_b   10.45750786
_cell_length_c   6.92375700
_cell_angle_alpha   90.00000000
_cell_angle_beta   90.00000000
_cell_angle_gamma   119.99999413
_symmetry_Int_Tables_number   1
_chemical_formula_structural   Er16In6IrAu
_chemical_formula_sum   'Er16 In6 Ir1 Au1'
_cell_volume   655.73583999
_cell_formula_units_Z   1
loop_
 _symmetry_equiv_pos_site_id
 _symmetry_equiv_pos_as_xyz
  1  'x, y, z'
loop_
 _atom_site_type_symbol
 _atom_site_label
 _atom_site_symmetry_multiplicity
 _atom_site_fract_x
 _atom_site_fract_y
 _atom_site_fract_z
 _atom_site_occupancy
  Er  Er0  1  0.525818  0.051636  0.797024  1
  Er  Er1  1  0.948364  0.474182  0.797024  1
  Er  Er2  1  0.525818  0.474182  0.797024  1
  Er  Er3  1  0.466646  0.933293  0.295909  1
  Er  Er4  1  0.066707  0.533354  0.295909  1
  Er  Er5  1  0.466646  0.533354  0.295909  1
  Er  Er6  1  0.826798  0.653596  0.501280  1
  Er  Er7  1  0.346404  0.173202  0.501280  1
  Er  Er8  1  0.826798  0.173202  0.501280  1
  Er  Er9  1  0.176479  0.352956  0.005237  1
  Er  Er10  1  0.647044  0.823521  0.005237  1
  Er  Er11  1  0.176479  0.823521  0.005237  1
  Er  Er12  1  0.666667  0.333333  0.155383  1
  Er  Er13  1  0.333333  0.666667  0.675538  1
  Er  Er14  1  0.000000  0.000000  0.776027  1
  Er  Er15  1  0.000000  0.000000  0.277232  1
  In  In16  1  0.836960  0.673922  0.031933  1
  In  In17  1  0.326078  0.163040  0.031933  1
  In  In18  1  0.836960  0.163040  0.031933  1
  In  In19  1  0.162726  0.325451  0.539021  1
  In  In20  1  0.674549  0.837274  0.539021  1
  In  In21  1  0.162726  0.837274  0.539021  1
  Ir  Ir22  1  0.333333  0.666667  0.074465  1
  Au  Au23  1  0.666667  0.333333  0.566048  1
