# generated using pymatgen
data_NaS23
_symmetry_space_group_name_H-M   'P 1'
_cell_length_a   5.56105905
_cell_length_b   9.53370481
_cell_length_c   15.50002100
_cell_angle_alpha   90.71283024
_cell_angle_beta   79.22882771
_cell_angle_gamma   98.13659550
_symmetry_Int_Tables_number   1
_chemical_formula_structural   NaS23
_chemical_formula_sum   'Na1 S23'
_cell_volume   799.08423055
_cell_formula_units_Z   1
loop_
 _symmetry_equiv_pos_site_id
 _symmetry_equiv_pos_as_xyz
  1  'x, y, z'
loop_
 _atom_site_type_symbol
 _atom_site_label
 _atom_site_symmetry_multiplicity
 _atom_site_fract_x
 _atom_site_fract_y
 _atom_site_fract_z
 _atom_site_occupancy
  Na  Na0  1  0.380132  0.289722  0.453560  1
  S  S1  1  0.557625  0.789226  0.388135  1
  S  S2  1  0.025411  0.307156  0.111991  1
  S  S3  1  0.819203  0.237111  0.497598  1
  S  S4  1  0.312282  0.750110  0.505729  1
  S  S5  1  0.216848  0.274788  0.987691  1
  S  S6  1  0.783371  0.720927  0.012793  1
  S  S7  1  0.151137  0.383254  0.328222  1
  S  S8  1  0.672308  0.599527  0.343955  1
  S  S9  1  0.811043  0.118968  0.158922  1
  S  S10  1  0.210994  0.883525  0.120769  1
  S  S11  1  0.700306  0.638862  0.625065  1
  S  S12  1  0.339760  0.320333  0.643887  1
  S  S13  1  0.200836  0.883434  0.849543  1
  S  S14  1  0.793024  0.112816  0.878673  1
  S  S15  1  0.993979  0.693205  0.105942  1
  S  S16  1  0.507649  0.801415  0.605567  1
  S  S17  1  0.608357  0.186921  0.618388  1
  S  S18  1  0.989299  0.691876  0.890132  1
  S  S19  1  0.001931  0.304545  0.896139  1
  S  S20  1  0.424448  0.520805  0.262036  1
  S  S21  1  0.021973  0.000006  0.217039  1
  S  S22  1  0.478802  0.492284  0.712752  1
  S  S23  1  0.999280  0.999182  0.785473  1
