# generated using pymatgen
data_Li3Sm4Si4AgSn2
_symmetry_space_group_name_H-M   'P 1'
_cell_length_a   9.70947529
_cell_length_b   9.70947433
_cell_length_c   6.87772016
_cell_angle_alpha   90.02553564
_cell_angle_beta   89.97446536
_cell_angle_gamma   153.28333306
_symmetry_Int_Tables_number   1
_chemical_formula_structural   Li3Sm4Si4AgSn2
_chemical_formula_sum   'Li3 Sm4 Si4 Ag1 Sn2'
_cell_volume   291.50218277
_cell_formula_units_Z   1
loop_
 _symmetry_equiv_pos_site_id
 _symmetry_equiv_pos_as_xyz
  1  'x, y, z'
loop_
 _atom_site_type_symbol
 _atom_site_label
 _atom_site_symmetry_multiplicity
 _atom_site_fract_x
 _atom_site_fract_y
 _atom_site_fract_z
 _atom_site_occupancy
  Li  Li0  1  0.184857  0.815143  0.445247  1
  Li  Li1  1  0.182091  0.817909  0.057938  1
  Li  Li2  1  0.818072  0.181928  0.943825  1
  Sm  Sm3  1  0.547407  0.452593  0.249952  1
  Sm  Sm4  1  0.450888  0.549112  0.749040  1
  Sm  Sm5  1  0.350599  0.649401  0.244149  1
  Sm  Sm6  1  0.648896  0.351104  0.748749  1
  Si  Si7  1  0.942915  0.057085  0.073061  1
  Si  Si8  1  0.057240  0.942760  0.925371  1
  Si  Si9  1  0.057109  0.942891  0.575111  1
  Si  Si10  1  0.943901  0.056099  0.422455  1
  Ag  Ag11  1  0.818627  0.181373  0.556812  1
  Sn  Sn12  1  0.718514  0.281486  0.243563  1
  Sn  Sn13  1  0.278886  0.721114  0.764726  1
