# generated using pymatgen
data_Dy3Pa(Rh2Pb)2
_symmetry_space_group_name_H-M   'P 1'
_cell_length_a   7.80367879
_cell_length_b   7.80367879
_cell_length_c   3.60827500
_cell_angle_alpha   90.00000000
_cell_angle_beta   90.00000000
_cell_angle_gamma   86.98731569
_symmetry_Int_Tables_number   1
_chemical_formula_structural   Dy3Pa(Rh2Pb)2
_chemical_formula_sum   'Dy3 Pa1 Rh4 Pb2'
_cell_volume   219.43088542
_cell_formula_units_Z   1
loop_
 _symmetry_equiv_pos_site_id
 _symmetry_equiv_pos_as_xyz
  1  'x, y, z'
loop_
 _atom_site_type_symbol
 _atom_site_label
 _atom_site_symmetry_multiplicity
 _atom_site_fract_x
 _atom_site_fract_y
 _atom_site_fract_z
 _atom_site_occupancy
  Dy  Dy0  1  0.325199  0.174802  0.500001  1
  Dy  Dy1  1  0.837160  0.329301  0.500001  1
  Dy  Dy2  1  0.170700  0.662839  0.500001  1
  Pa  Pa3  1  0.664330  0.835669  0.500001  1
  Rh  Rh4  1  0.638834  0.108754  0.000000  1
  Rh  Rh5  1  0.115664  0.384336  0.000000  1
  Rh  Rh6  1  0.847131  0.652869  0.000000  1
  Rh  Rh7  1  0.391246  0.861166  0.000000  1
  Pb  Pb8  1  0.010651  0.000916  0.000000  1
  Pb  Pb9  1  0.499085  0.489350  0.000000  1
