# generated using pymatgen
data_Tb16Y3ErPb16
_symmetry_space_group_name_H-M   'P 1'
_cell_length_a   8.24786600
_cell_length_b   8.31998705
_cell_length_c   15.72714800
_cell_angle_alpha   90.00000000
_cell_angle_beta   90.00000000
_cell_angle_gamma   90.00526018
_symmetry_Int_Tables_number   1
_chemical_formula_structural   Tb16Y3ErPb16
_chemical_formula_sum   'Tb16 Y3 Er1 Pb16'
_cell_volume   1079.23052067
_cell_formula_units_Z   1
loop_
 _symmetry_equiv_pos_site_id
 _symmetry_equiv_pos_as_xyz
  1  'x, y, z'
loop_
 _atom_site_type_symbol
 _atom_site_label
 _atom_site_symmetry_multiplicity
 _atom_site_fract_x
 _atom_site_fract_y
 _atom_site_fract_z
 _atom_site_occupancy
  Tb  Tb0  1  0.377122  0.841817  0.879333  1
  Tb  Tb1  1  0.877150  0.658307  0.620885  1
  Tb  Tb2  1  0.622439  0.157936  0.378849  1
  Tb  Tb3  1  0.123107  0.341543  0.121099  1
  Tb  Tb4  1  0.622439  0.157936  0.121151  1
  Tb  Tb5  1  0.123107  0.341543  0.378901  1
  Tb  Tb6  1  0.377122  0.841817  0.620667  1
  Tb  Tb7  1  0.877150  0.658307  0.879115  1
  Tb  Tb8  1  0.535818  0.324605  0.899953  1
  Tb  Tb9  1  0.035871  0.175410  0.599907  1
  Tb  Tb10  1  0.463933  0.675824  0.399859  1
  Tb  Tb11  1  0.964476  0.824848  0.100129  1
  Tb  Tb12  1  0.463933  0.675824  0.100141  1
  Tb  Tb13  1  0.964476  0.824848  0.399871  1
  Tb  Tb14  1  0.535818  0.324605  0.600047  1
  Tb  Tb15  1  0.035871  0.175410  0.900093  1
  Y  Y16  1  0.209591  0.503769  0.750000  1
  Y  Y17  1  0.709575  0.996259  0.750000  1
  Y  Y18  1  0.790392  0.496286  0.250000  1
  Er  Er19  1  0.290207  0.004121  0.250000  1
  Pb  Pb20  1  0.281343  0.033240  0.043603  1
  Pb  Pb21  1  0.781213  0.466155  0.457083  1
  Pb  Pb22  1  0.718879  0.966329  0.542755  1
  Pb  Pb23  1  0.218723  0.533589  0.957226  1
  Pb  Pb24  1  0.718879  0.966329  0.957245  1
  Pb  Pb25  1  0.218723  0.533589  0.542774  1
  Pb  Pb26  1  0.281343  0.033240  0.456397  1
  Pb  Pb27  1  0.781213  0.466155  0.042917  1
  Pb  Pb28  1  0.572861  0.625370  0.750000  1
  Pb  Pb29  1  0.072999  0.874803  0.750000  1
  Pb  Pb30  1  0.426560  0.374122  0.250000  1
  Pb  Pb31  1  0.927993  0.124400  0.250000  1
  Pb  Pb32  1  0.348029  0.153056  0.750000  1
  Pb  Pb33  1  0.848134  0.346811  0.750000  1
  Pb  Pb34  1  0.650933  0.847083  0.250000  1
  Pb  Pb35  1  0.152573  0.654717  0.250000  1
