# generated using pymatgen
data_Li4Dy4BiPb3
_symmetry_space_group_name_H-M   'P 1'
_cell_length_a   9.54345772
_cell_length_b   9.54767155
_cell_length_c   7.30176616
_cell_angle_alpha   89.99973902
_cell_angle_beta   90.08278089
_cell_angle_gamma   120.01927177
_symmetry_Int_Tables_number   1
_chemical_formula_structural   Li4Dy4BiPb3
_chemical_formula_sum   'Li8 Dy8 Bi2 Pb6'
_cell_volume   576.07204761
_cell_formula_units_Z   2
loop_
 _symmetry_equiv_pos_site_id
 _symmetry_equiv_pos_as_xyz
  1  'x, y, z'
loop_
 _atom_site_type_symbol
 _atom_site_label
 _atom_site_symmetry_multiplicity
 _atom_site_fract_x
 _atom_site_fract_y
 _atom_site_fract_z
 _atom_site_occupancy
  Li  Li0  1  0.167641  0.333852  0.283323  1
  Li  Li1  1  0.167640  0.833777  0.283325  1
  Li  Li2  1  0.665496  0.832743  0.285977  1
  Li  Li3  1  0.830504  0.665255  0.786649  1
  Li  Li4  1  0.830506  0.165261  0.786652  1
  Li  Li5  1  0.336108  0.168060  0.790760  1
  Li  Li6  1  0.336232  0.668119  0.670691  1
  Li  Li7  1  0.665953  0.332971  0.174808  1
  Dy  Dy8  1  0.515749  0.025822  0.491627  1
  Dy  Dy9  1  0.515757  0.489925  0.491614  1
  Dy  Dy10  1  0.973447  0.486729  0.489868  1
  Dy  Dy11  1  0.491501  0.977733  0.996102  1
  Dy  Dy12  1  0.491501  0.513763  0.996096  1
  Dy  Dy13  1  0.019152  0.509576  0.997403  1
  Dy  Dy14  1  0.996409  0.998198  0.497359  1
  Dy  Dy15  1  0.996855  0.998428  0.004414  1
  Bi  Bi16  1  0.166308  0.333595  0.733678  1
  Bi  Bi17  1  0.166309  0.832697  0.733649  1
  Pb  Pb18  1  0.666516  0.833253  0.731838  1
  Pb  Pb19  1  0.833842  0.666730  0.232655  1
  Pb  Pb20  1  0.833837  0.167136  0.232669  1
  Pb  Pb21  1  0.333269  0.166647  0.232026  1
  Pb  Pb22  1  0.332020  0.666025  0.258986  1
  Pb  Pb23  1  0.667447  0.333706  0.759827  1
