# generated using pymatgen
data_BaAl4SnI16
_symmetry_space_group_name_H-M   'P 1'
_cell_length_a   8.95684806
_cell_length_b   8.41027192
_cell_length_c   15.75264211
_cell_angle_alpha   89.73101574
_cell_angle_beta   92.31685302
_cell_angle_gamma   90.28204120
_symmetry_Int_Tables_number   1
_chemical_formula_structural   BaAl4SnI16
_chemical_formula_sum   'Ba1 Al4 Sn1 I16'
_cell_volume   1185.64270252
_cell_formula_units_Z   1
loop_
 _symmetry_equiv_pos_site_id
 _symmetry_equiv_pos_as_xyz
  1  'x, y, z'
loop_
 _atom_site_type_symbol
 _atom_site_label
 _atom_site_symmetry_multiplicity
 _atom_site_fract_x
 _atom_site_fract_y
 _atom_site_fract_z
 _atom_site_occupancy
  Ba  Ba0  1  0.799976  0.129923  0.829328  1
  Al  Al1  1  0.955636  0.213264  0.570080  1
  Al  Al2  1  0.053208  0.176554  0.083645  1
  Al  Al3  1  0.566646  0.666663  0.782882  1
  Al  Al4  1  0.416565  0.649117  0.281989  1
  Sn  Sn5  1  0.241332  0.082908  0.314297  1
  I  I6  1  0.434023  0.628981  0.641507  1
  I  I7  1  0.539571  0.610787  0.143857  1
  I  I8  1  0.851678  0.715067  0.772762  1
  I  I9  1  0.138204  0.736935  0.260708  1
  I  I10  1  0.952778  0.466851  0.486063  1
  I  I11  1  0.014243  0.401467  0.975737  1
  I  I12  1  0.930422  0.926976  0.018144  1
  I  I13  1  0.067657  0.980941  0.484224  1
  I  I14  1  0.689993  0.126703  0.610481  1
  I  I15  1  0.334386  0.129994  0.119129  1
  I  I16  1  0.529356  0.420922  0.880512  1
  I  I17  1  0.430692  0.405351  0.381519  1
  I  I18  1  0.465193  0.911918  0.861345  1
  I  I19  1  0.536848  0.886637  0.366383  1
  I  I20  1  0.939146  0.237514  0.228132  1
  I  I21  1  0.112446  0.229327  0.711680  1
