# generated using pymatgen
data_Hf15Sc3FeRe8P
_symmetry_space_group_name_H-M   'P 1'
_cell_length_a   8.59893500
_cell_length_b   8.59893462
_cell_length_c   8.49857300
_cell_angle_alpha   90.00000000
_cell_angle_beta   90.00000000
_cell_angle_gamma   119.99999763
_symmetry_Int_Tables_number   1
_chemical_formula_structural   Hf15Sc3FeRe8P
_chemical_formula_sum   'Hf15 Sc3 Fe1 Re8 P1'
_cell_volume   544.20930609
_cell_formula_units_Z   1
loop_
 _symmetry_equiv_pos_site_id
 _symmetry_equiv_pos_as_xyz
  1  'x, y, z'
loop_
 _atom_site_type_symbol
 _atom_site_label
 _atom_site_symmetry_multiplicity
 _atom_site_fract_x
 _atom_site_fract_y
 _atom_site_fract_z
 _atom_site_occupancy
  Hf  Hf0  1  0.201186  0.798814  0.442534  1
  Hf  Hf1  1  0.201186  0.402370  0.442534  1
  Hf  Hf2  1  0.597630  0.798814  0.442534  1
  Hf  Hf3  1  0.805433  0.194567  0.548046  1
  Hf  Hf4  1  0.805433  0.610869  0.548046  1
  Hf  Hf5  1  0.389131  0.194567  0.548046  1
  Hf  Hf6  1  0.805433  0.194567  0.951954  1
  Hf  Hf7  1  0.805433  0.610869  0.951954  1
  Hf  Hf8  1  0.389131  0.194567  0.951954  1
  Hf  Hf9  1  0.201186  0.798814  0.057466  1
  Hf  Hf10  1  0.201186  0.402370  0.057466  1
  Hf  Hf11  1  0.597630  0.798814  0.057466  1
  Hf  Hf12  1  0.540942  0.459058  0.250000  1
  Hf  Hf13  1  0.540942  0.081884  0.250000  1
  Hf  Hf14  1  0.918116  0.459058  0.250000  1
  Sc  Sc15  1  0.461372  0.538628  0.750000  1
  Sc  Sc16  1  0.461372  0.922743  0.750000  1
  Sc  Sc17  1  0.077257  0.538628  0.750000  1
  Fe  Fe18  1  0.333333  0.666667  0.250000  1
  Re  Re19  1  0.889983  0.110017  0.250000  1
  Re  Re20  1  0.889983  0.779965  0.250000  1
  Re  Re21  1  0.220035  0.110017  0.250000  1
  Re  Re22  1  0.110795  0.889205  0.750000  1
  Re  Re23  1  0.110795  0.221590  0.750000  1
  Re  Re24  1  0.778410  0.889205  0.750000  1
  Re  Re25  1  0.000000  0.000000  0.502857  1
  Re  Re26  1  0.000000  0.000000  0.997143  1
  P  P27  1  0.666667  0.333333  0.750000  1
