# generated using pymatgen
data_PrSc(CuSn)2
_symmetry_space_group_name_H-M   'P 1'
_cell_length_a   4.50280900
_cell_length_b   4.50280927
_cell_length_c   7.35726200
_cell_angle_alpha   90.00000000
_cell_angle_beta   90.00000000
_cell_angle_gamma   120.00000540
_symmetry_Int_Tables_number   1
_chemical_formula_structural   PrSc(CuSn)2
_chemical_formula_sum   'Pr1 Sc1 Cu2 Sn2'
_cell_volume   129.18554050
_cell_formula_units_Z   1
loop_
 _symmetry_equiv_pos_site_id
 _symmetry_equiv_pos_as_xyz
  1  'x, y, z'
loop_
 _atom_site_type_symbol
 _atom_site_label
 _atom_site_symmetry_multiplicity
 _atom_site_fract_x
 _atom_site_fract_y
 _atom_site_fract_z
 _atom_site_occupancy
  Pr  Pr0  1  0.000000  0.000000  0.007782  1
  Sc  Sc1  1  0.000000  0.000000  0.506412  1
  Cu  Cu2  1  0.333333  0.666667  0.769129  1
  Cu  Cu3  1  0.666667  0.333333  0.343153  1
  Sn  Sn4  1  0.333333  0.666667  0.265577  1
  Sn  Sn5  1  0.666667  0.333333  0.719166  1
