# generated using pymatgen
data_Nd4YSn3
_symmetry_space_group_name_H-M   'P 1'
_cell_length_a   9.24456000
_cell_length_b   9.24456017
_cell_length_c   6.79028700
_cell_angle_alpha   90.00000000
_cell_angle_beta   90.00000000
_cell_angle_gamma   119.99999940
_symmetry_Int_Tables_number   1
_chemical_formula_structural   Nd4YSn3
_chemical_formula_sum   'Nd8 Y2 Sn6'
_cell_volume   502.56387056
_cell_formula_units_Z   2
loop_
 _symmetry_equiv_pos_site_id
 _symmetry_equiv_pos_as_xyz
  1  'x, y, z'
loop_
 _atom_site_type_symbol
 _atom_site_label
 _atom_site_symmetry_multiplicity
 _atom_site_fract_x
 _atom_site_fract_y
 _atom_site_fract_z
 _atom_site_occupancy
  Nd  Nd0  1  0.758599  0.758599  0.248675  1
  Nd  Nd1  1  0.000000  0.241401  0.248675  1
  Nd  Nd2  1  0.758599  0.000000  0.751325  1
  Nd  Nd3  1  0.333333  0.666667  0.500000  1
  Nd  Nd4  1  0.241401  0.000000  0.248675  1
  Nd  Nd5  1  0.666667  0.333333  0.500000  1
  Nd  Nd6  1  0.000000  0.758599  0.751325  1
  Nd  Nd7  1  0.241401  0.241401  0.751325  1
  Y  Y8  1  0.333333  0.666667  0.000000  1
  Y  Y9  1  0.666667  0.333333  0.000000  1
  Sn  Sn10  1  0.603181  0.603181  0.756026  1
  Sn  Sn11  1  0.396819  0.000000  0.756026  1
  Sn  Sn12  1  0.603181  0.000000  0.243974  1
  Sn  Sn13  1  0.000000  0.396819  0.756026  1
  Sn  Sn14  1  0.396819  0.396819  0.243974  1
  Sn  Sn15  1  0.000000  0.603181  0.243974  1
