# generated using pymatgen
data_DyPa2(ZnPd)3
_symmetry_space_group_name_H-M   'P 1'
_cell_length_a   7.35813332
_cell_length_b   7.42048790
_cell_length_c   3.79398300
_cell_angle_alpha   90.00000000
_cell_angle_beta   90.00000000
_cell_angle_gamma   120.28072089
_symmetry_Int_Tables_number   1
_chemical_formula_structural   DyPa2(ZnPd)3
_chemical_formula_sum   'Dy1 Pa2 Zn3 Pd3'
_cell_volume   178.89189335
_cell_formula_units_Z   1
loop_
 _symmetry_equiv_pos_site_id
 _symmetry_equiv_pos_as_xyz
  1  'x, y, z'
loop_
 _atom_site_type_symbol
 _atom_site_label
 _atom_site_symmetry_multiplicity
 _atom_site_fract_x
 _atom_site_fract_y
 _atom_site_fract_z
 _atom_site_occupancy
  Dy  Dy0  1  0.000000  0.598401  0.500000  1
  Pa  Pa1  1  0.409150  0.406737  0.500000  1
  Pa  Pa2  1  0.590850  0.997587  0.500000  1
  Zn  Zn3  1  0.753754  0.745994  0.000000  1
  Zn  Zn4  1  0.246246  0.992240  0.000000  1
  Zn  Zn5  1  0.000000  0.261007  0.000000  1
  Pd  Pd6  1  0.652001  0.320277  0.000000  1
  Pd  Pd7  1  0.347999  0.668277  0.000000  1
  Pd  Pd8  1  0.000000  0.009479  0.500000  1
