# generated using pymatgen
data_Y2TmLu3(Si3Ru)8
_symmetry_space_group_name_H-M   'P 1'
_cell_length_a   10.09270231
_cell_length_b   10.09270293
_cell_length_c   8.11133700
_cell_angle_alpha   90.02344893
_cell_angle_beta   90.02344830
_cell_angle_gamma   132.66773114
_symmetry_Int_Tables_number   1
_chemical_formula_structural   Y2TmLu3(Si3Ru)8
_chemical_formula_sum   'Y2 Tm1 Lu3 Si24 Ru8'
_cell_volume   607.53265012
_cell_formula_units_Z   1
loop_
 _symmetry_equiv_pos_site_id
 _symmetry_equiv_pos_as_xyz
  1  'x, y, z'
loop_
 _atom_site_type_symbol
 _atom_site_label
 _atom_site_symmetry_multiplicity
 _atom_site_fract_x
 _atom_site_fract_y
 _atom_site_fract_z
 _atom_site_occupancy
  Y  Y0  1  0.997635  0.497883  0.750404  1
  Y  Y1  1  0.502117  0.002365  0.249596  1
  Tm  Tm2  1  0.499973  0.500027  0.500000  1
  Lu  Lu3  1  0.000031  0.999969  0.000000  1
  Lu  Lu4  1  0.002751  0.502607  0.249673  1
  Lu  Lu5  1  0.497393  0.997249  0.750327  1
  Si  Si6  1  0.294674  0.705326  0.000000  1
  Si  Si7  1  0.795347  0.204653  0.500000  1
  Si  Si8  1  0.705330  0.294670  0.000000  1
  Si  Si9  1  0.204687  0.795313  0.500000  1
  Si  Si10  1  0.831696  0.832207  0.333378  1
  Si  Si11  1  0.167793  0.168304  0.666622  1
  Si  Si12  1  0.667239  0.666595  0.832688  1
  Si  Si13  1  0.333405  0.332761  0.167312  1
  Si  Si14  1  0.623435  0.388715  0.228764  1
  Si  Si15  1  0.611285  0.376565  0.771236  1
  Si  Si16  1  0.113002  0.879151  0.728808  1
  Si  Si17  1  0.120849  0.886998  0.271192  1
  Si  Si18  1  0.380622  0.615111  0.771892  1
  Si  Si19  1  0.384889  0.619378  0.228108  1
  Si  Si20  1  0.890855  0.125023  0.270471  1
  Si  Si21  1  0.874977  0.109145  0.729529  1
  Si  Si22  1  0.845862  0.611823  0.007042  1
  Si  Si23  1  0.388177  0.154138  0.992958  1
  Si  Si24  1  0.887768  0.654557  0.502981  1
  Si  Si25  1  0.345443  0.112232  0.497019  1
  Si  Si26  1  0.155006  0.388503  0.997033  1
  Si  Si27  1  0.611497  0.844994  0.002967  1
  Si  Si28  1  0.112590  0.346319  0.492824  1
  Si  Si29  1  0.653681  0.887410  0.507176  1
  Ru  Ru30  1  0.168930  0.831070  0.000000  1
  Ru  Ru31  1  0.669785  0.330215  0.500000  1
  Ru  Ru32  1  0.831075  0.168925  0.000000  1
  Ru  Ru33  1  0.330263  0.669737  0.500000  1
  Ru  Ru34  1  0.627324  0.627642  0.126587  1
  Ru  Ru35  1  0.372358  0.372676  0.873413  1
  Ru  Ru36  1  0.873764  0.873506  0.628910  1
  Ru  Ru37  1  0.126494  0.126236  0.371090  1
