# generated using pymatgen
data_Nd2Th2Mg2Si3Ge
_symmetry_space_group_name_H-M   'P 1'
_cell_length_a   7.38783314
_cell_length_b   7.38783395
_cell_length_c   4.37464100
_cell_angle_alpha   90.00000000
_cell_angle_beta   90.00000000
_cell_angle_gamma   90.04339171
_symmetry_Int_Tables_number   1
_chemical_formula_structural   Nd2Th2Mg2Si3Ge
_chemical_formula_sum   'Nd2 Th2 Mg2 Si3 Ge1'
_cell_volume   238.76820708
_cell_formula_units_Z   1
loop_
 _symmetry_equiv_pos_site_id
 _symmetry_equiv_pos_as_xyz
  1  'x, y, z'
loop_
 _atom_site_type_symbol
 _atom_site_label
 _atom_site_symmetry_multiplicity
 _atom_site_fract_x
 _atom_site_fract_y
 _atom_site_fract_z
 _atom_site_occupancy
  Nd  Nd0  1  0.178156  0.319863  0.500000  1
  Nd  Nd1  1  0.819863  0.678156  0.500000  1
  Th  Th2  1  0.678296  0.178296  0.500000  1
  Th  Th3  1  0.323875  0.823875  0.500000  1
  Mg  Mg4  1  0.999480  0.001444  0.000000  1
  Mg  Mg5  1  0.501444  0.499480  0.000000  1
  Si  Si6  1  0.880073  0.380073  0.000000  1
  Si  Si7  1  0.616038  0.883902  0.000000  1
  Si  Si8  1  0.383902  0.116038  0.000000  1
  Ge  Ge9  1  0.118872  0.618872  0.000000  1
