# generated using pymatgen
data_TbEr2In3CuPd2
_symmetry_space_group_name_H-M   'P 1'
_cell_length_a   7.67836700
_cell_length_b   7.61205485
_cell_length_c   3.86163400
_cell_angle_alpha   90.00000000
_cell_angle_beta   90.00000000
_cell_angle_gamma   120.28858943
_symmetry_Int_Tables_number   1
_chemical_formula_structural   TbEr2In3CuPd2
_chemical_formula_sum   'Tb1 Er2 In3 Cu1 Pd2'
_cell_volume   194.89568344
_cell_formula_units_Z   1
loop_
 _symmetry_equiv_pos_site_id
 _symmetry_equiv_pos_as_xyz
  1  'x, y, z'
loop_
 _atom_site_type_symbol
 _atom_site_label
 _atom_site_symmetry_multiplicity
 _atom_site_fract_x
 _atom_site_fract_y
 _atom_site_fract_z
 _atom_site_occupancy
  Tb  Tb0  1  0.409146  0.000000  0.500000  1
  Er  Er1  1  0.590898  0.592016  0.500000  1
  Er  Er2  1  0.998882  0.407984  0.500000  1
  In  In3  1  0.251078  0.253913  0.000000  1
  In  In4  1  0.751452  0.000000  0.000000  1
  In  In5  1  0.997165  0.746087  0.000000  1
  Cu  Cu6  1  0.003461  0.000000  0.500000  1
  Pd  Pd7  1  0.665469  0.333020  0.000000  1
  Pd  Pd8  1  0.332450  0.666980  0.000000  1
