# generated using pymatgen
data_Li2TbLu3(ZnPt2)2
_symmetry_space_group_name_H-M   'P 1'
_cell_length_a   4.01585000
_cell_length_b   6.91355659
_cell_length_c   8.24597585
_cell_angle_alpha   89.77549947
_cell_angle_beta   90.00000000
_cell_angle_gamma   90.00000000
_symmetry_Int_Tables_number   1
_chemical_formula_structural   Li2TbLu3(ZnPt2)2
_chemical_formula_sum   'Li2 Tb1 Lu3 Zn2 Pt4'
_cell_volume   228.93791814
_cell_formula_units_Z   1
loop_
 _symmetry_equiv_pos_site_id
 _symmetry_equiv_pos_as_xyz
  1  'x, y, z'
loop_
 _atom_site_type_symbol
 _atom_site_label
 _atom_site_symmetry_multiplicity
 _atom_site_fract_x
 _atom_site_fract_y
 _atom_site_fract_z
 _atom_site_occupancy
  Li  Li0  1  0.250000  0.633784  0.561590  1
  Li  Li1  1  0.250000  0.131449  0.938657  1
  Tb  Tb2  1  0.250000  0.542277  0.181749  1
  Lu  Lu3  1  0.750000  0.457628  0.813042  1
  Lu  Lu4  1  0.750000  0.958871  0.685417  1
  Lu  Lu5  1  0.250000  0.043055  0.320866  1
  Zn  Zn6  1  0.750000  0.366865  0.437335  1
  Zn  Zn7  1  0.750000  0.868039  0.062192  1
  Pt  Pt8  1  0.250000  0.748398  0.874526  1
  Pt  Pt9  1  0.750000  0.245610  0.121291  1
  Pt  Pt10  1  0.750000  0.756063  0.381166  1
  Pt  Pt11  1  0.250000  0.247962  0.622168  1
