# generated using pymatgen
data_HoTm7Tc3B24Ru
_symmetry_space_group_name_H-M   'P 1'
_cell_length_a   3.63719000
_cell_length_b   9.08664462
_cell_length_c   11.45834800
_cell_angle_alpha   89.92035276
_cell_angle_beta   90.00000000
_cell_angle_gamma   90.00000000
_symmetry_Int_Tables_number   1
_chemical_formula_structural   HoTm7Tc3B24Ru
_chemical_formula_sum   'Ho1 Tm7 Tc3 B24 Ru1'
_cell_volume   378.69635064
_cell_formula_units_Z   1
loop_
 _symmetry_equiv_pos_site_id
 _symmetry_equiv_pos_as_xyz
  1  'x, y, z'
loop_
 _atom_site_type_symbol
 _atom_site_label
 _atom_site_symmetry_multiplicity
 _atom_site_fract_x
 _atom_site_fract_y
 _atom_site_fract_z
 _atom_site_occupancy
  Ho  Ho0  1  0.000000  0.323170  0.413882  1
  Tm  Tm1  1  0.000000  0.675392  0.583967  1
  Tm  Tm2  1  0.000000  0.822625  0.087336  1
  Tm  Tm3  1  0.000000  0.178377  0.914559  1
  Tm  Tm4  1  0.000000  0.942609  0.370440  1
  Tm  Tm5  1  0.000000  0.057539  0.630459  1
  Tm  Tm6  1  0.000000  0.443214  0.129660  1
  Tm  Tm7  1  0.000000  0.557733  0.869537  1
  Tc  Tc8  1  0.000000  0.638772  0.320350  1
  Tc  Tc9  1  0.000000  0.361559  0.680329  1
  Tc  Tc10  1  0.000000  0.137957  0.178246  1
  B  B11  1  0.500000  0.553172  0.433243  1
  B  B12  1  0.500000  0.446959  0.566695  1
  B  B13  1  0.500000  0.052889  0.066356  1
  B  B14  1  0.500000  0.946228  0.933204  1
  B  B15  1  0.500000  0.749315  0.419309  1
  B  B16  1  0.500000  0.250083  0.581318  1
  B  B17  1  0.500000  0.249879  0.080638  1
  B  B18  1  0.500000  0.750965  0.918948  1
  B  B19  1  0.500000  0.792410  0.265184  1
  B  B20  1  0.500000  0.207757  0.735681  1
  B  B21  1  0.500000  0.292170  0.234621  1
  B  B22  1  0.500000  0.708687  0.764877  1
  B  B23  1  0.500000  0.631016  0.184814  1
  B  B24  1  0.500000  0.369227  0.815634  1
  B  B25  1  0.500000  0.130082  0.314546  1
  B  B26  1  0.500000  0.868942  0.685127  1
  B  B27  1  0.500000  0.980967  0.211835  1
  B  B28  1  0.500000  0.017501  0.788344  1
  B  B29  1  0.500000  0.481655  0.287642  1
  B  B30  1  0.500000  0.518700  0.711816  1
  B  B31  1  0.500000  0.601915  0.027916  1
  B  B32  1  0.500000  0.399849  0.971749  1
  B  B33  1  0.500000  0.100578  0.472332  1
  B  B34  1  0.500000  0.898547  0.528607  1
  Ru  Ru35  1  0.000000  0.861564  0.820806  1
