# generated using pymatgen
data_Tb2Lu2IrPt
_symmetry_space_group_name_H-M   'P 1'
_cell_length_a   4.63625400
_cell_length_b   7.13741300
_cell_length_c   8.72601700
_cell_angle_alpha   90.00000000
_cell_angle_beta   90.00000000
_cell_angle_gamma   90.00000000
_symmetry_Int_Tables_number   1
_chemical_formula_structural   Tb2Lu2IrPt
_chemical_formula_sum   'Tb4 Lu4 Ir2 Pt2'
_cell_volume   288.75140316
_cell_formula_units_Z   2
loop_
 _symmetry_equiv_pos_site_id
 _symmetry_equiv_pos_as_xyz
  1  'x, y, z'
loop_
 _atom_site_type_symbol
 _atom_site_label
 _atom_site_symmetry_multiplicity
 _atom_site_fract_x
 _atom_site_fract_y
 _atom_site_fract_z
 _atom_site_occupancy
  Tb  Tb0  1  0.250000  0.014157  0.669073  1
  Tb  Tb1  1  0.250000  0.514157  0.830927  1
  Tb  Tb2  1  0.750000  0.990990  0.330388  1
  Tb  Tb3  1  0.750000  0.490990  0.169612  1
  Lu  Lu4  1  0.250000  0.141261  0.080628  1
  Lu  Lu5  1  0.250000  0.641261  0.419372  1
  Lu  Lu6  1  0.750000  0.857289  0.926285  1
  Lu  Lu7  1  0.750000  0.357289  0.573715  1
  Ir  Ir8  1  0.250000  0.246278  0.409356  1
  Ir  Ir9  1  0.250000  0.746278  0.090644  1
  Pt  Pt10  1  0.750000  0.750024  0.595360  1
  Pt  Pt11  1  0.750000  0.250024  0.904640  1
