# generated using pymatgen
data_Tb4DyHo3(B6Os)4
_symmetry_space_group_name_H-M   'P 1'
_cell_length_a   3.65648600
_cell_length_b   9.16196602
_cell_length_c   11.54595702
_cell_angle_alpha   90.00681116
_cell_angle_beta   90.00000000
_cell_angle_gamma   90.00000000
_symmetry_Int_Tables_number   1
_chemical_formula_structural   Tb4DyHo3(B6Os)4
_chemical_formula_sum   'Tb4 Dy1 Ho3 B24 Os4'
_cell_volume   386.79649046
_cell_formula_units_Z   1
loop_
 _symmetry_equiv_pos_site_id
 _symmetry_equiv_pos_as_xyz
  1  'x, y, z'
loop_
 _atom_site_type_symbol
 _atom_site_label
 _atom_site_symmetry_multiplicity
 _atom_site_fract_x
 _atom_site_fract_y
 _atom_site_fract_z
 _atom_site_occupancy
  Tb  Tb0  1  0.000000  0.322486  0.413826  1
  Tb  Tb1  1  0.000000  0.677535  0.586313  1
  Tb  Tb2  1  0.000000  0.822355  0.086141  1
  Tb  Tb3  1  0.000000  0.177657  0.913757  1
  Dy  Dy4  1  0.000000  0.944117  0.372955  1
  Ho  Ho5  1  0.000000  0.055956  0.627234  1
  Ho  Ho6  1  0.000000  0.444108  0.126999  1
  Ho  Ho7  1  0.000000  0.555898  0.872928  1
  B  B8  1  0.500000  0.554055  0.432750  1
  B  B9  1  0.500000  0.445765  0.567316  1
  B  B10  1  0.500000  0.054240  0.067175  1
  B  B11  1  0.500000  0.945797  0.932707  1
  B  B12  1  0.500000  0.747786  0.419696  1
  B  B13  1  0.500000  0.251929  0.580373  1
  B  B14  1  0.500000  0.248210  0.080279  1
  B  B15  1  0.500000  0.751859  0.919669  1
  B  B16  1  0.500000  0.790811  0.266694  1
  B  B17  1  0.500000  0.208899  0.733244  1
  B  B18  1  0.500000  0.291294  0.233158  1
  B  B19  1  0.500000  0.708861  0.766796  1
  B  B20  1  0.500000  0.631584  0.185356  1
  B  B21  1  0.500000  0.368318  0.814578  1
  B  B22  1  0.500000  0.131987  0.314442  1
  B  B23  1  0.500000  0.868269  0.685497  1
  B  B24  1  0.500000  0.983802  0.213085  1
  B  B25  1  0.500000  0.016383  0.786680  1
  B  B26  1  0.500000  0.483504  0.286619  1
  B  B27  1  0.500000  0.516405  0.713354  1
  B  B28  1  0.500000  0.607435  0.029739  1
  B  B29  1  0.500000  0.392557  0.970216  1
  B  B30  1  0.500000  0.108006  0.470386  1
  B  B31  1  0.500000  0.892242  0.530137  1
  Os  Os32  1  0.000000  0.637433  0.321092  1
  Os  Os33  1  0.000000  0.362246  0.678945  1
  Os  Os34  1  0.000000  0.138012  0.178702  1
  Os  Os35  1  0.000000  0.862198  0.821161  1
