# generated using pymatgen
data_YHo3(In2Pd3)4
_symmetry_space_group_name_H-M   'P 1'
_cell_length_a   4.62371400
_cell_length_b   9.75104837
_cell_length_c   10.41567339
_cell_angle_alpha   90.03142129
_cell_angle_beta   90.00000000
_cell_angle_gamma   90.00000000
_symmetry_Int_Tables_number   1
_chemical_formula_structural   YHo3(In2Pd3)4
_chemical_formula_sum   'Y1 Ho3 In8 Pd12'
_cell_volume   469.60159285
_cell_formula_units_Z   1
loop_
 _symmetry_equiv_pos_site_id
 _symmetry_equiv_pos_as_xyz
  1  'x, y, z'
loop_
 _atom_site_type_symbol
 _atom_site_label
 _atom_site_symmetry_multiplicity
 _atom_site_fract_x
 _atom_site_fract_y
 _atom_site_fract_z
 _atom_site_occupancy
  Y  Y0  1  0.750000  0.946455  0.775120  1
  Ho  Ho1  1  0.250000  0.446147  0.723176  1
  Ho  Ho2  1  0.250000  0.053796  0.223088  1
  Ho  Ho3  1  0.750000  0.553829  0.276834  1
  In  In4  1  0.250000  0.886530  0.513274  1
  In  In5  1  0.250000  0.613413  0.013260  1
  In  In6  1  0.750000  0.113477  0.486555  1
  In  In7  1  0.750000  0.386554  0.986883  1
  In  In8  1  0.250000  0.163251  0.893798  1
  In  In9  1  0.250000  0.336658  0.393724  1
  In  In10  1  0.750000  0.836690  0.106287  1
  In  In11  1  0.750000  0.663060  0.606131  1
  Pd  Pd12  1  0.250000  0.144816  0.624856  1
  Pd  Pd13  1  0.250000  0.355731  0.125200  1
  Pd  Pd14  1  0.750000  0.855771  0.374981  1
  Pd  Pd15  1  0.750000  0.643324  0.874903  1
  Pd  Pd16  1  0.250000  0.743661  0.740501  1
  Pd  Pd17  1  0.250000  0.755080  0.240567  1
  Pd  Pd18  1  0.750000  0.255241  0.259785  1
  Pd  Pd19  1  0.750000  0.246291  0.759598  1
  Pd  Pd20  1  0.250000  0.896287  0.974071  1
  Pd  Pd21  1  0.250000  0.603454  0.473116  1
  Pd  Pd22  1  0.750000  0.104086  0.027575  1
  Pd  Pd23  1  0.750000  0.396396  0.526718  1
