# generated using pymatgen
data_La8Ho2OsRu3
_symmetry_space_group_name_H-M   'P 1'
_cell_length_a   6.69484724
_cell_length_b   7.27649155
_cell_length_c   9.02830148
_cell_angle_alpha   94.26504557
_cell_angle_beta   111.46148466
_cell_angle_gamma   89.91878961
_symmetry_Int_Tables_number   1
_chemical_formula_structural   La8Ho2OsRu3
_chemical_formula_sum   'La8 Ho2 Os1 Ru3'
_cell_volume   408.02746346
_cell_formula_units_Z   1
loop_
 _symmetry_equiv_pos_site_id
 _symmetry_equiv_pos_as_xyz
  1  'x, y, z'
loop_
 _atom_site_type_symbol
 _atom_site_label
 _atom_site_symmetry_multiplicity
 _atom_site_fract_x
 _atom_site_fract_y
 _atom_site_fract_z
 _atom_site_occupancy
  La  La0  1  0.981047  0.911330  0.182301  1
  La  La1  1  0.798413  0.595526  0.819910  1
  La  La2  1  0.022203  0.092047  0.817189  1
  La  La3  1  0.201596  0.405880  0.182811  1
  La  La4  1  0.635399  0.816601  0.424256  1
  La  La5  1  0.208633  0.678410  0.575774  1
  La  La6  1  0.366607  0.180281  0.575710  1
  La  La7  1  0.789179  0.318548  0.423818  1
  Ho  Ho8  1  0.435073  0.750812  0.001347  1
  Ho  Ho9  1  0.567238  0.252866  0.000495  1
  Os  Os10  1  0.813783  0.574736  0.210777  1
  Ru  Ru11  1  0.604179  0.925617  0.780565  1
  Ru  Ru12  1  0.179647  0.421677  0.785869  1
  Ru  Ru13  1  0.397002  0.075669  0.219180  1
