# generated using pymatgen
data_Zr2Sc4Pb5
_symmetry_space_group_name_H-M   'P 1'
_cell_length_a   6.16380168
_cell_length_b   9.04633383
_cell_length_c   11.20678285
_cell_angle_alpha   113.80403219
_cell_angle_beta   105.96219897
_cell_angle_gamma   90.00000045
_symmetry_Int_Tables_number   1
_chemical_formula_structural   Zr2Sc4Pb5
_chemical_formula_sum   'Zr4 Sc8 Pb10'
_cell_volume   545.29226830
_cell_formula_units_Z   2
loop_
 _symmetry_equiv_pos_site_id
 _symmetry_equiv_pos_as_xyz
  1  'x, y, z'
loop_
 _atom_site_type_symbol
 _atom_site_label
 _atom_site_symmetry_multiplicity
 _atom_site_fract_x
 _atom_site_fract_y
 _atom_site_fract_z
 _atom_site_occupancy
  Zr  Zr0  1  0.557047  0.307047  0.614093  1
  Zr  Zr1  1  0.442953  0.692953  0.385907  1
  Zr  Zr2  1  0.942953  0.692953  0.385907  1
  Zr  Zr3  1  0.057047  0.307047  0.614093  1
  Sc  Sc4  1  0.437398  0.673642  0.874795  1
  Sc  Sc5  1  0.562602  0.326358  0.125205  1
  Sc  Sc6  1  0.937398  0.201153  0.874795  1
  Sc  Sc7  1  0.062602  0.798847  0.125205  1
  Sc  Sc8  1  0.145476  0.258391  0.290953  1
  Sc  Sc9  1  0.854524  0.741609  0.709047  1
  Sc  Sc10  1  0.645476  0.032563  0.290953  1
  Sc  Sc11  1  0.354524  0.967437  0.709047  1
  Pb  Pb12  1  0.292268  0.594685  0.584535  1
  Pb  Pb13  1  0.707732  0.405315  0.415465  1
  Pb  Pb14  1  0.792268  0.989850  0.584535  1
  Pb  Pb15  1  0.207732  0.010150  0.415465  1
  Pb  Pb16  1  0.250000  0.000000  0.000000  1
  Pb  Pb17  1  0.750000  0.000000  0.000000  1
  Pb  Pb18  1  0.071663  0.466545  0.143326  1
  Pb  Pb19  1  0.928337  0.533455  0.856674  1
  Pb  Pb20  1  0.571663  0.676781  0.143326  1
  Pb  Pb21  1  0.428337  0.323219  0.856674  1
