# generated using pymatgen
data_Mg3Sc5(B6Ir)4
_symmetry_space_group_name_H-M   'P 1'
_cell_length_a   3.47377900
_cell_length_b   8.84702985
_cell_length_c   11.18159406
_cell_angle_alpha   89.94827134
_cell_angle_beta   90.00000000
_cell_angle_gamma   90.00000000
_symmetry_Int_Tables_number   1
_chemical_formula_structural   Mg3Sc5(B6Ir)4
_chemical_formula_sum   'Mg3 Sc5 B24 Ir4'
_cell_volume   343.63961394
_cell_formula_units_Z   1
loop_
 _symmetry_equiv_pos_site_id
 _symmetry_equiv_pos_as_xyz
  1  'x, y, z'
loop_
 _atom_site_type_symbol
 _atom_site_label
 _atom_site_symmetry_multiplicity
 _atom_site_fract_x
 _atom_site_fract_y
 _atom_site_fract_z
 _atom_site_occupancy
  Mg  Mg0  1  0.000000  0.947800  0.380644  1
  Mg  Mg1  1  0.000000  0.052444  0.620070  1
  Mg  Mg2  1  0.000000  0.553693  0.877416  1
  Sc  Sc3  1  0.000000  0.182871  0.914780  1
  Sc  Sc4  1  0.000000  0.816222  0.083891  1
  Sc  Sc5  1  0.000000  0.684005  0.585096  1
  Sc  Sc6  1  0.000000  0.316416  0.416082  1
  Sc  Sc7  1  0.000000  0.445535  0.123182  1
  B  B8  1  0.500000  0.369819  0.818553  1
  B  B9  1  0.500000  0.979320  0.214220  1
  B  B10  1  0.500000  0.555608  0.436319  1
  B  B11  1  0.500000  0.294187  0.236817  1
  B  B12  1  0.500000  0.204585  0.736118  1
  B  B13  1  0.500000  0.102058  0.472419  1
  B  B14  1  0.500000  0.796266  0.263980  1
  B  B15  1  0.500000  0.445119  0.564616  1
  B  B16  1  0.500000  0.245744  0.577656  1
  B  B17  1  0.500000  0.480052  0.286585  1
  B  B18  1  0.500000  0.705127  0.763179  1
  B  B19  1  0.500000  0.754476  0.423438  1
  B  B20  1  0.500000  0.520610  0.713548  1
  B  B21  1  0.500000  0.898034  0.527961  1
  B  B22  1  0.500000  0.053691  0.064011  1
  B  B23  1  0.500000  0.603616  0.027456  1
  B  B24  1  0.500000  0.746587  0.921451  1
  B  B25  1  0.500000  0.020299  0.785915  1
  B  B26  1  0.500000  0.397086  0.971547  1
  B  B27  1  0.500000  0.945422  0.934921  1
  B  B28  1  0.500000  0.631599  0.180406  1
  B  B29  1  0.500000  0.252661  0.076732  1
  B  B30  1  0.500000  0.870559  0.680311  1
  B  B31  1  0.500000  0.129668  0.320522  1
  Ir  Ir32  1  0.000000  0.137825  0.179971  1
  Ir  Ir33  1  0.000000  0.359750  0.681425  1
  Ir  Ir34  1  0.000000  0.859702  0.819591  1
  Ir  Ir35  1  0.000000  0.641543  0.319175  1
