# generated using pymatgen
data_Sm7Tm12ThSn16
_symmetry_space_group_name_H-M   'P 1'
_cell_length_a   8.04210677
_cell_length_b   8.19551579
_cell_length_c   15.45427300
_cell_angle_alpha   90.00706802
_cell_angle_beta   89.81313184
_cell_angle_gamma   90.22058506
_symmetry_Int_Tables_number   1
_chemical_formula_structural   Sm7Tm12ThSn16
_chemical_formula_sum   'Sm7 Tm12 Th1 Sn16'
_cell_volume   1018.56599890
_cell_formula_units_Z   1
loop_
 _symmetry_equiv_pos_site_id
 _symmetry_equiv_pos_as_xyz
  1  'x, y, z'
loop_
 _atom_site_type_symbol
 _atom_site_label
 _atom_site_symmetry_multiplicity
 _atom_site_fract_x
 _atom_site_fract_y
 _atom_site_fract_z
 _atom_site_occupancy
  Sm  Sm0  1  0.016981  0.177887  0.595467  1
  Sm  Sm1  1  0.482871  0.678829  0.403023  1
  Sm  Sm2  1  0.983125  0.821671  0.097393  1
  Sm  Sm3  1  0.484052  0.679200  0.097155  1
  Sm  Sm4  1  0.983010  0.821663  0.402969  1
  Sm  Sm5  1  0.517994  0.320914  0.596776  1
  Sm  Sm6  1  0.017262  0.177384  0.903371  1
  Tm  Tm7  1  0.361359  0.837298  0.876519  1
  Tm  Tm8  1  0.863027  0.663014  0.623291  1
  Tm  Tm9  1  0.637510  0.163019  0.376909  1
  Tm  Tm10  1  0.139386  0.335922  0.124339  1
  Tm  Tm11  1  0.638993  0.163170  0.123427  1
  Tm  Tm12  1  0.137334  0.336954  0.376384  1
  Tm  Tm13  1  0.362294  0.836844  0.622550  1
  Tm  Tm14  1  0.860641  0.663544  0.875703  1
  Tm  Tm15  1  0.193958  0.504347  0.749304  1
  Tm  Tm16  1  0.693785  0.997440  0.749355  1
  Tm  Tm17  1  0.806415  0.496497  0.250437  1
  Tm  Tm18  1  0.305788  0.003364  0.250555  1
  Th  Th19  1  0.514014  0.321594  0.904746  1
  Sn  Sn20  1  0.301049  0.040628  0.041823  1
  Sn  Sn21  1  0.800252  0.460143  0.458262  1
  Sn  Sn22  1  0.700117  0.958738  0.541651  1
  Sn  Sn23  1  0.196099  0.541964  0.959003  1
  Sn  Sn24  1  0.699272  0.959577  0.957871  1
  Sn  Sn25  1  0.200477  0.538673  0.541929  1
  Sn  Sn26  1  0.299799  0.040733  0.457946  1
  Sn  Sn27  1  0.802907  0.460525  0.042101  1
  Sn  Sn28  1  0.558967  0.624468  0.750344  1
  Sn  Sn29  1  0.059286  0.876140  0.749777  1
  Sn  Sn30  1  0.440977  0.376805  0.250274  1
  Sn  Sn31  1  0.940056  0.122658  0.250415  1
  Sn  Sn32  1  0.324574  0.144422  0.749069  1
  Sn  Sn33  1  0.827194  0.353295  0.749926  1
  Sn  Sn34  1  0.674560  0.854554  0.250052  1
  Sn  Sn35  1  0.174617  0.646123  0.249887  1
