# generated using pymatgen
data_Er4CdPt11
_symmetry_space_group_name_H-M   'P 1'
_cell_length_a   4.16464800
_cell_length_b   5.82222419
_cell_length_c   11.65562161
_cell_angle_alpha   88.38203351
_cell_angle_beta   90.00000000
_cell_angle_gamma   90.00000000
_symmetry_Int_Tables_number   1
_chemical_formula_structural   Er4CdPt11
_chemical_formula_sum   'Er4 Cd1 Pt11'
_cell_volume   282.50717413
_cell_formula_units_Z   1
loop_
 _symmetry_equiv_pos_site_id
 _symmetry_equiv_pos_as_xyz
  1  'x, y, z'
loop_
 _atom_site_type_symbol
 _atom_site_label
 _atom_site_symmetry_multiplicity
 _atom_site_fract_x
 _atom_site_fract_y
 _atom_site_fract_z
 _atom_site_occupancy
  Er  Er0  1  0.500000  0.753443  0.374890  1
  Er  Er1  1  0.500000  0.724714  0.864822  1
  Er  Er2  1  0.500000  0.275286  0.135178  1
  Er  Er3  1  0.500000  0.246557  0.625110  1
  Cd  Cd4  1  0.000000  0.000000  0.000000  1
  Pt  Pt5  1  0.000000  0.010839  0.250451  1
  Pt  Pt6  1  0.000000  0.989161  0.749549  1
  Pt  Pt7  1  0.000000  0.500000  0.000000  1
  Pt  Pt8  1  0.000000  0.500000  0.500000  1
  Pt  Pt9  1  0.000000  0.513197  0.250284  1
  Pt  Pt10  1  0.000000  0.486803  0.749716  1
  Pt  Pt11  1  0.500000  0.251393  0.377930  1
  Pt  Pt12  1  0.500000  0.235162  0.878203  1
  Pt  Pt13  1  0.500000  0.764838  0.121797  1
  Pt  Pt14  1  0.500000  0.748607  0.622070  1
  Pt  Pt15  1  0.000000  0.000000  0.500000  1
