# generated using pymatgen
data_Y5Nb3(As3Rh4)4
_symmetry_space_group_name_H-M   'P 1'
_cell_length_a   13.23645000
_cell_length_b   13.23645054
_cell_length_c   3.98799900
_cell_angle_alpha   90.00000000
_cell_angle_beta   90.00000000
_cell_angle_gamma   120.00000365
_symmetry_Int_Tables_number   1
_chemical_formula_structural   Y5Nb3(As3Rh4)4
_chemical_formula_sum   'Y5 Nb3 As12 Rh16'
_cell_volume   605.10218482
_cell_formula_units_Z   1
loop_
 _symmetry_equiv_pos_site_id
 _symmetry_equiv_pos_as_xyz
  1  'x, y, z'
loop_
 _atom_site_type_symbol
 _atom_site_label
 _atom_site_symmetry_multiplicity
 _atom_site_fract_x
 _atom_site_fract_y
 _atom_site_fract_z
 _atom_site_occupancy
  Y  Y0  1  0.188378  0.188378  0.500000  1
  Y  Y1  1  0.811622  0.000000  0.500000  1
  Y  Y2  1  0.000000  0.811622  0.500000  1
  Y  Y3  1  0.333333  0.666667  0.000000  1
  Y  Y4  1  0.666667  0.333333  0.000000  1
  Nb  Nb5  1  0.553325  0.553325  0.000000  1
  Nb  Nb6  1  0.446675  0.000000  0.000000  1
  Nb  Nb7  1  0.000000  0.446675  0.000000  1
  As  As8  1  0.824094  0.824094  0.000000  1
  As  As9  1  0.175906  0.000000  0.000000  1
  As  As10  1  0.000000  0.175906  0.000000  1
  As  As11  1  0.165733  0.484804  0.500000  1
  As  As12  1  0.515196  0.680929  0.500000  1
  As  As13  1  0.319071  0.834267  0.500000  1
  As  As14  1  0.680929  0.515196  0.500000  1
  As  As15  1  0.834267  0.319071  0.500000  1
  As  As16  1  0.484804  0.165733  0.500000  1
  As  As17  1  0.359820  0.359820  0.000000  1
  As  As18  1  0.640180  0.000000  0.000000  1
  As  As19  1  0.000000  0.640180  0.000000  1
  Rh  Rh20  1  0.719957  0.719957  0.500000  1
  Rh  Rh21  1  0.280043  0.000000  0.500000  1
  Rh  Rh22  1  0.000000  0.280043  0.500000  1
  Rh  Rh23  1  0.176236  0.374427  0.000000  1
  Rh  Rh24  1  0.625573  0.801808  0.000000  1
  Rh  Rh25  1  0.198192  0.823764  0.000000  1
  Rh  Rh26  1  0.801808  0.625573  0.000000  1
  Rh  Rh27  1  0.823764  0.198192  0.000000  1
  Rh  Rh28  1  0.374427  0.176236  0.000000  1
  Rh  Rh29  1  0.352654  0.483074  0.500000  1
  Rh  Rh30  1  0.516926  0.869581  0.500000  1
  Rh  Rh31  1  0.130419  0.647346  0.500000  1
  Rh  Rh32  1  0.869581  0.516926  0.500000  1
  Rh  Rh33  1  0.647346  0.130419  0.500000  1
  Rh  Rh34  1  0.483074  0.352654  0.500000  1
  Rh  Rh35  1  0.000000  0.000000  0.000000  1
