# generated using pymatgen
data_La8AlSi11Au4
_symmetry_space_group_name_H-M   'P 1'
_cell_length_a   8.35649204
_cell_length_b   8.35649223
_cell_length_c   8.79731900
_cell_angle_alpha   90.00547829
_cell_angle_beta   89.99451485
_cell_angle_gamma   119.86122991
_symmetry_Int_Tables_number   1
_chemical_formula_structural   La8AlSi11Au4
_chemical_formula_sum   'La8 Al1 Si11 Au4'
_cell_volume   532.76364418
_cell_formula_units_Z   1
loop_
 _symmetry_equiv_pos_site_id
 _symmetry_equiv_pos_as_xyz
  1  'x, y, z'
loop_
 _atom_site_type_symbol
 _atom_site_label
 _atom_site_symmetry_multiplicity
 _atom_site_fract_x
 _atom_site_fract_y
 _atom_site_fract_z
 _atom_site_occupancy
  La  La0  1  0.998224  0.001776  0.248853  1
  La  La1  1  0.998152  0.001848  0.751075  1
  La  La2  1  0.500478  0.499522  0.250842  1
  La  La3  1  0.502991  0.001678  0.249749  1
  La  La4  1  0.998322  0.497009  0.249749  1
  La  La5  1  0.499766  0.500234  0.749106  1
  La  La6  1  0.502623  0.000564  0.750312  1
  La  La7  1  0.999436  0.497377  0.750312  1
  Al  Al8  1  0.164792  0.835208  0.500651  1
  Si  Si9  1  0.163629  0.327599  0.500366  1
  Si  Si10  1  0.672401  0.836371  0.500366  1
  Si  Si11  1  0.836374  0.163626  0.499679  1
  Si  Si12  1  0.832856  0.672518  0.499642  1
  Si  Si13  1  0.327482  0.167144  0.499642  1
  Si  Si14  1  0.836818  0.163182  0.000855  1
  Si  Si15  1  0.836874  0.672892  0.000762  1
  Si  Si16  1  0.327108  0.163126  0.000762  1
  Si  Si17  1  0.163525  0.836475  0.999176  1
  Si  Si18  1  0.163950  0.327200  0.999195  1
  Si  Si19  1  0.672800  0.836050  0.999195  1
  Au  Au20  1  0.334786  0.665214  0.498313  1
  Au  Au21  1  0.666779  0.333221  0.501334  1
  Au  Au22  1  0.666516  0.333484  0.998226  1
  Au  Au23  1  0.333317  0.666683  0.001839  1
