# generated using pymatgen
data_HoLu5OsRu
_symmetry_space_group_name_H-M   'P 1'
_cell_length_a   6.19734400
_cell_length_b   7.30028100
_cell_length_c   8.87344400
_cell_angle_alpha   90.00000000
_cell_angle_beta   90.00000000
_cell_angle_gamma   90.00000000
_symmetry_Int_Tables_number   1
_chemical_formula_structural   HoLu5OsRu
_chemical_formula_sum   'Ho2 Lu10 Os2 Ru2'
_cell_volume   401.45548270
_cell_formula_units_Z   2
loop_
 _symmetry_equiv_pos_site_id
 _symmetry_equiv_pos_as_xyz
  1  'x, y, z'
loop_
 _atom_site_type_symbol
 _atom_site_label
 _atom_site_symmetry_multiplicity
 _atom_site_fract_x
 _atom_site_fract_y
 _atom_site_fract_z
 _atom_site_occupancy
  Ho  Ho0  1  0.130547  0.458402  0.750000  1
  Ho  Ho1  1  0.369453  0.958401  0.750000  1
  Lu  Lu2  1  0.331160  0.675735  0.064841  1
  Lu  Lu3  1  0.168840  0.175735  0.435159  1
  Lu  Lu4  1  0.665457  0.325458  0.561251  1
  Lu  Lu5  1  0.834543  0.825458  0.938749  1
  Lu  Lu6  1  0.665457  0.325458  0.938749  1
  Lu  Lu7  1  0.834543  0.825458  0.561251  1
  Lu  Lu8  1  0.331160  0.675735  0.435159  1
  Lu  Lu9  1  0.168840  0.175735  0.064841  1
  Lu  Lu10  1  0.870313  0.539780  0.250000  1
  Lu  Lu11  1  0.629687  0.039780  0.250000  1
  Os  Os12  1  0.037115  0.883356  0.250000  1
  Os  Os13  1  0.462885  0.383356  0.250000  1
  Ru  Ru14  1  0.959953  0.116077  0.750000  1
  Ru  Ru15  1  0.540047  0.616077  0.750000  1
