# generated using pymatgen
data_Y3TmAl4(NiRh)2
_symmetry_space_group_name_H-M   'P 1'
_cell_length_a   4.25052400
_cell_length_b   6.79062951
_cell_length_c   7.86723915
_cell_angle_alpha   90.36074989
_cell_angle_beta   90.00000000
_cell_angle_gamma   90.00000000
_symmetry_Int_Tables_number   1
_chemical_formula_structural   Y3TmAl4(NiRh)2
_chemical_formula_sum   'Y3 Tm1 Al4 Ni2 Rh2'
_cell_volume   227.07339476
_cell_formula_units_Z   1
loop_
 _symmetry_equiv_pos_site_id
 _symmetry_equiv_pos_as_xyz
  1  'x, y, z'
loop_
 _atom_site_type_symbol
 _atom_site_label
 _atom_site_symmetry_multiplicity
 _atom_site_fract_x
 _atom_site_fract_y
 _atom_site_fract_z
 _atom_site_occupancy
  Y  Y0  1  0.250000  0.968383  0.319768  1
  Y  Y1  1  0.750000  0.536682  0.825847  1
  Y  Y2  1  0.250000  0.467161  0.180820  1
  Tm  Tm3  1  0.750000  0.036904  0.673671  1
  Al  Al4  1  0.750000  0.633120  0.437046  1
  Al  Al5  1  0.750000  0.132009  0.062407  1
  Al  Al6  1  0.250000  0.360427  0.555104  1
  Al  Al7  1  0.250000  0.860746  0.945141  1
  Ni  Ni8  1  0.750000  0.770078  0.128148  1
  Ni  Ni9  1  0.750000  0.269139  0.374673  1
  Rh  Rh10  1  0.250000  0.228926  0.875657  1
  Rh  Rh11  1  0.250000  0.736426  0.621719  1
