# generated using pymatgen
data_Ho4TmV2Co17P12
_symmetry_space_group_name_H-M   'P 1'
_cell_length_a   12.02561618
_cell_length_b   11.98270998
_cell_length_c   3.66052100
_cell_angle_alpha   90.00000000
_cell_angle_beta   90.00000000
_cell_angle_gamma   119.89611187
_symmetry_Int_Tables_number   1
_chemical_formula_structural   Ho4TmV2Co17P12
_chemical_formula_sum   'Ho4 Tm1 V2 Co17 P12'
_cell_volume   457.28779373
_cell_formula_units_Z   1
loop_
 _symmetry_equiv_pos_site_id
 _symmetry_equiv_pos_as_xyz
  1  'x, y, z'
loop_
 _atom_site_type_symbol
 _atom_site_label
 _atom_site_symmetry_multiplicity
 _atom_site_fract_x
 _atom_site_fract_y
 _atom_site_fract_z
 _atom_site_occupancy
  Ho  Ho0  1  0.664992  0.332821  0.000000  1
  Ho  Ho1  1  0.335016  0.667818  0.000000  1
  Ho  Ho2  1  0.186411  0.000951  0.500000  1
  Ho  Ho3  1  0.999943  0.187939  0.500000  1
  Tm  Tm4  1  0.813277  0.814427  0.500000  1
  V  V5  1  0.442724  0.443110  0.000000  1
  V  V6  1  0.557702  0.000325  0.000000  1
  Co  Co7  1  0.873678  0.357596  0.500000  1
  Co  Co8  1  0.644139  0.519357  0.500000  1
  Co  Co9  1  0.482064  0.126636  0.500000  1
  Co  Co10  1  0.356053  0.875101  0.500000  1
  Co  Co11  1  0.518268  0.644763  0.500000  1
  Co  Co12  1  0.126331  0.483967  0.500000  1
  Co  Co13  1  0.999942  0.551241  0.000000  1
  Co  Co14  1  0.801577  0.178654  0.000000  1
  Co  Co15  1  0.823656  0.622261  0.000000  1
  Co  Co16  1  0.375154  0.198229  0.000000  1
  Co  Co17  1  0.176002  0.797971  0.000000  1
  Co  Co18  1  0.625383  0.822932  0.000000  1
  Co  Co19  1  0.198432  0.377267  0.000000  1
  Co  Co20  1  0.281485  0.281802  0.500000  1
  Co  Co21  1  0.718700  0.000029  0.500000  1
  Co  Co22  1  0.999731  0.714991  0.500000  1
  Co  Co23  1  0.999542  0.997800  0.000000  1
  P  P24  1  0.684777  0.165262  0.500000  1
  P  P25  1  0.834774  0.519588  0.500000  1
  P  P26  1  0.479461  0.315802  0.500000  1
  P  P27  1  0.165124  0.684872  0.500000  1
  P  P28  1  0.520632  0.836304  0.500000  1
  P  P29  1  0.315405  0.480736  0.500000  1
  P  P30  1  0.178197  0.179084  0.000000  1
  P  P31  1  0.821406  0.000191  0.000000  1
  P  P32  1  0.999337  0.818507  0.000000  1
  P  P33  1  0.637626  0.636139  0.000000  1
  P  P34  1  0.363073  0.998521  0.000000  1
  P  P35  1  0.999988  0.367004  0.000000  1
