# generated using pymatgen
data_Tb2Y2Tm(SiB4)2
_symmetry_space_group_name_H-M   'P 1'
_cell_length_a   7.23197103
_cell_length_b   7.23201004
_cell_length_c   8.08081401
_cell_angle_alpha   89.99385594
_cell_angle_beta   89.99991813
_cell_angle_gamma   90.01079051
_symmetry_Int_Tables_number   1
_chemical_formula_structural   Tb2Y2Tm(SiB4)2
_chemical_formula_sum   'Tb4 Y4 Tm2 Si4 B16'
_cell_volume   422.64019627
_cell_formula_units_Z   2
loop_
 _symmetry_equiv_pos_site_id
 _symmetry_equiv_pos_as_xyz
  1  'x, y, z'
loop_
 _atom_site_type_symbol
 _atom_site_label
 _atom_site_symmetry_multiplicity
 _atom_site_fract_x
 _atom_site_fract_y
 _atom_site_fract_z
 _atom_site_occupancy
  Tb  Tb0  1  0.680307  0.180274  0.225360  1
  Tb  Tb1  1  0.319612  0.819659  0.774497  1
  Tb  Tb2  1  0.319723  0.819691  0.225455  1
  Tb  Tb3  1  0.819589  0.680388  0.225268  1
  Y  Y4  1  0.819599  0.680412  0.775088  1
  Y  Y5  1  0.680273  0.180314  0.774991  1
  Y  Y6  1  0.180407  0.319606  0.775174  1
  Y  Y7  1  0.180321  0.319661  0.224782  1
  Tm  Tm8  1  0.999943  0.000103  0.500077  1
  Tm  Tm9  1  0.499937  0.499899  0.500077  1
  Si  Si10  1  0.115476  0.615301  0.500135  1
  Si  Si11  1  0.884560  0.384387  0.500132  1
  Si  Si12  1  0.384470  0.115697  0.500117  1
  Si  Si13  1  0.615561  0.884607  0.500146  1
  B  B14  1  0.172402  0.039126  0.999878  1
  B  B15  1  0.827638  0.960935  0.999933  1
  B  B16  1  0.960864  0.172398  0.999916  1
  B  B17  1  0.327675  0.539081  0.999872  1
  B  B18  1  0.039079  0.827717  0.999896  1
  B  B19  1  0.672355  0.460861  0.999941  1
  B  B20  1  0.539060  0.672330  0.999910  1
  B  B21  1  0.460875  0.327563  0.999902  1
  B  B22  1  0.089896  0.589833  0.999944  1
  B  B23  1  0.910232  0.410163  0.000044  1
  B  B24  1  0.410183  0.089879  0.999948  1
  B  B25  1  0.589940  0.910119  0.000042  1
  B  B26  1  0.000028  0.000116  0.162476  1
  B  B27  1  0.999982  0.000085  0.837262  1
  B  B28  1  0.500042  0.499851  0.837262  1
  B  B29  1  0.499972  0.499943  0.162475  1
