# generated using pymatgen
data_TmPu(AlB4)2
_symmetry_space_group_name_H-M   'P 1'
_cell_length_a   3.55980500
_cell_length_b   5.93863851
_cell_length_c   11.50852099
_cell_angle_alpha   89.95236644
_cell_angle_beta   90.00000000
_cell_angle_gamma   90.00000000
_symmetry_Int_Tables_number   1
_chemical_formula_structural   TmPu(AlB4)2
_chemical_formula_sum   'Tm2 Pu2 Al4 B16'
_cell_volume   243.29459644
_cell_formula_units_Z   2
loop_
 _symmetry_equiv_pos_site_id
 _symmetry_equiv_pos_as_xyz
  1  'x, y, z'
loop_
 _atom_site_type_symbol
 _atom_site_label
 _atom_site_symmetry_multiplicity
 _atom_site_fract_x
 _atom_site_fract_y
 _atom_site_fract_z
 _atom_site_occupancy
  Tm  Tm0  1  0.000000  0.129073  0.150386  1
  Tm  Tm1  1  0.000000  0.870927  0.849614  1
  Pu  Pu2  1  0.000000  0.629841  0.349462  1
  Pu  Pu3  1  0.000000  0.370159  0.650538  1
  Al  Al4  1  0.000000  0.638442  0.090925  1
  Al  Al5  1  0.000000  0.361558  0.909075  1
  Al  Al6  1  0.000000  0.138848  0.409876  1
  Al  Al7  1  0.000000  0.861152  0.590124  1
  B  B8  1  0.500000  0.790487  0.187513  1
  B  B9  1  0.500000  0.209513  0.812487  1
  B  B10  1  0.500000  0.290406  0.312136  1
  B  B11  1  0.500000  0.709594  0.687864  1
  B  B12  1  0.500000  0.867332  0.030861  1
  B  B13  1  0.500000  0.132668  0.969139  1
  B  B14  1  0.500000  0.366869  0.468570  1
  B  B15  1  0.500000  0.633131  0.531430  1
  B  B16  1  0.500000  0.886835  0.452650  1
  B  B17  1  0.500000  0.113165  0.547350  1
  B  B18  1  0.500000  0.385222  0.046563  1
  B  B19  1  0.500000  0.614778  0.953437  1
  B  B20  1  0.500000  0.973626  0.306715  1
  B  B21  1  0.500000  0.026374  0.693285  1
  B  B22  1  0.500000  0.473198  0.192658  1
  B  B23  1  0.500000  0.526802  0.807342  1
