# generated using pymatgen
data_Dy3CoSn3PtRh
_symmetry_space_group_name_H-M   'P 1'
_cell_length_a   7.55413400
_cell_length_b   7.55413441
_cell_length_c   3.81255900
_cell_angle_alpha   90.00000000
_cell_angle_beta   90.00000000
_cell_angle_gamma   119.99998944
_symmetry_Int_Tables_number   1
_chemical_formula_structural   Dy3CoSn3PtRh
_chemical_formula_sum   'Dy3 Co1 Sn3 Pt1 Rh1'
_cell_volume   188.41550707
_cell_formula_units_Z   1
loop_
 _symmetry_equiv_pos_site_id
 _symmetry_equiv_pos_as_xyz
  1  'x, y, z'
loop_
 _atom_site_type_symbol
 _atom_site_label
 _atom_site_symmetry_multiplicity
 _atom_site_fract_x
 _atom_site_fract_y
 _atom_site_fract_z
 _atom_site_occupancy
  Dy  Dy0  1  0.403405  0.408125  0.500000  1
  Dy  Dy1  1  0.591875  0.995279  0.500000  1
  Dy  Dy2  1  0.004721  0.596595  0.500000  1
  Co  Co3  1  0.000000  0.000000  0.500000  1
  Sn  Sn4  1  0.747032  0.750978  0.000000  1
  Sn  Sn5  1  0.249022  0.996054  0.000000  1
  Sn  Sn6  1  0.003946  0.252968  0.000000  1
  Pt  Pt7  1  0.666667  0.333333  0.000000  1
  Rh  Rh8  1  0.333333  0.666667  0.000000  1
