# generated using pymatgen
data_YbYZr2Al17SiIr6
_symmetry_space_group_name_H-M   'P 1'
_cell_length_a   7.52013200
_cell_length_b   7.50972944
_cell_length_c   9.37978200
_cell_angle_alpha   90.00000000
_cell_angle_beta   90.00000000
_cell_angle_gamma   119.62829551
_symmetry_Int_Tables_number   1
_chemical_formula_structural   YbYZr2Al17SiIr6
_chemical_formula_sum   'Yb1 Y1 Zr2 Al17 Si1 Ir6'
_cell_volume   460.45547709
_cell_formula_units_Z   1
loop_
 _symmetry_equiv_pos_site_id
 _symmetry_equiv_pos_as_xyz
  1  'x, y, z'
loop_
 _atom_site_type_symbol
 _atom_site_label
 _atom_site_symmetry_multiplicity
 _atom_site_fract_x
 _atom_site_fract_y
 _atom_site_fract_z
 _atom_site_occupancy
  Yb  Yb0  1  0.323667  0.007341  0.750000  1
  Y  Y1  1  0.668805  0.994023  0.250000  1
  Zr  Zr2  1  0.997424  0.672391  0.250000  1
  Zr  Zr3  1  0.006461  0.323868  0.750000  1
  Al  Al4  1  0.124767  0.122136  0.250000  1
  Al  Al5  1  0.000635  0.336531  0.074167  1
  Al  Al6  1  0.001592  0.662396  0.924054  1
  Al  Al7  1  0.001592  0.662396  0.575946  1
  Al  Al8  1  0.332285  0.000108  0.425073  1
  Al  Al9  1  0.000635  0.336531  0.425833  1
  Al  Al10  1  0.664047  0.000819  0.580095  1
  Al  Al11  1  0.664047  0.000819  0.919905  1
  Al  Al12  1  0.332285  0.000108  0.074927  1
  Al  Al13  1  0.334177  0.335689  0.556418  1
  Al  Al14  1  0.669574  0.666819  0.441877  1
  Al  Al15  1  0.669574  0.666819  0.058123  1
  Al  Al16  1  0.334177  0.335689  0.943582  1
  Al  Al17  1  0.332919  0.546262  0.250000  1
  Al  Al18  1  0.669808  0.451301  0.750000  1
  Al  Al19  1  0.553699  0.342525  0.250000  1
  Al  Al20  1  0.443801  0.657266  0.750000  1
  Si  Si21  1  0.869648  0.872306  0.750000  1
  Ir  Ir22  1  0.674376  0.330714  0.999702  1
  Ir  Ir23  1  0.329948  0.673008  0.001003  1
  Ir  Ir24  1  0.329948  0.673008  0.498997  1
  Ir  Ir25  1  0.674376  0.330714  0.500298  1
  Ir  Ir26  1  0.997864  0.999203  0.993360  1
  Ir  Ir27  1  0.997864  0.999203  0.506640  1
