# generated using pymatgen
data_LaPaInRh2
_symmetry_space_group_name_H-M   'P 1'
_cell_length_a   7.83613600
_cell_length_b   7.91053300
_cell_length_c   3.70198300
_cell_angle_alpha   90.00000000
_cell_angle_beta   90.00000000
_cell_angle_gamma   90.00000000
_symmetry_Int_Tables_number   1
_chemical_formula_structural   LaPaInRh2
_chemical_formula_sum   'La2 Pa2 In2 Rh4'
_cell_volume   229.47856818
_cell_formula_units_Z   2
loop_
 _symmetry_equiv_pos_site_id
 _symmetry_equiv_pos_as_xyz
  1  'x, y, z'
loop_
 _atom_site_type_symbol
 _atom_site_label
 _atom_site_symmetry_multiplicity
 _atom_site_fract_x
 _atom_site_fract_y
 _atom_site_fract_z
 _atom_site_occupancy
  La  La0  1  0.830203  0.673335  0.500000  1
  La  La1  1  0.330203  0.826665  0.500000  1
  Pa  Pa2  1  0.173982  0.332715  0.500000  1
  Pa  Pa3  1  0.673982  0.167285  0.500000  1
  In  In4  1  0.006973  0.007019  0.000000  1
  In  In5  1  0.506973  0.492981  0.000000  1
  Rh  Rh6  1  0.135836  0.583248  0.000000  1
  Rh  Rh7  1  0.635836  0.916752  0.000000  1
  Rh  Rh8  1  0.353007  0.157565  0.000000  1
  Rh  Rh9  1  0.853007  0.342435  0.000000  1
