# generated using pymatgen
data_Tm2Al9ReNi2
_symmetry_space_group_name_H-M   'P 1'
_cell_length_a   7.51380333
_cell_length_b   7.51380208
_cell_length_c   9.39298179
_cell_angle_alpha   89.51413633
_cell_angle_beta   89.51413371
_cell_angle_gamma   120.86690986
_symmetry_Int_Tables_number   1
_chemical_formula_structural   Tm2Al9ReNi2
_chemical_formula_sum   'Tm4 Al18 Re2 Ni4'
_cell_volume   455.12329788
_cell_formula_units_Z   2
loop_
 _symmetry_equiv_pos_site_id
 _symmetry_equiv_pos_as_xyz
  1  'x, y, z'
loop_
 _atom_site_type_symbol
 _atom_site_label
 _atom_site_symmetry_multiplicity
 _atom_site_fract_x
 _atom_site_fract_y
 _atom_site_fract_z
 _atom_site_occupancy
  Tm  Tm0  1  0.994089  0.657471  0.254991  1
  Tm  Tm1  1  0.005911  0.342529  0.745009  1
  Tm  Tm2  1  0.657471  0.994089  0.254991  1
  Tm  Tm3  1  0.342529  0.005911  0.745009  1
  Al  Al4  1  0.113037  0.113037  0.245712  1
  Al  Al5  1  0.886963  0.886963  0.754288  1
  Al  Al6  1  0.995806  0.330486  0.070957  1
  Al  Al7  1  0.004194  0.669514  0.929043  1
  Al  Al8  1  0.995492  0.676385  0.575562  1
  Al  Al9  1  0.323615  0.004508  0.424438  1
  Al  Al10  1  0.004508  0.323615  0.424438  1
  Al  Al11  1  0.676385  0.995492  0.575562  1
  Al  Al12  1  0.669514  0.004194  0.929043  1
  Al  Al13  1  0.330486  0.995806  0.070957  1
  Al  Al14  1  0.333781  0.333781  0.551021  1
  Al  Al15  1  0.666219  0.666219  0.448979  1
  Al  Al16  1  0.669632  0.669632  0.051890  1
  Al  Al17  1  0.330368  0.330368  0.948110  1
  Al  Al18  1  0.336213  0.543914  0.244631  1
  Al  Al19  1  0.663787  0.456086  0.755369  1
  Al  Al20  1  0.543914  0.336213  0.244631  1
  Al  Al21  1  0.456086  0.663787  0.755369  1
  Re  Re22  1  0.324835  0.675165  0.500000  1
  Re  Re23  1  0.675165  0.324835  0.500000  1
  Ni  Ni24  1  0.671012  0.328988  0.000000  1
  Ni  Ni25  1  0.328988  0.671012  0.000000  1
  Ni  Ni26  1  0.000000  0.000000  0.000000  1
  Ni  Ni27  1  0.000000  0.000000  0.500000  1
