# generated using pymatgen
data_Np2Hg3F12
_symmetry_space_group_name_H-M   'P 1'
_cell_length_a   9.43439400
_cell_length_b   6.06353549
_cell_length_c   12.77455787
_cell_angle_alpha   85.99509322
_cell_angle_beta   90.00000000
_cell_angle_gamma   90.00000000
_symmetry_Int_Tables_number   1
_chemical_formula_structural   Np2Hg3F12
_chemical_formula_sum   'Np4 Hg6 F24'
_cell_volume   728.99407503
_cell_formula_units_Z   2
loop_
 _symmetry_equiv_pos_site_id
 _symmetry_equiv_pos_as_xyz
  1  'x, y, z'
loop_
 _atom_site_type_symbol
 _atom_site_label
 _atom_site_symmetry_multiplicity
 _atom_site_fract_x
 _atom_site_fract_y
 _atom_site_fract_z
 _atom_site_occupancy
  Np  Np0  1  0.139121  0.710350  0.669763  1
  Np  Np1  1  0.639121  0.289650  0.830237  1
  Np  Np2  1  0.860879  0.289650  0.330237  1
  Np  Np3  1  0.360879  0.710350  0.169763  1
  Hg  Hg4  1  0.719405  0.752283  0.558680  1
  Hg  Hg5  1  0.219405  0.247717  0.941320  1
  Hg  Hg6  1  0.280595  0.247717  0.441320  1
  Hg  Hg7  1  0.780595  0.752283  0.058680  1
  Hg  Hg8  1  0.500000  0.000000  0.500000  1
  Hg  Hg9  1  0.000000  0.000000  0.000000  1
  F  F10  1  0.935487  0.605085  0.614116  1
  F  F11  1  0.435487  0.394915  0.885884  1
  F  F12  1  0.064513  0.394915  0.385884  1
  F  F13  1  0.564513  0.605085  0.114116  1
  F  F14  1  0.201797  0.396757  0.719242  1
  F  F15  1  0.701797  0.603243  0.780758  1
  F  F16  1  0.798203  0.603243  0.280758  1
  F  F17  1  0.298203  0.396757  0.219242  1
  F  F18  1  0.055833  0.739935  0.818955  1
  F  F19  1  0.555833  0.260065  0.681045  1
  F  F20  1  0.167390  0.829856  0.215957  1
  F  F21  1  0.667390  0.170144  0.284043  1
  F  F22  1  0.832610  0.170144  0.784043  1
  F  F23  1  0.332610  0.829856  0.715957  1
  F  F24  1  0.267639  0.663811  0.023631  1
  F  F25  1  0.767639  0.336189  0.476369  1
  F  F26  1  0.732361  0.336189  0.976369  1
  F  F27  1  0.232361  0.663811  0.523631  1
  F  F28  1  0.420159  0.021803  0.116664  1
  F  F29  1  0.920159  0.978197  0.383336  1
  F  F30  1  0.579841  0.978197  0.883336  1
  F  F31  1  0.079841  0.021803  0.616664  1
  F  F32  1  0.444167  0.739935  0.318955  1
  F  F33  1  0.944167  0.260065  0.181045  1
