# generated using pymatgen
data_Cd2Hg2Ru3RhO14
_symmetry_space_group_name_H-M   'P 1'
_cell_length_a   7.29454138
_cell_length_b   7.27033779
_cell_length_c   7.34591200
_cell_angle_alpha   59.65553147
_cell_angle_beta   59.76675757
_cell_angle_gamma   59.28680283
_symmetry_Int_Tables_number   1
_chemical_formula_structural   Cd2Hg2Ru3RhO14
_chemical_formula_sum   'Cd2 Hg2 Ru3 Rh1 O14'
_cell_volume   272.77037573
_cell_formula_units_Z   1
loop_
 _symmetry_equiv_pos_site_id
 _symmetry_equiv_pos_as_xyz
  1  'x, y, z'
loop_
 _atom_site_type_symbol
 _atom_site_label
 _atom_site_symmetry_multiplicity
 _atom_site_fract_x
 _atom_site_fract_y
 _atom_site_fract_z
 _atom_site_occupancy
  Cd  Cd0  1  0.125000  0.125000  0.625000  1
  Cd  Cd1  1  0.125000  0.125000  0.125000  1
  Hg  Hg2  1  0.125000  0.625000  0.125000  1
  Hg  Hg3  1  0.625000  0.125000  0.125000  1
  Ru  Ru4  1  0.625000  0.625000  0.125000  1
  Ru  Ru5  1  0.125000  0.625000  0.625000  1
  Ru  Ru6  1  0.625000  0.625000  0.625000  1
  Rh  Rh7  1  0.625000  0.125000  0.625000  1
  O  O8  1  0.689994  0.683194  0.313407  1
  O  O9  1  0.938963  0.567486  0.556084  1
  O  O10  1  0.543438  0.946631  0.952971  1
  O  O11  1  0.956984  0.949163  0.546927  1
  O  O12  1  0.938963  0.567486  0.937465  1
  O  O13  1  0.543438  0.946631  0.556960  1
  O  O14  1  0.311037  0.682514  0.312535  1
  O  O15  1  0.311037  0.682514  0.693916  1
  O  O16  1  0.706562  0.303369  0.297029  1
  O  O17  1  0.706562  0.303369  0.693040  1
  O  O18  1  0.560006  0.566806  0.936593  1
  O  O19  1  0.293016  0.300837  0.703073  1
  O  O20  1  0.252561  0.257456  0.244992  1
  O  O21  1  0.997439  0.992544  0.005008  1
