# generated using pymatgen
data_Y6Hf8Al8Ir7
_symmetry_space_group_name_H-M   'P 1'
_cell_length_a   9.27797744
_cell_length_b   9.27797758
_cell_length_c   9.27797800
_cell_angle_alpha   59.99999852
_cell_angle_beta   59.99999801
_cell_angle_gamma   60.00000124
_symmetry_Int_Tables_number   1
_chemical_formula_structural   Y6Hf8Al8Ir7
_chemical_formula_sum   'Y6 Hf8 Al8 Ir7'
_cell_volume   564.73533818
_cell_formula_units_Z   1
loop_
 _symmetry_equiv_pos_site_id
 _symmetry_equiv_pos_as_xyz
  1  'x, y, z'
loop_
 _atom_site_type_symbol
 _atom_site_label
 _atom_site_symmetry_multiplicity
 _atom_site_fract_x
 _atom_site_fract_y
 _atom_site_fract_z
 _atom_site_occupancy
  Y  Y0  1  0.690264  0.690264  0.309736  1
  Y  Y1  1  0.309736  0.690264  0.309736  1
  Y  Y2  1  0.690264  0.309736  0.309736  1
  Y  Y3  1  0.309736  0.309736  0.690264  1
  Y  Y4  1  0.690264  0.309736  0.690264  1
  Y  Y5  1  0.309736  0.690264  0.690264  1
  Hf  Hf6  1  0.877422  0.877422  0.367736  1
  Hf  Hf7  1  0.877422  0.367736  0.877422  1
  Hf  Hf8  1  0.367736  0.877422  0.877422  1
  Hf  Hf9  1  0.877422  0.877422  0.877422  1
  Hf  Hf10  1  0.122578  0.122578  0.632264  1
  Hf  Hf11  1  0.122578  0.632264  0.122578  1
  Hf  Hf12  1  0.632264  0.122578  0.122578  1
  Hf  Hf13  1  0.122578  0.122578  0.122578  1
  Al  Al14  1  0.664706  0.664706  0.005882  1
  Al  Al15  1  0.664706  0.005882  0.664706  1
  Al  Al16  1  0.005882  0.664706  0.664706  1
  Al  Al17  1  0.664706  0.664706  0.664706  1
  Al  Al18  1  0.335294  0.335294  0.994118  1
  Al  Al19  1  0.335294  0.994118  0.335294  1
  Al  Al20  1  0.994118  0.335294  0.335294  1
  Al  Al21  1  0.335294  0.335294  0.335294  1
  Ir  Ir22  1  0.000000  0.000000  0.000000  1
  Ir  Ir23  1  0.000000  0.000000  0.500000  1
  Ir  Ir24  1  0.500000  0.000000  0.500000  1
  Ir  Ir25  1  0.000000  0.500000  0.500000  1
  Ir  Ir26  1  0.500000  0.500000  0.000000  1
  Ir  Ir27  1  0.000000  0.500000  0.000000  1
  Ir  Ir28  1  0.500000  0.000000  0.000000  1
