# generated using pymatgen
data_Cs2Sm2MnZnTe6
_symmetry_space_group_name_H-M   'P 1'
_cell_length_a   4.50776100
_cell_length_b   8.90757765
_cell_length_c   11.92116400
_cell_angle_alpha   90.00000000
_cell_angle_beta   90.00000000
_cell_angle_gamma   75.34313773
_symmetry_Int_Tables_number   1
_chemical_formula_structural   Cs2Sm2MnZnTe6
_chemical_formula_sum   'Cs2 Sm2 Mn1 Zn1 Te6'
_cell_volume   463.09652330
_cell_formula_units_Z   1
loop_
 _symmetry_equiv_pos_site_id
 _symmetry_equiv_pos_as_xyz
  1  'x, y, z'
loop_
 _atom_site_type_symbol
 _atom_site_label
 _atom_site_symmetry_multiplicity
 _atom_site_fract_x
 _atom_site_fract_y
 _atom_site_fract_z
 _atom_site_occupancy
  Cs  Cs0  1  0.744572  0.510855  0.250000  1
  Cs  Cs1  1  0.255532  0.488936  0.750000  1
  Sm  Sm2  1  0.999782  0.000437  0.999165  1
  Sm  Sm3  1  0.999782  0.000437  0.500835  1
  Mn  Mn4  1  0.462889  0.074221  0.250000  1
  Zn  Zn5  1  0.538051  0.923898  0.750000  1
  Te  Te6  1  0.378841  0.242317  0.060344  1
  Te  Te7  1  0.058660  0.882679  0.250000  1
  Te  Te8  1  0.378841  0.242317  0.439656  1
  Te  Te9  1  0.620924  0.758152  0.561155  1
  Te  Te10  1  0.941199  0.117602  0.750000  1
  Te  Te11  1  0.620924  0.758152  0.938845  1
