# generated using pymatgen
data_Tb2Y2Sn5SbRh7
_symmetry_space_group_name_H-M   'P 1'
_cell_length_a   7.61956234
_cell_length_b   7.61956366
_cell_length_c   7.62501834
_cell_angle_alpha   109.41411381
_cell_angle_beta   109.41411992
_cell_angle_gamma   109.55653651
_symmetry_Int_Tables_number   1
_chemical_formula_structural   Tb2Y2Sn5SbRh7
_chemical_formula_sum   'Tb2 Y2 Sn5 Sb1 Rh7'
_cell_volume   340.90487791
_cell_formula_units_Z   1
loop_
 _symmetry_equiv_pos_site_id
 _symmetry_equiv_pos_as_xyz
  1  'x, y, z'
loop_
 _atom_site_type_symbol
 _atom_site_label
 _atom_site_symmetry_multiplicity
 _atom_site_fract_x
 _atom_site_fract_y
 _atom_site_fract_z
 _atom_site_occupancy
  Tb  Tb0  1  0.998732  0.998732  0.502646  1
  Tb  Tb1  1  0.496086  0.496086  0.497354  1
  Y  Y2  1  0.496082  0.998695  0.000000  1
  Y  Y3  1  0.998695  0.496082  0.000000  1
  Sn  Sn4  1  0.997014  0.314100  0.316739  1
  Sn  Sn5  1  0.680275  0.997361  0.683261  1
  Sn  Sn6  1  0.690793  0.690793  0.000000  1
  Sn  Sn7  1  0.997361  0.680275  0.683261  1
  Sn  Sn8  1  0.314100  0.997014  0.316739  1
  Sb  Sb9  1  0.321322  0.321322  0.000000  1
  Rh  Rh10  1  0.008074  0.008074  0.000000  1
  Rh  Rh11  1  0.501295  0.750274  0.248802  1
  Rh  Rh12  1  0.750274  0.501295  0.248802  1
  Rh  Rh13  1  0.247965  0.747965  0.500000  1
  Rh  Rh14  1  0.252495  0.501472  0.751198  1
  Rh  Rh15  1  0.501472  0.252495  0.751198  1
  Rh  Rh16  1  0.747965  0.247965  0.500000  1
