# generated using pymatgen
data_Er12Co7Si8Os
_symmetry_space_group_name_H-M   'P 1'
_cell_length_a   5.50687037
_cell_length_b   7.61607743
_cell_length_c   12.54039323
_cell_angle_alpha   90.00947285
_cell_angle_beta   90.27401030
_cell_angle_gamma   90.34971791
_symmetry_Int_Tables_number   1
_chemical_formula_structural   Er12Co7Si8Os
_chemical_formula_sum   'Er12 Co7 Si8 Os1'
_cell_volume   525.93768955
_cell_formula_units_Z   1
loop_
 _symmetry_equiv_pos_site_id
 _symmetry_equiv_pos_as_xyz
  1  'x, y, z'
loop_
 _atom_site_type_symbol
 _atom_site_label
 _atom_site_symmetry_multiplicity
 _atom_site_fract_x
 _atom_site_fract_y
 _atom_site_fract_z
 _atom_site_occupancy
  Er  Er0  1  0.627574  0.250122  0.252367  1
  Er  Er1  1  0.372633  0.750140  0.749201  1
  Er  Er2  1  0.369211  0.754289  0.251730  1
  Er  Er3  1  0.630364  0.245601  0.748708  1
  Er  Er4  1  0.146256  0.395519  0.102586  1
  Er  Er5  1  0.860900  0.604159  0.896779  1
  Er  Er6  1  0.855320  0.602644  0.602429  1
  Er  Er7  1  0.853510  0.892192  0.401031  1
  Er  Er8  1  0.140337  0.400044  0.399907  1
  Er  Er9  1  0.141636  0.106747  0.601334  1
  Er  Er10  1  0.136702  0.109517  0.895983  1
  Er  Er11  1  0.857396  0.895155  0.102484  1
  Co  Co12  1  0.639478  0.970854  0.908240  1
  Co  Co13  1  0.636217  0.974116  0.587685  1
  Co  Co14  1  0.635432  0.527266  0.413019  1
  Co  Co15  1  0.359361  0.026462  0.415780  1
  Co  Co16  1  0.363593  0.474138  0.587832  1
  Co  Co17  1  0.366594  0.473718  0.909840  1
  Co  Co18  1  0.641553  0.523628  0.086682  1
  Si  Si19  1  0.142516  0.103051  0.257491  1
  Si  Si20  1  0.852363  0.897329  0.747847  1
  Si  Si21  1  0.844893  0.600486  0.250163  1
  Si  Si22  1  0.153900  0.399998  0.748580  1
  Si  Si23  1  0.615253  0.253657  0.994763  1
  Si  Si24  1  0.399112  0.742076  0.997303  1
  Si  Si25  1  0.391201  0.750109  0.501196  1
  Si  Si26  1  0.606454  0.250251  0.500713  1
  Os  Os27  1  0.360240  0.026732  0.088328  1
