# generated using pymatgen
data_Tb2Y2Ga12Tc
_symmetry_space_group_name_H-M   'P 1'
_cell_length_a   7.49907600
_cell_length_b   7.50150628
_cell_length_c   7.50150705
_cell_angle_alpha   109.48418197
_cell_angle_beta   109.47129597
_cell_angle_gamma   109.47130828
_symmetry_Int_Tables_number   1
_chemical_formula_structural   Tb2Y2Ga12Tc
_chemical_formula_sum   'Tb2 Y2 Ga12 Tc1'
_cell_volume   324.79736275
_cell_formula_units_Z   1
loop_
 _symmetry_equiv_pos_site_id
 _symmetry_equiv_pos_as_xyz
  1  'x, y, z'
loop_
 _atom_site_type_symbol
 _atom_site_label
 _atom_site_symmetry_multiplicity
 _atom_site_fract_x
 _atom_site_fract_y
 _atom_site_fract_z
 _atom_site_occupancy
  Tb  Tb0  1  0.500000  0.000000  0.000000  1
  Tb  Tb1  1  0.500000  0.500000  0.500000  1
  Y  Y2  1  0.000000  0.000000  0.500000  1
  Y  Y3  1  0.000000  0.500000  0.000000  1
  Ga  Ga4  1  0.749989  0.250000  0.499989  1
  Ga  Ga5  1  0.749989  0.499989  0.250000  1
  Ga  Ga6  1  0.500000  0.250000  0.750000  1
  Ga  Ga7  1  0.250011  0.500011  0.750000  1
  Ga  Ga8  1  0.250011  0.750000  0.500011  1
  Ga  Ga9  1  0.500000  0.750000  0.250000  1
  Ga  Ga10  1  0.709269  0.709309  0.999961  1
  Ga  Ga11  1  0.290731  0.000039  0.290691  1
  Ga  Ga12  1  0.000000  0.290693  0.290693  1
  Ga  Ga13  1  0.290731  0.290691  0.000039  1
  Ga  Ga14  1  0.709269  0.999961  0.709309  1
  Ga  Ga15  1  0.000000  0.709307  0.709307  1
  Tc  Tc16  1  0.000000  0.000000  0.000000  1
