# generated using pymatgen
data_Ba4Fe4CoNiN6
_symmetry_space_group_name_H-M   'P 1'
_cell_length_a   6.77387208
_cell_length_b   6.77387209
_cell_length_c   6.61673798
_cell_angle_alpha   87.83167352
_cell_angle_beta   87.83167034
_cell_angle_gamma   118.02476101
_symmetry_Int_Tables_number   1
_chemical_formula_structural   Ba4Fe4CoNiN6
_chemical_formula_sum   'Ba4 Fe4 Co1 Ni1 N6'
_cell_volume   267.28656328
_cell_formula_units_Z   1
loop_
 _symmetry_equiv_pos_site_id
 _symmetry_equiv_pos_as_xyz
  1  'x, y, z'
loop_
 _atom_site_type_symbol
 _atom_site_label
 _atom_site_symmetry_multiplicity
 _atom_site_fract_x
 _atom_site_fract_y
 _atom_site_fract_z
 _atom_site_occupancy
  Ba  Ba0  1  0.840073  0.674316  0.902732  1
  Ba  Ba1  1  0.325684  0.159927  0.597268  1
  Ba  Ba2  1  0.164116  0.327266  0.097966  1
  Ba  Ba3  1  0.672734  0.835884  0.402034  1
  Fe  Fe4  1  0.553221  0.149719  0.108820  1
  Fe  Fe5  1  0.445412  0.848016  0.896600  1
  Fe  Fe6  1  0.850281  0.446779  0.391180  1
  Fe  Fe7  1  0.151984  0.554588  0.603400  1
  Co  Co8  1  0.199586  0.800414  0.250000  1
  Ni  Ni9  1  0.802775  0.197225  0.750000  1
  N  N10  1  0.383121  0.616879  0.750000  1
  N  N11  1  0.614645  0.385355  0.250000  1
  N  N12  1  0.027510  0.724714  0.486959  1
  N  N13  1  0.718505  0.024932  0.993451  1
  N  N14  1  0.975068  0.281495  0.506549  1
  N  N15  1  0.275286  0.972490  0.013041  1
