# generated using pymatgen
data_PrScWO6
_symmetry_space_group_name_H-M   'P 1'
_cell_length_a   5.45935800
_cell_length_b   7.70895900
_cell_length_c   11.32973100
_cell_angle_alpha   90.00000000
_cell_angle_beta   90.00000000
_cell_angle_gamma   90.00000000
_symmetry_Int_Tables_number   1
_chemical_formula_structural   PrScWO6
_chemical_formula_sum   'Pr4 Sc4 W4 O24'
_cell_volume   476.82268485
_cell_formula_units_Z   4
loop_
 _symmetry_equiv_pos_site_id
 _symmetry_equiv_pos_as_xyz
  1  'x, y, z'
loop_
 _atom_site_type_symbol
 _atom_site_label
 _atom_site_symmetry_multiplicity
 _atom_site_fract_x
 _atom_site_fract_y
 _atom_site_fract_z
 _atom_site_occupancy
  Pr  Pr0  1  0.044364  0.251737  0.044427  1
  Pr  Pr1  1  0.544366  0.751738  0.455573  1
  Pr  Pr2  1  0.455635  0.251737  0.544427  1
  Pr  Pr3  1  0.955635  0.751738  0.955573  1
  Sc  Sc4  1  0.543591  0.508209  0.141872  1
  Sc  Sc5  1  0.043592  0.008210  0.358127  1
  Sc  Sc6  1  0.956408  0.508209  0.641872  1
  Sc  Sc7  1  0.456408  0.008210  0.858128  1
  W  W8  1  0.550721  0.998195  0.140529  1
  W  W9  1  0.050721  0.498196  0.359472  1
  W  W10  1  0.949278  0.998195  0.640529  1
  W  W11  1  0.449278  0.498196  0.859471  1
  O  O12  1  0.264373  0.539144  0.017929  1
  O  O13  1  0.269957  0.961826  0.030730  1
  O  O14  1  0.663465  0.761957  0.119595  1
  O  O15  1  0.445264  0.239518  0.142746  1
  O  O16  1  0.860887  0.067078  0.206176  1
  O  O17  1  0.895121  0.442436  0.215315  1
  O  O18  1  0.395122  0.942435  0.284685  1
  O  O19  1  0.360887  0.567077  0.293825  1
  O  O20  1  0.945264  0.739517  0.357254  1
  O  O21  1  0.163465  0.261957  0.380404  1
  O  O22  1  0.769957  0.461827  0.469270  1
  O  O23  1  0.764372  0.039143  0.482070  1
  O  O24  1  0.235627  0.539144  0.517930  1
  O  O25  1  0.230042  0.961826  0.530730  1
  O  O26  1  0.836534  0.761957  0.619595  1
  O  O27  1  0.054735  0.239518  0.642746  1
  O  O28  1  0.639112  0.067078  0.706175  1
  O  O29  1  0.604880  0.442436  0.715315  1
  O  O30  1  0.104878  0.942435  0.784685  1
  O  O31  1  0.139113  0.567077  0.793824  1
  O  O32  1  0.554735  0.739517  0.857253  1
  O  O33  1  0.336534  0.261957  0.880405  1
  O  O34  1  0.730042  0.461827  0.969270  1
  O  O35  1  0.735627  0.039143  0.982070  1
