# generated using pymatgen
data_DyTm3(MgIr)4
_symmetry_space_group_name_H-M   'P 1'
_cell_length_a   7.02458980
_cell_length_b   4.05914400
_cell_length_c   8.59781200
_cell_angle_alpha   90.00000000
_cell_angle_beta   90.38887849
_cell_angle_gamma   90.00000000
_symmetry_Int_Tables_number   1
_chemical_formula_structural   DyTm3(MgIr)4
_chemical_formula_sum   'Dy1 Tm3 Mg4 Ir4'
_cell_volume   245.15083021
_cell_formula_units_Z   1
loop_
 _symmetry_equiv_pos_site_id
 _symmetry_equiv_pos_as_xyz
  1  'x, y, z'
loop_
 _atom_site_type_symbol
 _atom_site_label
 _atom_site_symmetry_multiplicity
 _atom_site_fract_x
 _atom_site_fract_y
 _atom_site_fract_z
 _atom_site_occupancy
  Dy  Dy0  1  0.540569  0.750000  0.674459  1
  Tm  Tm1  1  0.957905  0.250000  0.173592  1
  Tm  Tm2  1  0.460009  0.250000  0.325242  1
  Tm  Tm3  1  0.040307  0.750000  0.828210  1
  Mg  Mg4  1  0.867624  0.250000  0.557455  1
  Mg  Mg5  1  0.362920  0.250000  0.943756  1
  Mg  Mg6  1  0.136243  0.750000  0.439447  1
  Mg  Mg7  1  0.634246  0.750000  0.059284  1
  Ir  Ir8  1  0.751753  0.250000  0.868107  1
  Ir  Ir9  1  0.250044  0.250000  0.631915  1
  Ir  Ir10  1  0.247923  0.750000  0.132105  1
  Ir  Ir11  1  0.750460  0.750000  0.366428  1
