# generated using pymatgen
data_Tb2Bi2Ir2O11
_symmetry_space_group_name_H-M   'P 1'
_cell_length_a   6.55481691
_cell_length_b   7.57944223
_cell_length_c   9.67087664
_cell_angle_alpha   101.37235907
_cell_angle_beta   92.31618067
_cell_angle_gamma   89.99959267
_symmetry_Int_Tables_number   1
_chemical_formula_structural   Tb2Bi2Ir2O11
_chemical_formula_sum   'Tb4 Bi4 Ir4 O22'
_cell_volume   470.63343884
_cell_formula_units_Z   2
loop_
 _symmetry_equiv_pos_site_id
 _symmetry_equiv_pos_as_xyz
  1  'x, y, z'
loop_
 _atom_site_type_symbol
 _atom_site_label
 _atom_site_symmetry_multiplicity
 _atom_site_fract_x
 _atom_site_fract_y
 _atom_site_fract_z
 _atom_site_occupancy
  Tb  Tb0  1  0.743343  0.369113  0.482020  1
  Tb  Tb1  1  0.256657  0.630887  0.517980  1
  Tb  Tb2  1  0.753070  0.872353  0.488295  1
  Tb  Tb3  1  0.246930  0.127647  0.511705  1
  Bi  Bi4  1  0.481440  0.955894  0.818670  1
  Bi  Bi5  1  0.518560  0.044106  0.181330  1
  Bi  Bi6  1  0.396759  0.455967  0.825438  1
  Bi  Bi7  1  0.603241  0.544033  0.174562  1
  Ir  Ir8  1  0.938200  0.702343  0.806510  1
  Ir  Ir9  1  0.061800  0.297657  0.193490  1
  Ir  Ir10  1  0.938801  0.200658  0.805113  1
  Ir  Ir11  1  0.061199  0.799342  0.194887  1
  O  O12  1  0.235797  0.720677  0.761918  1
  O  O13  1  0.764203  0.279323  0.238082  1
  O  O14  1  0.642945  0.677215  0.828435  1
  O  O15  1  0.357055  0.322785  0.171565  1
  O  O16  1  0.643942  0.237498  0.826589  1
  O  O17  1  0.356058  0.762502  0.173411  1
  O  O18  1  0.900531  0.158906  0.593797  1
  O  O19  1  0.099469  0.841094  0.406203  1
  O  O20  1  0.234455  0.159570  0.758799  1
  O  O21  1  0.765545  0.840430  0.241201  1
  O  O22  1  0.902584  0.638051  0.597813  1
  O  O23  1  0.097416  0.361949  0.402187  1
  O  O24  1  0.970564  0.549786  0.199227  1
  O  O25  1  0.029436  0.450214  0.800773  1
  O  O26  1  0.999402  0.772162  0.001131  1
  O  O27  1  0.000598  0.227838  0.998869  1
  O  O28  1  0.570155  0.599625  0.398471  1
  O  O29  1  0.429845  0.400375  0.601529  1
  O  O30  1  0.159525  0.056317  0.225980  1
  O  O31  1  0.840475  0.943683  0.774020  1
  O  O32  1  0.547677  0.101970  0.405145  1
  O  O33  1  0.452323  0.898030  0.594855  1
