# generated using pymatgen
data_Na5GaP11Ir19
_symmetry_space_group_name_H-M   'P 1'
_cell_length_a   12.65989542
_cell_length_b   12.61770231
_cell_length_c   3.96874200
_cell_angle_alpha   90.00000000
_cell_angle_beta   90.00000000
_cell_angle_gamma   119.88981518
_symmetry_Int_Tables_number   1
_chemical_formula_structural   Na5GaP11Ir19
_chemical_formula_sum   'Na5 Ga1 P11 Ir19'
_cell_volume   549.63580873
_cell_formula_units_Z   1
loop_
 _symmetry_equiv_pos_site_id
 _symmetry_equiv_pos_as_xyz
  1  'x, y, z'
loop_
 _atom_site_type_symbol
 _atom_site_label
 _atom_site_symmetry_multiplicity
 _atom_site_fract_x
 _atom_site_fract_y
 _atom_site_fract_z
 _atom_site_occupancy
  Na  Na0  1  0.330570  0.664235  0.500000  1
  Na  Na1  1  0.669430  0.333664  0.500000  1
  Na  Na2  1  0.000000  0.821881  0.000000  1
  Na  Na3  1  0.178820  0.176727  0.000000  1
  Na  Na4  1  0.821180  0.997907  0.000000  1
  Ga  Ga5  1  0.000000  0.646617  0.500000  1
  P  P6  1  0.358440  0.359417  0.500000  1
  P  P7  1  0.641560  0.000978  0.500000  1
  P  P8  1  0.509798  0.689054  0.000000  1
  P  P9  1  0.309966  0.823478  0.000000  1
  P  P10  1  0.169146  0.482441  0.000000  1
  P  P11  1  0.490202  0.179255  0.000000  1
  P  P12  1  0.690034  0.513513  0.000000  1
  P  P13  1  0.830854  0.313295  0.000000  1
  P  P14  1  0.000000  0.174031  0.500000  1
  P  P15  1  0.815836  0.817466  0.500000  1
  P  P16  1  0.184164  0.001630  0.500000  1
  Ir  Ir17  1  0.509839  0.874032  0.000000  1
  Ir  Ir18  1  0.129812  0.638339  0.000000  1
  Ir  Ir19  1  0.355754  0.489645  0.000000  1
  Ir  Ir20  1  0.490161  0.364192  0.000000  1
  Ir  Ir21  1  0.870188  0.508526  0.000000  1
  Ir  Ir22  1  0.644246  0.133890  0.000000  1
  Ir  Ir23  1  0.000000  0.447351  0.500000  1
  Ir  Ir24  1  0.533797  0.544258  0.500000  1
  Ir  Ir25  1  0.466203  0.010461  0.500000  1
  Ir  Ir26  1  0.000000  0.285621  0.000000  1
  Ir  Ir27  1  0.701955  0.708080  0.000000  1
  Ir  Ir28  1  0.298045  0.006124  0.000000  1
  Ir  Ir29  1  0.618270  0.803976  0.500000  1
  Ir  Ir30  1  0.212984  0.827750  0.500000  1
  Ir  Ir31  1  0.180419  0.373762  0.500000  1
  Ir  Ir32  1  0.381730  0.185706  0.500000  1
  Ir  Ir33  1  0.787016  0.614765  0.500000  1
  Ir  Ir34  1  0.819581  0.193344  0.500000  1
  Ir  Ir35  1  0.000000  0.994587  0.500000  1
