# generated using pymatgen
data_TbYTiCrO8
_symmetry_space_group_name_H-M   'P 1'
_cell_length_a   6.04437082
_cell_length_b   6.04437256
_cell_length_c   6.04437103
_cell_angle_alpha   106.13082737
_cell_angle_beta   106.13081831
_cell_angle_gamma   116.38093404
_symmetry_Int_Tables_number   1
_chemical_formula_structural   TbYTiCrO8
_chemical_formula_sum   'Tb1 Y1 Ti1 Cr1 O8'
_cell_volume   168.11741298
_cell_formula_units_Z   1
loop_
 _symmetry_equiv_pos_site_id
 _symmetry_equiv_pos_as_xyz
  1  'x, y, z'
loop_
 _atom_site_type_symbol
 _atom_site_label
 _atom_site_symmetry_multiplicity
 _atom_site_fract_x
 _atom_site_fract_y
 _atom_site_fract_z
 _atom_site_occupancy
  Tb  Tb0  1  0.250000  0.750000  0.500000  1
  Y  Y1  1  0.000000  0.000000  0.000000  1
  Ti  Ti2  1  0.750000  0.250000  0.500000  1
  Cr  Cr3  1  0.500000  0.500000  0.000000  1
  O  O4  1  0.338868  0.518341  0.179472  1
  O  O5  1  0.369499  0.057326  0.312173  1
  O  O6  1  0.745153  0.057326  0.687827  1
  O  O7  1  0.338868  0.159396  0.820528  1
  O  O8  1  0.840604  0.661132  0.179472  1
  O  O9  1  0.942674  0.254847  0.312173  1
  O  O10  1  0.942674  0.630501  0.687827  1
  O  O11  1  0.481659  0.661132  0.820528  1
