# generated using pymatgen
data_Pr5Sn2PbBr
_symmetry_space_group_name_H-M   'P 1'
_cell_length_a   9.63627183
_cell_length_b   9.63627214
_cell_length_c   6.89254700
_cell_angle_alpha   90.00000000
_cell_angle_beta   90.00000000
_cell_angle_gamma   119.89787601
_symmetry_Int_Tables_number   1
_chemical_formula_structural   Pr5Sn2PbBr
_chemical_formula_sum   'Pr10 Sn4 Pb2 Br2'
_cell_volume   554.84856426
_cell_formula_units_Z   2
loop_
 _symmetry_equiv_pos_site_id
 _symmetry_equiv_pos_as_xyz
  1  'x, y, z'
loop_
 _atom_site_type_symbol
 _atom_site_label
 _atom_site_symmetry_multiplicity
 _atom_site_fract_x
 _atom_site_fract_y
 _atom_site_fract_z
 _atom_site_occupancy
  Pr  Pr0  1  0.268876  0.266556  0.750000  1
  Pr  Pr1  1  0.000325  0.734894  0.750000  1
  Pr  Pr2  1  0.732101  0.997983  0.750000  1
  Pr  Pr3  1  0.002017  0.267899  0.250000  1
  Pr  Pr4  1  0.333754  0.666246  0.500000  1
  Pr  Pr5  1  0.733444  0.731124  0.250000  1
  Pr  Pr6  1  0.665432  0.334568  0.500000  1
  Pr  Pr7  1  0.265106  0.999675  0.250000  1
  Pr  Pr8  1  0.333754  0.666246  0.000000  1
  Pr  Pr9  1  0.665432  0.334568  0.000000  1
  Sn  Sn10  1  0.386432  0.999776  0.750000  1
  Sn  Sn11  1  0.613860  0.613899  0.750000  1
  Sn  Sn12  1  0.000224  0.613568  0.250000  1
  Sn  Sn13  1  0.386101  0.386140  0.250000  1
  Pb  Pb14  1  0.613748  0.000197  0.250000  1
  Pb  Pb15  1  0.999803  0.386252  0.750000  1
  Br  Br16  1  0.999794  0.000206  0.000000  1
  Br  Br17  1  0.999794  0.000206  0.500000  1
