# generated using pymatgen
data_Hf3Ga3FePdPt
_symmetry_space_group_name_H-M   'P 1'
_cell_length_a   7.21287900
_cell_length_b   7.21287836
_cell_length_c   6.68401700
_cell_angle_alpha   90.00000000
_cell_angle_beta   90.00000000
_cell_angle_gamma   119.99999834
_symmetry_Int_Tables_number   1
_chemical_formula_structural   Hf3Ga3FePdPt
_chemical_formula_sum   'Hf6 Ga6 Fe2 Pd2 Pt2'
_cell_volume   301.15178367
_cell_formula_units_Z   2
loop_
 _symmetry_equiv_pos_site_id
 _symmetry_equiv_pos_as_xyz
  1  'x, y, z'
loop_
 _atom_site_type_symbol
 _atom_site_label
 _atom_site_symmetry_multiplicity
 _atom_site_fract_x
 _atom_site_fract_y
 _atom_site_fract_z
 _atom_site_occupancy
  Hf  Hf0  1  0.746266  0.056586  0.000000  1
  Hf  Hf1  1  0.310319  0.253734  0.000000  1
  Hf  Hf2  1  0.943414  0.689681  0.000000  1
  Hf  Hf3  1  0.312400  0.254430  0.500000  1
  Hf  Hf4  1  0.745570  0.057970  0.500000  1
  Hf  Hf5  1  0.942030  0.687600  0.500000  1
  Ga  Ga6  1  0.609303  0.669774  0.749964  1
  Ga  Ga7  1  0.060470  0.390697  0.749964  1
  Ga  Ga8  1  0.330226  0.939530  0.749964  1
  Ga  Ga9  1  0.609303  0.669774  0.250036  1
  Ga  Ga10  1  0.060470  0.390697  0.250036  1
  Ga  Ga11  1  0.330226  0.939530  0.250036  1
  Fe  Fe12  1  0.000000  0.000000  0.251161  1
  Fe  Fe13  1  0.000000  0.000000  0.748839  1
  Pd  Pd14  1  0.333333  0.666667  0.000000  1
  Pd  Pd15  1  0.333333  0.666667  0.500000  1
  Pt  Pt16  1  0.666667  0.333333  0.752166  1
  Pt  Pt17  1  0.666667  0.333333  0.247834  1
