# generated using pymatgen
data_Yb3Hg3Pt2
_symmetry_space_group_name_H-M   'P 1'
_cell_length_a   7.50726200
_cell_length_b   7.50726234
_cell_length_c   3.86141200
_cell_angle_alpha   90.00000000
_cell_angle_beta   90.00000000
_cell_angle_gamma   119.99999849
_symmetry_Int_Tables_number   1
_chemical_formula_structural   Yb3Hg3Pt2
_chemical_formula_sum   'Yb3 Hg3 Pt2'
_cell_volume   188.46900841
_cell_formula_units_Z   1
loop_
 _symmetry_equiv_pos_site_id
 _symmetry_equiv_pos_as_xyz
  1  'x, y, z'
loop_
 _atom_site_type_symbol
 _atom_site_label
 _atom_site_symmetry_multiplicity
 _atom_site_fract_x
 _atom_site_fract_y
 _atom_site_fract_z
 _atom_site_occupancy
  Yb  Yb0  1  0.586623  0.000000  0.500000  1
  Yb  Yb1  1  0.413377  0.413376  0.500000  1
  Yb  Yb2  1  0.000000  0.586624  0.500000  1
  Hg  Hg3  1  0.238112  0.000000  0.000000  1
  Hg  Hg4  1  0.000000  0.238112  0.000000  1
  Hg  Hg5  1  0.761888  0.761887  0.000000  1
  Pt  Pt6  1  0.666666  0.333333  0.000000  1
  Pt  Pt7  1  0.333333  0.666667  0.000000  1
