# generated using pymatgen
data_TmTl2AgCl6
_symmetry_space_group_name_H-M   'P 1'
_cell_length_a   7.27456361
_cell_length_b   7.69187400
_cell_length_c   12.74348400
_cell_angle_alpha   90.00000000
_cell_angle_beta   123.55204231
_cell_angle_gamma   90.00000000
_symmetry_Int_Tables_number   1
_chemical_formula_structural   TmTl2AgCl6
_chemical_formula_sum   'Tm2 Tl4 Ag2 Cl12'
_cell_volume   594.25455720
_cell_formula_units_Z   2
loop_
 _symmetry_equiv_pos_site_id
 _symmetry_equiv_pos_as_xyz
  1  'x, y, z'
loop_
 _atom_site_type_symbol
 _atom_site_label
 _atom_site_symmetry_multiplicity
 _atom_site_fract_x
 _atom_site_fract_y
 _atom_site_fract_z
 _atom_site_occupancy
  Tm  Tm0  1  0.000000  0.000000  0.000000  1
  Tm  Tm1  1  0.000000  0.500000  0.500000  1
  Tl  Tl2  1  0.269220  0.435951  0.249487  1
  Tl  Tl3  1  0.730778  0.935952  0.250513  1
  Tl  Tl4  1  0.269222  0.064048  0.749487  1
  Tl  Tl5  1  0.730778  0.564048  0.750513  1
  Ag  Ag6  1  0.500000  0.500000  0.000000  1
  Ag  Ag7  1  0.500000  0.000000  0.500000  1
  Cl  Cl8  1  0.224644  0.716364  0.030853  1
  Cl  Cl9  1  0.323738  0.191397  0.031270  1
  Cl  Cl10  1  0.175247  0.008452  0.242957  1
  Cl  Cl11  1  0.824754  0.508453  0.257044  1
  Cl  Cl12  1  0.676262  0.691397  0.468730  1
  Cl  Cl13  1  0.775357  0.216364  0.469147  1
  Cl  Cl14  1  0.224643  0.783636  0.530853  1
  Cl  Cl15  1  0.323737  0.308604  0.531269  1
  Cl  Cl16  1  0.175247  0.491548  0.742957  1
  Cl  Cl17  1  0.824753  0.991547  0.757043  1
  Cl  Cl18  1  0.676262  0.808603  0.968731  1
  Cl  Cl19  1  0.775356  0.283637  0.969146  1
