# generated using pymatgen
data_AlCr3(GaRu3)2
_symmetry_space_group_name_H-M   'P 1'
_cell_length_a   4.24697000
_cell_length_b   6.01669000
_cell_length_c   12.69287100
_cell_angle_alpha   90.00050038
_cell_angle_beta   89.99954044
_cell_angle_gamma   90.00007857
_symmetry_Int_Tables_number   1
_chemical_formula_structural   AlCr3(GaRu3)2
_chemical_formula_sum   'Al2 Cr6 Ga4 Ru12'
_cell_volume   324.33714928
_cell_formula_units_Z   2
loop_
 _symmetry_equiv_pos_site_id
 _symmetry_equiv_pos_as_xyz
  1  'x, y, z'
loop_
 _atom_site_type_symbol
 _atom_site_label
 _atom_site_symmetry_multiplicity
 _atom_site_fract_x
 _atom_site_fract_y
 _atom_site_fract_z
 _atom_site_occupancy
  Al  Al0  1  0.000319  0.500004  0.666572  1
  Al  Al1  1  0.500285  0.999988  0.833264  1
  Cr  Cr2  1  0.999988  0.000011  0.999937  1
  Cr  Cr3  1  0.499686  0.499996  0.166934  1
  Cr  Cr4  1  0.999679  0.000003  0.332978  1
  Cr  Cr5  1  0.500013  0.499998  0.500077  1
  Cr  Cr6  1  0.000299  0.000000  0.667170  1
  Cr  Cr7  1  0.500301  0.499988  0.832917  1
  Ga  Ga8  1  0.000003  0.500018  0.999926  1
  Ga  Ga9  1  0.499690  0.999982  0.166600  1
  Ga  Ga10  1  0.999688  0.500015  0.333485  1
  Ga  Ga11  1  0.500001  0.999995  0.500135  1
  Ru  Ru12  1  0.500001  0.249192  0.999225  1
  Ru  Ru13  1  0.499999  0.750806  0.999225  1
  Ru  Ru14  1  0.999728  0.249806  0.166583  1
  Ru  Ru15  1  0.999736  0.750200  0.166584  1
  Ru  Ru16  1  0.499728  0.250155  0.333475  1
  Ru  Ru17  1  0.499726  0.749843  0.333474  1
  Ru  Ru18  1  0.000007  0.250750  0.500808  1
  Ru  Ru19  1  0.000006  0.749252  0.500808  1
  Ru  Ru20  1  0.500288  0.249969  0.667212  1
  Ru  Ru21  1  0.500287  0.750034  0.667213  1
  Ru  Ru22  1  0.000273  0.249898  0.832701  1
  Ru  Ru23  1  0.000275  0.750102  0.832701  1
