# generated using pymatgen
data_Ba3CaOs2O9
_symmetry_space_group_name_H-M   'P 1'
_cell_length_a   6.00815200
_cell_length_b   6.00815214
_cell_length_c   14.55391000
_cell_angle_alpha   90.00000000
_cell_angle_beta   90.00000000
_cell_angle_gamma   119.99998822
_symmetry_Int_Tables_number   1
_chemical_formula_structural   Ba3CaOs2O9
_chemical_formula_sum   'Ba6 Ca2 Os4 O18'
_cell_volume   454.97988954
_cell_formula_units_Z   2
loop_
 _symmetry_equiv_pos_site_id
 _symmetry_equiv_pos_as_xyz
  1  'x, y, z'
loop_
 _atom_site_type_symbol
 _atom_site_label
 _atom_site_symmetry_multiplicity
 _atom_site_fract_x
 _atom_site_fract_y
 _atom_site_fract_z
 _atom_site_occupancy
  Ba  Ba0  1  0.666667  0.333333  0.091716  1
  Ba  Ba1  1  0.333333  0.666667  0.591716  1
  Ba  Ba2  1  0.333333  0.666667  0.908284  1
  Ba  Ba3  1  0.666667  0.333333  0.408284  1
  Ba  Ba4  1  0.000000  0.000000  0.250000  1
  Ba  Ba5  1  0.000000  0.000000  0.750000  1
  Ca  Ca6  1  0.000000  0.000000  0.000000  1
  Ca  Ca7  1  0.000000  0.000000  0.500000  1
  Os  Os8  1  0.333333  0.666667  0.164246  1
  Os  Os9  1  0.666667  0.333333  0.664246  1
  Os  Os10  1  0.666667  0.333333  0.835754  1
  Os  Os11  1  0.333333  0.666667  0.335754  1
  O  O12  1  0.179395  0.358790  0.090286  1
  O  O13  1  0.820605  0.179395  0.590286  1
  O  O14  1  0.358790  0.179395  0.590286  1
  O  O15  1  0.641210  0.820605  0.090286  1
  O  O16  1  0.179395  0.820605  0.090286  1
  O  O17  1  0.820605  0.641210  0.909714  1
  O  O18  1  0.820605  0.179395  0.909714  1
  O  O19  1  0.820605  0.641210  0.590286  1
  O  O20  1  0.358790  0.179395  0.909714  1
  O  O21  1  0.641210  0.820605  0.409714  1
  O  O22  1  0.179395  0.358790  0.409714  1
  O  O23  1  0.179395  0.820605  0.409714  1
  O  O24  1  0.015076  0.507538  0.250000  1
  O  O25  1  0.507538  0.015076  0.750000  1
  O  O26  1  0.507538  0.492462  0.750000  1
  O  O27  1  0.492462  0.507538  0.250000  1
  O  O28  1  0.492462  0.984924  0.250000  1
  O  O29  1  0.984924  0.492462  0.750000  1
