# generated using pymatgen
data_SmEuTmGa8Ag3
_symmetry_space_group_name_H-M   'P 1'
_cell_length_a   4.40640220
_cell_length_b   8.46484151
_cell_length_c   8.46484166
_cell_angle_alpha   69.92086966
_cell_angle_beta   74.91352618
_cell_angle_gamma   74.91352897
_symmetry_Int_Tables_number   1
_chemical_formula_structural   SmEuTmGa8Ag3
_chemical_formula_sum   'Sm1 Eu1 Tm1 Ga8 Ag3'
_cell_volume   281.19161656
_cell_formula_units_Z   1
loop_
 _symmetry_equiv_pos_site_id
 _symmetry_equiv_pos_as_xyz
  1  'x, y, z'
loop_
 _atom_site_type_symbol
 _atom_site_label
 _atom_site_symmetry_multiplicity
 _atom_site_fract_x
 _atom_site_fract_y
 _atom_site_fract_z
 _atom_site_occupancy
  Sm  Sm0  1  0.198929  0.801071  0.801071  1
  Eu  Eu1  1  0.501426  0.498574  0.498574  1
  Tm  Tm2  1  0.802113  0.197887  0.197887  1
  Ga  Ga3  1  0.354649  0.362433  0.928270  1
  Ga  Ga4  1  0.645021  0.635365  0.074593  1
  Ga  Ga5  1  0.354649  0.928270  0.362433  1
  Ga  Ga6  1  0.645021  0.074593  0.635365  1
  Ga  Ga7  1  0.162817  0.468849  0.205515  1
  Ga  Ga8  1  0.838957  0.528855  0.793232  1
  Ga  Ga9  1  0.162817  0.205515  0.468849  1
  Ga  Ga10  1  0.838957  0.793232  0.528855  1
  Ag  Ag11  1  0.497309  0.002691  0.002691  1
  Ag  Ag12  1  0.998667  0.806281  0.196384  1
  Ag  Ag13  1  0.998667  0.196384  0.806281  1
