# generated using pymatgen
data_Pr6Dy10MgHg3Ir4
_symmetry_space_group_name_H-M   'P 1'
_cell_length_a   9.75590751
_cell_length_b   9.76889363
_cell_length_c   9.76889300
_cell_angle_alpha   60.00000551
_cell_angle_beta   59.95596322
_cell_angle_gamma   59.95596603
_symmetry_Int_Tables_number   1
_chemical_formula_structural   Pr6Dy10MgHg3Ir4
_chemical_formula_sum   'Pr6 Dy10 Mg1 Hg3 Ir4'
_cell_volume   657.89114830
_cell_formula_units_Z   1
loop_
 _symmetry_equiv_pos_site_id
 _symmetry_equiv_pos_as_xyz
  1  'x, y, z'
loop_
 _atom_site_type_symbol
 _atom_site_label
 _atom_site_symmetry_multiplicity
 _atom_site_fract_x
 _atom_site_fract_y
 _atom_site_fract_z
 _atom_site_occupancy
  Pr  Pr0  1  0.940528  0.560071  0.560071  1
  Pr  Pr1  1  0.557957  0.941105  0.941105  1
  Pr  Pr2  1  0.557957  0.941105  0.559833  1
  Pr  Pr3  1  0.940528  0.560071  0.939330  1
  Pr  Pr4  1  0.557957  0.559833  0.941105  1
  Pr  Pr5  1  0.940528  0.939330  0.560071  1
  Dy  Dy6  1  0.347041  0.346136  0.346136  1
  Dy  Dy7  1  0.347041  0.346136  0.960690  1
  Dy  Dy8  1  0.347041  0.960690  0.346136  1
  Dy  Dy9  1  0.954801  0.348400  0.348400  1
  Dy  Dy10  1  0.810515  0.188839  0.188839  1
  Dy  Dy11  1  0.184825  0.814151  0.814151  1
  Dy  Dy12  1  0.184825  0.814151  0.186874  1
  Dy  Dy13  1  0.810515  0.188839  0.811808  1
  Dy  Dy14  1  0.184825  0.186874  0.814151  1
  Dy  Dy15  1  0.810515  0.811808  0.188839  1
  Mg  Mg16  1  0.285878  0.571374  0.571374  1
  Hg  Hg17  1  0.579786  0.584233  0.584233  1
  Hg  Hg18  1  0.579786  0.584233  0.251746  1
  Hg  Hg19  1  0.579786  0.251746  0.584233  1
  Ir  Ir20  1  0.140494  0.141765  0.141765  1
  Ir  Ir21  1  0.140494  0.141765  0.575977  1
  Ir  Ir22  1  0.140494  0.575977  0.141765  1
  Ir  Ir23  1  0.575887  0.141371  0.141371  1
