# generated using pymatgen
data_Nb10Al4Au
_symmetry_space_group_name_H-M   'P 1'
_cell_length_a   9.96307300
_cell_length_b   9.96307300
_cell_length_c   5.25373600
_cell_angle_alpha   90.00000000
_cell_angle_beta   90.00000000
_cell_angle_gamma   90.00000000
_symmetry_Int_Tables_number   1
_chemical_formula_structural   Nb10Al4Au
_chemical_formula_sum   'Nb20 Al8 Au2'
_cell_volume   521.50066983
_cell_formula_units_Z   2
loop_
 _symmetry_equiv_pos_site_id
 _symmetry_equiv_pos_as_xyz
  1  'x, y, z'
loop_
 _atom_site_type_symbol
 _atom_site_label
 _atom_site_symmetry_multiplicity
 _atom_site_fract_x
 _atom_site_fract_y
 _atom_site_fract_z
 _atom_site_occupancy
  Nb  Nb0  1  0.397615  0.397615  0.000000  1
  Nb  Nb1  1  0.897615  0.102385  0.500000  1
  Nb  Nb2  1  0.102385  0.897615  0.500000  1
  Nb  Nb3  1  0.602385  0.602385  0.000000  1
  Nb  Nb4  1  0.129680  0.465152  0.000000  1
  Nb  Nb5  1  0.965152  0.370320  0.500000  1
  Nb  Nb6  1  0.034848  0.629680  0.500000  1
  Nb  Nb7  1  0.870320  0.534848  0.000000  1
  Nb  Nb8  1  0.370320  0.965152  0.500000  1
  Nb  Nb9  1  0.629680  0.034848  0.500000  1
  Nb  Nb10  1  0.465152  0.129680  0.000000  1
  Nb  Nb11  1  0.534848  0.870320  0.000000  1
  Nb  Nb12  1  0.183666  0.183666  0.253433  1
  Nb  Nb13  1  0.683666  0.316334  0.753433  1
  Nb  Nb14  1  0.316334  0.683666  0.753433  1
  Nb  Nb15  1  0.816334  0.816334  0.253433  1
  Nb  Nb16  1  0.316334  0.683666  0.246567  1
  Nb  Nb17  1  0.683666  0.316334  0.246567  1
  Nb  Nb18  1  0.183666  0.183666  0.746567  1
  Nb  Nb19  1  0.816334  0.816334  0.746567  1
  Al  Al20  1  0.260154  0.933915  0.000000  1
  Al  Al21  1  0.433915  0.239846  0.500000  1
  Al  Al22  1  0.566085  0.760154  0.500000  1
  Al  Al23  1  0.739846  0.066085  0.000000  1
  Al  Al24  1  0.239846  0.433915  0.500000  1
  Al  Al25  1  0.760154  0.566085  0.500000  1
  Al  Al26  1  0.933915  0.260154  0.000000  1
  Al  Al27  1  0.066085  0.739846  0.000000  1
  Au  Au28  1  0.000000  0.000000  0.000000  1
  Au  Au29  1  0.500000  0.500000  0.500000  1
