# generated using pymatgen
data_Zr6BiOsPb
_symmetry_space_group_name_H-M   'P 1'
_cell_length_a   3.63386900
_cell_length_b   8.09965612
_cell_length_c   8.09965700
_cell_angle_alpha   119.99999950
_cell_angle_beta   90.00000000
_cell_angle_gamma   90.00000000
_symmetry_Int_Tables_number   1
_chemical_formula_structural   Zr6BiOsPb
_chemical_formula_sum   'Zr6 Bi1 Os1 Pb1'
_cell_volume   206.45866269
_cell_formula_units_Z   1
loop_
 _symmetry_equiv_pos_site_id
 _symmetry_equiv_pos_as_xyz
  1  'x, y, z'
loop_
 _atom_site_type_symbol
 _atom_site_label
 _atom_site_symmetry_multiplicity
 _atom_site_fract_x
 _atom_site_fract_y
 _atom_site_fract_z
 _atom_site_occupancy
  Zr  Zr0  1  0.500000  0.754035  0.752667  1
  Zr  Zr1  1  0.500000  0.998631  0.245965  1
  Zr  Zr2  1  0.500000  0.247333  0.001369  1
  Zr  Zr3  1  0.000000  0.387796  0.390482  1
  Zr  Zr4  1  0.000000  0.002687  0.612204  1
  Zr  Zr5  1  0.000000  0.609518  0.997313  1
  Bi  Bi6  1  0.500000  0.333333  0.666667  1
  Os  Os7  1  0.000000  0.000000  0.000000  1
  Pb  Pb8  1  0.500000  0.666667  0.333333  1
