# generated using pymatgen
data_Ca3TbBi4Sb2Rh7
_symmetry_space_group_name_H-M   'P 1'
_cell_length_a   7.75067433
_cell_length_b   7.73568506
_cell_length_c   7.73568407
_cell_angle_alpha   109.44731782
_cell_angle_beta   109.30162109
_cell_angle_gamma   109.30162602
_symmetry_Int_Tables_number   1
_chemical_formula_structural   Ca3TbBi4Sb2Rh7
_chemical_formula_sum   'Ca3 Tb1 Bi4 Sb2 Rh7'
_cell_volume   358.62896697
_cell_formula_units_Z   1
loop_
 _symmetry_equiv_pos_site_id
 _symmetry_equiv_pos_as_xyz
  1  'x, y, z'
loop_
 _atom_site_type_symbol
 _atom_site_label
 _atom_site_symmetry_multiplicity
 _atom_site_fract_x
 _atom_site_fract_y
 _atom_site_fract_z
 _atom_site_occupancy
  Ca  Ca0  1  0.476607  0.001738  0.001738  1
  Ca  Ca1  1  0.003364  0.500615  0.001526  1
  Ca  Ca2  1  0.003364  0.001526  0.500615  1
  Tb  Tb3  1  0.471181  0.469352  0.469352  1
  Bi  Bi4  1  0.981983  0.307736  0.307736  1
  Bi  Bi5  1  0.691448  0.996550  0.698249  1
  Bi  Bi6  1  0.691448  0.698249  0.996550  1
  Bi  Bi7  1  0.991940  0.682200  0.682200  1
  Sb  Sb8  1  0.324869  0.990383  0.329393  1
  Sb  Sb9  1  0.324869  0.329393  0.990383  1
  Rh  Rh10  1  0.058521  0.032658  0.032658  1
  Rh  Rh11  1  0.500311  0.746167  0.253867  1
  Rh  Rh12  1  0.739247  0.501144  0.245396  1
  Rh  Rh13  1  0.250646  0.743342  0.499683  1
  Rh  Rh14  1  0.250646  0.499683  0.743342  1
  Rh  Rh15  1  0.500311  0.253867  0.746167  1
  Rh  Rh16  1  0.739247  0.245396  0.501144  1
