# generated using pymatgen
data_Zr10Ga3Bi4Pb
_symmetry_space_group_name_H-M   'P 1'
_cell_length_a   8.80895057
_cell_length_b   8.77855488
_cell_length_c   5.94192300
_cell_angle_alpha   90.00000000
_cell_angle_beta   90.00000000
_cell_angle_gamma   119.94010284
_symmetry_Int_Tables_number   1
_chemical_formula_structural   Zr10Ga3Bi4Pb
_chemical_formula_sum   'Zr10 Ga3 Bi4 Pb1'
_cell_volume   398.16828158
_cell_formula_units_Z   1
loop_
 _symmetry_equiv_pos_site_id
 _symmetry_equiv_pos_as_xyz
  1  'x, y, z'
loop_
 _atom_site_type_symbol
 _atom_site_label
 _atom_site_symmetry_multiplicity
 _atom_site_fract_x
 _atom_site_fract_y
 _atom_site_fract_z
 _atom_site_occupancy
  Zr  Zr0  1  0.674091  0.334949  0.004777  1
  Zr  Zr1  1  0.326241  0.661094  0.005216  1
  Zr  Zr2  1  0.326241  0.661094  0.494784  1
  Zr  Zr3  1  0.674091  0.334949  0.495223  1
  Zr  Zr4  1  0.739511  0.737887  0.750000  1
  Zr  Zr5  1  0.260949  0.998417  0.750000  1
  Zr  Zr6  1  0.999700  0.261342  0.750000  1
  Zr  Zr7  1  0.256521  0.273726  0.250000  1
  Zr  Zr8  1  0.743074  0.015566  0.250000  1
  Zr  Zr9  1  0.998825  0.722481  0.250000  1
  Ga  Ga10  1  0.999586  0.997668  0.008143  1
  Ga  Ga11  1  0.999586  0.997668  0.491857  1
  Ga  Ga12  1  0.999767  0.389494  0.250000  1
  Bi  Bi13  1  0.391915  0.390261  0.750000  1
  Bi  Bi14  1  0.608780  0.997720  0.750000  1
  Bi  Bi15  1  0.999705  0.605550  0.750000  1
  Bi  Bi16  1  0.386020  0.002644  0.250000  1
  Pb  Pb17  1  0.615401  0.617491  0.250000  1
