# generated using pymatgen
data_SmLu4Mn2O12
_symmetry_space_group_name_H-M   'P 1'
_cell_length_a   6.74483431
_cell_length_b   6.74483414
_cell_length_c   7.15531640
_cell_angle_alpha   74.60484919
_cell_angle_beta   74.60484175
_cell_angle_gamma   49.76432711
_symmetry_Int_Tables_number   1
_chemical_formula_structural   SmLu4Mn2O12
_chemical_formula_sum   'Sm1 Lu4 Mn2 O12'
_cell_volume   237.61801697
_cell_formula_units_Z   1
loop_
 _symmetry_equiv_pos_site_id
 _symmetry_equiv_pos_as_xyz
  1  'x, y, z'
loop_
 _atom_site_type_symbol
 _atom_site_label
 _atom_site_symmetry_multiplicity
 _atom_site_fract_x
 _atom_site_fract_y
 _atom_site_fract_z
 _atom_site_occupancy
  Sm  Sm0  1  0.000000  0.000000  0.500000  1
  Lu  Lu1  1  0.304986  0.304986  0.356626  1
  Lu  Lu2  1  0.695014  0.695014  0.643374  1
  Lu  Lu3  1  0.693889  0.693889  0.163507  1
  Lu  Lu4  1  0.306111  0.306111  0.836493  1
  Mn  Mn5  1  0.752682  0.247318  0.000000  1
  Mn  Mn6  1  0.247318  0.752682  0.000000  1
  O  O7  1  0.096493  0.586728  0.578902  1
  O  O8  1  0.999535  0.999535  0.177193  1
  O  O9  1  0.413272  0.903507  0.421098  1
  O  O10  1  0.500139  0.500139  0.186433  1
  O  O11  1  0.098808  0.575234  0.080982  1
  O  O12  1  0.903507  0.413272  0.421098  1
  O  O13  1  0.000465  0.000465  0.822807  1
  O  O14  1  0.586728  0.096492  0.578902  1
  O  O15  1  0.499861  0.499861  0.813567  1
  O  O16  1  0.575234  0.098808  0.080982  1
  O  O17  1  0.424766  0.901192  0.919018  1
  O  O18  1  0.901192  0.424766  0.919018  1
