# generated using pymatgen
data_PmDy(GaSi)2
_symmetry_space_group_name_H-M   'P 1'
_cell_length_a   4.16795200
_cell_length_b   4.16795173
_cell_length_c   8.12663600
_cell_angle_alpha   90.00000000
_cell_angle_beta   90.00000000
_cell_angle_gamma   120.00000216
_symmetry_Int_Tables_number   1
_chemical_formula_structural   PmDy(GaSi)2
_chemical_formula_sum   'Pm1 Dy1 Ga2 Si2'
_cell_volume   122.26068346
_cell_formula_units_Z   1
loop_
 _symmetry_equiv_pos_site_id
 _symmetry_equiv_pos_as_xyz
  1  'x, y, z'
loop_
 _atom_site_type_symbol
 _atom_site_label
 _atom_site_symmetry_multiplicity
 _atom_site_fract_x
 _atom_site_fract_y
 _atom_site_fract_z
 _atom_site_occupancy
  Pm  Pm0  1  0.000000  0.000000  0.486555  1
  Dy  Dy1  1  0.000000  0.000000  0.012386  1
  Ga  Ga2  1  0.666666  0.333332  0.757135  1
  Ga  Ga3  1  0.333333  0.666667  0.757135  1
  Si  Si4  1  0.666666  0.333332  0.243394  1
  Si  Si5  1  0.333333  0.666667  0.243394  1
