# generated using pymatgen
data_Ti13Ga10Rh7
_symmetry_space_group_name_H-M   'P 1'
_cell_length_a   8.73092054
_cell_length_b   8.73091974
_cell_length_c   8.73092074
_cell_angle_alpha   59.95093207
_cell_angle_beta   59.95092689
_cell_angle_gamma   59.95094376
_symmetry_Int_Tables_number   1
_chemical_formula_structural   Ti13Ga10Rh7
_chemical_formula_sum   'Ti13 Ga10 Rh7'
_cell_volume   470.09056360
_cell_formula_units_Z   1
loop_
 _symmetry_equiv_pos_site_id
 _symmetry_equiv_pos_as_xyz
  1  'x, y, z'
loop_
 _atom_site_type_symbol
 _atom_site_label
 _atom_site_symmetry_multiplicity
 _atom_site_fract_x
 _atom_site_fract_y
 _atom_site_fract_z
 _atom_site_occupancy
  Ti  Ti0  1  0.214288  0.214288  0.784527  1
  Ti  Ti1  1  0.784527  0.214288  0.214288  1
  Ti  Ti2  1  0.214288  0.784527  0.214288  1
  Ti  Ti3  1  0.793310  0.793310  0.192535  1
  Ti  Ti4  1  0.192535  0.793310  0.793310  1
  Ti  Ti5  1  0.793310  0.192535  0.793310  1
  Ti  Ti6  1  0.375770  0.375770  0.375770  1
  Ti  Ti7  1  0.377359  0.871383  0.377359  1
  Ti  Ti8  1  0.871383  0.377359  0.377359  1
  Ti  Ti9  1  0.377359  0.377359  0.871383  1
  Ti  Ti10  1  0.840805  0.481912  0.840805  1
  Ti  Ti11  1  0.481912  0.840805  0.840805  1
  Ti  Ti12  1  0.840805  0.840805  0.481912  1
  Ga  Ga13  1  0.149883  0.149883  0.149883  1
  Ga  Ga14  1  0.152266  0.545787  0.152266  1
  Ga  Ga15  1  0.545787  0.152266  0.152266  1
  Ga  Ga16  1  0.152266  0.152266  0.545787  1
  Ga  Ga17  1  0.619599  0.619599  0.619599  1
  Ga  Ga18  1  0.617935  0.145523  0.617935  1
  Ga  Ga19  1  0.145523  0.617935  0.617935  1
  Ga  Ga20  1  0.617935  0.617935  0.145523  1
  Ga  Ga21  1  0.832150  0.832150  0.832150  1
  Ga  Ga22  1  0.003990  0.003990  0.003990  1
  Rh  Rh23  1  0.003764  0.003764  0.495299  1
  Rh  Rh24  1  0.495299  0.003764  0.003764  1
  Rh  Rh25  1  0.003764  0.495299  0.003764  1
  Rh  Rh26  1  0.500146  0.500146  0.000744  1
  Rh  Rh27  1  0.000744  0.500146  0.500146  1
  Rh  Rh28  1  0.500146  0.000744  0.500146  1
  Rh  Rh29  1  0.501151  0.501151  0.501151  1
