# generated using pymatgen
data_Ce2Fe2Ni8Mo2P7
_symmetry_space_group_name_H-M   'P 1'
_cell_length_a   9.17622558
_cell_length_b   9.10717485
_cell_length_c   3.73356000
_cell_angle_alpha   90.00000000
_cell_angle_beta   90.00000000
_cell_angle_gamma   119.70427938
_symmetry_Int_Tables_number   1
_chemical_formula_structural   Ce2Fe2Ni8Mo2P7
_chemical_formula_sum   'Ce2 Fe2 Ni8 Mo2 P7'
_cell_volume   271.01165555
_cell_formula_units_Z   1
loop_
 _symmetry_equiv_pos_site_id
 _symmetry_equiv_pos_as_xyz
  1  'x, y, z'
loop_
 _atom_site_type_symbol
 _atom_site_label
 _atom_site_symmetry_multiplicity
 _atom_site_fract_x
 _atom_site_fract_y
 _atom_site_fract_z
 _atom_site_occupancy
  Ce  Ce0  1  0.662044  0.331690  0.500000  1
  Ce  Ce1  1  0.331583  0.667301  0.000000  1
  Fe  Fe2  1  0.386973  0.431098  0.500000  1
  Fe  Fe3  1  0.160163  0.282787  0.000000  1
  Ni  Ni4  1  0.125593  0.849866  0.000000  1
  Ni  Ni5  1  0.716037  0.872712  0.000000  1
  Ni  Ni6  1  0.055313  0.612071  0.500000  1
  Ni  Ni7  1  0.936691  0.369039  0.000000  1
  Ni  Ni8  1  0.211870  0.097209  0.500000  1
  Ni  Ni9  1  0.563161  0.944633  0.500000  1
  Ni  Ni10  1  0.630370  0.570580  0.000000  1
  Ni  Ni11  1  0.432384  0.066022  0.000000  1
  Mo  Mo12  1  0.883214  0.784211  0.500000  1
  Mo  Mo13  1  0.900399  0.113495  0.500000  1
  P  P14  1  0.591883  0.702892  0.500000  1
  P  P15  1  0.122540  0.399596  0.500000  1
  P  P16  1  0.892904  0.592249  0.000000  1
  P  P17  1  0.290107  0.893480  0.500000  1
  P  P18  1  0.003824  0.008117  0.000000  1
  P  P19  1  0.697672  0.108058  0.000000  1
  P  P20  1  0.405278  0.302892  0.000000  1
