# generated using pymatgen
data_Nd9Gd7(LuSn4)4
_symmetry_space_group_name_H-M   'P 1'
_cell_length_a   8.10670513
_cell_length_b   8.32972435
_cell_length_c   15.72561700
_cell_angle_alpha   90.00696101
_cell_angle_beta   90.06447866
_cell_angle_gamma   90.05091347
_symmetry_Int_Tables_number   1
_chemical_formula_structural   Nd9Gd7(LuSn4)4
_chemical_formula_sum   'Nd9 Gd7 Lu4 Sn16'
_cell_volume   1061.89665053
_cell_formula_units_Z   1
loop_
 _symmetry_equiv_pos_site_id
 _symmetry_equiv_pos_as_xyz
  1  'x, y, z'
loop_
 _atom_site_type_symbol
 _atom_site_label
 _atom_site_symmetry_multiplicity
 _atom_site_fract_x
 _atom_site_fract_y
 _atom_site_fract_z
 _atom_site_occupancy
  Nd  Nd0  1  0.853289  0.664612  0.878008  1
  Nd  Nd1  1  0.510112  0.320338  0.903831  1
  Nd  Nd2  1  0.008768  0.178232  0.593521  1
  Nd  Nd3  1  0.490700  0.677858  0.404426  1
  Nd  Nd4  1  0.991212  0.821150  0.098269  1
  Nd  Nd5  1  0.490218  0.678313  0.097511  1
  Nd  Nd6  1  0.991428  0.821893  0.404166  1
  Nd  Nd7  1  0.508493  0.321830  0.593913  1
  Nd  Nd8  1  0.009114  0.179408  0.904607  1
  Gd  Gd9  1  0.351891  0.835673  0.875255  1
  Gd  Gd10  1  0.852080  0.664536  0.621803  1
  Gd  Gd11  1  0.648520  0.163883  0.376880  1
  Gd  Gd12  1  0.147252  0.336421  0.124708  1
  Gd  Gd13  1  0.646397  0.163191  0.126355  1
  Gd  Gd14  1  0.148160  0.336096  0.376641  1
  Gd  Gd15  1  0.351473  0.836245  0.621740  1
  Lu  Lu16  1  0.185571  0.501139  0.748852  1
  Lu  Lu17  1  0.684435  0.998924  0.748103  1
  Lu  Lu18  1  0.814763  0.497947  0.251080  1
  Lu  Lu19  1  0.314102  0.001602  0.250553  1
  Sn  Sn20  1  0.309102  0.038554  0.043040  1
  Sn  Sn21  1  0.809845  0.461188  0.456634  1
  Sn  Sn22  1  0.690954  0.961230  0.542035  1
  Sn  Sn23  1  0.197261  0.537871  0.958178  1
  Sn  Sn24  1  0.688213  0.964408  0.958945  1
  Sn  Sn25  1  0.189725  0.539210  0.542007  1
  Sn  Sn26  1  0.309335  0.038822  0.456213  1
  Sn  Sn27  1  0.807118  0.459286  0.045606  1
  Sn  Sn28  1  0.547869  0.618509  0.747255  1
  Sn  Sn29  1  0.048820  0.882896  0.748137  1
  Sn  Sn30  1  0.451417  0.381278  0.251527  1
  Sn  Sn31  1  0.952177  0.119312  0.251250  1
  Sn  Sn32  1  0.316387  0.147811  0.748391  1
  Sn  Sn33  1  0.816993  0.351469  0.747835  1
  Sn  Sn34  1  0.683301  0.851672  0.251522  1
  Sn  Sn35  1  0.183504  0.647196  0.251200  1
