# generated using pymatgen
data_Be8VCr3
_symmetry_space_group_name_H-M   'P 1'
_cell_length_a   4.24864508
_cell_length_b   4.24864544
_cell_length_c   6.93893909
_cell_angle_alpha   89.99841386
_cell_angle_beta   90.00156334
_cell_angle_gamma   120.00046716
_symmetry_Int_Tables_number   1
_chemical_formula_structural   Be8VCr3
_chemical_formula_sum   'Be8 V1 Cr3'
_cell_volume   108.47323828
_cell_formula_units_Z   1
loop_
 _symmetry_equiv_pos_site_id
 _symmetry_equiv_pos_as_xyz
  1  'x, y, z'
loop_
 _atom_site_type_symbol
 _atom_site_label
 _atom_site_symmetry_multiplicity
 _atom_site_fract_x
 _atom_site_fract_y
 _atom_site_fract_z
 _atom_site_occupancy
  Be  Be0  1  0.000006  0.999997  0.499112  1
  Be  Be1  1  0.000004  0.999993  0.999588  1
  Be  Be2  1  0.170455  0.340876  0.751764  1
  Be  Be3  1  0.170450  0.829551  0.751698  1
  Be  Be4  1  0.659126  0.829547  0.751762  1
  Be  Be5  1  0.829996  0.660009  0.248740  1
  Be  Be6  1  0.829997  0.170006  0.248807  1
  Be  Be7  1  0.339991  0.170005  0.248741  1
  V  V8  1  0.666666  0.333336  0.564011  1
  Cr  Cr9  1  0.333337  0.666665  0.432510  1
  Cr  Cr10  1  0.333278  0.666722  0.063492  1
  Cr  Cr11  1  0.666693  0.333294  0.939776  1
