# generated using pymatgen
data_Tb15Ho(In3Ni)2
_symmetry_space_group_name_H-M   'P 1'
_cell_length_a   10.49838404
_cell_length_b   10.49838405
_cell_length_c   6.94932400
_cell_angle_alpha   89.99724917
_cell_angle_beta   90.00274667
_cell_angle_gamma   119.99050658
_symmetry_Int_Tables_number   1
_chemical_formula_structural   Tb15Ho(In3Ni)2
_chemical_formula_sum   'Tb15 Ho1 In6 Ni2'
_cell_volume   663.37582485
_cell_formula_units_Z   1
loop_
 _symmetry_equiv_pos_site_id
 _symmetry_equiv_pos_as_xyz
  1  'x, y, z'
loop_
 _atom_site_type_symbol
 _atom_site_label
 _atom_site_symmetry_multiplicity
 _atom_site_fract_x
 _atom_site_fract_y
 _atom_site_fract_z
 _atom_site_occupancy
  Tb  Tb0  1  0.065347  0.532652  0.481156  1
  Tb  Tb1  1  0.467348  0.934653  0.481156  1
  Tb  Tb2  1  0.532579  0.467421  0.980853  1
  Tb  Tb3  1  0.934731  0.467391  0.981073  1
  Tb  Tb4  1  0.532609  0.065269  0.981073  1
  Tb  Tb5  1  0.823411  0.176589  0.272286  1
  Tb  Tb6  1  0.353330  0.176939  0.272520  1
  Tb  Tb7  1  0.823061  0.646670  0.272520  1
  Tb  Tb8  1  0.176625  0.823375  0.772254  1
  Tb  Tb9  1  0.646571  0.823175  0.772034  1
  Tb  Tb10  1  0.176825  0.353429  0.772034  1
  Tb  Tb11  1  0.333490  0.666510  0.095994  1
  Tb  Tb12  1  0.666501  0.333499  0.595746  1
  Tb  Tb13  1  0.999995  0.000005  0.496474  1
  Tb  Tb14  1  0.000029  0.999971  0.996645  1
  Ho  Ho15  1  0.467195  0.532805  0.480750  1
  In  In16  1  0.163098  0.836902  0.237637  1
  In  In17  1  0.673569  0.836595  0.238072  1
  In  In18  1  0.163405  0.326431  0.238072  1
  In  In19  1  0.836884  0.163116  0.737763  1
  In  In20  1  0.326153  0.163099  0.737692  1
  In  In21  1  0.836901  0.673847  0.737692  1
  Ni  Ni22  1  0.333646  0.666354  0.706328  1
  Ni  Ni23  1  0.666698  0.333302  0.206726  1
