# generated using pymatgen
data_Ac2HgIr2
_symmetry_space_group_name_H-M   'P 1'
_cell_length_a   4.43588000
_cell_length_b   4.43587933
_cell_length_c   8.81016700
_cell_angle_alpha   90.00000000
_cell_angle_beta   90.00000000
_cell_angle_gamma   120.00000496
_symmetry_Int_Tables_number   1
_chemical_formula_structural   Ac2HgIr2
_chemical_formula_sum   'Ac2 Hg1 Ir2'
_cell_volume   150.13234345
_cell_formula_units_Z   1
loop_
 _symmetry_equiv_pos_site_id
 _symmetry_equiv_pos_as_xyz
  1  'x, y, z'
loop_
 _atom_site_type_symbol
 _atom_site_label
 _atom_site_symmetry_multiplicity
 _atom_site_fract_x
 _atom_site_fract_y
 _atom_site_fract_z
 _atom_site_occupancy
  Ac  Ac0  1  0.000000  0.000000  0.224157  1
  Ac  Ac1  1  0.000000  0.000000  0.775843  1
  Hg  Hg2  1  0.666667  0.333333  0.500000  1
  Ir  Ir3  1  0.333333  0.666667  0.000000  1
  Ir  Ir4  1  0.666667  0.333333  0.000000  1
