# generated using pymatgen
data_Y4Hf3TcF28
_symmetry_space_group_name_H-M   'P 1'
_cell_length_a   5.69922140
_cell_length_b   9.02723785
_cell_length_c   12.14974140
_cell_angle_alpha   62.41762024
_cell_angle_beta   89.96626668
_cell_angle_gamma   89.98267634
_symmetry_Int_Tables_number   1
_chemical_formula_structural   Y4Hf3TcF28
_chemical_formula_sum   'Y4 Hf3 Tc1 F28'
_cell_volume   554.03942414
_cell_formula_units_Z   1
loop_
 _symmetry_equiv_pos_site_id
 _symmetry_equiv_pos_as_xyz
  1  'x, y, z'
loop_
 _atom_site_type_symbol
 _atom_site_label
 _atom_site_symmetry_multiplicity
 _atom_site_fract_x
 _atom_site_fract_y
 _atom_site_fract_z
 _atom_site_occupancy
  Y  Y0  1  0.258714  0.814778  0.263270  1
  Y  Y1  1  0.741687  0.185027  0.734268  1
  Y  Y2  1  0.757198  0.186612  0.233102  1
  Y  Y3  1  0.241691  0.814051  0.767525  1
  Hf  Hf4  1  0.243615  0.274263  0.955460  1
  Hf  Hf5  1  0.255825  0.274202  0.455064  1
  Hf  Hf6  1  0.743241  0.726799  0.544022  1
  Tc  Tc7  1  0.758524  0.726359  0.044689  1
  F  F8  1  0.960902  0.709881  0.420969  1
  F  F9  1  0.038476  0.291149  0.578361  1
  F  F10  1  0.461271  0.290275  0.078519  1
  F  F11  1  0.550544  0.707440  0.923045  1
  F  F12  1  0.486248  0.730395  0.142638  1
  F  F13  1  0.514367  0.267452  0.852579  1
  F  F14  1  0.985266  0.268306  0.351899  1
  F  F15  1  0.013119  0.732451  0.648086  1
  F  F16  1  0.962476  0.742271  0.170752  1
  F  F17  1  0.033126  0.254799  0.828605  1
  F  F18  1  0.463729  0.254662  0.327543  1
  F  F19  1  0.533540  0.745597  0.671778  1
  F  F20  1  0.768683  0.481487  0.141160  1
  F  F21  1  0.232045  0.524101  0.859499  1
  F  F22  1  0.274457  0.523991  0.358940  1
  F  F23  1  0.727346  0.476862  0.640454  1
  F  F24  1  0.953584  0.281816  0.047972  1
  F  F25  1  0.042784  0.718471  0.953958  1
  F  F26  1  0.453243  0.723139  0.450082  1
  F  F27  1  0.546307  0.277666  0.549215  1
  F  F28  1  0.741152  0.975844  0.443138  1
  F  F29  1  0.258597  0.025340  0.557867  1
  F  F30  1  0.239505  0.025103  0.055766  1
  F  F31  1  0.758195  0.970849  0.948750  1
  F  F32  1  0.577426  0.972303  0.231890  1
  F  F33  1  0.422856  0.026756  0.769279  1
  F  F34  1  0.076251  0.027472  0.265457  1
  F  F35  1  0.924011  0.972028  0.734398  1
