# generated using pymatgen
data_Ba3NdTm2LuO9
_symmetry_space_group_name_H-M   'P 1'
_cell_length_a   9.18674598
_cell_length_b   9.18674701
_cell_length_c   9.18674768
_cell_angle_alpha   39.03253097
_cell_angle_beta   39.03253115
_cell_angle_gamma   39.03254189
_symmetry_Int_Tables_number   1
_chemical_formula_structural   Ba3NdTm2LuO9
_chemical_formula_sum   'Ba3 Nd1 Tm2 Lu1 O9'
_cell_volume   276.55169534
_cell_formula_units_Z   1
loop_
 _symmetry_equiv_pos_site_id
 _symmetry_equiv_pos_as_xyz
  1  'x, y, z'
loop_
 _atom_site_type_symbol
 _atom_site_label
 _atom_site_symmetry_multiplicity
 _atom_site_fract_x
 _atom_site_fract_y
 _atom_site_fract_z
 _atom_site_occupancy
  Ba  Ba0  1  0.996752  0.996752  0.996752  1
  Ba  Ba1  1  0.164036  0.164036  0.164036  1
  Ba  Ba2  1  0.593807  0.593807  0.593807  1
  Nd  Nd3  1  0.422995  0.422995  0.422995  1
  Tm  Tm4  1  0.861612  0.861612  0.861612  1
  Tm  Tm5  1  0.736154  0.736154  0.736154  1
  Lu  Lu6  1  0.296209  0.296209  0.296209  1
  O  O7  1  0.034242  0.123751  0.582582  1
  O  O8  1  0.123751  0.582582  0.034242  1
  O  O9  1  0.582582  0.034242  0.123751  1
  O  O10  1  0.567949  0.099931  0.732143  1
  O  O11  1  0.099931  0.732143  0.567949  1
  O  O12  1  0.732143  0.567949  0.099931  1
  O  O13  1  0.496573  0.023749  0.536216  1
  O  O14  1  0.023749  0.536216  0.496573  1
  O  O15  1  0.536216  0.496573  0.023749  1
