# generated using pymatgen
data_Lu2Co9As5PRu
_symmetry_space_group_name_H-M   'P 1'
_cell_length_a   3.75233100
_cell_length_b   10.62719600
_cell_length_c   12.06355100
_cell_angle_alpha   90.00000000
_cell_angle_beta   90.00000000
_cell_angle_gamma   90.00000000
_symmetry_Int_Tables_number   1
_chemical_formula_structural   Lu2Co9As5PRu
_chemical_formula_sum   'Lu4 Co18 As10 P2 Ru2'
_cell_volume   481.05529171
_cell_formula_units_Z   2
loop_
 _symmetry_equiv_pos_site_id
 _symmetry_equiv_pos_as_xyz
  1  'x, y, z'
loop_
 _atom_site_type_symbol
 _atom_site_label
 _atom_site_symmetry_multiplicity
 _atom_site_fract_x
 _atom_site_fract_y
 _atom_site_fract_z
 _atom_site_occupancy
  Lu  Lu0  1  0.250000  0.580159  0.699838  1
  Lu  Lu1  1  0.250000  0.919841  0.199838  1
  Lu  Lu2  1  0.750000  0.421887  0.299420  1
  Lu  Lu3  1  0.750000  0.078113  0.799420  1
  Co  Co4  1  0.750000  0.285629  0.007115  1
  Co  Co5  1  0.750000  0.214371  0.507115  1
  Co  Co6  1  0.250000  0.414076  0.483350  1
  Co  Co7  1  0.250000  0.085924  0.983350  1
  Co  Co8  1  0.750000  0.591408  0.506059  1
  Co  Co9  1  0.750000  0.908592  0.006059  1
  Co  Co10  1  0.250000  0.214428  0.176417  1
  Co  Co11  1  0.250000  0.285572  0.676417  1
  Co  Co12  1  0.750000  0.788207  0.826228  1
  Co  Co13  1  0.750000  0.711793  0.326228  1
  Co  Co14  1  0.250000  0.888813  0.706676  1
  Co  Co15  1  0.250000  0.611187  0.206676  1
  Co  Co16  1  0.750000  0.114988  0.301504  1
  Co  Co17  1  0.750000  0.385012  0.801504  1
  Co  Co18  1  0.250000  0.467186  0.931956  1
  Co  Co19  1  0.250000  0.032814  0.431956  1
  Co  Co20  1  0.750000  0.533178  0.070532  1
  Co  Co21  1  0.750000  0.966822  0.570532  1
  As  As22  1  0.250000  0.414269  0.115387  1
  As  As23  1  0.250000  0.085731  0.615387  1
  As  As24  1  0.750000  0.583792  0.884408  1
  As  As25  1  0.750000  0.916208  0.384408  1
  As  As26  1  0.250000  0.266132  0.869035  1
  As  As27  1  0.250000  0.233868  0.369035  1
  As  As28  1  0.750000  0.733316  0.133910  1
  As  As29  1  0.750000  0.766684  0.633910  1
  As  As30  1  0.750000  0.400940  0.608281  1
  As  As31  1  0.750000  0.099060  0.108281  1
  P  P32  1  0.250000  0.595767  0.389865  1
  P  P33  1  0.250000  0.904233  0.889865  1
  Ru  Ru34  1  0.250000  0.719772  0.990021  1
  Ru  Ru35  1  0.250000  0.780228  0.490021  1
