# generated using pymatgen
data_La3NdMg2(CoO6)2
_symmetry_space_group_name_H-M   'P 1'
_cell_length_a   5.50108804
_cell_length_b   5.51013791
_cell_length_c   7.77636245
_cell_angle_alpha   90.05007834
_cell_angle_beta   90.14469912
_cell_angle_gamma   90.26888814
_symmetry_Int_Tables_number   1
_chemical_formula_structural   La3NdMg2(CoO6)2
_chemical_formula_sum   'La3 Nd1 Mg2 Co2 O12'
_cell_volume   235.71174377
_cell_formula_units_Z   1
loop_
 _symmetry_equiv_pos_site_id
 _symmetry_equiv_pos_as_xyz
  1  'x, y, z'
loop_
 _atom_site_type_symbol
 _atom_site_label
 _atom_site_symmetry_multiplicity
 _atom_site_fract_x
 _atom_site_fract_y
 _atom_site_fract_z
 _atom_site_occupancy
  La  La0  1  0.006078  0.968988  0.749544  1
  La  La1  1  0.492588  0.467143  0.750028  1
  La  La2  1  0.506777  0.532973  0.249929  1
  Nd  Nd3  1  0.991097  0.040130  0.249965  1
  Mg  Mg4  1  0.500077  0.999474  0.498759  1
  Mg  Mg5  1  0.999515  0.501877  0.000595  1
  Co  Co6  1  0.000960  0.500082  0.498935  1
  Co  Co7  1  0.498981  0.999704  0.001429  1
  O  O8  1  0.731486  0.288513  0.460770  1
  O  O9  1  0.773138  0.792138  0.041051  1
  O  O10  1  0.206294  0.227537  0.535721  1
  O  O11  1  0.294904  0.728107  0.962664  1
  O  O12  1  0.273193  0.707250  0.536943  1
  O  O13  1  0.227380  0.209525  0.964643  1
  O  O14  1  0.796912  0.773924  0.459944  1
  O  O15  1  0.708892  0.267915  0.039426  1
  O  O16  1  0.069502  0.483309  0.259696  1
  O  O17  1  0.423490  0.988855  0.239786  1
  O  O18  1  0.568255  0.011169  0.760336  1
  O  O19  1  0.930482  0.511386  0.739836  1
