# generated using pymatgen
data_K3Ag(PS4)2
_symmetry_space_group_name_H-M   'P 1'
_cell_length_a   7.03337304
_cell_length_b   7.03337216
_cell_length_c   18.07911453
_cell_angle_alpha   87.46968457
_cell_angle_beta   87.46968677
_cell_angle_gamma   120.76353804
_symmetry_Int_Tables_number   1
_chemical_formula_structural   K3Ag(PS4)2
_chemical_formula_sum   'K6 Ag2 P4 S16'
_cell_volume   765.42425783
_cell_formula_units_Z   2
loop_
 _symmetry_equiv_pos_site_id
 _symmetry_equiv_pos_as_xyz
  1  'x, y, z'
loop_
 _atom_site_type_symbol
 _atom_site_label
 _atom_site_symmetry_multiplicity
 _atom_site_fract_x
 _atom_site_fract_y
 _atom_site_fract_z
 _atom_site_occupancy
  K  K0  1  0.501613  0.360703  0.110458  1
  K  K1  1  0.360703  0.501613  0.610458  1
  K  K2  1  0.898779  0.694344  0.754365  1
  K  K3  1  0.694344  0.898779  0.254365  1
  K  K4  1  0.584231  0.036831  0.892989  1
  K  K5  1  0.036831  0.584231  0.392989  1
  Ag  Ag6  1  0.043355  0.948141  0.998857  1
  Ag  Ag7  1  0.948141  0.043355  0.498857  1
  P  P8  1  0.297678  0.429067  0.879608  1
  P  P9  1  0.429067  0.297678  0.379608  1
  P  P10  1  0.217261  0.683394  0.122159  1
  P  P11  1  0.683394  0.217261  0.622159  1
  S  S12  1  0.505090  0.185430  0.716460  1
  S  S13  1  0.185430  0.505090  0.216460  1
  S  S14  1  0.085152  0.091062  0.872919  1
  S  S15  1  0.091062  0.085152  0.372919  1
  S  S16  1  0.331535  0.614445  0.786762  1
  S  S17  1  0.614445  0.331535  0.286762  1
  S  S18  1  0.581125  0.500193  0.923955  1
  S  S19  1  0.500193  0.581125  0.423955  1
  S  S20  1  0.105445  0.536410  0.944837  1
  S  S21  1  0.536410  0.105445  0.444837  1
  S  S22  1  0.059394  0.403002  0.052910  1
  S  S23  1  0.403002  0.059394  0.552910  1
  S  S24  1  0.528663  0.906404  0.082079  1
  S  S25  1  0.906404  0.528663  0.582079  1
  S  S26  1  0.012305  0.815730  0.125343  1
  S  S27  1  0.815730  0.012305  0.625343  1
