# generated using pymatgen
data_Hf4FeCo7P6
_symmetry_space_group_name_H-M   'P 1'
_cell_length_a   12.05564200
_cell_length_b   12.03502033
_cell_length_c   3.63363900
_cell_angle_alpha   90.00000000
_cell_angle_beta   90.00000000
_cell_angle_gamma   120.05670289
_symmetry_Int_Tables_number   1
_chemical_formula_structural   Hf4FeCo7P6
_chemical_formula_sum   'Hf8 Fe2 Co14 P12'
_cell_volume   456.31122474
_cell_formula_units_Z   2
loop_
 _symmetry_equiv_pos_site_id
 _symmetry_equiv_pos_as_xyz
  1  'x, y, z'
loop_
 _atom_site_type_symbol
 _atom_site_label
 _atom_site_symmetry_multiplicity
 _atom_site_fract_x
 _atom_site_fract_y
 _atom_site_fract_z
 _atom_site_occupancy
  Hf  Hf0  1  0.825654  0.823986  0.500000  1
  Hf  Hf1  1  0.444293  0.444686  0.000000  1
  Hf  Hf2  1  0.001668  0.176014  0.500000  1
  Hf  Hf3  1  0.555111  0.000000  0.000000  1
  Hf  Hf4  1  0.332216  0.665930  0.000000  1
  Hf  Hf5  1  0.666286  0.334070  0.000000  1
  Hf  Hf6  1  0.999606  0.555314  0.000000  1
  Hf  Hf7  1  0.174107  0.000000  0.500000  1
  Fe  Fe8  1  0.000169  0.720690  0.500000  1
  Fe  Fe9  1  0.279479  0.279310  0.500000  1
  Co  Co10  1  0.628737  0.822489  0.000000  1
  Co  Co11  1  0.372812  0.193142  0.000000  1
  Co  Co12  1  0.872333  0.353919  0.500000  1
  Co  Co13  1  0.721374  0.000000  0.500000  1
  Co  Co14  1  0.820584  0.627512  0.000000  1
  Co  Co15  1  0.179670  0.806858  0.000000  1
  Co  Co16  1  0.354949  0.872796  0.500000  1
  Co  Co17  1  0.126696  0.481201  0.500000  1
  Co  Co18  1  0.645495  0.518799  0.500000  1
  Co  Co19  1  0.000245  0.000000  0.000000  1
  Co  Co20  1  0.518415  0.646081  0.500000  1
  Co  Co21  1  0.482153  0.127204  0.500000  1
  Co  Co22  1  0.193072  0.372488  0.000000  1
  Co  Co23  1  0.806249  0.177511  0.000000  1
  P  P24  1  0.000020  0.344579  0.000000  1
  P  P25  1  0.827753  0.518687  0.500000  1
  P  P26  1  0.689701  0.173466  0.500000  1
  P  P27  1  0.176103  0.175740  0.000000  1
  P  P28  1  0.655441  0.655421  0.000000  1
  P  P29  1  0.825832  0.000000  0.000000  1
  P  P30  1  0.516235  0.826534  0.500000  1
  P  P31  1  0.171971  0.690393  0.500000  1
  P  P32  1  0.344564  0.000000  0.000000  1
  P  P33  1  0.481576  0.309607  0.500000  1
  P  P34  1  0.000363  0.824260  0.000000  1
  P  P35  1  0.309067  0.481313  0.500000  1
