# generated using pymatgen
data_Tb2BC
_symmetry_space_group_name_H-M   'P 1'
_cell_length_a   6.43329562
_cell_length_b   6.43329484
_cell_length_c   9.22532841
_cell_angle_alpha   51.73255755
_cell_angle_beta   51.73256514
_cell_angle_gamma   31.81297250
_symmetry_Int_Tables_number   1
_chemical_formula_structural   Tb2BC
_chemical_formula_sum   'Tb4 B2 C2'
_cell_volume   153.97905724
_cell_formula_units_Z   2
loop_
 _symmetry_equiv_pos_site_id
 _symmetry_equiv_pos_as_xyz
  1  'x, y, z'
loop_
 _atom_site_type_symbol
 _atom_site_label
 _atom_site_symmetry_multiplicity
 _atom_site_fract_x
 _atom_site_fract_y
 _atom_site_fract_z
 _atom_site_occupancy
  Tb  Tb0  1  0.202126  0.202126  0.886008  1
  Tb  Tb1  1  0.797874  0.797874  0.113992  1
  Tb  Tb2  1  0.562448  0.562448  0.639421  1
  Tb  Tb3  1  0.437552  0.437552  0.360579  1
  B  B4  1  0.919563  0.919563  0.608633  1
  B  B5  1  0.080437  0.080437  0.391367  1
  C  C6  1  0.126365  0.126365  0.195644  1
  C  C7  1  0.873635  0.873635  0.804356  1
