# generated using pymatgen
data_Li2Sm2Si2Sn
_symmetry_space_group_name_H-M   'P 1'
_cell_length_a   9.70966650
_cell_length_b   9.70966583
_cell_length_c   6.81505100
_cell_angle_alpha   90.00000000
_cell_angle_beta   90.00000000
_cell_angle_gamma   153.28937607
_symmetry_Int_Tables_number   1
_chemical_formula_structural   Li2Sm2Si2Sn
_chemical_formula_sum   'Li4 Sm4 Si4 Sn2'
_cell_volume   288.79692470
_cell_formula_units_Z   2
loop_
 _symmetry_equiv_pos_site_id
 _symmetry_equiv_pos_as_xyz
  1  'x, y, z'
loop_
 _atom_site_type_symbol
 _atom_site_label
 _atom_site_symmetry_multiplicity
 _atom_site_fract_x
 _atom_site_fract_y
 _atom_site_fract_z
 _atom_site_occupancy
  Li  Li0  1  0.815522  0.184478  0.553841  1
  Li  Li1  1  0.184478  0.815522  0.446159  1
  Li  Li2  1  0.184478  0.815522  0.053841  1
  Li  Li3  1  0.815522  0.184478  0.946159  1
  Sm  Sm4  1  0.548244  0.451756  0.250000  1
  Sm  Sm5  1  0.451756  0.548244  0.750000  1
  Sm  Sm6  1  0.350784  0.649216  0.250000  1
  Sm  Sm7  1  0.649216  0.350784  0.750000  1
  Si  Si8  1  0.942491  0.057509  0.073508  1
  Si  Si9  1  0.057509  0.942491  0.926492  1
  Si  Si10  1  0.057509  0.942491  0.573508  1
  Si  Si11  1  0.942491  0.057509  0.426492  1
  Sn  Sn12  1  0.718814  0.281186  0.250000  1
  Sn  Sn13  1  0.281186  0.718814  0.750000  1
