# generated using pymatgen
data_UPa(CCl)2
_symmetry_space_group_name_H-M   'P 1'
_cell_length_a   4.01083926
_cell_length_b   4.01083901
_cell_length_c   9.54448007
_cell_angle_alpha   86.41742769
_cell_angle_beta   86.41742853
_cell_angle_gamma   53.97126500
_symmetry_Int_Tables_number   1
_chemical_formula_structural   UPa(CCl)2
_chemical_formula_sum   'U1 Pa1 C2 Cl2'
_cell_volume   123.86588734
_cell_formula_units_Z   1
loop_
 _symmetry_equiv_pos_site_id
 _symmetry_equiv_pos_as_xyz
  1  'x, y, z'
loop_
 _atom_site_type_symbol
 _atom_site_label
 _atom_site_symmetry_multiplicity
 _atom_site_fract_x
 _atom_site_fract_y
 _atom_site_fract_z
 _atom_site_occupancy
  U  U0  1  0.141947  0.141947  0.858973  1
  Pa  Pa1  1  0.857289  0.857289  0.140115  1
  C  C2  1  0.578800  0.578800  0.042160  1
  C  C3  1  0.422145  0.422145  0.957879  1
  Cl  Cl4  1  0.825408  0.825408  0.670334  1
  Cl  Cl5  1  0.174411  0.174411  0.330539  1
