# generated using pymatgen
data_Nb3VCo2Te12Pd
_symmetry_space_group_name_H-M   'P 1'
_cell_length_a   7.69701883
_cell_length_b   7.69701922
_cell_length_c   20.60446276
_cell_angle_alpha   70.49077140
_cell_angle_beta   70.49077021
_cell_angle_gamma   26.83984284
_symmetry_Int_Tables_number   1
_chemical_formula_structural   Nb3VCo2Te12Pd
_chemical_formula_sum   'Nb3 V1 Co2 Te12 Pd1'
_cell_volume   517.63871330
_cell_formula_units_Z   1
loop_
 _symmetry_equiv_pos_site_id
 _symmetry_equiv_pos_as_xyz
  1  'x, y, z'
loop_
 _atom_site_type_symbol
 _atom_site_label
 _atom_site_symmetry_multiplicity
 _atom_site_fract_x
 _atom_site_fract_y
 _atom_site_fract_z
 _atom_site_occupancy
  Nb  Nb0  1  0.259750  0.259750  0.404769  1
  Nb  Nb1  1  0.617723  0.617723  0.849083  1
  Nb  Nb2  1  0.383451  0.383451  0.149157  1
  V  V3  1  0.738347  0.738347  0.597658  1
  Co  Co4  1  0.777959  0.777959  0.280897  1
  Co  Co5  1  0.221981  0.221981  0.719624  1
  Te  Te6  1  0.863091  0.863091  0.459457  1
  Te  Te7  1  0.039472  0.039472  0.114310  1
  Te  Te8  1  0.804936  0.804936  0.765147  1
  Te  Te9  1  0.404023  0.404023  0.279662  1
  Te  Te10  1  0.184968  0.184968  0.928147  1
  Te  Te11  1  0.598876  0.598876  0.717760  1
  Te  Te12  1  0.139193  0.139193  0.548642  1
  Te  Te13  1  0.815500  0.815500  0.070613  1
  Te  Te14  1  0.363853  0.363853  0.610034  1
  Te  Te15  1  0.961639  0.961639  0.883469  1
  Te  Te16  1  0.196914  0.196914  0.233622  1
  Te  Te17  1  0.628001  0.628001  0.388681  1
  Pd  Pd18  1  0.000322  0.000322  0.999267  1
