# generated using pymatgen
data_Tb3Ho7(ErOs2)2
_symmetry_space_group_name_H-M   'P 1'
_cell_length_a   6.29766192
_cell_length_b   7.38017815
_cell_length_c   9.02833230
_cell_angle_alpha   89.99782879
_cell_angle_beta   90.06156222
_cell_angle_gamma   89.94145448
_symmetry_Int_Tables_number   1
_chemical_formula_structural   Tb3Ho7(ErOs2)2
_chemical_formula_sum   'Tb3 Ho7 Er2 Os4'
_cell_volume   419.61716517
_cell_formula_units_Z   1
loop_
 _symmetry_equiv_pos_site_id
 _symmetry_equiv_pos_as_xyz
  1  'x, y, z'
loop_
 _atom_site_type_symbol
 _atom_site_label
 _atom_site_symmetry_multiplicity
 _atom_site_fract_x
 _atom_site_fract_y
 _atom_site_fract_z
 _atom_site_occupancy
  Tb  Tb0  1  0.870292  0.538038  0.250032  1
  Tb  Tb1  1  0.629838  0.038086  0.249941  1
  Tb  Tb2  1  0.130346  0.461868  0.749977  1
  Ho  Ho3  1  0.332855  0.676067  0.062932  1
  Ho  Ho4  1  0.167703  0.174940  0.437214  1
  Ho  Ho5  1  0.666789  0.324286  0.562983  1
  Ho  Ho6  1  0.832059  0.824894  0.936763  1
  Ho  Ho7  1  0.666868  0.324137  0.937046  1
  Ho  Ho8  1  0.831993  0.824716  0.563249  1
  Ho  Ho9  1  0.369509  0.961692  0.749996  1
  Er  Er10  1  0.332900  0.675852  0.437104  1
  Er  Er11  1  0.167647  0.174806  0.062781  1
  Os  Os12  1  0.042997  0.883143  0.250018  1
  Os  Os13  1  0.457078  0.383011  0.249965  1
  Os  Os14  1  0.959168  0.116666  0.750217  1
  Os  Os15  1  0.541956  0.617798  0.749783  1
