# generated using pymatgen
data_La4Pr6Os3Ru
_symmetry_space_group_name_H-M   'P 1'
_cell_length_a   9.04384482
_cell_length_b   9.05584560
_cell_length_c   7.43067429
_cell_angle_alpha   83.95298776
_cell_angle_beta   84.00757701
_cell_angle_gamma   43.63989223
_symmetry_Int_Tables_number   1
_chemical_formula_structural   La4Pr6Os3Ru
_chemical_formula_sum   'La4 Pr6 Os3 Ru1'
_cell_volume   417.29966578
_cell_formula_units_Z   1
loop_
 _symmetry_equiv_pos_site_id
 _symmetry_equiv_pos_as_xyz
  1  'x, y, z'
loop_
 _atom_site_type_symbol
 _atom_site_label
 _atom_site_symmetry_multiplicity
 _atom_site_fract_x
 _atom_site_fract_y
 _atom_site_fract_z
 _atom_site_occupancy
  La  La0  1  0.013506  0.800221  0.907435  1
  La  La1  1  0.200003  0.985981  0.591817  1
  La  La2  1  0.987083  0.199851  0.091401  1
  La  La3  1  0.798039  0.015475  0.403684  1
  Pr  Pr4  1  0.361000  0.209510  0.817616  1
  Pr  Pr5  1  0.790355  0.639741  0.681687  1
  Pr  Pr6  1  0.639056  0.788818  0.182619  1
  Pr  Pr7  1  0.207167  0.362104  0.319317  1
  Pr  Pr8  1  0.571022  0.429861  0.748269  1
  Pr  Pr9  1  0.428067  0.572742  0.250404  1
  Os  Os10  1  0.167081  0.611045  0.581636  1
  Os  Os11  1  0.390052  0.831997  0.918987  1
  Os  Os12  1  0.831427  0.390455  0.418556  1
  Ru  Ru13  1  0.616144  0.162200  0.086572  1
