# generated using pymatgen
data_TbHo2In3NiRh2
_symmetry_space_group_name_H-M   'P 1'
_cell_length_a   7.58780229
_cell_length_b   7.58014463
_cell_length_c   3.78306000
_cell_angle_alpha   90.00000000
_cell_angle_beta   90.00000000
_cell_angle_gamma   119.96662165
_symmetry_Int_Tables_number   1
_chemical_formula_structural   TbHo2In3NiRh2
_chemical_formula_sum   'Tb1 Ho2 In3 Ni1 Rh2'
_cell_volume   188.50085867
_cell_formula_units_Z   1
loop_
 _symmetry_equiv_pos_site_id
 _symmetry_equiv_pos_as_xyz
  1  'x, y, z'
loop_
 _atom_site_type_symbol
 _atom_site_label
 _atom_site_symmetry_multiplicity
 _atom_site_fract_x
 _atom_site_fract_y
 _atom_site_fract_z
 _atom_site_occupancy
  Tb  Tb0  1  0.000000  0.590347  0.500000  1
  Ho  Ho1  1  0.409313  0.409407  0.500000  1
  Ho  Ho2  1  0.590687  0.000094  0.500000  1
  In  In3  1  0.253496  0.000762  0.000000  1
  In  In4  1  0.746504  0.747267  0.000000  1
  In  In5  1  0.000000  0.252268  0.000000  1
  Ni  Ni6  1  0.000000  0.000393  0.500000  1
  Rh  Rh7  1  0.334370  0.666917  0.000000  1
  Rh  Rh8  1  0.665630  0.332545  0.000000  1
