# generated using pymatgen
data_Sr6Fe3TcO14
_symmetry_space_group_name_H-M   'P 1'
_cell_length_a   10.87533401
_cell_length_b   10.87533356
_cell_length_c   5.56704118
_cell_angle_alpha   89.99972629
_cell_angle_beta   89.99972130
_cell_angle_gamma   150.32679418
_symmetry_Int_Tables_number   1
_chemical_formula_structural   Sr6Fe3TcO14
_chemical_formula_sum   'Sr6 Fe3 Tc1 O14'
_cell_volume   325.95736284
_cell_formula_units_Z   1
loop_
 _symmetry_equiv_pos_site_id
 _symmetry_equiv_pos_as_xyz
  1  'x, y, z'
loop_
 _atom_site_type_symbol
 _atom_site_label
 _atom_site_symmetry_multiplicity
 _atom_site_fract_x
 _atom_site_fract_y
 _atom_site_fract_z
 _atom_site_occupancy
  Sr  Sr0  1  0.189110  0.810890  0.000000  1
  Sr  Sr1  1  0.816451  0.183549  0.000000  1
  Sr  Sr2  1  0.318700  0.681300  0.500000  1
  Sr  Sr3  1  0.989050  0.010950  0.000000  1
  Sr  Sr4  1  0.687608  0.312392  0.500000  1
  Sr  Sr5  1  0.489646  0.510354  0.500000  1
  Fe  Fe6  1  0.894530  0.105470  0.500000  1
  Fe  Fe7  1  0.400204  0.599796  0.000000  1
  Fe  Fe8  1  0.597294  0.402706  0.000000  1
  Tc  Tc9  1  0.096192  0.903808  0.500000  1
  O  O10  1  0.157308  0.346311  0.255826  1
  O  O11  1  0.308342  0.110258  0.228531  1
  O  O12  1  0.653689  0.842692  0.744174  1
  O  O13  1  0.370007  0.172559  0.709570  1
  O  O14  1  0.801110  0.198890  0.500000  1
  O  O15  1  0.827441  0.629993  0.290430  1
  O  O16  1  0.192066  0.807934  0.500000  1
  O  O17  1  0.693590  0.306410  0.000000  1
  O  O18  1  0.660565  0.849612  0.248939  1
  O  O19  1  0.303576  0.696424  0.000000  1
  O  O20  1  0.007940  0.992060  0.500000  1
  O  O21  1  0.889742  0.691658  0.771469  1
  O  O22  1  0.505455  0.494545  0.000000  1
  O  O23  1  0.150388  0.339435  0.751061  1
