# generated using pymatgen
data_Ho10Er2Mn2In3
_symmetry_space_group_name_H-M   'P 1'
_cell_length_a   8.41796616
_cell_length_b   8.42036432
_cell_length_c   8.41796597
_cell_angle_alpha   110.25311436
_cell_angle_beta   110.19127445
_cell_angle_gamma   107.96826627
_symmetry_Int_Tables_number   1
_chemical_formula_structural   Ho10Er2Mn2In3
_chemical_formula_sum   'Ho10 Er2 Mn2 In3'
_cell_volume   459.15742891
_cell_formula_units_Z   1
loop_
 _symmetry_equiv_pos_site_id
 _symmetry_equiv_pos_as_xyz
  1  'x, y, z'
loop_
 _atom_site_type_symbol
 _atom_site_label
 _atom_site_symmetry_multiplicity
 _atom_site_fract_x
 _atom_site_fract_y
 _atom_site_fract_z
 _atom_site_occupancy
  Ho  Ho0  1  0.303278  0.303324  0.606311  1
  Ho  Ho1  1  0.696722  0.696676  0.393689  1
  Ho  Ho2  1  0.302988  0.696676  0.999954  1
  Ho  Ho3  1  0.697012  0.303324  0.000046  1
  Ho  Ho4  1  0.457149  0.210586  0.246871  1
  Ho  Ho5  1  0.542851  0.789414  0.753129  1
  Ho  Ho6  1  0.963715  0.210586  0.753437  1
  Ho  Ho7  1  0.210409  0.963705  0.753296  1
  Ho  Ho8  1  0.036285  0.789414  0.246563  1
  Ho  Ho9  1  0.789591  0.036295  0.246704  1
  Er  Er10  1  0.210493  0.457022  0.246529  1
  Er  Er11  1  0.789507  0.542978  0.753471  1
  Mn  Mn12  1  0.394387  0.394443  0.000056  1
  Mn  Mn13  1  0.605613  0.605557  0.999944  1
  In  In14  1  0.000000  0.000000  0.000000  1
  In  In15  1  0.500000  0.000000  0.500000  1
  In  In16  1  0.000000  0.500000  0.500000  1
