# generated using pymatgen
data_Y10Tm5Th(CdNi)4
_symmetry_space_group_name_H-M   'P 1'
_cell_length_a   9.55841038
_cell_length_b   9.55478048
_cell_length_c   9.55478040
_cell_angle_alpha   59.87278627
_cell_angle_beta   59.95556488
_cell_angle_gamma   59.95556234
_symmetry_Int_Tables_number   1
_chemical_formula_structural   Y10Tm5Th(CdNi)4
_chemical_formula_sum   'Y10 Tm5 Th1 Cd4 Ni4'
_cell_volume   616.02928323
_cell_formula_units_Z   1
loop_
 _symmetry_equiv_pos_site_id
 _symmetry_equiv_pos_as_xyz
  1  'x, y, z'
loop_
 _atom_site_type_symbol
 _atom_site_label
 _atom_site_symmetry_multiplicity
 _atom_site_fract_x
 _atom_site_fract_y
 _atom_site_fract_z
 _atom_site_occupancy
  Y  Y0  1  0.437989  0.062723  0.438155  1
  Y  Y1  1  0.061423  0.440372  0.061439  1
  Y  Y2  1  0.437989  0.438155  0.062723  1
  Y  Y3  1  0.061423  0.061439  0.440372  1
  Y  Y4  1  0.187571  0.813645  0.813645  1
  Y  Y5  1  0.813539  0.187106  0.187106  1
  Y  Y6  1  0.813725  0.187493  0.813684  1
  Y  Y7  1  0.187058  0.813528  0.187122  1
  Y  Y8  1  0.813725  0.813684  0.187493  1
  Y  Y9  1  0.187058  0.187122  0.813528  1
  Tm  Tm10  1  0.597160  0.598304  0.203878  1
  Tm  Tm11  1  0.597160  0.203878  0.598304  1
  Tm  Tm12  1  0.203931  0.597137  0.597137  1
  Tm  Tm13  1  0.061876  0.438942  0.438942  1
  Tm  Tm14  1  0.441161  0.060665  0.060665  1
  Th  Th15  1  0.596075  0.594714  0.594714  1
  Cd  Cd16  1  0.830687  0.830974  0.830974  1
  Cd  Cd17  1  0.832166  0.831858  0.506587  1
  Cd  Cd18  1  0.832166  0.506587  0.831858  1
  Cd  Cd19  1  0.506565  0.832218  0.832218  1
  Ni  Ni20  1  0.390406  0.394929  0.394929  1
  Ni  Ni21  1  0.394975  0.390683  0.818697  1
  Ni  Ni22  1  0.394975  0.818697  0.390683  1
  Ni  Ni23  1  0.819197  0.395149  0.395149  1
