# generated using pymatgen
data_Tm8Sc12Si15Ru
_symmetry_space_group_name_H-M   'P 1'
_cell_length_a   7.03478839
_cell_length_b   7.40783816
_cell_length_c   13.87560300
_cell_angle_alpha   90.00000000
_cell_angle_beta   90.00000000
_cell_angle_gamma   90.20255990
_symmetry_Int_Tables_number   1
_chemical_formula_structural   Tm8Sc12Si15Ru
_chemical_formula_sum   'Tm8 Sc12 Si15 Ru1'
_cell_volume   723.08886771
_cell_formula_units_Z   1
loop_
 _symmetry_equiv_pos_site_id
 _symmetry_equiv_pos_as_xyz
  1  'x, y, z'
loop_
 _atom_site_type_symbol
 _atom_site_label
 _atom_site_symmetry_multiplicity
 _atom_site_fract_x
 _atom_site_fract_y
 _atom_site_fract_z
 _atom_site_occupancy
  Tm  Tm0  1  0.011171  0.179381  0.095769  1
  Tm  Tm1  1  0.991270  0.826630  0.905132  1
  Tm  Tm2  1  0.489144  0.678025  0.904602  1
  Tm  Tm3  1  0.991270  0.826630  0.594868  1
  Tm  Tm4  1  0.511016  0.321573  0.095917  1
  Tm  Tm5  1  0.011171  0.179381  0.404231  1
  Tm  Tm6  1  0.511016  0.321573  0.404083  1
  Tm  Tm7  1  0.489144  0.678025  0.595398  1
  Sc  Sc8  1  0.158461  0.504194  0.750000  1
  Sc  Sc9  1  0.837418  0.493982  0.250000  1
  Sc  Sc10  1  0.338993  0.006086  0.250000  1
  Sc  Sc11  1  0.670049  0.997547  0.750000  1
  Sc  Sc12  1  0.316852  0.172000  0.627663  1
  Sc  Sc13  1  0.671669  0.825296  0.374144  1
  Sc  Sc14  1  0.171023  0.677875  0.374235  1
  Sc  Sc15  1  0.671669  0.825296  0.125856  1
  Sc  Sc16  1  0.837785  0.320261  0.627513  1
  Sc  Sc17  1  0.316852  0.172000  0.872337  1
  Sc  Sc18  1  0.837785  0.320261  0.872487  1
  Sc  Sc19  1  0.171023  0.677875  0.125765  1
  Si  Si20  1  0.968655  0.886876  0.250000  1
  Si  Si21  1  0.469270  0.612063  0.250000  1
  Si  Si22  1  0.529565  0.390099  0.750000  1
  Si  Si23  1  0.286544  0.864669  0.750000  1
  Si  Si24  1  0.713595  0.131669  0.250000  1
  Si  Si25  1  0.213935  0.368633  0.250000  1
  Si  Si26  1  0.779735  0.629244  0.750000  1
  Si  Si27  1  0.161304  0.468677  0.537334  1
  Si  Si28  1  0.842159  0.535114  0.461688  1
  Si  Si29  1  0.342712  0.966495  0.460295  1
  Si  Si30  1  0.842159  0.535114  0.038312  1
  Si  Si31  1  0.657427  0.034398  0.538702  1
  Si  Si32  1  0.161304  0.468677  0.962666  1
  Si  Si33  1  0.657427  0.034398  0.961298  1
  Si  Si34  1  0.342712  0.966495  0.039705  1
  Ru  Ru35  1  0.026712  0.103491  0.750000  1
