# generated using pymatgen
data_Na6HfTh2Cl18
_symmetry_space_group_name_H-M   'P 1'
_cell_length_a   11.95545800
_cell_length_b   11.95545720
_cell_length_c   6.31966500
_cell_angle_alpha   90.00000000
_cell_angle_beta   90.00000000
_cell_angle_gamma   119.99999667
_symmetry_Int_Tables_number   1
_chemical_formula_structural   Na6HfTh2Cl18
_chemical_formula_sum   'Na6 Hf1 Th2 Cl18'
_cell_volume   782.27078438
_cell_formula_units_Z   1
loop_
 _symmetry_equiv_pos_site_id
 _symmetry_equiv_pos_as_xyz
  1  'x, y, z'
loop_
 _atom_site_type_symbol
 _atom_site_label
 _atom_site_symmetry_multiplicity
 _atom_site_fract_x
 _atom_site_fract_y
 _atom_site_fract_z
 _atom_site_occupancy
  Na  Na0  1  0.664070  0.000000  0.000000  1
  Na  Na1  1  0.335930  0.000000  0.000000  1
  Na  Na2  1  0.000000  0.664070  0.000000  1
  Na  Na3  1  0.664070  0.664070  0.000000  1
  Na  Na4  1  0.335930  0.335930  0.000000  1
  Na  Na5  1  0.000000  0.335930  0.000000  1
  Hf  Hf6  1  0.000000  0.000000  0.000000  1
  Th  Th7  1  0.666667  0.333333  0.502564  1
  Th  Th8  1  0.333333  0.666667  0.497436  1
  Cl  Cl9  1  0.560503  0.121007  0.751739  1
  Cl  Cl10  1  0.773818  0.226182  0.262442  1
  Cl  Cl11  1  0.803326  0.901663  0.221407  1
  Cl  Cl12  1  0.439497  0.560503  0.248261  1
  Cl  Cl13  1  0.773818  0.547633  0.262442  1
  Cl  Cl14  1  0.098337  0.196674  0.221407  1
  Cl  Cl15  1  0.226182  0.773818  0.737558  1
  Cl  Cl16  1  0.560503  0.439497  0.751739  1
  Cl  Cl17  1  0.226182  0.452367  0.737558  1
  Cl  Cl18  1  0.121007  0.560503  0.248261  1
  Cl  Cl19  1  0.196674  0.098337  0.778593  1
  Cl  Cl20  1  0.098337  0.901663  0.221407  1
  Cl  Cl21  1  0.547633  0.773818  0.737558  1
  Cl  Cl22  1  0.439497  0.878993  0.248261  1
  Cl  Cl23  1  0.901663  0.098337  0.778593  1
  Cl  Cl24  1  0.878993  0.439497  0.751739  1
  Cl  Cl25  1  0.452367  0.226182  0.262442  1
  Cl  Cl26  1  0.901663  0.803326  0.778593  1
