# generated using pymatgen
data_La8DyThIr4
_symmetry_space_group_name_H-M   'P 1'
_cell_length_a   6.72299733
_cell_length_b   7.29355566
_cell_length_c   9.08340600
_cell_angle_alpha   96.51493606
_cell_angle_beta   111.71994709
_cell_angle_gamma   90.00000635
_symmetry_Int_Tables_number   1
_chemical_formula_structural   La8DyThIr4
_chemical_formula_sum   'La8 Dy1 Th1 Ir4'
_cell_volume   410.68133745
_cell_formula_units_Z   1
loop_
 _symmetry_equiv_pos_site_id
 _symmetry_equiv_pos_as_xyz
  1  'x, y, z'
loop_
 _atom_site_type_symbol
 _atom_site_label
 _atom_site_symmetry_multiplicity
 _atom_site_fract_x
 _atom_site_fract_y
 _atom_site_fract_z
 _atom_site_occupancy
  La  La0  1  0.981866  0.923434  0.182429  1
  La  La1  1  0.799437  0.576566  0.817571  1
  La  La2  1  0.017268  0.081759  0.816887  1
  La  La3  1  0.200381  0.418241  0.183113  1
  La  La4  1  0.649318  0.815050  0.434558  1
  La  La5  1  0.214760  0.684950  0.565442  1
  La  La6  1  0.357739  0.185720  0.572725  1
  La  La7  1  0.785015  0.314280  0.427275  1
  Dy  Dy8  1  0.567945  0.250000  0.000000  1
  Th  Th9  1  0.428437  0.750000  0.000000  1
  Ir  Ir10  1  0.798132  0.577698  0.207342  1
  Ir  Ir11  1  0.590791  0.922302  0.792658  1
  Ir  Ir12  1  0.199196  0.428802  0.789479  1
  Ir  Ir13  1  0.409716  0.071198  0.210521  1
