# generated using pymatgen
data_Ho2Er3In4IrPd
_symmetry_space_group_name_H-M   'P 1'
_cell_length_a   3.60141800
_cell_length_b   8.10880544
_cell_length_c   18.19306909
_cell_angle_alpha   90.05412462
_cell_angle_beta   90.00000000
_cell_angle_gamma   90.00000000
_symmetry_Int_Tables_number   1
_chemical_formula_structural   Ho2Er3In4IrPd
_chemical_formula_sum   'Ho4 Er6 In8 Ir2 Pd2'
_cell_volume   531.29555922
_cell_formula_units_Z   2
loop_
 _symmetry_equiv_pos_site_id
 _symmetry_equiv_pos_as_xyz
  1  'x, y, z'
loop_
 _atom_site_type_symbol
 _atom_site_label
 _atom_site_symmetry_multiplicity
 _atom_site_fract_x
 _atom_site_fract_y
 _atom_site_fract_z
 _atom_site_occupancy
  Ho  Ho0  1  0.000000  0.500000  0.500000  1
  Ho  Ho1  1  0.000000  0.000000  0.000000  1
  Ho  Ho2  1  0.000000  0.728297  0.277527  1
  Ho  Ho3  1  0.000000  0.271703  0.722473  1
  Er  Er4  1  0.000000  0.747278  0.779934  1
  Er  Er5  1  0.000000  0.252722  0.220066  1
  Er  Er6  1  0.000000  0.613268  0.086975  1
  Er  Er7  1  0.000000  0.386732  0.913025  1
  Er  Er8  1  0.000000  0.884920  0.584426  1
  Er  Er9  1  0.000000  0.115080  0.415574  1
  In  In10  1  0.500000  0.709750  0.932207  1
  In  In11  1  0.500000  0.290250  0.067793  1
  In  In12  1  0.500000  0.790735  0.432131  1
  In  In13  1  0.500000  0.209265  0.567869  1
  In  In14  1  0.500000  0.579412  0.648179  1
  In  In15  1  0.500000  0.420588  0.351821  1
  In  In16  1  0.500000  0.922033  0.149646  1
  In  In17  1  0.500000  0.077967  0.850354  1
  Ir  Ir18  1  0.500000  0.519171  0.195696  1
  Ir  Ir19  1  0.500000  0.480829  0.804304  1
  Pd  Pd20  1  0.500000  0.979977  0.696046  1
  Pd  Pd21  1  0.500000  0.020023  0.303954  1
