# generated using pymatgen
data_OsRuSe4
_symmetry_space_group_name_H-M   'P 1'
_cell_length_a   6.01311988
_cell_length_b   6.01314888
_cell_length_c   6.01335600
_cell_angle_alpha   90.00000000
_cell_angle_beta   90.00000000
_cell_angle_gamma   90.09053923
_symmetry_Int_Tables_number   1
_chemical_formula_structural   OsRuSe4
_chemical_formula_sum   'Os2 Ru2 Se8'
_cell_volume   217.42936212
_cell_formula_units_Z   2
loop_
 _symmetry_equiv_pos_site_id
 _symmetry_equiv_pos_as_xyz
  1  'x, y, z'
loop_
 _atom_site_type_symbol
 _atom_site_label
 _atom_site_symmetry_multiplicity
 _atom_site_fract_x
 _atom_site_fract_y
 _atom_site_fract_z
 _atom_site_occupancy
  Os  Os0  1  0.000000  0.500000  0.500000  1
  Os  Os1  1  0.500000  0.500000  0.000000  1
  Ru  Ru2  1  0.500000  0.000000  0.500000  1
  Ru  Ru3  1  0.000000  0.000000  0.000000  1
  Se  Se4  1  0.379345  0.121659  0.878933  1
  Se  Se5  1  0.120655  0.878341  0.378933  1
  Se  Se6  1  0.878009  0.378954  0.121612  1
  Se  Se7  1  0.621991  0.621046  0.621612  1
  Se  Se8  1  0.378009  0.378954  0.378388  1
  Se  Se9  1  0.121991  0.621046  0.878388  1
  Se  Se10  1  0.879345  0.121659  0.621067  1
  Se  Se11  1  0.620655  0.878341  0.121067  1
