# generated using pymatgen
data_Ag2Bi2Ir3RhO14
_symmetry_space_group_name_H-M   'P 1'
_cell_length_a   7.27704702
_cell_length_b   7.16273882
_cell_length_c   7.27704694
_cell_angle_alpha   60.41196337
_cell_angle_beta   60.99430109
_cell_angle_gamma   60.41197183
_symmetry_Int_Tables_number   1
_chemical_formula_structural   Ag2Bi2Ir3RhO14
_chemical_formula_sum   'Ag2 Bi2 Ir3 Rh1 O14'
_cell_volume   271.86243793
_cell_formula_units_Z   1
loop_
 _symmetry_equiv_pos_site_id
 _symmetry_equiv_pos_as_xyz
  1  'x, y, z'
loop_
 _atom_site_type_symbol
 _atom_site_label
 _atom_site_symmetry_multiplicity
 _atom_site_fract_x
 _atom_site_fract_y
 _atom_site_fract_z
 _atom_site_occupancy
  Ag  Ag0  1  0.125000  0.125000  0.125000  1
  Ag  Ag1  1  0.125000  0.625000  0.125000  1
  Bi  Bi2  1  0.625000  0.125000  0.125000  1
  Bi  Bi3  1  0.125000  0.125000  0.625000  1
  Ir  Ir4  1  0.625000  0.625000  0.125000  1
  Ir  Ir5  1  0.125000  0.625000  0.625000  1
  Ir  Ir6  1  0.625000  0.125000  0.625000  1
  Rh  Rh7  1  0.625000  0.625000  0.625000  1
  O  O8  1  0.239557  0.259351  0.239557  1
  O  O9  1  0.311654  0.691369  0.311654  1
  O  O10  1  0.949431  0.954190  0.553472  1
  O  O11  1  0.541093  0.960626  0.541093  1
  O  O12  1  0.697976  0.710739  0.294672  1
  O  O13  1  0.955328  0.539261  0.552024  1
  O  O14  1  0.708907  0.289374  0.708907  1
  O  O15  1  0.300569  0.295810  0.696528  1
  O  O16  1  0.696528  0.295810  0.300569  1
  O  O17  1  0.294672  0.710739  0.697976  1
  O  O18  1  0.938346  0.558631  0.938346  1
  O  O19  1  0.552024  0.539261  0.955328  1
  O  O20  1  0.010443  0.990649  0.010443  1
  O  O21  1  0.553472  0.954190  0.949431  1
