# generated using pymatgen
data_Tb2Mn3Fe2(CoP)7
_symmetry_space_group_name_H-M   'P 1'
_cell_length_a   9.03510880
_cell_length_b   9.03325673
_cell_length_c   3.62234200
_cell_angle_alpha   90.00000000
_cell_angle_beta   90.00000000
_cell_angle_gamma   119.93420454
_symmetry_Int_Tables_number   1
_chemical_formula_structural   Tb2Mn3Fe2(CoP)7
_chemical_formula_sum   'Tb2 Mn3 Fe2 Co7 P7'
_cell_volume   256.20368851
_cell_formula_units_Z   1
loop_
 _symmetry_equiv_pos_site_id
 _symmetry_equiv_pos_as_xyz
  1  'x, y, z'
loop_
 _atom_site_type_symbol
 _atom_site_label
 _atom_site_symmetry_multiplicity
 _atom_site_fract_x
 _atom_site_fract_y
 _atom_site_fract_z
 _atom_site_occupancy
  Tb  Tb0  1  0.666535  0.333378  0.000000  1
  Tb  Tb1  1  0.333459  0.666888  0.500000  1
  Mn  Mn2  1  0.102509  0.876309  0.500000  1
  Mn  Mn3  1  0.772178  0.896628  0.500000  1
  Mn  Mn4  1  0.121580  0.224427  0.500000  1
  Fe  Fe5  1  0.844400  0.725119  0.000000  1
  Fe  Fe6  1  0.880393  0.155700  0.000000  1
  Co  Co7  1  0.060354  0.630084  0.000000  1
  Co  Co8  1  0.568740  0.939080  0.000000  1
  Co  Co9  1  0.370764  0.432148  0.000000  1
  Co  Co10  1  0.276536  0.118185  0.000000  1
  Co  Co11  1  0.437566  0.051232  0.500000  1
  Co  Co12  1  0.614416  0.563112  0.500000  1
  Co  Co13  1  0.949833  0.386638  0.500000  1
  P  P14  1  0.299013  0.889259  0.000000  1
  P  P15  1  0.591052  0.700758  0.000000  1
  P  P16  1  0.110573  0.409226  0.000000  1
  P  P17  1  0.402301  0.289608  0.500000  1
  P  P18  1  0.884896  0.597755  0.500000  1
  P  P19  1  0.712758  0.114918  0.500000  1
  P  P20  1  0.000143  0.999549  0.000000  1
