# generated using pymatgen
data_Nd2Sc2IrPt
_symmetry_space_group_name_H-M   'P 1'
_cell_length_a   4.54918600
_cell_length_b   7.15109900
_cell_length_c   8.68777200
_cell_angle_alpha   90.00000000
_cell_angle_beta   90.00000000
_cell_angle_gamma   90.00000000
_symmetry_Int_Tables_number   1
_chemical_formula_structural   Nd2Sc2IrPt
_chemical_formula_sum   'Nd4 Sc4 Ir2 Pt2'
_cell_volume   282.62781389
_cell_formula_units_Z   2
loop_
 _symmetry_equiv_pos_site_id
 _symmetry_equiv_pos_as_xyz
  1  'x, y, z'
loop_
 _atom_site_type_symbol
 _atom_site_label
 _atom_site_symmetry_multiplicity
 _atom_site_fract_x
 _atom_site_fract_y
 _atom_site_fract_z
 _atom_site_occupancy
  Nd  Nd0  1  0.250000  0.017556  0.678318  1
  Nd  Nd1  1  0.250000  0.517556  0.821682  1
  Nd  Nd2  1  0.750000  0.986889  0.321831  1
  Nd  Nd3  1  0.750000  0.486889  0.178169  1
  Sc  Sc4  1  0.250000  0.134786  0.073498  1
  Sc  Sc5  1  0.250000  0.634786  0.426502  1
  Sc  Sc6  1  0.750000  0.860713  0.933514  1
  Sc  Sc7  1  0.750000  0.360713  0.566486  1
  Ir  Ir8  1  0.250000  0.262993  0.408614  1
  Ir  Ir9  1  0.250000  0.762993  0.091386  1
  Pt  Pt10  1  0.750000  0.737062  0.596417  1
  Pt  Pt11  1  0.750000  0.237062  0.903583  1
