# generated using pymatgen
data_Ho4Lu(SiSb)2
_symmetry_space_group_name_H-M   'P 1'
_cell_length_a   8.48691500
_cell_length_b   8.48691568
_cell_length_c   7.82147300
_cell_angle_alpha   90.00000000
_cell_angle_beta   90.00000000
_cell_angle_gamma   125.32772472
_symmetry_Int_Tables_number   1
_chemical_formula_structural   Ho4Lu(SiSb)2
_chemical_formula_sum   'Ho8 Lu2 Si4 Sb4'
_cell_volume   459.62410875
_cell_formula_units_Z   2
loop_
 _symmetry_equiv_pos_site_id
 _symmetry_equiv_pos_as_xyz
  1  'x, y, z'
loop_
 _atom_site_type_symbol
 _atom_site_label
 _atom_site_symmetry_multiplicity
 _atom_site_fract_x
 _atom_site_fract_y
 _atom_site_fract_z
 _atom_site_occupancy
  Ho  Ho0  1  0.540462  0.791758  0.165542  1
  Ho  Ho1  1  0.291758  0.040462  0.334458  1
  Ho  Ho2  1  0.208242  0.459538  0.834458  1
  Ho  Ho3  1  0.959538  0.708242  0.665542  1
  Ho  Ho4  1  0.708242  0.959538  0.665542  1
  Ho  Ho5  1  0.459538  0.208242  0.834458  1
  Ho  Ho6  1  0.791758  0.540462  0.165542  1
  Ho  Ho7  1  0.040462  0.291758  0.334458  1
  Lu  Lu8  1  0.500000  0.500000  0.500000  1
  Lu  Lu9  1  0.000000  0.000000  0.000000  1
  Si  Si10  1  0.633037  0.633037  0.867873  1
  Si  Si11  1  0.133037  0.133037  0.632127  1
  Si  Si12  1  0.866963  0.866963  0.367873  1
  Si  Si13  1  0.366963  0.366963  0.132127  1
  Sb  Sb14  1  0.294749  0.705251  0.500000  1
  Sb  Sb15  1  0.205251  0.794749  0.000000  1
  Sb  Sb16  1  0.705251  0.294749  0.500000  1
  Sb  Sb17  1  0.794749  0.205251  0.000000  1
