# generated using pymatgen
data_Ho6ZnFe3Ru8
_symmetry_space_group_name_H-M   'P 1'
_cell_length_a   5.20149831
_cell_length_b   5.21861354
_cell_length_c   13.04081936
_cell_angle_alpha   91.79999644
_cell_angle_beta   88.65812159
_cell_angle_gamma   118.19032572
_symmetry_Int_Tables_number   1
_chemical_formula_structural   Ho6ZnFe3Ru8
_chemical_formula_sum   'Ho6 Zn1 Fe3 Ru8'
_cell_volume   311.83030063
_cell_formula_units_Z   1
loop_
 _symmetry_equiv_pos_site_id
 _symmetry_equiv_pos_as_xyz
  1  'x, y, z'
loop_
 _atom_site_type_symbol
 _atom_site_label
 _atom_site_symmetry_multiplicity
 _atom_site_fract_x
 _atom_site_fract_y
 _atom_site_fract_z
 _atom_site_occupancy
  Ho  Ho0  1  0.332619  0.664348  0.914221  1
  Ho  Ho1  1  0.995253  0.993465  0.252900  1
  Ho  Ho2  1  0.666455  0.332753  0.584213  1
  Ho  Ho3  1  0.333545  0.667247  0.665787  1
  Ho  Ho4  1  0.004747  0.006535  0.997100  1
  Ho  Ho5  1  0.667381  0.335652  0.335779  1
  Zn  Zn6  1  0.500000  0.000000  0.125000  1
  Fe  Fe7  1  0.500000  0.500000  0.125000  1
  Fe  Fe8  1  0.168311  0.836730  0.458872  1
  Fe  Fe9  1  0.831689  0.163270  0.791128  1
  Ru  Ru10  1  0.169077  0.338550  0.455717  1
  Ru  Ru11  1  0.830923  0.661450  0.794283  1
  Ru  Ru12  1  0.332362  0.666465  0.289195  1
  Ru  Ru13  1  0.000000  0.000000  0.625000  1
  Ru  Ru14  1  0.667638  0.333535  0.960805  1
  Ru  Ru15  1  0.000000  0.500000  0.125000  1
  Ru  Ru16  1  0.669701  0.835445  0.458424  1
  Ru  Ru17  1  0.330299  0.164555  0.791576  1
