# generated using pymatgen
data_Pr5Er(SiPt5)2
_symmetry_space_group_name_H-M   'P 1'
_cell_length_a   8.39870806
_cell_length_b   8.41709196
_cell_length_c   8.41709263
_cell_angle_alpha   127.32357768
_cell_angle_beta   126.38467377
_cell_angle_gamma   78.54153734
_symmetry_Int_Tables_number   1
_chemical_formula_structural   Pr5Er(SiPt5)2
_chemical_formula_sum   'Pr5 Er1 Si2 Pt10'
_cell_volume   368.69004659
_cell_formula_units_Z   1
loop_
 _symmetry_equiv_pos_site_id
 _symmetry_equiv_pos_as_xyz
  1  'x, y, z'
loop_
 _atom_site_type_symbol
 _atom_site_label
 _atom_site_symmetry_multiplicity
 _atom_site_fract_x
 _atom_site_fract_y
 _atom_site_fract_z
 _atom_site_occupancy
  Pr  Pr0  1  0.829277  0.550721  0.278555  1
  Pr  Pr1  1  0.615389  0.249729  0.365660  1
  Pr  Pr2  1  0.171716  0.450511  0.721205  1
  Pr  Pr3  1  0.387848  0.749700  0.638148  1
  Pr  Pr4  1  0.232176  0.950172  0.282003  1
  Er  Er5  1  0.777372  0.049764  0.727608  1
  Si  Si6  1  0.215415  0.250481  0.964934  1
  Si  Si7  1  0.787527  0.750577  0.036950  1
  Pt  Pt8  1  0.166883  0.908524  0.862112  1
  Pt  Pt9  1  0.827531  0.090706  0.129475  1
  Pt  Pt10  1  0.457512  0.191343  0.861639  1
  Pt  Pt11  1  0.547228  0.403695  0.737110  1
  Pt  Pt12  1  0.827531  0.698055  0.736824  1
  Pt  Pt13  1  0.457512  0.595874  0.266169  1
  Pt  Pt14  1  0.547228  0.810118  0.143533  1
  Pt  Pt15  1  0.166883  0.304771  0.258359  1
  Pt  Pt16  1  0.992487  0.005363  0.502592  1
  Pt  Pt17  1  0.992487  0.489895  0.987124  1
