# generated using pymatgen
data_EuZn9Pt2
_symmetry_space_group_name_H-M   'P 1'
_cell_length_a   8.33286955
_cell_length_b   8.33286872
_cell_length_c   8.33286921
_cell_angle_alpha   100.06204956
_cell_angle_beta   100.06205443
_cell_angle_gamma   130.58464322
_symmetry_Int_Tables_number   1
_chemical_formula_structural   EuZn9Pt2
_chemical_formula_sum   'Eu2 Zn18 Pt4'
_cell_volume   399.19261320
_cell_formula_units_Z   2
loop_
 _symmetry_equiv_pos_site_id
 _symmetry_equiv_pos_as_xyz
  1  'x, y, z'
loop_
 _atom_site_type_symbol
 _atom_site_label
 _atom_site_symmetry_multiplicity
 _atom_site_fract_x
 _atom_site_fract_y
 _atom_site_fract_z
 _atom_site_occupancy
  Eu  Eu0  1  0.000000  0.000000  0.000000  1
  Eu  Eu1  1  0.250000  0.750000  0.500000  1
  Zn  Zn2  1  0.750000  0.250000  0.500000  1
  Zn  Zn3  1  0.500000  0.500000  0.000000  1
  Zn  Zn4  1  0.183017  0.512173  0.085827  1
  Zn  Zn5  1  0.183017  0.097190  0.670844  1
  Zn  Zn6  1  0.762173  0.933017  0.585827  1
  Zn  Zn7  1  0.762173  0.176346  0.829156  1
  Zn  Zn8  1  0.426346  0.512173  0.329156  1
  Zn  Zn9  1  0.426346  0.097190  0.914173  1
  Zn  Zn10  1  0.347190  0.933017  0.170844  1
  Zn  Zn11  1  0.347190  0.176346  0.414173  1
  Zn  Zn12  1  0.066983  0.237827  0.414173  1
  Zn  Zn13  1  0.066983  0.652810  0.829156  1
  Zn  Zn14  1  0.487827  0.816983  0.914173  1
  Zn  Zn15  1  0.487827  0.573654  0.670844  1
  Zn  Zn16  1  0.823654  0.237827  0.170844  1
  Zn  Zn17  1  0.823654  0.652810  0.585827  1
  Zn  Zn18  1  0.902810  0.816983  0.329156  1
  Zn  Zn19  1  0.902810  0.573654  0.085827  1
  Pt  Pt20  1  0.125000  0.375000  0.750000  1
  Pt  Pt21  1  0.625000  0.875000  0.250000  1
  Pt  Pt22  1  0.625000  0.375000  0.750000  1
  Pt  Pt23  1  0.625000  0.375000  0.250000  1
