# generated using pymatgen
data_Nd10ThIn9Pd4
_symmetry_space_group_name_H-M   'P 1'
_cell_length_a   13.48678009
_cell_length_b   13.48677227
_cell_length_c   3.83346600
_cell_angle_alpha   90.00000000
_cell_angle_beta   90.00000000
_cell_angle_gamma   111.15150843
_symmetry_Int_Tables_number   1
_chemical_formula_structural   Nd10ThIn9Pd4
_chemical_formula_sum   'Nd10 Th1 In9 Pd4'
_cell_volume   650.30497391
_cell_formula_units_Z   1
loop_
 _symmetry_equiv_pos_site_id
 _symmetry_equiv_pos_as_xyz
  1  'x, y, z'
loop_
 _atom_site_type_symbol
 _atom_site_label
 _atom_site_symmetry_multiplicity
 _atom_site_fract_x
 _atom_site_fract_y
 _atom_site_fract_z
 _atom_site_occupancy
  Nd  Nd0  1  0.416814  0.069281  0.000000  1
  Nd  Nd1  1  0.583119  0.933385  0.000000  1
  Nd  Nd2  1  0.069281  0.416814  0.000000  1
  Nd  Nd3  1  0.933385  0.583119  0.000000  1
  Nd  Nd4  1  0.160948  0.839685  0.000000  1
  Nd  Nd5  1  0.839684  0.160948  0.000000  1
  Nd  Nd6  1  0.369817  0.628188  0.000000  1
  Nd  Nd7  1  0.628188  0.369817  0.000000  1
  Nd  Nd8  1  0.304807  0.304807  0.000000  1
  Nd  Nd9  1  0.998667  0.998667  0.000000  1
  Th  Th10  1  0.691418  0.691419  0.000000  1
  In  In11  1  0.368983  0.838154  0.500000  1
  In  In12  1  0.632404  0.161633  0.500000  1
  In  In13  1  0.838154  0.368983  0.500000  1
  In  In14  1  0.161633  0.632404  0.500000  1
  In  In15  1  0.218404  0.074799  0.500000  1
  In  In16  1  0.780813  0.926721  0.500000  1
  In  In17  1  0.074799  0.218404  0.500000  1
  In  In18  1  0.926721  0.780813  0.500000  1
  In  In19  1  0.497571  0.497571  0.500000  1
  Pd  Pd20  1  0.448643  0.247614  0.500000  1
  Pd  Pd21  1  0.557658  0.750475  0.500000  1
  Pd  Pd22  1  0.247614  0.448643  0.500000  1
  Pd  Pd23  1  0.750475  0.557657  0.500000  1
