# generated using pymatgen
data_Nd4HRu2C3
_symmetry_space_group_name_H-M   'P 1'
_cell_length_a   5.30679700
_cell_length_b   6.64295400
_cell_length_c   10.10645000
_cell_angle_alpha   90.00000000
_cell_angle_beta   90.00000000
_cell_angle_gamma   90.00000000
_symmetry_Int_Tables_number   1
_chemical_formula_structural   Nd4HRu2C3
_chemical_formula_sum   'Nd8 H2 Ru4 C6'
_cell_volume   356.28074503
_cell_formula_units_Z   2
loop_
 _symmetry_equiv_pos_site_id
 _symmetry_equiv_pos_as_xyz
  1  'x, y, z'
loop_
 _atom_site_type_symbol
 _atom_site_label
 _atom_site_symmetry_multiplicity
 _atom_site_fract_x
 _atom_site_fract_y
 _atom_site_fract_z
 _atom_site_occupancy
  Nd  Nd0  1  0.250000  0.463208  0.803948  1
  Nd  Nd1  1  0.750000  0.036792  0.303948  1
  Nd  Nd2  1  0.250000  0.981426  0.728597  1
  Nd  Nd3  1  0.750000  0.518574  0.228597  1
  Nd  Nd4  1  0.250000  0.807036  0.048157  1
  Nd  Nd5  1  0.750000  0.692964  0.548157  1
  Nd  Nd6  1  0.250000  0.307767  0.449585  1
  Nd  Nd7  1  0.750000  0.192233  0.949585  1
  H  H8  1  0.250000  0.687968  0.524760  1
  H  H9  1  0.750000  0.812032  0.024760  1
  Ru  Ru10  1  0.250000  0.264221  0.141031  1
  Ru  Ru11  1  0.750000  0.235779  0.641031  1
  Ru  Ru12  1  0.250000  0.771263  0.349884  1
  Ru  Ru13  1  0.750000  0.728737  0.849884  1
  C  C14  1  0.250000  0.165184  0.953740  1
  C  C15  1  0.750000  0.334816  0.453740  1
  C  C16  1  0.250000  0.031551  0.258016  1
  C  C17  1  0.750000  0.468449  0.758016  1
  C  C18  1  0.250000  0.524056  0.242281  1
  C  C19  1  0.750000  0.975944  0.742281  1
