# generated using pymatgen
data_YHo7Ti11Si16Ir
_symmetry_space_group_name_H-M   'P 1'
_cell_length_a   7.01982143
_cell_length_b   7.01882364
_cell_length_c   12.84844160
_cell_angle_alpha   90.12930310
_cell_angle_beta   89.87178342
_cell_angle_gamma   89.82489245
_symmetry_Int_Tables_number   1
_chemical_formula_structural   YHo7Ti11Si16Ir
_chemical_formula_sum   'Y1 Ho7 Ti11 Si16 Ir1'
_cell_volume   633.04797166
_cell_formula_units_Z   1
loop_
 _symmetry_equiv_pos_site_id
 _symmetry_equiv_pos_as_xyz
  1  'x, y, z'
loop_
 _atom_site_type_symbol
 _atom_site_label
 _atom_site_symmetry_multiplicity
 _atom_site_fract_x
 _atom_site_fract_y
 _atom_site_fract_z
 _atom_site_occupancy
  Y  Y0  1  0.340834  0.004713  0.467301  1
  Ho  Ho1  1  0.496451  0.841831  0.718197  1
  Ho  Ho2  1  0.500895  0.158050  0.214765  1
  Ho  Ho3  1  0.841846  0.496423  0.281702  1
  Ho  Ho4  1  0.158014  0.501019  0.785248  1
  Ho  Ho5  1  0.657247  0.997931  0.968724  1
  Ho  Ho6  1  0.004129  0.341023  0.532830  1
  Ho  Ho7  1  0.997940  0.657256  0.031264  1
  Ti  Ti8  1  0.175286  0.826665  0.247888  1
  Ti  Ti9  1  0.826907  0.175457  0.752151  1
  Ti  Ti10  1  0.674007  0.673676  0.500024  1
  Ti  Ti11  1  0.149169  0.002044  0.875883  1
  Ti  Ti12  1  0.493723  0.656444  0.124686  1
  Ti  Ti13  1  0.506907  0.349815  0.628457  1
  Ti  Ti14  1  0.656350  0.493797  0.875300  1
  Ti  Ti15  1  0.349872  0.506628  0.371610  1
  Ti  Ti16  1  0.848630  0.994198  0.374787  1
  Ti  Ti17  1  0.001960  0.149056  0.124085  1
  Ti  Ti18  1  0.994232  0.848620  0.625275  1
  Si  Si19  1  0.202095  0.133389  0.685787  1
  Si  Si20  1  0.372164  0.701704  0.933410  1
  Si  Si21  1  0.632154  0.296807  0.434249  1
  Si  Si22  1  0.701604  0.372193  0.066555  1
  Si  Si23  1  0.296061  0.630926  0.565934  1
  Si  Si24  1  0.796550  0.867434  0.183529  1
  Si  Si25  1  0.132784  0.202680  0.314094  1
  Si  Si26  1  0.867391  0.796574  0.816456  1
  Si  Si27  1  0.286161  0.951570  0.063865  1
  Si  Si28  1  0.547905  0.791800  0.315341  1
  Si  Si29  1  0.449145  0.209714  0.818598  1
  Si  Si30  1  0.792326  0.547667  0.684407  1
  Si  Si31  1  0.209726  0.449270  0.181413  1
  Si  Si32  1  0.709343  0.048502  0.565872  1
  Si  Si33  1  0.951442  0.286174  0.936112  1
  Si  Si34  1  0.047977  0.708223  0.434194  1
  Ir  Ir35  1  0.330772  0.330729  0.000009  1
