# generated using pymatgen
data_La8Tb5Tm7Pt16
_symmetry_space_group_name_H-M   'P 1'
_cell_length_a   7.70253103
_cell_length_b   7.82805720
_cell_length_c   14.91739700
_cell_angle_alpha   90.04054152
_cell_angle_beta   90.02970219
_cell_angle_gamma   90.04330183
_symmetry_Int_Tables_number   1
_chemical_formula_structural   La8Tb5Tm7Pt16
_chemical_formula_sum   'La8 Tb5 Tm7 Pt16'
_cell_volume   899.45658106
_cell_formula_units_Z   1
loop_
 _symmetry_equiv_pos_site_id
 _symmetry_equiv_pos_as_xyz
  1  'x, y, z'
loop_
 _atom_site_type_symbol
 _atom_site_label
 _atom_site_symmetry_multiplicity
 _atom_site_fract_x
 _atom_site_fract_y
 _atom_site_fract_z
 _atom_site_occupancy
  La  La0  1  0.494027  0.325841  0.899686  1
  La  La1  1  0.993874  0.175471  0.598638  1
  La  La2  1  0.505849  0.675326  0.401811  1
  La  La3  1  0.007030  0.822748  0.098992  1
  La  La4  1  0.507744  0.677738  0.099226  1
  La  La5  1  0.007470  0.821805  0.401929  1
  La  La6  1  0.491589  0.321646  0.598619  1
  La  La7  1  0.992839  0.178640  0.900570  1
  Tb  Tb8  1  0.338039  0.833207  0.877309  1
  Tb  Tb9  1  0.837590  0.666693  0.622727  1
  Tb  Tb10  1  0.662110  0.166712  0.377506  1
  Tb  Tb11  1  0.161859  0.332723  0.122882  1
  Tb  Tb12  1  0.661132  0.168328  0.122456  1
  Tm  Tm13  1  0.161407  0.331896  0.377047  1
  Tm  Tm14  1  0.339084  0.832100  0.623406  1
  Tm  Tm15  1  0.839615  0.668461  0.876067  1
  Tm  Tm16  1  0.172874  0.497706  0.749278  1
  Tm  Tm17  1  0.673247  0.002963  0.750136  1
  Tm  Tm18  1  0.827662  0.503864  0.250592  1
  Tm  Tm19  1  0.325906  0.996360  0.251010  1
  Pt  Pt20  1  0.325634  0.032740  0.046535  1
  Pt  Pt21  1  0.828853  0.465661  0.452906  1
  Pt  Pt22  1  0.670986  0.965740  0.547022  1
  Pt  Pt23  1  0.171561  0.534503  0.952968  1
  Pt  Pt24  1  0.676837  0.965149  0.952531  1
  Pt  Pt25  1  0.176824  0.533326  0.545658  1
  Pt  Pt26  1  0.322999  0.033331  0.454582  1
  Pt  Pt27  1  0.825040  0.469744  0.044490  1
  Pt  Pt28  1  0.541338  0.631648  0.750011  1
  Pt  Pt29  1  0.041738  0.868812  0.749573  1
  Pt  Pt30  1  0.457477  0.370542  0.251410  1
  Pt  Pt31  1  0.960332  0.130164  0.251159  1
  Pt  Pt32  1  0.306348  0.137030  0.748721  1
  Pt  Pt33  1  0.806659  0.363238  0.750635  1
  Pt  Pt34  1  0.693453  0.861451  0.250311  1
  Pt  Pt35  1  0.192973  0.636694  0.251604  1
