# generated using pymatgen
data_Li8Tb7DySn7Bi
_symmetry_space_group_name_H-M   'P 1'
_cell_length_a   9.42885300
_cell_length_b   9.42792194
_cell_length_c   7.33101712
_cell_angle_alpha   90.10469971
_cell_angle_beta   90.00000000
_cell_angle_gamma   120.00326334
_symmetry_Int_Tables_number   1
_chemical_formula_structural   Li8Tb7DySn7Bi
_chemical_formula_sum   'Li8 Tb7 Dy1 Sn7 Bi1'
_cell_volume   564.35770603
_cell_formula_units_Z   1
loop_
 _symmetry_equiv_pos_site_id
 _symmetry_equiv_pos_as_xyz
  1  'x, y, z'
loop_
 _atom_site_type_symbol
 _atom_site_label
 _atom_site_symmetry_multiplicity
 _atom_site_fract_x
 _atom_site_fract_y
 _atom_site_fract_z
 _atom_site_occupancy
  Li  Li0  1  0.166647  0.333296  0.285802  1
  Li  Li1  1  0.167870  0.833612  0.288937  1
  Li  Li2  1  0.665743  0.833612  0.288937  1
  Li  Li3  1  0.833385  0.666770  0.787997  1
  Li  Li4  1  0.829204  0.164660  0.791138  1
  Li  Li5  1  0.335455  0.164660  0.791138  1
  Li  Li6  1  0.335301  0.670604  0.667987  1
  Li  Li7  1  0.666194  0.332388  0.169871  1
  Tb  Tb8  1  0.512675  0.025350  0.493801  1
  Tb  Tb9  1  0.517570  0.490624  0.491166  1
  Tb  Tb10  1  0.973055  0.490624  0.491166  1
  Tb  Tb11  1  0.487344  0.974689  0.994725  1
  Tb  Tb12  1  0.493001  0.514596  0.996552  1
  Tb  Tb13  1  0.021593  0.514596  0.996552  1
  Tb  Tb14  1  0.997273  0.994548  0.497393  1
  Dy  Dy15  1  0.997809  0.995617  0.002409  1
  Sn  Sn16  1  0.166333  0.832791  0.729998  1
  Sn  Sn17  1  0.666458  0.832791  0.729998  1
  Sn  Sn18  1  0.833400  0.666801  0.230196  1
  Sn  Sn19  1  0.833881  0.167202  0.229754  1
  Sn  Sn20  1  0.333321  0.167202  0.229754  1
  Sn  Sn21  1  0.332780  0.665561  0.261845  1
  Sn  Sn22  1  0.667011  0.334020  0.762367  1
  Bi  Bi23  1  0.166693  0.333387  0.732515  1
