# generated using pymatgen
data_VAsBr2(OF3)4
_symmetry_space_group_name_H-M   'P 1'
_cell_length_a   5.95672200
_cell_length_b   7.11283771
_cell_length_c   10.12456811
_cell_angle_alpha   49.12169162
_cell_angle_beta   90.00000000
_cell_angle_gamma   90.00000000
_symmetry_Int_Tables_number   1
_chemical_formula_structural   VAsBr2(OF3)4
_chemical_formula_sum   'V1 As1 Br2 O4 F12'
_cell_volume   324.34463559
_cell_formula_units_Z   1
loop_
 _symmetry_equiv_pos_site_id
 _symmetry_equiv_pos_as_xyz
  1  'x, y, z'
loop_
 _atom_site_type_symbol
 _atom_site_label
 _atom_site_symmetry_multiplicity
 _atom_site_fract_x
 _atom_site_fract_y
 _atom_site_fract_z
 _atom_site_occupancy
  V  V0  1  0.490619  0.000000  0.250000  1
  As  As1  1  0.507851  0.000000  0.750000  1
  Br  Br2  1  0.830877  0.500000  0.250000  1
  Br  Br3  1  0.171251  0.500000  0.750000  1
  O  O4  1  0.984271  0.643116  0.076621  1
  O  O5  1  0.017631  0.354223  0.923640  1
  O  O6  1  0.984271  0.356884  0.423379  1
  O  O7  1  0.017631  0.645777  0.576360  1
  F  F8  1  0.495432  0.744454  0.976992  1
  F  F9  1  0.282036  0.141968  0.780574  1
  F  F10  1  0.282036  0.858032  0.719426  1
  F  F11  1  0.500786  0.259605  0.017482  1
  F  F12  1  0.708123  0.850952  0.720462  1
  F  F13  1  0.495432  0.255546  0.523008  1
  F  F14  1  0.723731  0.151040  0.278414  1
  F  F15  1  0.287691  0.847983  0.220608  1
  F  F16  1  0.500786  0.740395  0.482518  1
  F  F17  1  0.708123  0.149048  0.779538  1
  F  F18  1  0.723731  0.848960  0.221586  1
  F  F19  1  0.287691  0.152017  0.279392  1
