# generated using pymatgen
data_Sc8TcAg4Hg3
_symmetry_space_group_name_H-M   'P 1'
_cell_length_a   7.09694100
_cell_length_b   4.81374100
_cell_length_c   9.61114200
_cell_angle_alpha   90.00000000
_cell_angle_beta   89.99970912
_cell_angle_gamma   90.00000000
_symmetry_Int_Tables_number   1
_chemical_formula_structural   Sc8TcAg4Hg3
_chemical_formula_sum   'Sc8 Tc1 Ag4 Hg3'
_cell_volume   328.34386663
_cell_formula_units_Z   1
loop_
 _symmetry_equiv_pos_site_id
 _symmetry_equiv_pos_as_xyz
  1  'x, y, z'
loop_
 _atom_site_type_symbol
 _atom_site_label
 _atom_site_symmetry_multiplicity
 _atom_site_fract_x
 _atom_site_fract_y
 _atom_site_fract_z
 _atom_site_occupancy
  Sc  Sc0  1  0.487698  0.750001  0.111566  1
  Sc  Sc1  1  0.012280  0.750001  0.111569  1
  Sc  Sc2  1  0.500693  0.250000  0.374936  1
  Sc  Sc3  1  0.999324  0.250000  0.374934  1
  Sc  Sc4  1  0.012250  0.750001  0.638571  1
  Sc  Sc5  1  0.487757  0.750001  0.638565  1
  Sc  Sc6  1  0.020629  0.250000  0.874971  1
  Sc  Sc7  1  0.479374  0.250000  0.874968  1
  Tc  Tc8  1  0.249994  0.750001  0.875077  1
  Ag  Ag9  1  0.250005  0.250000  0.125131  1
  Ag  Ag10  1  0.749989  0.750001  0.375072  1
  Ag  Ag11  1  0.250010  0.250000  0.624589  1
  Ag  Ag12  1  0.749998  0.750001  0.875060  1
  Hg  Hg13  1  0.750001  0.250000  0.123676  1
  Hg  Hg14  1  0.249996  0.750001  0.375154  1
  Hg  Hg15  1  0.750000  0.250000  0.626160  1
