# generated using pymatgen
data_Gd5Er(SnIr)6
_symmetry_space_group_name_H-M   'P 1'
_cell_length_a   7.46774600
_cell_length_b   7.53665411
_cell_length_c   7.94076200
_cell_angle_alpha   90.00000000
_cell_angle_beta   90.00000000
_cell_angle_gamma   120.35941553
_symmetry_Int_Tables_number   1
_chemical_formula_structural   Gd5Er(SnIr)6
_chemical_formula_sum   'Gd5 Er1 Sn6 Ir6'
_cell_volume   385.63516062
_cell_formula_units_Z   1
loop_
 _symmetry_equiv_pos_site_id
 _symmetry_equiv_pos_as_xyz
  1  'x, y, z'
loop_
 _atom_site_type_symbol
 _atom_site_label
 _atom_site_symmetry_multiplicity
 _atom_site_fract_x
 _atom_site_fract_y
 _atom_site_fract_z
 _atom_site_occupancy
  Gd  Gd0  1  0.408550  0.003217  0.250000  1
  Gd  Gd1  1  0.593436  0.592795  0.750000  1
  Gd  Gd2  1  0.592534  0.593967  0.250000  1
  Gd  Gd3  1  0.000241  0.406906  0.750000  1
  Gd  Gd4  1  0.406020  0.998626  0.750000  1
  Er  Er5  1  0.999586  0.403262  0.250000  1
  Sn  Sn6  1  0.259037  0.258459  0.500436  1
  Sn  Sn7  1  0.259037  0.258459  0.999564  1
  Sn  Sn8  1  0.740665  0.999346  0.999549  1
  Sn  Sn9  1  0.000344  0.743515  0.497013  1
  Sn  Sn10  1  0.740665  0.999346  0.500451  1
  Sn  Sn11  1  0.000344  0.743515  0.002987  1
  Ir  Ir12  1  0.671923  0.334594  0.498415  1
  Ir  Ir13  1  0.671923  0.334594  0.001585  1
  Ir  Ir14  1  0.328061  0.662575  0.003300  1
  Ir  Ir15  1  0.328061  0.662575  0.496700  1
  Ir  Ir16  1  0.999847  0.999749  0.750000  1
  Ir  Ir17  1  0.999724  0.004497  0.250000  1
