# generated using pymatgen
data_Ho4Al4Ga14Ir5Pt
_symmetry_space_group_name_H-M   'P 1'
_cell_length_a   7.58583018
_cell_length_b   7.58583095
_cell_length_c   9.46937334
_cell_angle_alpha   90.01543221
_cell_angle_beta   90.01543602
_cell_angle_gamma   119.80083318
_symmetry_Int_Tables_number   1
_chemical_formula_structural   Ho4Al4Ga14Ir5Pt
_chemical_formula_sum   'Ho4 Al4 Ga14 Ir5 Pt1'
_cell_volume   472.85304793
_cell_formula_units_Z   1
loop_
 _symmetry_equiv_pos_site_id
 _symmetry_equiv_pos_as_xyz
  1  'x, y, z'
loop_
 _atom_site_type_symbol
 _atom_site_label
 _atom_site_symmetry_multiplicity
 _atom_site_fract_x
 _atom_site_fract_y
 _atom_site_fract_z
 _atom_site_occupancy
  Ho  Ho0  1  0.001276  0.671215  0.251011  1
  Ho  Ho1  1  0.998724  0.328785  0.748989  1
  Ho  Ho2  1  0.671215  0.001276  0.251011  1
  Ho  Ho3  1  0.328785  0.998724  0.748989  1
  Al  Al4  1  0.331461  0.331461  0.554164  1
  Al  Al5  1  0.668539  0.668539  0.445836  1
  Al  Al6  1  0.665350  0.665350  0.056205  1
  Al  Al7  1  0.334650  0.334650  0.943795  1
  Ga  Ga8  1  0.128986  0.128986  0.251951  1
  Ga  Ga9  1  0.871014  0.871014  0.748049  1
  Ga  Ga10  1  0.999893  0.338586  0.082773  1
  Ga  Ga11  1  0.000107  0.661414  0.917227  1
  Ga  Ga12  1  0.000076  0.664543  0.580354  1
  Ga  Ga13  1  0.335457  0.999924  0.419646  1
  Ga  Ga14  1  0.999924  0.335457  0.419646  1
  Ga  Ga15  1  0.664543  0.000076  0.580354  1
  Ga  Ga16  1  0.661414  0.000107  0.917227  1
  Ga  Ga17  1  0.338586  0.999893  0.082773  1
  Ga  Ga18  1  0.348779  0.552426  0.250362  1
  Ga  Ga19  1  0.651221  0.447574  0.749638  1
  Ga  Ga20  1  0.552426  0.348779  0.250362  1
  Ga  Ga21  1  0.447574  0.651221  0.749638  1
  Ir  Ir22  1  0.669880  0.330120  0.000000  1
  Ir  Ir23  1  0.330120  0.669880  0.000000  1
  Ir  Ir24  1  0.330503  0.669497  0.500000  1
  Ir  Ir25  1  0.669497  0.330503  0.500000  1
  Ir  Ir26  1  0.000000  0.000000  0.500000  1
  Pt  Pt27  1  0.000000  0.000000  0.000000  1
