# generated using pymatgen
data_Yb3PrSb3
_symmetry_space_group_name_H-M   'P 1'
_cell_length_a   8.24022032
_cell_length_b   8.24022115
_cell_length_c   8.26554737
_cell_angle_alpha   70.55229976
_cell_angle_beta   70.55230039
_cell_angle_gamma   109.32041080
_symmetry_Int_Tables_number   1
_chemical_formula_structural   Yb3PrSb3
_chemical_formula_sum   'Yb6 Pr2 Sb6'
_cell_volume   433.09463919
_cell_formula_units_Z   2
loop_
 _symmetry_equiv_pos_site_id
 _symmetry_equiv_pos_as_xyz
  1  'x, y, z'
loop_
 _atom_site_type_symbol
 _atom_site_label
 _atom_site_symmetry_multiplicity
 _atom_site_fract_x
 _atom_site_fract_y
 _atom_site_fract_z
 _atom_site_occupancy
  Yb  Yb0  1  0.001637  0.360279  0.494885  1
  Yb  Yb1  1  0.496467  0.495198  0.147119  1
  Yb  Yb2  1  0.643713  0.147215  0.357863  1
  Yb  Yb3  1  0.360279  0.001637  0.994885  1
  Yb  Yb4  1  0.495198  0.496467  0.647119  1
  Yb  Yb5  1  0.147215  0.643713  0.857863  1
  Pr  Pr6  1  0.855129  0.999817  0.000175  1
  Pr  Pr7  1  0.999817  0.855129  0.500175  1
  Sb  Sb8  1  0.625619  0.872621  0.751297  1
  Sb  Sb9  1  0.872621  0.625619  0.251297  1
  Sb  Sb10  1  0.249114  0.123959  0.624915  1
  Sb  Sb11  1  0.752573  0.376658  0.873746  1
  Sb  Sb12  1  0.376658  0.752573  0.373746  1
  Sb  Sb13  1  0.123959  0.249114  0.124915  1
