# generated using pymatgen
data_YbNd6
_symmetry_space_group_name_H-M   'P 1'
_cell_length_a   4.34217000
_cell_length_b   4.34216904
_cell_length_c   8.76562000
_cell_angle_alpha   90.00000000
_cell_angle_beta   90.00000000
_cell_angle_gamma   119.99999205
_symmetry_Int_Tables_number   1
_chemical_formula_structural   YbNd6
_chemical_formula_sum   'Yb2 Nd12'
_cell_volume   143.12874237
_cell_formula_units_Z   2
loop_
 _symmetry_equiv_pos_site_id
 _symmetry_equiv_pos_as_xyz
  1  'x, y, z'
loop_
 _atom_site_type_symbol
 _atom_site_label
 _atom_site_symmetry_multiplicity
 _atom_site_fract_x
 _atom_site_fract_y
 _atom_site_fract_z
 _atom_site_occupancy
  Yb  Yb0  1  0.333333  0.666667  0.250000  1
  Yb  Yb1  1  0.666667  0.333333  0.750000  1
  Nd  Nd2  1  0.333349  0.333349  0.500000  1
  Nd  Nd3  1  0.666651  0.000000  0.500000  1
  Nd  Nd4  1  0.000000  0.666651  0.500000  1
  Nd  Nd5  1  0.666651  0.666651  0.500000  1
  Nd  Nd6  1  0.000000  0.333349  0.500000  1
  Nd  Nd7  1  0.333349  0.000000  0.500000  1
  Nd  Nd8  1  0.666651  0.666651  0.000000  1
  Nd  Nd9  1  0.333349  0.000000  0.000000  1
  Nd  Nd10  1  0.000000  0.333349  0.000000  1
  Nd  Nd11  1  0.333349  0.333349  0.000000  1
  Nd  Nd12  1  0.000000  0.666651  0.000000  1
  Nd  Nd13  1  0.666651  0.000000  0.000000  1
