# generated using pymatgen
data_Li2SmHoSi4
_symmetry_space_group_name_H-M   'P 1'
_cell_length_a   3.82254700
_cell_length_b   7.62234999
_cell_length_c   10.23548398
_cell_angle_alpha   89.81599337
_cell_angle_beta   90.00000000
_cell_angle_gamma   90.00000000
_symmetry_Int_Tables_number   1
_chemical_formula_structural   Li2SmHoSi4
_chemical_formula_sum   'Li4 Sm2 Ho2 Si8'
_cell_volume   298.22762042
_cell_formula_units_Z   2
loop_
 _symmetry_equiv_pos_site_id
 _symmetry_equiv_pos_as_xyz
  1  'x, y, z'
loop_
 _atom_site_type_symbol
 _atom_site_label
 _atom_site_symmetry_multiplicity
 _atom_site_fract_x
 _atom_site_fract_y
 _atom_site_fract_z
 _atom_site_occupancy
  Li  Li0  1  0.250000  0.991399  0.390739  1
  Li  Li1  1  0.750000  0.008601  0.609261  1
  Li  Li2  1  0.250000  0.489608  0.107229  1
  Li  Li3  1  0.750000  0.510392  0.892771  1
  Sm  Sm4  1  0.250000  0.641042  0.636672  1
  Sm  Sm5  1  0.750000  0.358958  0.363328  1
  Ho  Ho6  1  0.250000  0.137088  0.864309  1
  Ho  Ho7  1  0.750000  0.862912  0.135691  1
  Si  Si8  1  0.750000  0.265357  0.065517  1
  Si  Si9  1  0.250000  0.734643  0.934483  1
  Si  Si10  1  0.750000  0.772205  0.428063  1
  Si  Si11  1  0.250000  0.227795  0.571937  1
  Si  Si12  1  0.750000  0.845798  0.823839  1
  Si  Si13  1  0.250000  0.154202  0.176161  1
  Si  Si14  1  0.750000  0.339143  0.682242  1
  Si  Si15  1  0.250000  0.660857  0.317758  1
