# generated using pymatgen
data_Ho2CuNi9Sn2
_symmetry_space_group_name_H-M   'P 1'
_cell_length_a   4.90860200
_cell_length_b   8.00264355
_cell_length_c   10.22722704
_cell_angle_alpha   89.92814946
_cell_angle_beta   90.00000000
_cell_angle_gamma   90.00000000
_symmetry_Int_Tables_number   1
_chemical_formula_structural   Ho2CuNi9Sn2
_chemical_formula_sum   'Ho4 Cu2 Ni18 Sn4'
_cell_volume   401.74349082
_cell_formula_units_Z   2
loop_
 _symmetry_equiv_pos_site_id
 _symmetry_equiv_pos_as_xyz
  1  'x, y, z'
loop_
 _atom_site_type_symbol
 _atom_site_label
 _atom_site_symmetry_multiplicity
 _atom_site_fract_x
 _atom_site_fract_y
 _atom_site_fract_z
 _atom_site_occupancy
  Ho  Ho0  1  0.250000  0.741111  0.059920  1
  Ho  Ho1  1  0.750000  0.258889  0.940080  1
  Ho  Ho2  1  0.750000  0.751494  0.558399  1
  Ho  Ho3  1  0.250000  0.248506  0.441601  1
  Cu  Cu4  1  0.750000  0.941934  0.101969  1
  Cu  Cu5  1  0.250000  0.058066  0.898031  1
  Ni  Ni6  1  0.250000  0.813664  0.745536  1
  Ni  Ni7  1  0.750000  0.186336  0.254464  1
  Ni  Ni8  1  0.750000  0.686191  0.246656  1
  Ni  Ni9  1  0.250000  0.313809  0.753344  1
  Ni  Ni10  1  0.500520  0.566192  0.810788  1
  Ni  Ni11  1  0.499480  0.433808  0.189212  1
  Ni  Ni12  1  0.497954  0.933561  0.312821  1
  Ni  Ni13  1  0.000520  0.433808  0.189212  1
  Ni  Ni14  1  0.502046  0.066439  0.687179  1
  Ni  Ni15  1  0.999480  0.566192  0.810788  1
  Ni  Ni16  1  0.997954  0.066439  0.687179  1
  Ni  Ni17  1  0.002046  0.933561  0.312821  1
  Ni  Ni18  1  0.250000  0.911803  0.518493  1
  Ni  Ni19  1  0.750000  0.088197  0.481507  1
  Ni  Ni20  1  0.750000  0.587961  0.018502  1
  Ni  Ni21  1  0.250000  0.412039  0.981498  1
  Ni  Ni22  1  0.250000  0.553978  0.600826  1
  Ni  Ni23  1  0.750000  0.446022  0.399174  1
  Sn  Sn24  1  0.250000  0.639462  0.360371  1
  Sn  Sn25  1  0.750000  0.360538  0.639629  1
  Sn  Sn26  1  0.750000  0.857772  0.856837  1
  Sn  Sn27  1  0.250000  0.142228  0.143163  1
