# generated using pymatgen
data_TbYP2(Ru2C)2
_symmetry_space_group_name_H-M   'P 1'
_cell_length_a   3.79623701
_cell_length_b   5.85117567
_cell_length_c   7.07459000
_cell_angle_alpha   90.00000000
_cell_angle_beta   90.00000000
_cell_angle_gamma   71.06459693
_symmetry_Int_Tables_number   1
_chemical_formula_structural   TbYP2(Ru2C)2
_chemical_formula_sum   'Tb1 Y1 P2 Ru4 C2'
_cell_volume   148.64013246
_cell_formula_units_Z   1
loop_
 _symmetry_equiv_pos_site_id
 _symmetry_equiv_pos_as_xyz
  1  'x, y, z'
loop_
 _atom_site_type_symbol
 _atom_site_label
 _atom_site_symmetry_multiplicity
 _atom_site_fract_x
 _atom_site_fract_y
 _atom_site_fract_z
 _atom_site_occupancy
  Tb  Tb0  1  0.044352  0.910918  0.750000  1
  Y  Y1  1  0.955928  0.088449  0.250000  1
  P  P2  1  0.231010  0.538178  0.250000  1
  P  P3  1  0.768995  0.461794  0.750000  1
  Ru  Ru4  1  0.665324  0.669065  0.053067  1
  Ru  Ru5  1  0.665324  0.669065  0.446932  1
  Ru  Ru6  1  0.334584  0.331153  0.552722  1
  Ru  Ru7  1  0.334584  0.331153  0.947279  1
  C  C8  1  0.499950  0.000113  0.000242  1
  C  C9  1  0.499950  0.000113  0.499758  1
