# generated using pymatgen
data_HoErMo(SeO4)3
_symmetry_space_group_name_H-M   'P 1'
_cell_length_a   6.56571865
_cell_length_b   7.13404105
_cell_length_c   10.83068022
_cell_angle_alpha   84.86561400
_cell_angle_beta   73.27121345
_cell_angle_gamma   86.60969855
_symmetry_Int_Tables_number   1
_chemical_formula_structural   HoErMo(SeO4)3
_chemical_formula_sum   'Ho2 Er2 Mo2 Se6 O24'
_cell_volume   483.59405531
_cell_formula_units_Z   2
loop_
 _symmetry_equiv_pos_site_id
 _symmetry_equiv_pos_as_xyz
  1  'x, y, z'
loop_
 _atom_site_type_symbol
 _atom_site_label
 _atom_site_symmetry_multiplicity
 _atom_site_fract_x
 _atom_site_fract_y
 _atom_site_fract_z
 _atom_site_occupancy
  Ho  Ho0  1  0.732640  0.638001  0.508617  1
  Ho  Ho1  1  0.267360  0.361999  0.491383  1
  Er  Er2  1  0.205204  0.182431  0.168714  1
  Er  Er3  1  0.794796  0.817569  0.831286  1
  Mo  Mo4  1  0.722910  0.893074  0.205205  1
  Mo  Mo5  1  0.277090  0.106926  0.794795  1
  Se  Se6  1  0.203726  0.659626  0.215547  1
  Se  Se7  1  0.796274  0.340374  0.784453  1
  Se  Se8  1  0.658227  0.364928  0.142041  1
  Se  Se9  1  0.341773  0.635072  0.857959  1
  Se  Se10  1  0.789197  0.140064  0.493994  1
  Se  Se11  1  0.210803  0.859936  0.506006  1
  O  O12  1  0.693977  0.671297  0.298690  1
  O  O13  1  0.306023  0.328703  0.701310  1
  O  O14  1  0.718003  0.958750  0.417226  1
  O  O15  1  0.281997  0.041250  0.582774  1
  O  O16  1  0.450056  0.975050  0.232173  1
  O  O17  1  0.549944  0.024950  0.767827  1
  O  O18  1  0.825881  0.172104  0.178512  1
  O  O19  1  0.174119  0.827896  0.821488  1
  O  O20  1  0.784548  0.832820  0.042858  1
  O  O21  1  0.215452  0.167180  0.957142  1
  O  O22  1  0.060386  0.874453  0.193496  1
  O  O23  1  0.939614  0.125547  0.806504  1
  O  O24  1  0.100354  0.496124  0.147722  1
  O  O25  1  0.899646  0.503876  0.852278  1
  O  O26  1  0.081203  0.601323  0.383197  1
  O  O27  1  0.918797  0.398677  0.616803  1
  O  O28  1  0.548001  0.272440  0.037892  1
  O  O29  1  0.451999  0.727560  0.962108  1
  O  O30  1  0.423562  0.347077  0.270955  1
  O  O31  1  0.576438  0.652923  0.729045  1
  O  O32  1  0.043876  0.191275  0.391354  1
  O  O33  1  0.956124  0.808725  0.608646  1
  O  O34  1  0.639974  0.339324  0.460405  1
  O  O35  1  0.360026  0.660676  0.539595  1
