# generated using pymatgen
data_Pr5NdFeBr10
_symmetry_space_group_name_H-M   'P 1'
_cell_length_a   7.71148641
_cell_length_b   9.49684068
_cell_length_c   9.55596127
_cell_angle_alpha   107.72599244
_cell_angle_beta   97.05982402
_cell_angle_gamma   105.76050732
_symmetry_Int_Tables_number   1
_chemical_formula_structural   Pr5NdFeBr10
_chemical_formula_sum   'Pr5 Nd1 Fe1 Br10'
_cell_volume   625.19848953
_cell_formula_units_Z   1
loop_
 _symmetry_equiv_pos_site_id
 _symmetry_equiv_pos_as_xyz
  1  'x, y, z'
loop_
 _atom_site_type_symbol
 _atom_site_label
 _atom_site_symmetry_multiplicity
 _atom_site_fract_x
 _atom_site_fract_y
 _atom_site_fract_z
 _atom_site_occupancy
  Pr  Pr0  1  0.466810  0.788962  0.586545  1
  Pr  Pr1  1  0.132008  0.358867  0.314050  1
  Pr  Pr2  1  0.867559  0.639948  0.685607  1
  Pr  Pr3  1  0.622123  0.547745  0.260911  1
  Pr  Pr4  1  0.377043  0.452414  0.738809  1
  Nd  Nd5  1  0.533528  0.213614  0.414138  1
  Fe  Fe6  1  0.499574  0.500345  0.500007  1
  Br  Br7  1  0.156959  0.046477  0.230820  1
  Br  Br8  1  0.847705  0.953774  0.770543  1
  Br  Br9  1  0.250275  0.415918  0.045680  1
  Br  Br10  1  0.749071  0.583116  0.953998  1
  Br  Br11  1  0.701778  0.242891  0.154537  1
  Br  Br12  1  0.296502  0.756034  0.847375  1
  Br  Br13  1  0.044660  0.675579  0.415807  1
  Br  Br14  1  0.953346  0.322838  0.583236  1
  Br  Br15  1  0.415420  0.132762  0.673111  1
  Br  Br16  1  0.585638  0.868716  0.324828  1
