# generated using pymatgen
data_PrFeSb12Os2Pd
_symmetry_space_group_name_H-M   'P 1'
_cell_length_a   8.16696168
_cell_length_b   8.14217482
_cell_length_c   8.14095566
_cell_angle_alpha   109.26890965
_cell_angle_beta   109.61464033
_cell_angle_gamma   109.45746583
_symmetry_Int_Tables_number   1
_chemical_formula_structural   PrFeSb12Os2Pd
_chemical_formula_sum   'Pr1 Fe1 Sb12 Os2 Pd1'
_cell_volume   417.10003114
_cell_formula_units_Z   1
loop_
 _symmetry_equiv_pos_site_id
 _symmetry_equiv_pos_as_xyz
  1  'x, y, z'
loop_
 _atom_site_type_symbol
 _atom_site_label
 _atom_site_symmetry_multiplicity
 _atom_site_fract_x
 _atom_site_fract_y
 _atom_site_fract_z
 _atom_site_occupancy
  Pr  Pr0  1  0.000000  0.000000  0.000000  1
  Fe  Fe1  1  0.500000  0.000000  0.000000  1
  Sb  Sb2  1  0.848981  0.660935  0.503992  1
  Sb  Sb3  1  0.151019  0.339065  0.496008  1
  Sb  Sb4  1  0.167000  0.672702  0.827360  1
  Sb  Sb5  1  0.833000  0.327298  0.172640  1
  Sb  Sb6  1  0.661074  0.504434  0.849464  1
  Sb  Sb7  1  0.338926  0.495566  0.150536  1
  Sb  Sb8  1  0.661682  0.827339  0.154642  1
  Sb  Sb9  1  0.338318  0.172661  0.845358  1
  Sb  Sb10  1  0.505314  0.852483  0.673242  1
  Sb  Sb11  1  0.494686  0.147517  0.326758  1
  Sb  Sb12  1  0.181989  0.842921  0.338414  1
  Sb  Sb13  1  0.818011  0.157079  0.661586  1
  Os  Os14  1  0.000000  0.500000  0.000000  1
  Os  Os15  1  0.000000  0.000000  0.500000  1
  Pd  Pd16  1  0.500000  0.500000  0.500000  1
