# generated using pymatgen
data_Sm2Sc3(SiGe)2
_symmetry_space_group_name_H-M   'P 1'
_cell_length_a   7.23646900
_cell_length_b   7.49496800
_cell_length_c   14.21707700
_cell_angle_alpha   90.00000000
_cell_angle_beta   90.00000000
_cell_angle_gamma   90.00000000
_symmetry_Int_Tables_number   1
_chemical_formula_structural   Sm2Sc3(SiGe)2
_chemical_formula_sum   'Sm8 Sc12 Si8 Ge8'
_cell_volume   771.09307797
_cell_formula_units_Z   4
loop_
 _symmetry_equiv_pos_site_id
 _symmetry_equiv_pos_as_xyz
  1  'x, y, z'
loop_
 _atom_site_type_symbol
 _atom_site_label
 _atom_site_symmetry_multiplicity
 _atom_site_fract_x
 _atom_site_fract_y
 _atom_site_fract_z
 _atom_site_occupancy
  Sm  Sm0  1  0.007011  0.175257  0.099143  1
  Sm  Sm1  1  0.992989  0.824743  0.900857  1
  Sm  Sm2  1  0.492989  0.675257  0.900857  1
  Sm  Sm3  1  0.992989  0.824743  0.599143  1
  Sm  Sm4  1  0.507011  0.324743  0.099143  1
  Sm  Sm5  1  0.007011  0.175257  0.400857  1
  Sm  Sm6  1  0.507011  0.324743  0.400857  1
  Sm  Sm7  1  0.492989  0.675257  0.599143  1
  Sc  Sc8  1  0.164479  0.499720  0.750000  1
  Sc  Sc9  1  0.835521  0.500280  0.250000  1
  Sc  Sc10  1  0.335521  0.999720  0.250000  1
  Sc  Sc11  1  0.664479  0.000280  0.750000  1
  Sc  Sc12  1  0.335331  0.172914  0.626503  1
  Sc  Sc13  1  0.664669  0.827086  0.373497  1
  Sc  Sc14  1  0.164669  0.672914  0.373497  1
  Sc  Sc15  1  0.664669  0.827086  0.126503  1
  Sc  Sc16  1  0.835331  0.327086  0.626503  1
  Sc  Sc17  1  0.335331  0.172914  0.873497  1
  Sc  Sc18  1  0.835331  0.327086  0.873497  1
  Sc  Sc19  1  0.164669  0.672914  0.126503  1
  Si  Si20  1  0.037886  0.121812  0.750000  1
  Si  Si21  1  0.962114  0.878188  0.250000  1
  Si  Si22  1  0.462114  0.621812  0.250000  1
  Si  Si23  1  0.537886  0.378188  0.750000  1
  Si  Si24  1  0.291385  0.876802  0.750000  1
  Si  Si25  1  0.708615  0.123198  0.250000  1
  Si  Si26  1  0.208615  0.376802  0.250000  1
  Si  Si27  1  0.791385  0.623198  0.750000  1
  Ge  Ge28  1  0.167268  0.459724  0.540836  1
  Ge  Ge29  1  0.832732  0.540276  0.459164  1
  Ge  Ge30  1  0.332732  0.959724  0.459164  1
  Ge  Ge31  1  0.832732  0.540276  0.040836  1
  Ge  Ge32  1  0.667268  0.040276  0.540836  1
  Ge  Ge33  1  0.167268  0.459724  0.959164  1
  Ge  Ge34  1  0.667268  0.040276  0.959164  1
  Ge  Ge35  1  0.332732  0.959724  0.040836  1
