# generated using pymatgen
data_TbPr2Dy(Mo2O7)2
_symmetry_space_group_name_H-M   'P 1'
_cell_length_a   7.46447334
_cell_length_b   7.57312448
_cell_length_c   7.47049303
_cell_angle_alpha   59.54449582
_cell_angle_beta   59.19762256
_cell_angle_gamma   59.51732203
_symmetry_Int_Tables_number   1
_chemical_formula_structural   TbPr2Dy(Mo2O7)2
_chemical_formula_sum   'Tb1 Pr2 Dy1 Mo4 O14'
_cell_volume   294.66398651
_cell_formula_units_Z   1
loop_
 _symmetry_equiv_pos_site_id
 _symmetry_equiv_pos_as_xyz
  1  'x, y, z'
loop_
 _atom_site_type_symbol
 _atom_site_label
 _atom_site_symmetry_multiplicity
 _atom_site_fract_x
 _atom_site_fract_y
 _atom_site_fract_z
 _atom_site_occupancy
  Tb  Tb0  1  0.125000  0.125000  0.625000  1
  Pr  Pr1  1  0.125000  0.125000  0.125000  1
  Pr  Pr2  1  0.125000  0.625000  0.125000  1
  Dy  Dy3  1  0.625000  0.125000  0.125000  1
  Mo  Mo4  1  0.625000  0.625000  0.625000  1
  Mo  Mo5  1  0.125000  0.625000  0.625000  1
  Mo  Mo6  1  0.625000  0.625000  0.125000  1
  Mo  Mo7  1  0.625000  0.125000  0.625000  1
  O  O8  1  0.994269  0.004822  0.996088  1
  O  O9  1  0.255731  0.245178  0.253912  1
  O  O10  1  0.289245  0.290006  0.702920  1
  O  O11  1  0.547290  0.531562  0.960996  1
  O  O12  1  0.714532  0.284927  0.715614  1
  O  O13  1  0.702710  0.289848  0.289004  1
  O  O14  1  0.289245  0.717830  0.702920  1
  O  O15  1  0.290903  0.708918  0.291260  1
  O  O16  1  0.702710  0.718438  0.289004  1
  O  O17  1  0.960755  0.532170  0.547080  1
  O  O18  1  0.547290  0.960152  0.960996  1
  O  O19  1  0.960755  0.959994  0.547080  1
  O  O20  1  0.959097  0.541082  0.958740  1
  O  O21  1  0.535468  0.965073  0.534386  1
