# generated using pymatgen
data_Na2CeBr6
_symmetry_space_group_name_H-M   'P 1'
_cell_length_a   7.96666513
_cell_length_b   7.96666553
_cell_length_c   7.96666554
_cell_angle_alpha   55.90517748
_cell_angle_beta   55.90517701
_cell_angle_gamma   55.90517979
_symmetry_Int_Tables_number   1
_chemical_formula_structural   Na2CeBr6
_chemical_formula_sum   'Na2 Ce1 Br6'
_cell_volume   323.60012478
_cell_formula_units_Z   1
loop_
 _symmetry_equiv_pos_site_id
 _symmetry_equiv_pos_as_xyz
  1  'x, y, z'
loop_
 _atom_site_type_symbol
 _atom_site_label
 _atom_site_symmetry_multiplicity
 _atom_site_fract_x
 _atom_site_fract_y
 _atom_site_fract_z
 _atom_site_occupancy
  Na  Na0  1  0.329357  0.329357  0.329357  1
  Na  Na1  1  0.670643  0.670643  0.670643  1
  Ce  Ce2  1  0.000000  0.000000  0.000000  1
  Br  Br3  1  0.235954  0.614789  0.913371  1
  Br  Br4  1  0.614789  0.913371  0.235954  1
  Br  Br5  1  0.913371  0.235954  0.614789  1
  Br  Br6  1  0.764046  0.385211  0.086629  1
  Br  Br7  1  0.385211  0.086629  0.764046  1
  Br  Br8  1  0.086629  0.764046  0.385211  1
