# generated using pymatgen
data_Y3HoTm4In3Ir
_symmetry_space_group_name_H-M   'P 1'
_cell_length_a   10.32410400
_cell_length_b   10.32410321
_cell_length_c   7.10198000
_cell_angle_alpha   90.00000000
_cell_angle_beta   90.00000000
_cell_angle_gamma   119.99999612
_symmetry_Int_Tables_number   1
_chemical_formula_structural   Y3HoTm4In3Ir
_chemical_formula_sum   'Y6 Ho2 Tm8 In6 Ir2'
_cell_volume   655.56355532
_cell_formula_units_Z   2
loop_
 _symmetry_equiv_pos_site_id
 _symmetry_equiv_pos_as_xyz
  1  'x, y, z'
loop_
 _atom_site_type_symbol
 _atom_site_label
 _atom_site_symmetry_multiplicity
 _atom_site_fract_x
 _atom_site_fract_y
 _atom_site_fract_z
 _atom_site_occupancy
  Y  Y0  1  0.533221  0.066443  0.506719  1
  Y  Y1  1  0.933557  0.466779  0.506719  1
  Y  Y2  1  0.533221  0.466779  0.506719  1
  Y  Y3  1  0.466779  0.933557  0.006719  1
  Y  Y4  1  0.066443  0.533221  0.006719  1
  Y  Y5  1  0.466779  0.533221  0.006719  1
  Ho  Ho6  1  0.000000  0.000000  0.492722  1
  Ho  Ho7  1  0.000000  0.000000  0.992722  1
  Tm  Tm8  1  0.176976  0.353950  0.710937  1
  Tm  Tm9  1  0.646050  0.823024  0.710937  1
  Tm  Tm10  1  0.176976  0.823024  0.710937  1
  Tm  Tm11  1  0.823024  0.646050  0.210937  1
  Tm  Tm12  1  0.353950  0.176976  0.210937  1
  Tm  Tm13  1  0.823024  0.176976  0.210937  1
  Tm  Tm14  1  0.666667  0.333333  0.890532  1
  Tm  Tm15  1  0.333333  0.666667  0.390532  1
  In  In16  1  0.837004  0.674008  0.755102  1
  In  In17  1  0.325992  0.162996  0.755102  1
  In  In18  1  0.837004  0.162996  0.755102  1
  In  In19  1  0.162996  0.325992  0.255102  1
  In  In20  1  0.674008  0.837004  0.255102  1
  In  In21  1  0.162996  0.837004  0.255102  1
  Ir  Ir22  1  0.666667  0.333333  0.277496  1
  Ir  Ir23  1  0.333333  0.666667  0.777496  1
