# generated using pymatgen
data_YLu3Rh4F28
_symmetry_space_group_name_H-M   'P 1'
_cell_length_a   5.46279311
_cell_length_b   8.74810005
_cell_length_c   11.80552320
_cell_angle_alpha   62.72419301
_cell_angle_beta   89.87266557
_cell_angle_gamma   89.99050145
_symmetry_Int_Tables_number   1
_chemical_formula_structural   YLu3Rh4F28
_chemical_formula_sum   'Y1 Lu3 Rh4 F28'
_cell_volume   501.44325305
_cell_formula_units_Z   1
loop_
 _symmetry_equiv_pos_site_id
 _symmetry_equiv_pos_as_xyz
  1  'x, y, z'
loop_
 _atom_site_type_symbol
 _atom_site_label
 _atom_site_symmetry_multiplicity
 _atom_site_fract_x
 _atom_site_fract_y
 _atom_site_fract_z
 _atom_site_occupancy
  Y  Y0  1  0.260749  0.815694  0.264896  1
  Lu  Lu1  1  0.738896  0.184801  0.735205  1
  Lu  Lu2  1  0.762436  0.188967  0.234810  1
  Lu  Lu3  1  0.238994  0.815624  0.764638  1
  Rh  Rh4  1  0.757627  0.725798  0.041390  1
  Rh  Rh5  1  0.239782  0.275362  0.954638  1
  Rh  Rh6  1  0.259620  0.270939  0.457444  1
  Rh  Rh7  1  0.741171  0.725871  0.546580  1
  F  F8  1  0.935764  0.703676  0.416759  1
  F  F9  1  0.059853  0.294374  0.585309  1
  F  F10  1  0.439152  0.296749  0.083287  1
  F  F11  1  0.561295  0.703739  0.912852  1
  F  F12  1  0.461926  0.724946  0.133682  1
  F  F13  1  0.532947  0.272895  0.860197  1
  F  F14  1  0.965169  0.272487  0.362635  1
  F  F15  1  0.035575  0.728026  0.639417  1
  F  F16  1  0.945957  0.744131  0.174775  1
  F  F17  1  0.043688  0.254439  0.823389  1
  F  F18  1  0.455573  0.251627  0.325223  1
  F  F19  1  0.547242  0.746444  0.678409  1
  F  F20  1  0.773362  0.477653  0.139987  1
  F  F21  1  0.225269  0.523741  0.857531  1
  F  F22  1  0.276412  0.518465  0.359508  1
  F  F23  1  0.727719  0.477602  0.643076  1
  F  F24  1  0.938156  0.278925  0.044368  1
  F  F25  1  0.062502  0.722691  0.953969  1
  F  F26  1  0.439476  0.719920  0.459854  1
  F  F27  1  0.561736  0.275780  0.546547  1
  F  F28  1  0.742579  0.973079  0.451237  1
  F  F29  1  0.256405  0.022964  0.551791  1
  F  F30  1  0.242469  0.027473  0.047887  1
  F  F31  1  0.754940  0.973620  0.948332  1
  F  F32  1  0.592706  0.974902  0.230861  1
  F  F33  1  0.419461  0.027343  0.768152  1
  F  F34  1  0.083635  0.036762  0.268798  1
  F  F35  1  0.919756  0.972489  0.732568  1
