# generated using pymatgen
data_YbPrI26
_symmetry_space_group_name_H-M   'P 1'
_cell_length_a   13.06537748
_cell_length_b   11.63618040
_cell_length_c   15.46968624
_cell_angle_alpha   123.42130055
_cell_angle_beta   90.97064184
_cell_angle_gamma   101.42101720
_symmetry_Int_Tables_number   1
_chemical_formula_structural   YbPrI26
_chemical_formula_sum   'Yb1 Pr1 I26'
_cell_volume   1901.14640218
_cell_formula_units_Z   1
loop_
 _symmetry_equiv_pos_site_id
 _symmetry_equiv_pos_as_xyz
  1  'x, y, z'
loop_
 _atom_site_type_symbol
 _atom_site_label
 _atom_site_symmetry_multiplicity
 _atom_site_fract_x
 _atom_site_fract_y
 _atom_site_fract_z
 _atom_site_occupancy
  Yb  Yb0  1  0.327966  0.872931  0.933965  1
  Pr  Pr1  1  0.666662  0.119927  0.062332  1
  I  I2  1  0.389180  0.671679  0.991019  1
  I  I3  1  0.604469  0.326312  0.006864  1
  I  I4  1  0.585085  0.815246  0.393355  1
  I  I5  1  0.419477  0.195035  0.611177  1
  I  I6  1  0.740185  0.690748  0.022640  1
  I  I7  1  0.261845  0.306987  0.979770  1
  I  I8  1  0.727813  0.970683  0.176028  1
  I  I9  1  0.275964  0.028995  0.828621  1
  I  I10  1  0.448193  0.153851  0.139376  1
  I  I11  1  0.551019  0.836828  0.859452  1
  I  I12  1  0.222580  0.651635  0.695970  1
  I  I13  1  0.775573  0.351407  0.305070  1
  I  I14  1  0.096771  0.830206  0.980670  1
  I  I15  1  0.896850  0.172017  0.011648  1
  I  I16  1  0.078416  0.078470  0.191279  1
  I  I17  1  0.920466  0.910920  0.799013  1
  I  I18  1  0.274890  0.919624  0.458132  1
  I  I19  1  0.729994  0.088565  0.546188  1
  I  I20  1  0.316573  0.419649  0.648108  1
  I  I21  1  0.682329  0.588223  0.353835  1
  I  I22  1  0.860121  0.375380  0.711560  1
  I  I23  1  0.143453  0.634488  0.295619  1
  I  I24  1  0.944886  0.686793  0.602454  1
  I  I25  1  0.058816  0.299018  0.394904  1
  I  I26  1  0.260837  0.636879  0.129768  1
  I  I27  1  0.739582  0.367504  0.871184  1
