# generated using pymatgen
data_Tb8Ho8Cd4Co3Ni
_symmetry_space_group_name_H-M   'P 1'
_cell_length_a   9.50646949
_cell_length_b   9.52142066
_cell_length_c   9.51218815
_cell_angle_alpha   60.09623994
_cell_angle_beta   60.04150937
_cell_angle_gamma   60.01746010
_symmetry_Int_Tables_number   1
_chemical_formula_structural   Tb8Ho8Cd4Co3Ni
_chemical_formula_sum   'Tb8 Ho8 Cd4 Co3 Ni1'
_cell_volume   609.52984565
_cell_formula_units_Z   1
loop_
 _symmetry_equiv_pos_site_id
 _symmetry_equiv_pos_as_xyz
  1  'x, y, z'
loop_
 _atom_site_type_symbol
 _atom_site_label
 _atom_site_symmetry_multiplicity
 _atom_site_fract_x
 _atom_site_fract_y
 _atom_site_fract_z
 _atom_site_occupancy
  Tb  Tb0  1  0.938099  0.938851  0.561817  1
  Tb  Tb1  1  0.815000  0.188740  0.187244  1
  Tb  Tb2  1  0.937307  0.562366  0.563454  1
  Tb  Tb3  1  0.937608  0.561953  0.938356  1
  Tb  Tb4  1  0.816009  0.807731  0.186146  1
  Tb  Tb5  1  0.343144  0.347901  0.347885  1
  Tb  Tb6  1  0.559565  0.938432  0.938662  1
  Tb  Tb7  1  0.560426  0.938326  0.564435  1
  Ho  Ho8  1  0.186267  0.812166  0.812001  1
  Ho  Ho9  1  0.188299  0.187636  0.810862  1
  Ho  Ho10  1  0.344864  0.349799  0.958736  1
  Ho  Ho11  1  0.344639  0.959124  0.349462  1
  Ho  Ho12  1  0.815895  0.186837  0.807617  1
  Ho  Ho13  1  0.560306  0.563346  0.938820  1
  Ho  Ho14  1  0.189192  0.810744  0.187498  1
  Ho  Ho15  1  0.962641  0.345962  0.346551  1
  Cd  Cd16  1  0.580278  0.580694  0.257653  1
  Cd  Cd17  1  0.256895  0.581082  0.581034  1
  Cd  Cd18  1  0.579170  0.579398  0.580899  1
  Cd  Cd19  1  0.580467  0.258163  0.581010  1
  Co  Co20  1  0.143056  0.141100  0.141775  1
  Co  Co21  1  0.143210  0.576073  0.140935  1
  Co  Co22  1  0.141968  0.141271  0.576473  1
  Ni  Ni23  1  0.575700  0.142309  0.140681  1
