# generated using pymatgen
data_NdLu(SeO3)3
_symmetry_space_group_name_H-M   'P 1'
_cell_length_a   7.19238805
_cell_length_b   8.20425436
_cell_length_c   9.11648645
_cell_angle_alpha   70.94988263
_cell_angle_beta   70.26785433
_cell_angle_gamma   66.17104303
_symmetry_Int_Tables_number   1
_chemical_formula_structural   NdLu(SeO3)3
_chemical_formula_sum   'Nd2 Lu2 Se6 O18'
_cell_volume   451.77857704
_cell_formula_units_Z   2
loop_
 _symmetry_equiv_pos_site_id
 _symmetry_equiv_pos_as_xyz
  1  'x, y, z'
loop_
 _atom_site_type_symbol
 _atom_site_label
 _atom_site_symmetry_multiplicity
 _atom_site_fract_x
 _atom_site_fract_y
 _atom_site_fract_z
 _atom_site_occupancy
  Nd  Nd0  1  0.331622  0.731749  0.592294  1
  Nd  Nd1  1  0.668378  0.268251  0.407706  1
  Lu  Lu2  1  0.741493  0.735364  0.801615  1
  Lu  Lu3  1  0.258507  0.264636  0.198385  1
  Se  Se4  1  0.424993  0.784628  0.190459  1
  Se  Se5  1  0.575007  0.215372  0.809541  1
  Se  Se6  1  0.148776  0.746196  0.970859  1
  Se  Se7  1  0.851224  0.253804  0.029141  1
  Se  Se8  1  0.887190  0.751292  0.421081  1
  Se  Se9  1  0.112810  0.248708  0.578919  1
  O  O10  1  0.646249  0.793375  0.044418  1
  O  O11  1  0.353751  0.206625  0.955582  1
  O  O12  1  0.362665  0.953842  0.292715  1
  O  O13  1  0.637335  0.046158  0.707285  1
  O  O14  1  0.513297  0.603252  0.343722  1
  O  O15  1  0.486703  0.396748  0.656278  1
  O  O16  1  0.172505  0.557716  0.122954  1
  O  O17  1  0.827495  0.442284  0.877046  1
  O  O18  1  0.404762  0.711980  0.853848  1
  O  O19  1  0.595238  0.288020  0.146152  1
  O  O20  1  0.341719  0.247779  0.429403  1
  O  O21  1  0.658281  0.752221  0.570597  1
  O  O22  1  0.973794  0.295540  0.437178  1
  O  O23  1  0.026206  0.704460  0.562822  1
  O  O24  1  0.146343  0.025728  0.661641  1
  O  O25  1  0.853657  0.974272  0.338359  1
  O  O26  1  0.943118  0.301272  0.159710  1
  O  O27  1  0.056882  0.698728  0.840290  1
