# generated using pymatgen
data_Sc12Re3Si12Ru
_symmetry_space_group_name_H-M   'P 1'
_cell_length_a   3.91118500
_cell_length_b   10.51722065
_cell_length_c   11.82626651
_cell_angle_alpha   90.11952070
_cell_angle_beta   90.00000000
_cell_angle_gamma   90.00000000
_symmetry_Int_Tables_number   1
_chemical_formula_structural   Sc12Re3Si12Ru
_chemical_formula_sum   'Sc12 Re3 Si12 Ru1'
_cell_volume   486.46999784
_cell_formula_units_Z   1
loop_
 _symmetry_equiv_pos_site_id
 _symmetry_equiv_pos_as_xyz
  1  'x, y, z'
loop_
 _atom_site_type_symbol
 _atom_site_label
 _atom_site_symmetry_multiplicity
 _atom_site_fract_x
 _atom_site_fract_y
 _atom_site_fract_z
 _atom_site_occupancy
  Sc  Sc0  1  0.250000  0.876646  0.017896  1
  Sc  Sc1  1  0.250000  0.624435  0.517060  1
  Sc  Sc2  1  0.750000  0.123550  0.983746  1
  Sc  Sc3  1  0.750000  0.376864  0.484265  1
  Sc  Sc4  1  0.250000  0.924342  0.605094  1
  Sc  Sc5  1  0.250000  0.575968  0.106643  1
  Sc  Sc6  1  0.750000  0.076102  0.392302  1
  Sc  Sc7  1  0.750000  0.423700  0.891447  1
  Sc  Sc8  1  0.250000  0.662760  0.797870  1
  Sc  Sc9  1  0.250000  0.838157  0.298102  1
  Sc  Sc10  1  0.750000  0.338949  0.202014  1
  Sc  Sc11  1  0.750000  0.157744  0.702484  1
  Re  Re12  1  0.250000  0.386875  0.677469  1
  Re  Re13  1  0.250000  0.113734  0.175839  1
  Re  Re14  1  0.750000  0.614602  0.323439  1
  Si  Si15  1  0.250000  0.016596  0.822546  1
  Si  Si16  1  0.250000  0.478438  0.322248  1
  Si  Si17  1  0.750000  0.977826  0.177603  1
  Si  Si18  1  0.750000  0.523624  0.678278  1
  Si  Si19  1  0.250000  0.249195  0.845161  1
  Si  Si20  1  0.250000  0.248165  0.346049  1
  Si  Si21  1  0.750000  0.748103  0.153751  1
  Si  Si22  1  0.750000  0.754390  0.656159  1
  Si  Si23  1  0.250000  0.191558  0.543999  1
  Si  Si24  1  0.250000  0.308593  0.042942  1
  Si  Si25  1  0.750000  0.808929  0.456741  1
  Si  Si26  1  0.750000  0.693111  0.955469  1
  Ru  Ru27  1  0.750000  0.887045  0.823383  1
