# generated using pymatgen
data_Dy9HoIn8CoPt3
_symmetry_space_group_name_H-M   'P 1'
_cell_length_a   3.62220700
_cell_length_b   8.12096412
_cell_length_c   18.18954867
_cell_angle_alpha   90.02507472
_cell_angle_beta   90.00000000
_cell_angle_gamma   90.00000000
_symmetry_Int_Tables_number   1
_chemical_formula_structural   Dy9HoIn8CoPt3
_chemical_formula_sum   'Dy9 Ho1 In8 Co1 Pt3'
_cell_volume   535.06031270
_cell_formula_units_Z   1
loop_
 _symmetry_equiv_pos_site_id
 _symmetry_equiv_pos_as_xyz
  1  'x, y, z'
loop_
 _atom_site_type_symbol
 _atom_site_label
 _atom_site_symmetry_multiplicity
 _atom_site_fract_x
 _atom_site_fract_y
 _atom_site_fract_z
 _atom_site_occupancy
  Dy  Dy0  1  0.000000  0.111579  0.408987  1
  Dy  Dy1  1  0.000000  0.883421  0.583232  1
  Dy  Dy2  1  0.000000  0.383668  0.916169  1
  Dy  Dy3  1  0.000000  0.617798  0.087153  1
  Dy  Dy4  1  0.000000  0.232326  0.224307  1
  Dy  Dy5  1  0.000000  0.759242  0.779264  1
  Dy  Dy6  1  0.000000  0.258437  0.720549  1
  Dy  Dy7  1  0.000000  0.754251  0.279193  1
  Dy  Dy8  1  0.000000  0.000477  0.001500  1
  Ho  Ho9  1  0.000000  0.500755  0.498437  1
  In  In10  1  0.500000  0.422382  0.351141  1
  In  In11  1  0.500000  0.576375  0.647578  1
  In  In12  1  0.500000  0.076536  0.852002  1
  In  In13  1  0.500000  0.929252  0.152031  1
  In  In14  1  0.500000  0.291659  0.069142  1
  In  In15  1  0.500000  0.709348  0.934065  1
  In  In16  1  0.500000  0.208672  0.564629  1
  In  In17  1  0.500000  0.792825  0.428603  1
  Co  Co18  1  0.500000  0.016837  0.304844  1
  Pt  Pt19  1  0.500000  0.976793  0.695377  1
  Pt  Pt20  1  0.500000  0.477158  0.804081  1
  Pt  Pt21  1  0.500000  0.520207  0.197714  1
