# generated using pymatgen
data_KGa2PdPt2
_symmetry_space_group_name_H-M   'P 1'
_cell_length_a   5.86065325
_cell_length_b   5.86065438
_cell_length_c   3.88714800
_cell_angle_alpha   90.00000000
_cell_angle_beta   90.00000000
_cell_angle_gamma   120.80118832
_symmetry_Int_Tables_number   1
_chemical_formula_structural   KGa2PdPt2
_chemical_formula_sum   'K1 Ga2 Pd1 Pt2'
_cell_volume   114.68080473
_cell_formula_units_Z   1
loop_
 _symmetry_equiv_pos_site_id
 _symmetry_equiv_pos_as_xyz
  1  'x, y, z'
loop_
 _atom_site_type_symbol
 _atom_site_label
 _atom_site_symmetry_multiplicity
 _atom_site_fract_x
 _atom_site_fract_y
 _atom_site_fract_z
 _atom_site_occupancy
  K  K0  1  0.000000  0.000000  0.000000  1
  Ga  Ga1  1  0.668118  0.331882  0.000000  1
  Ga  Ga2  1  0.331882  0.668118  0.000000  1
  Pd  Pd3  1  0.500000  0.500000  0.500000  1
  Pt  Pt4  1  0.500000  0.000000  0.500000  1
  Pt  Pt5  1  0.000000  0.500000  0.500000  1
