# generated using pymatgen
data_ErCdB4Ir5
_symmetry_space_group_name_H-M   'P 1'
_cell_length_a   7.46974922
_cell_length_b   6.32432913
_cell_length_c   5.56458019
_cell_angle_alpha   77.55789845
_cell_angle_beta   55.76880776
_cell_angle_gamma   46.67329781
_symmetry_Int_Tables_number   1
_chemical_formula_structural   ErCdB4Ir5
_chemical_formula_sum   'Er1 Cd1 B4 Ir5'
_cell_volume   151.61607934
_cell_formula_units_Z   1
loop_
 _symmetry_equiv_pos_site_id
 _symmetry_equiv_pos_as_xyz
  1  'x, y, z'
loop_
 _atom_site_type_symbol
 _atom_site_label
 _atom_site_symmetry_multiplicity
 _atom_site_fract_x
 _atom_site_fract_y
 _atom_site_fract_z
 _atom_site_occupancy
  Er  Er0  1  0.366714  0.366713  0.633286  1
  Cd  Cd1  1  0.641905  0.641904  0.358095  1
  B  B2  1  0.286562  0.977118  0.022881  1
  B  B3  1  0.021404  0.710239  0.289759  1
  B  B4  1  0.977119  0.286560  0.713438  1
  B  B5  1  0.710241  0.021403  0.978596  1
  Ir  Ir6  1  0.999866  0.999866  0.000134  1
  Ir  Ir7  1  0.500024  0.500025  0.999975  1
  Ir  Ir8  1  0.248071  0.248072  0.251929  1
  Ir  Ir9  1  0.000025  0.000025  0.499976  1
  Ir  Ir10  1  0.748072  0.748071  0.751929  1
