# generated using pymatgen
data_HoMn3Al8Fe
_symmetry_space_group_name_H-M   'P 1'
_cell_length_a   5.15693229
_cell_length_b   6.69774244
_cell_length_c   6.71124436
_cell_angle_alpha   81.55244344
_cell_angle_beta   67.56758083
_cell_angle_gamma   67.35778199
_symmetry_Int_Tables_number   1
_chemical_formula_structural   HoMn3Al8Fe
_chemical_formula_sum   'Ho1 Mn3 Al8 Fe1'
_cell_volume   197.75039310
_cell_formula_units_Z   1
loop_
 _symmetry_equiv_pos_site_id
 _symmetry_equiv_pos_as_xyz
  1  'x, y, z'
loop_
 _atom_site_type_symbol
 _atom_site_label
 _atom_site_symmetry_multiplicity
 _atom_site_fract_x
 _atom_site_fract_y
 _atom_site_fract_z
 _atom_site_occupancy
  Ho  Ho0  1  0.000000  0.000000  0.000000  1
  Mn  Mn1  1  0.500000  0.500000  0.000000  1
  Mn  Mn2  1  0.000000  0.500000  0.000000  1
  Mn  Mn3  1  0.000000  0.000000  0.500000  1
  Al  Al4  1  0.998028  0.663741  0.339079  1
  Al  Al5  1  0.001972  0.336259  0.660921  1
  Al  Al6  1  0.661770  0.336259  0.339079  1
  Al  Al7  1  0.338230  0.663741  0.660921  1
  Al  Al8  1  0.497837  0.223870  0.774192  1
  Al  Al9  1  0.502163  0.776130  0.225808  1
  Al  Al10  1  0.721707  0.776130  0.774192  1
  Al  Al11  1  0.278293  0.223870  0.225808  1
  Fe  Fe12  1  0.500000  0.000000  0.500000  1
