# generated using pymatgen
data_Dy5Lu2Sn23Ir6
_symmetry_space_group_name_H-M   'P 1'
_cell_length_a   9.85251611
_cell_length_b   9.85251590
_cell_length_c   10.10961318
_cell_angle_alpha   90.01856246
_cell_angle_beta   89.98143957
_cell_angle_gamma   120.05127588
_symmetry_Int_Tables_number   1
_chemical_formula_structural   Dy5Lu2Sn23Ir6
_chemical_formula_sum   'Dy5 Lu2 Sn23 Ir6'
_cell_volume   849.44411281
_cell_formula_units_Z   1
loop_
 _symmetry_equiv_pos_site_id
 _symmetry_equiv_pos_as_xyz
  1  'x, y, z'
loop_
 _atom_site_type_symbol
 _atom_site_label
 _atom_site_symmetry_multiplicity
 _atom_site_fract_x
 _atom_site_fract_y
 _atom_site_fract_z
 _atom_site_occupancy
  Dy  Dy0  1  0.000000  0.000000  0.000000  1
  Dy  Dy1  1  0.479684  0.960003  0.307059  1
  Dy  Dy2  1  0.520316  0.039997  0.692941  1
  Dy  Dy3  1  0.039997  0.520316  0.307059  1
  Dy  Dy4  1  0.960003  0.479684  0.692941  1
  Lu  Lu5  1  0.481389  0.518611  0.306364  1
  Lu  Lu6  1  0.518611  0.481389  0.693636  1
  Sn  Sn7  1  0.352555  0.000686  0.000239  1
  Sn  Sn8  1  0.647445  0.999314  0.999761  1
  Sn  Sn9  1  0.000686  0.352555  0.999761  1
  Sn  Sn10  1  0.999314  0.647445  0.000239  1
  Sn  Sn11  1  0.647295  0.647295  0.000000  1
  Sn  Sn12  1  0.352705  0.352705  0.000000  1
  Sn  Sn13  1  0.333263  0.666737  0.826207  1
  Sn  Sn14  1  0.666737  0.333263  0.173793  1
  Sn  Sn15  1  0.000000  0.000000  0.500000  1
  Sn  Sn16  1  0.777299  0.222701  0.455886  1
  Sn  Sn17  1  0.222701  0.777299  0.544114  1
  Sn  Sn18  1  0.775557  0.554538  0.456476  1
  Sn  Sn19  1  0.224443  0.445462  0.543524  1
  Sn  Sn20  1  0.445462  0.224443  0.456476  1
  Sn  Sn21  1  0.554538  0.775557  0.543524  1
  Sn  Sn22  1  0.334883  0.665117  0.123952  1
  Sn  Sn23  1  0.665117  0.334883  0.876048  1
  Sn  Sn24  1  0.118954  0.881046  0.283862  1
  Sn  Sn25  1  0.881046  0.118954  0.716138  1
  Sn  Sn26  1  0.120020  0.239566  0.284258  1
  Sn  Sn27  1  0.879980  0.760434  0.715742  1
  Sn  Sn28  1  0.760434  0.879980  0.284258  1
  Sn  Sn29  1  0.239566  0.120020  0.715742  1
  Ir  Ir30  1  0.831358  0.168642  0.198025  1
  Ir  Ir31  1  0.168642  0.831358  0.801975  1
  Ir  Ir32  1  0.829533  0.661783  0.198847  1
  Ir  Ir33  1  0.170467  0.338217  0.801153  1
  Ir  Ir34  1  0.338217  0.170467  0.198847  1
  Ir  Ir35  1  0.661783  0.829533  0.801153  1
