# generated using pymatgen
data_Os2RuSe12
_symmetry_space_group_name_H-M   'P 1'
_cell_length_a   7.04198929
_cell_length_b   7.09850841
_cell_length_c   7.99838626
_cell_angle_alpha   104.83261832
_cell_angle_beta   95.76140191
_cell_angle_gamma   87.69416259
_symmetry_Int_Tables_number   1
_chemical_formula_structural   Os2RuSe12
_chemical_formula_sum   'Os2 Ru1 Se12'
_cell_volume   384.50112182
_cell_formula_units_Z   1
loop_
 _symmetry_equiv_pos_site_id
 _symmetry_equiv_pos_as_xyz
  1  'x, y, z'
loop_
 _atom_site_type_symbol
 _atom_site_label
 _atom_site_symmetry_multiplicity
 _atom_site_fract_x
 _atom_site_fract_y
 _atom_site_fract_z
 _atom_site_occupancy
  Os  Os0  1  0.026121  0.594890  0.303244  1
  Os  Os1  1  0.973880  0.405110  0.696756  1
  Ru  Ru2  1  0.000000  0.000000  0.000000  1
  Se  Se3  1  0.267872  0.527628  0.104745  1
  Se  Se4  1  0.818208  0.302171  0.138232  1
  Se  Se5  1  0.807390  0.782799  0.127970  1
  Se  Se6  1  0.240057  0.067382  0.251856  1
  Se  Se7  1  0.214479  0.396049  0.478610  1
  Se  Se8  1  0.159150  0.893343  0.467682  1
  Se  Se9  1  0.840851  0.106657  0.532319  1
  Se  Se10  1  0.785521  0.603950  0.521390  1
  Se  Se11  1  0.759943  0.932618  0.748145  1
  Se  Se12  1  0.192610  0.217201  0.872030  1
  Se  Se13  1  0.181791  0.697829  0.861768  1
  Se  Se14  1  0.732128  0.472372  0.895256  1
