# generated using pymatgen
data_Ba(CoO2)6
_symmetry_space_group_name_H-M   'P 1'
_cell_length_a   7.95483295
_cell_length_b   7.95483333
_cell_length_c   8.07476114
_cell_angle_alpha   108.90297994
_cell_angle_beta   104.39912702
_cell_angle_gamma   114.75411154
_symmetry_Int_Tables_number   1
_chemical_formula_structural   Ba(CoO2)6
_chemical_formula_sum   'Ba2 Co12 O24'
_cell_volume   392.61621256
_cell_formula_units_Z   2
loop_
 _symmetry_equiv_pos_site_id
 _symmetry_equiv_pos_as_xyz
  1  'x, y, z'
loop_
 _atom_site_type_symbol
 _atom_site_label
 _atom_site_symmetry_multiplicity
 _atom_site_fract_x
 _atom_site_fract_y
 _atom_site_fract_z
 _atom_site_occupancy
  Ba  Ba0  1  0.047120  0.047120  0.000000  1
  Ba  Ba1  1  0.619547  0.619547  0.000000  1
  Co  Co2  1  0.815274  0.999856  0.480657  1
  Co  Co3  1  0.481236  0.666295  0.480865  1
  Co  Co4  1  0.147468  0.332050  0.480657  1
  Co  Co5  1  0.851393  0.666811  0.519343  1
  Co  Co6  1  0.519199  0.334617  0.519343  1
  Co  Co7  1  0.185430  0.000371  0.519135  1
  Co  Co8  1  0.993826  0.489084  0.816245  1
  Co  Co9  1  0.661265  0.153472  0.816004  1
  Co  Co10  1  0.329199  0.821406  0.816004  1
  Co  Co11  1  0.672840  0.177582  0.183755  1
  Co  Co12  1  0.337468  0.845261  0.183996  1
  Co  Co13  1  0.005402  0.513195  0.183996  1
  O  O14  1  0.687031  0.372426  0.392791  1
  O  O15  1  0.351348  0.040490  0.389948  1
  O  O16  1  0.016126  0.705267  0.389948  1
  O  O17  1  0.979635  0.294240  0.607209  1
  O  O18  1  0.650541  0.961400  0.610052  1
  O  O19  1  0.315319  0.626177  0.610052  1
  O  O20  1  0.959346  0.313647  0.271437  1
  O  O21  1  0.624458  0.978759  0.271437  1
  O  O22  1  0.291746  0.655814  0.280894  1
  O  O23  1  0.707321  0.353020  0.728563  1
  O  O24  1  0.374920  0.010852  0.719106  1
  O  O25  1  0.042209  0.687908  0.728563  1
  O  O26  1  0.709091  0.349347  0.060801  1
  O  O27  1  0.378121  0.018377  0.060801  1
  O  O28  1  0.038766  0.687278  0.059378  1
  O  O29  1  0.957576  0.317320  0.939199  1
  O  O30  1  0.627900  0.979388  0.940622  1
  O  O31  1  0.288546  0.648290  0.939199  1
  O  O32  1  0.007758  0.971514  0.642758  1
  O  O33  1  0.337911  0.301667  0.642758  1
  O  O34  1  0.674808  0.641003  0.649145  1
  O  O35  1  0.328756  0.365000  0.357242  1
  O  O36  1  0.658909  0.695153  0.357242  1
  O  O37  1  0.991858  0.025663  0.350855  1
