# generated using pymatgen
data_Lu12Co4BiOs
_symmetry_space_group_name_H-M   'P 1'
_cell_length_a   8.15158289
_cell_length_b   8.15158167
_cell_length_c   8.15158160
_cell_angle_alpha   111.66319312
_cell_angle_beta   110.61734707
_cell_angle_gamma   106.18413778
_symmetry_Int_Tables_number   1
_chemical_formula_structural   Lu12Co4BiOs
_chemical_formula_sum   'Lu12 Co4 Bi1 Os1'
_cell_volume   415.91041732
_cell_formula_units_Z   1
loop_
 _symmetry_equiv_pos_site_id
 _symmetry_equiv_pos_as_xyz
  1  'x, y, z'
loop_
 _atom_site_type_symbol
 _atom_site_label
 _atom_site_symmetry_multiplicity
 _atom_site_fract_x
 _atom_site_fract_y
 _atom_site_fract_z
 _atom_site_occupancy
  Lu  Lu0  1  0.417405  0.219651  0.197753  1
  Lu  Lu1  1  0.582595  0.780349  0.802247  1
  Lu  Lu2  1  0.021898  0.219651  0.802247  1
  Lu  Lu3  1  0.978102  0.780349  0.197753  1
  Lu  Lu4  1  0.179681  0.275840  0.455522  1
  Lu  Lu5  1  0.820319  0.724160  0.544478  1
  Lu  Lu6  1  0.179681  0.724160  0.903841  1
  Lu  Lu7  1  0.820319  0.275840  0.096159  1
  Lu  Lu8  1  0.312503  0.622119  0.309616  1
  Lu  Lu9  1  0.687497  0.377881  0.690384  1
  Lu  Lu10  1  0.312503  0.002887  0.690384  1
  Lu  Lu11  1  0.687497  0.997113  0.309616  1
  Co  Co12  1  0.371638  0.000000  0.371638  1
  Co  Co13  1  0.628362  0.000000  0.628362  1
  Co  Co14  1  0.112201  0.612201  0.500000  1
  Co  Co15  1  0.887799  0.387799  0.500000  1
  Bi  Bi16  1  0.500000  0.500000  0.000000  1
  Os  Os17  1  0.000000  0.000000  0.000000  1
