# generated using pymatgen
data_Zr9TiCoRe3
_symmetry_space_group_name_H-M   'P 1'
_cell_length_a   8.74348600
_cell_length_b   8.74348464
_cell_length_c   8.48059600
_cell_angle_alpha   90.00000000
_cell_angle_beta   90.00000000
_cell_angle_gamma   119.99999758
_symmetry_Int_Tables_number   1
_chemical_formula_structural   Zr9TiCoRe3
_chemical_formula_sum   'Zr18 Ti2 Co2 Re6'
_cell_volume   561.46952299
_cell_formula_units_Z   2
loop_
 _symmetry_equiv_pos_site_id
 _symmetry_equiv_pos_as_xyz
  1  'x, y, z'
loop_
 _atom_site_type_symbol
 _atom_site_label
 _atom_site_symmetry_multiplicity
 _atom_site_fract_x
 _atom_site_fract_y
 _atom_site_fract_z
 _atom_site_occupancy
  Zr  Zr0  1  0.199735  0.800265  0.440938  1
  Zr  Zr1  1  0.199735  0.399470  0.440938  1
  Zr  Zr2  1  0.600530  0.800265  0.440938  1
  Zr  Zr3  1  0.800265  0.199735  0.559062  1
  Zr  Zr4  1  0.800265  0.600530  0.559062  1
  Zr  Zr5  1  0.399470  0.199735  0.559062  1
  Zr  Zr6  1  0.800265  0.199735  0.940938  1
  Zr  Zr7  1  0.800265  0.600530  0.940938  1
  Zr  Zr8  1  0.399470  0.199735  0.940938  1
  Zr  Zr9  1  0.199735  0.800265  0.059062  1
  Zr  Zr10  1  0.199735  0.399470  0.059062  1
  Zr  Zr11  1  0.600530  0.800265  0.059062  1
  Zr  Zr12  1  0.542704  0.457296  0.250000  1
  Zr  Zr13  1  0.542704  0.085408  0.250000  1
  Zr  Zr14  1  0.914592  0.457296  0.250000  1
  Zr  Zr15  1  0.457296  0.542704  0.750000  1
  Zr  Zr16  1  0.457296  0.914592  0.750000  1
  Zr  Zr17  1  0.085408  0.542704  0.750000  1
  Ti  Ti18  1  0.000000  0.000000  0.500000  1
  Ti  Ti19  1  0.000000  0.000000  0.000000  1
  Co  Co20  1  0.333333  0.666667  0.250000  1
  Co  Co21  1  0.666667  0.333333  0.750000  1
  Re  Re22  1  0.888724  0.111276  0.250000  1
  Re  Re23  1  0.888724  0.777448  0.250000  1
  Re  Re24  1  0.222552  0.111276  0.250000  1
  Re  Re25  1  0.111276  0.888724  0.750000  1
  Re  Re26  1  0.111276  0.222552  0.750000  1
  Re  Re27  1  0.777448  0.888724  0.750000  1
