# generated using pymatgen
data_Dy4Ho(SiBi)2
_symmetry_space_group_name_H-M   'P 1'
_cell_length_a   8.65537311
_cell_length_b   8.65537311
_cell_length_c   7.92240600
_cell_angle_alpha   90.00000000
_cell_angle_beta   90.00000000
_cell_angle_gamma   125.64450770
_symmetry_Int_Tables_number   1
_chemical_formula_structural   Dy4Ho(SiBi)2
_chemical_formula_sum   'Dy8 Ho2 Si4 Bi4'
_cell_volume   482.31561715
_cell_formula_units_Z   2
loop_
 _symmetry_equiv_pos_site_id
 _symmetry_equiv_pos_as_xyz
  1  'x, y, z'
loop_
 _atom_site_type_symbol
 _atom_site_label
 _atom_site_symmetry_multiplicity
 _atom_site_fract_x
 _atom_site_fract_y
 _atom_site_fract_z
 _atom_site_occupancy
  Dy  Dy0  1  0.043553  0.287051  0.335112  1
  Dy  Dy1  1  0.956447  0.712949  0.664888  1
  Dy  Dy2  1  0.456447  0.212949  0.835112  1
  Dy  Dy3  1  0.787051  0.543553  0.164888  1
  Dy  Dy4  1  0.543553  0.787051  0.164888  1
  Dy  Dy5  1  0.212949  0.456447  0.835112  1
  Dy  Dy6  1  0.712949  0.956447  0.664888  1
  Dy  Dy7  1  0.287051  0.043553  0.335112  1
  Ho  Ho8  1  0.000000  0.000000  0.000000  1
  Ho  Ho9  1  0.500000  0.500000  0.500000  1
  Si  Si10  1  0.366350  0.366350  0.132527  1
  Si  Si11  1  0.633650  0.633650  0.867473  1
  Si  Si12  1  0.133650  0.133650  0.632527  1
  Si  Si13  1  0.866350  0.866350  0.367473  1
  Bi  Bi14  1  0.792441  0.207559  0.000000  1
  Bi  Bi15  1  0.207559  0.792441  0.000000  1
  Bi  Bi16  1  0.707559  0.292441  0.500000  1
  Bi  Bi17  1  0.292441  0.707559  0.500000  1
