# generated using pymatgen
data_Hf15Zr(FeOs)4
_symmetry_space_group_name_H-M   'P 1'
_cell_length_a   8.59115930
_cell_length_b   8.58210490
_cell_length_c   8.58210493
_cell_angle_alpha   60.03690692
_cell_angle_beta   59.96509263
_cell_angle_gamma   59.96509568
_symmetry_Int_Tables_number   1
_chemical_formula_structural   Hf15Zr(FeOs)4
_chemical_formula_sum   'Hf15 Zr1 Fe4 Os4'
_cell_volume   447.31754947
_cell_formula_units_Z   1
loop_
 _symmetry_equiv_pos_site_id
 _symmetry_equiv_pos_as_xyz
  1  'x, y, z'
loop_
 _atom_site_type_symbol
 _atom_site_label
 _atom_site_symmetry_multiplicity
 _atom_site_fract_x
 _atom_site_fract_y
 _atom_site_fract_z
 _atom_site_occupancy
  Hf  Hf0  1  0.060250  0.646591  0.646591  1
  Hf  Hf1  1  0.646525  0.060156  0.646795  1
  Hf  Hf2  1  0.646525  0.646795  0.060156  1
  Hf  Hf3  1  0.646567  0.646591  0.646591  1
  Hf  Hf4  1  0.799994  0.798573  0.200942  1
  Hf  Hf5  1  0.200490  0.200942  0.798573  1
  Hf  Hf6  1  0.799994  0.200942  0.798573  1
  Hf  Hf7  1  0.200490  0.798573  0.200942  1
  Hf  Hf8  1  0.201164  0.798836  0.798836  1
  Hf  Hf9  1  0.799345  0.200655  0.200655  1
  Hf  Hf10  1  0.437042  0.437932  0.062998  1
  Hf  Hf11  1  0.062028  0.062998  0.437932  1
  Hf  Hf12  1  0.437042  0.062998  0.437932  1
  Hf  Hf13  1  0.062028  0.437932  0.062998  1
  Hf  Hf14  1  0.063508  0.436492  0.436492  1
  Zr  Zr15  1  0.435593  0.064407  0.064407  1
  Fe  Fe16  1  0.421076  0.859215  0.859215  1
  Fe  Fe17  1  0.859515  0.421528  0.859442  1
  Fe  Fe18  1  0.859515  0.859442  0.421528  1
  Fe  Fe19  1  0.860494  0.859215  0.859215  1
  Os  Os20  1  0.749828  0.416502  0.416502  1
  Os  Os21  1  0.416910  0.748385  0.417795  1
  Os  Os22  1  0.416910  0.417795  0.748385  1
  Os  Os23  1  0.417169  0.416502  0.416502  1
