# generated using pymatgen
data_K2Sr4Si8O21
_symmetry_space_group_name_H-M   'P 1'
_cell_length_a   7.10994426
_cell_length_b   7.29516076
_cell_length_c   11.65437733
_cell_angle_alpha   96.96475003
_cell_angle_beta   105.00375619
_cell_angle_gamma   109.12778834
_symmetry_Int_Tables_number   1
_chemical_formula_structural   K2Sr4Si8O21
_chemical_formula_sum   'K2 Sr4 Si8 O21'
_cell_volume   537.39658757
_cell_formula_units_Z   1
loop_
 _symmetry_equiv_pos_site_id
 _symmetry_equiv_pos_as_xyz
  1  'x, y, z'
loop_
 _atom_site_type_symbol
 _atom_site_label
 _atom_site_symmetry_multiplicity
 _atom_site_fract_x
 _atom_site_fract_y
 _atom_site_fract_z
 _atom_site_occupancy
  K  K0  1  0.737505  0.708553  0.434852  1
  K  K1  1  0.262495  0.291447  0.565148  1
  Sr  Sr2  1  0.670382  0.779353  0.812750  1
  Sr  Sr3  1  0.329618  0.220647  0.187250  1
  Sr  Sr4  1  0.363925  0.718650  0.041168  1
  Sr  Sr5  1  0.636075  0.281350  0.958832  1
  Si  Si6  1  0.096785  0.237905  0.881671  1
  Si  Si7  1  0.903215  0.762095  0.118329  1
  Si  Si8  1  0.181757  0.897767  0.743127  1
  Si  Si9  1  0.818243  0.102233  0.256873  1
  Si  Si10  1  0.662125  0.194433  0.471088  1
  Si  Si11  1  0.337875  0.805567  0.528912  1
  Si  Si12  1  0.878939  0.463585  0.732486  1
  Si  Si13  1  0.121061  0.536415  0.267514  1
  O  O14  1  0.500000  0.000000  0.500000  1
  O  O15  1  0.849330  0.329784  0.600065  1
  O  O16  1  0.150670  0.670216  0.399935  1
  O  O17  1  0.384451  0.906599  0.847859  1
  O  O18  1  0.615549  0.093401  0.152141  1
  O  O19  1  0.884641  0.129741  0.911676  1
  O  O20  1  0.115359  0.870259  0.088324  1
  O  O21  1  0.684786  0.678495  0.007657  1
  O  O22  1  0.315214  0.321505  0.992343  1
  O  O23  1  0.117690  0.094122  0.765685  1
  O  O24  1  0.882310  0.905878  0.234315  1
  O  O25  1  0.082197  0.442848  0.831521  1
  O  O26  1  0.917803  0.557152  0.168479  1
  O  O27  1  0.964375  0.704481  0.727452  1
  O  O28  1  0.035625  0.295519  0.272548  1
  O  O29  1  0.458236  0.682717  0.599013  1
  O  O30  1  0.541764  0.317283  0.400987  1
  O  O31  1  0.327984  0.581213  0.227974  1
  O  O32  1  0.672016  0.418787  0.772026  1
  O  O33  1  0.205560  0.893903  0.605066  1
  O  O34  1  0.794440  0.106097  0.394934  1
