# generated using pymatgen
data_DyLu(Mn5P3)2
_symmetry_space_group_name_H-M   'P 1'
_cell_length_a   3.57856800
_cell_length_b   10.70948952
_cell_length_c   12.19741660
_cell_angle_alpha   89.96421327
_cell_angle_beta   90.00000000
_cell_angle_gamma   90.00000000
_symmetry_Int_Tables_number   1
_chemical_formula_structural   DyLu(Mn5P3)2
_chemical_formula_sum   'Dy2 Lu2 Mn20 P12'
_cell_volume   467.46146606
_cell_formula_units_Z   2
loop_
 _symmetry_equiv_pos_site_id
 _symmetry_equiv_pos_as_xyz
  1  'x, y, z'
loop_
 _atom_site_type_symbol
 _atom_site_label
 _atom_site_symmetry_multiplicity
 _atom_site_fract_x
 _atom_site_fract_y
 _atom_site_fract_z
 _atom_site_occupancy
  Dy  Dy0  1  0.750000  0.086312  0.794115  1
  Dy  Dy1  1  0.250000  0.913688  0.205885  1
  Lu  Lu2  1  0.250000  0.585985  0.705784  1
  Lu  Lu3  1  0.750000  0.414015  0.294216  1
  Mn  Mn4  1  0.250000  0.410142  0.492674  1
  Mn  Mn5  1  0.750000  0.711829  0.320314  1
  Mn  Mn6  1  0.750000  0.786698  0.819795  1
  Mn  Mn7  1  0.250000  0.288171  0.679686  1
  Mn  Mn8  1  0.250000  0.617034  0.193433  1
  Mn  Mn9  1  0.750000  0.382966  0.806567  1
  Mn  Mn10  1  0.750000  0.118987  0.306940  1
  Mn  Mn11  1  0.250000  0.881013  0.693060  1
  Mn  Mn12  1  0.250000  0.034682  0.434132  1
  Mn  Mn13  1  0.750000  0.965318  0.565868  1
  Mn  Mn14  1  0.750000  0.533704  0.065914  1
  Mn  Mn15  1  0.250000  0.466296  0.934086  1
  Mn  Mn16  1  0.750000  0.909891  0.006607  1
  Mn  Mn17  1  0.250000  0.090109  0.993393  1
  Mn  Mn18  1  0.250000  0.716586  0.982896  1
  Mn  Mn19  1  0.750000  0.283414  0.017104  1
  Mn  Mn20  1  0.750000  0.216951  0.517297  1
  Mn  Mn21  1  0.250000  0.783049  0.482703  1
  Mn  Mn22  1  0.250000  0.213302  0.180205  1
  Mn  Mn23  1  0.750000  0.589858  0.507326  1
  P  P24  1  0.250000  0.590075  0.383255  1
  P  P25  1  0.750000  0.409925  0.616745  1
  P  P26  1  0.750000  0.091783  0.116180  1
  P  P27  1  0.250000  0.908217  0.883820  1
  P  P28  1  0.750000  0.762400  0.625575  1
  P  P29  1  0.250000  0.237600  0.374425  1
  P  P30  1  0.250000  0.411103  0.116639  1
  P  P31  1  0.750000  0.588897  0.883361  1
  P  P32  1  0.750000  0.910948  0.384668  1
  P  P33  1  0.250000  0.089052  0.615332  1
  P  P34  1  0.250000  0.264482  0.875168  1
  P  P35  1  0.750000  0.735518  0.124832  1
