# generated using pymatgen
data_Pr2NdPa(Al3Rh)6
_symmetry_space_group_name_H-M   'P 1'
_cell_length_a   7.63976500
_cell_length_b   7.62566806
_cell_length_c   9.53283100
_cell_angle_alpha   90.00000000
_cell_angle_beta   90.00000000
_cell_angle_gamma   119.39900648
_symmetry_Int_Tables_number   1
_chemical_formula_structural   Pr2NdPa(Al3Rh)6
_chemical_formula_sum   'Pr2 Nd1 Pa1 Al18 Rh6'
_cell_volume   483.84781599
_cell_formula_units_Z   1
loop_
 _symmetry_equiv_pos_site_id
 _symmetry_equiv_pos_as_xyz
  1  'x, y, z'
loop_
 _atom_site_type_symbol
 _atom_site_label
 _atom_site_symmetry_multiplicity
 _atom_site_fract_x
 _atom_site_fract_y
 _atom_site_fract_z
 _atom_site_occupancy
  Pr  Pr0  1  0.005808  0.329146  0.250000  1
  Pr  Pr1  1  0.329034  0.004576  0.250000  1
  Nd  Nd2  1  0.672430  0.994624  0.750000  1
  Pa  Pa3  1  0.996184  0.672854  0.750000  1
  Al  Al4  1  0.133188  0.129901  0.750000  1
  Al  Al5  1  0.870223  0.870306  0.250000  1
  Al  Al6  1  0.001972  0.334991  0.576590  1
  Al  Al7  1  0.996813  0.664260  0.425455  1
  Al  Al8  1  0.996813  0.664260  0.074545  1
  Al  Al9  1  0.337445  0.003408  0.923222  1
  Al  Al10  1  0.001972  0.334991  0.923410  1
  Al  Al11  1  0.664879  0.997718  0.074586  1
  Al  Al12  1  0.664879  0.997718  0.425414  1
  Al  Al13  1  0.337445  0.003408  0.576778  1
  Al  Al14  1  0.333808  0.333720  0.047359  1
  Al  Al15  1  0.664149  0.665074  0.951427  1
  Al  Al16  1  0.664149  0.665074  0.548573  1
  Al  Al17  1  0.333808  0.333720  0.452641  1
  Al  Al18  1  0.336458  0.547122  0.750000  1
  Al  Al19  1  0.659205  0.451321  0.250000  1
  Al  Al20  1  0.550076  0.346287  0.750000  1
  Al  Al21  1  0.452212  0.659134  0.250000  1
  Rh  Rh22  1  0.673293  0.330881  0.503209  1
  Rh  Rh23  1  0.326656  0.671474  0.503190  1
  Rh  Rh24  1  0.326656  0.671474  0.996810  1
  Rh  Rh25  1  0.673293  0.330881  0.996791  1
  Rh  Rh26  1  0.998577  0.995840  0.504649  1
  Rh  Rh27  1  0.998577  0.995840  0.995351  1
