# generated using pymatgen
data_Cs2NaAl6F21
_symmetry_space_group_name_H-M   'P 1'
_cell_length_a   7.08640020
_cell_length_b   7.08640109
_cell_length_c   10.52323772
_cell_angle_alpha   70.34636971
_cell_angle_beta   70.34636551
_cell_angle_gamma   60.07411664
_symmetry_Int_Tables_number   1
_chemical_formula_structural   Cs2NaAl6F21
_chemical_formula_sum   'Cs2 Na1 Al6 F21'
_cell_volume   422.01180758
_cell_formula_units_Z   1
loop_
 _symmetry_equiv_pos_site_id
 _symmetry_equiv_pos_as_xyz
  1  'x, y, z'
loop_
 _atom_site_type_symbol
 _atom_site_label
 _atom_site_symmetry_multiplicity
 _atom_site_fract_x
 _atom_site_fract_y
 _atom_site_fract_z
 _atom_site_occupancy
  Cs  Cs0  1  0.137560  0.130919  0.598222  1
  Cs  Cs1  1  0.869081  0.862440  0.401778  1
  Na  Na2  1  0.515545  0.484455  0.500000  1
  Al  Al3  1  0.459705  0.915466  0.187982  1
  Al  Al4  1  0.084534  0.540295  0.812018  1
  Al  Al5  1  0.959201  0.416286  0.186423  1
  Al  Al6  1  0.460671  0.415218  0.186917  1
  Al  Al7  1  0.584782  0.539329  0.813083  1
  Al  Al8  1  0.583714  0.040799  0.813577  1
  F  F9  1  0.667499  0.568255  0.631713  1
  F  F10  1  0.431745  0.332501  0.368287  1
  F  F11  1  0.166569  0.489826  0.200091  1
  F  F12  1  0.510174  0.833431  0.799909  1
  F  F13  1  0.867998  0.457088  0.829072  1
  F  F14  1  0.515859  0.959390  0.000550  1
  F  F15  1  0.756498  0.344413  0.164816  1
  F  F16  1  0.142377  0.588917  0.629511  1
  F  F17  1  0.874480  0.829851  0.814252  1
  F  F18  1  0.753271  0.709453  0.180651  1
  F  F19  1  0.655587  0.243502  0.835184  1
  F  F20  1  0.492503  0.507497  0.000000  1
  F  F21  1  0.876328  0.353870  0.367653  1
  F  F22  1  0.297597  0.624208  0.802798  1
  F  F23  1  0.411083  0.857623  0.370489  1
  F  F24  1  0.290547  0.246729  0.819349  1
  F  F25  1  0.542912  0.132002  0.170928  1
  F  F26  1  0.375792  0.702403  0.197202  1
  F  F27  1  0.170149  0.125520  0.185748  1
  F  F28  1  0.040610  0.484141  0.999450  1
  F  F29  1  0.646130  0.123672  0.632347  1
