# generated using pymatgen
data_YbLu3B12OsRu
_symmetry_space_group_name_H-M   'P 1'
_cell_length_a   3.59779000
_cell_length_b   9.05608750
_cell_length_c   11.43937339
_cell_angle_alpha   89.81953404
_cell_angle_beta   90.00000000
_cell_angle_gamma   90.00000000
_symmetry_Int_Tables_number   1
_chemical_formula_structural   YbLu3B12OsRu
_chemical_formula_sum   'Yb2 Lu6 B24 Os2 Ru2'
_cell_volume   372.71468292
_cell_formula_units_Z   2
loop_
 _symmetry_equiv_pos_site_id
 _symmetry_equiv_pos_as_xyz
  1  'x, y, z'
loop_
 _atom_site_type_symbol
 _atom_site_label
 _atom_site_symmetry_multiplicity
 _atom_site_fract_x
 _atom_site_fract_y
 _atom_site_fract_z
 _atom_site_occupancy
  Yb  Yb0  1  0.000000  0.323927  0.414270  1
  Yb  Yb1  1  0.000000  0.676073  0.585730  1
  Lu  Lu2  1  0.000000  0.821600  0.086752  1
  Lu  Lu3  1  0.000000  0.178400  0.913248  1
  Lu  Lu4  1  0.000000  0.942881  0.370338  1
  Lu  Lu5  1  0.000000  0.057119  0.629662  1
  Lu  Lu6  1  0.000000  0.442655  0.129500  1
  Lu  Lu7  1  0.000000  0.557345  0.870500  1
  B  B8  1  0.500000  0.553918  0.432410  1
  B  B9  1  0.500000  0.446082  0.567590  1
  B  B10  1  0.500000  0.053178  0.065974  1
  B  B11  1  0.500000  0.946822  0.934026  1
  B  B12  1  0.500000  0.749452  0.418175  1
  B  B13  1  0.500000  0.250548  0.581825  1
  B  B14  1  0.500000  0.248848  0.080052  1
  B  B15  1  0.500000  0.751152  0.919948  1
  B  B16  1  0.500000  0.792539  0.264026  1
  B  B17  1  0.500000  0.207461  0.735974  1
  B  B18  1  0.500000  0.290852  0.233680  1
  B  B19  1  0.500000  0.709148  0.766320  1
  B  B20  1  0.500000  0.631334  0.184048  1
  B  B21  1  0.500000  0.368666  0.815952  1
  B  B22  1  0.500000  0.130246  0.314165  1
  B  B23  1  0.500000  0.869754  0.685835  1
  B  B24  1  0.500000  0.981901  0.211595  1
  B  B25  1  0.500000  0.018099  0.788405  1
  B  B26  1  0.500000  0.482787  0.287125  1
  B  B27  1  0.500000  0.517213  0.712875  1
  B  B28  1  0.500000  0.603188  0.028385  1
  B  B29  1  0.500000  0.396812  0.971615  1
  B  B30  1  0.500000  0.098609  0.472814  1
  B  B31  1  0.500000  0.901391  0.527186  1
  Os  Os32  1  0.000000  0.640423  0.317952  1
  Os  Os33  1  0.000000  0.359577  0.682048  1
  Ru  Ru34  1  0.000000  0.136583  0.177527  1
  Ru  Ru35  1  0.000000  0.863417  0.822473  1
