# generated using pymatgen
data_TbPrDy2(WO6)2
_symmetry_space_group_name_H-M   'P 1'
_cell_length_a   5.46683800
_cell_length_b   7.79328851
_cell_length_c   11.58361579
_cell_angle_alpha   75.62531837
_cell_angle_beta   90.00000000
_cell_angle_gamma   90.00000000
_symmetry_Int_Tables_number   1
_chemical_formula_structural   TbPrDy2(WO6)2
_chemical_formula_sum   'Tb2 Pr2 Dy4 W4 O24'
_cell_volume   478.06532719
_cell_formula_units_Z   2
loop_
 _symmetry_equiv_pos_site_id
 _symmetry_equiv_pos_as_xyz
  1  'x, y, z'
loop_
 _atom_site_type_symbol
 _atom_site_label
 _atom_site_symmetry_multiplicity
 _atom_site_fract_x
 _atom_site_fract_y
 _atom_site_fract_z
 _atom_site_occupancy
  Tb  Tb0  1  0.741012  0.000000  0.750000  1
  Tb  Tb1  1  0.258988  0.000000  0.250000  1
  Pr  Pr2  1  0.685495  0.500000  0.750000  1
  Pr  Pr3  1  0.314505  0.500000  0.250000  1
  Dy  Dy4  1  0.187558  0.798015  0.576705  1
  Dy  Dy5  1  0.812442  0.798015  0.076705  1
  Dy  Dy6  1  0.187558  0.201985  0.923295  1
  Dy  Dy7  1  0.812442  0.201985  0.423295  1
  W  W8  1  0.252823  0.727573  0.884585  1
  W  W9  1  0.747177  0.727573  0.384585  1
  W  W10  1  0.252823  0.272427  0.615415  1
  W  W11  1  0.747177  0.272427  0.115415  1
  O  O12  1  0.041630  0.940831  0.896166  1
  O  O13  1  0.530133  0.846943  0.930831  1
  O  O14  1  0.958370  0.940831  0.396166  1
  O  O15  1  0.454885  0.793926  0.727837  1
  O  O16  1  0.469867  0.846943  0.430831  1
  O  O17  1  0.987221  0.719370  0.769853  1
  O  O18  1  0.545115  0.793926  0.227837  1
  O  O19  1  0.855555  0.641961  0.545108  1
  O  O20  1  0.348563  0.493982  0.887913  1
  O  O21  1  0.012779  0.719370  0.269853  1
  O  O22  1  0.348563  0.506018  0.612087  1
  O  O23  1  0.855555  0.358039  0.954892  1
  O  O24  1  0.144445  0.641961  0.045108  1
  O  O25  1  0.651437  0.493982  0.387913  1
  O  O26  1  0.987221  0.280630  0.730147  1
  O  O27  1  0.651437  0.506018  0.112087  1
  O  O28  1  0.144445  0.358039  0.454892  1
  O  O29  1  0.454885  0.206074  0.772163  1
  O  O30  1  0.012779  0.280630  0.230147  1
  O  O31  1  0.530133  0.153057  0.569169  1
  O  O32  1  0.545115  0.206074  0.272163  1
  O  O33  1  0.041630  0.059169  0.603834  1
  O  O34  1  0.469867  0.153057  0.069169  1
  O  O35  1  0.958370  0.059169  0.103834  1
