# generated using pymatgen
data_PrNd7(OsI4)2
_symmetry_space_group_name_H-M   'P 1'
_cell_length_a   10.57327254
_cell_length_b   10.57990615
_cell_length_c   6.51064002
_cell_angle_alpha   89.39080313
_cell_angle_beta   89.42111423
_cell_angle_gamma   89.70346053
_symmetry_Int_Tables_number   1
_chemical_formula_structural   PrNd7(OsI4)2
_chemical_formula_sum   'Pr1 Nd7 Os2 I8'
_cell_volume   728.22004775
_cell_formula_units_Z   1
loop_
 _symmetry_equiv_pos_site_id
 _symmetry_equiv_pos_as_xyz
  1  'x, y, z'
loop_
 _atom_site_type_symbol
 _atom_site_label
 _atom_site_symmetry_multiplicity
 _atom_site_fract_x
 _atom_site_fract_y
 _atom_site_fract_z
 _atom_site_occupancy
  Pr  Pr0  1  0.773930  0.086670  0.003253  1
  Nd  Nd1  1  0.086053  0.776579  0.503499  1
  Nd  Nd2  1  0.084659  0.222951  0.993631  1
  Nd  Nd3  1  0.223204  0.084423  0.493646  1
  Nd  Nd4  1  0.915689  0.776770  0.006391  1
  Nd  Nd5  1  0.914593  0.223356  0.496447  1
  Nd  Nd6  1  0.223523  0.914036  0.996545  1
  Nd  Nd7  1  0.777361  0.915410  0.506315  1
  Os  Os8  1  0.000264  0.999894  0.249982  1
  Os  Os9  1  0.000241  0.999942  0.749959  1
  I  I10  1  0.614206  0.173816  0.493243  1
  I  I11  1  0.827111  0.616198  0.504481  1
  I  I12  1  0.384023  0.172932  0.995522  1
  I  I13  1  0.172967  0.383842  0.495526  1
  I  I14  1  0.615702  0.825655  0.004478  1
  I  I15  1  0.385869  0.826306  0.507062  1
  I  I16  1  0.173768  0.614160  0.992944  1
  I  I17  1  0.826838  0.387061  0.007078  1
