# generated using pymatgen
data_Yb2YAg(Pt2O7)2
_symmetry_space_group_name_H-M   'P 1'
_cell_length_a   7.19658553
_cell_length_b   7.29827079
_cell_length_c   7.30045300
_cell_angle_alpha   59.99009493
_cell_angle_beta   59.52139065
_cell_angle_gamma   59.28054885
_symmetry_Int_Tables_number   1
_chemical_formula_structural   Yb2YAg(Pt2O7)2
_chemical_formula_sum   'Yb2 Y1 Ag1 Pt4 O14'
_cell_volume   268.62928041
_cell_formula_units_Z   1
loop_
 _symmetry_equiv_pos_site_id
 _symmetry_equiv_pos_as_xyz
  1  'x, y, z'
loop_
 _atom_site_type_symbol
 _atom_site_label
 _atom_site_symmetry_multiplicity
 _atom_site_fract_x
 _atom_site_fract_y
 _atom_site_fract_z
 _atom_site_occupancy
  Yb  Yb0  1  0.125000  0.125000  0.625000  1
  Yb  Yb1  1  0.125000  0.125000  0.125000  1
  Y  Y2  1  0.125000  0.625000  0.125000  1
  Ag  Ag3  1  0.625000  0.125000  0.125000  1
  Pt  Pt4  1  0.625000  0.625000  0.625000  1
  Pt  Pt5  1  0.125000  0.625000  0.625000  1
  Pt  Pt6  1  0.625000  0.625000  0.125000  1
  Pt  Pt7  1  0.625000  0.125000  0.625000  1
  O  O8  1  0.285341  0.708823  0.717259  1
  O  O9  1  0.542698  0.955219  0.956086  1
  O  O10  1  0.714572  0.699306  0.293061  1
  O  O11  1  0.287394  0.290827  0.710889  1
  O  O12  1  0.977141  0.002099  0.010381  1
  O  O13  1  0.285341  0.708823  0.288576  1
  O  O14  1  0.707302  0.294781  0.704003  1
  O  O15  1  0.964659  0.541177  0.961424  1
  O  O16  1  0.535428  0.550694  0.956939  1
  O  O17  1  0.962606  0.959173  0.539111  1
  O  O18  1  0.272859  0.247901  0.239619  1
  O  O19  1  0.542698  0.955219  0.545997  1
  O  O20  1  0.707302  0.294781  0.293914  1
  O  O21  1  0.964659  0.541177  0.532741  1
