# generated using pymatgen
data_Zr6Al16IrPt6
_symmetry_space_group_name_H-M   'P 1'
_cell_length_a   8.78183954
_cell_length_b   8.78184030
_cell_length_c   8.78184000
_cell_angle_alpha   60.00000113
_cell_angle_beta   59.99999826
_cell_angle_gamma   60.00000606
_symmetry_Int_Tables_number   1
_chemical_formula_structural   Zr6Al16IrPt6
_chemical_formula_sum   'Zr6 Al16 Ir1 Pt6'
_cell_volume   478.89640057
_cell_formula_units_Z   1
loop_
 _symmetry_equiv_pos_site_id
 _symmetry_equiv_pos_as_xyz
  1  'x, y, z'
loop_
 _atom_site_type_symbol
 _atom_site_label
 _atom_site_symmetry_multiplicity
 _atom_site_fract_x
 _atom_site_fract_y
 _atom_site_fract_z
 _atom_site_occupancy
  Zr  Zr0  1  0.687476  0.687476  0.312524  1
  Zr  Zr1  1  0.312524  0.687476  0.312524  1
  Zr  Zr2  1  0.687476  0.312524  0.312524  1
  Zr  Zr3  1  0.312524  0.312524  0.687476  1
  Zr  Zr4  1  0.687476  0.312524  0.687476  1
  Zr  Zr5  1  0.312524  0.687476  0.687476  1
  Al  Al6  1  0.881327  0.881327  0.356021  1
  Al  Al7  1  0.881327  0.356021  0.881327  1
  Al  Al8  1  0.356021  0.881327  0.881327  1
  Al  Al9  1  0.881327  0.881327  0.881327  1
  Al  Al10  1  0.118673  0.118673  0.643979  1
  Al  Al11  1  0.118673  0.643979  0.118673  1
  Al  Al12  1  0.643979  0.118673  0.118673  1
  Al  Al13  1  0.118673  0.118673  0.118673  1
  Al  Al14  1  0.664743  0.664743  0.005770  1
  Al  Al15  1  0.664743  0.005770  0.664743  1
  Al  Al16  1  0.005770  0.664743  0.664743  1
  Al  Al17  1  0.664743  0.664743  0.664743  1
  Al  Al18  1  0.335257  0.335257  0.994230  1
  Al  Al19  1  0.335257  0.994230  0.335257  1
  Al  Al20  1  0.994230  0.335257  0.335257  1
  Al  Al21  1  0.335257  0.335257  0.335257  1
  Ir  Ir22  1  0.000000  0.000000  0.000000  1
  Pt  Pt23  1  0.000000  0.000000  0.500000  1
  Pt  Pt24  1  0.500000  0.000000  0.500000  1
  Pt  Pt25  1  0.000000  0.500000  0.500000  1
  Pt  Pt26  1  0.500000  0.500000  0.000000  1
  Pt  Pt27  1  0.000000  0.500000  0.000000  1
  Pt  Pt28  1  0.500000  0.000000  0.000000  1
