# generated using pymatgen
data_Cs4Ba(TaTe4)2
_symmetry_space_group_name_H-M   'P 1'
_cell_length_a   13.49524318
_cell_length_b   13.49524423
_cell_length_c   13.49524388
_cell_angle_alpha   132.95065569
_cell_angle_beta   127.93496034
_cell_angle_gamma   72.77439829
_symmetry_Int_Tables_number   1
_chemical_formula_structural   Cs4Ba(TaTe4)2
_chemical_formula_sum   'Cs8 Ba2 Ta4 Te16'
_cell_volume   1386.40082337
_cell_formula_units_Z   2
loop_
 _symmetry_equiv_pos_site_id
 _symmetry_equiv_pos_as_xyz
  1  'x, y, z'
loop_
 _atom_site_type_symbol
 _atom_site_label
 _atom_site_symmetry_multiplicity
 _atom_site_fract_x
 _atom_site_fract_y
 _atom_site_fract_z
 _atom_site_occupancy
  Cs  Cs0  1  0.499920  0.249920  0.250000  1
  Cs  Cs1  1  0.000080  0.750080  0.250000  1
  Cs  Cs2  1  0.575828  0.693495  0.117668  1
  Cs  Cs3  1  0.424172  0.306505  0.882332  1
  Cs  Cs4  1  0.500080  0.750080  0.750000  1
  Cs  Cs5  1  0.075828  0.458160  0.382332  1
  Cs  Cs6  1  0.924172  0.541840  0.617668  1
  Cs  Cs7  1  0.999920  0.249920  0.750000  1
  Ba  Ba8  1  0.250000  0.000000  0.250000  1
  Ba  Ba9  1  0.750000  0.000000  0.750000  1
  Ta  Ta10  1  0.127883  0.929525  0.801641  1
  Ta  Ta11  1  0.872117  0.070475  0.198359  1
  Ta  Ta12  1  0.372117  0.673759  0.301641  1
  Ta  Ta13  1  0.627883  0.326241  0.698359  1
  Te  Te14  1  0.600819  0.620868  0.381938  1
  Te  Te15  1  0.753065  0.988508  0.235444  1
  Te  Te16  1  0.899126  0.860247  0.961120  1
  Te  Te17  1  0.761069  0.379132  0.979950  1
  Te  Te18  1  0.738931  0.218881  0.118062  1
  Te  Te19  1  0.746935  0.482380  0.735444  1
  Te  Te20  1  0.246935  0.011492  0.764556  1
  Te  Te21  1  0.238931  0.620868  0.020050  1
  Te  Te22  1  0.253065  0.517620  0.264556  1
  Te  Te23  1  0.261069  0.781119  0.881938  1
  Te  Te24  1  0.100874  0.139753  0.038880  1
  Te  Te25  1  0.899181  0.781119  0.520050  1
  Te  Te26  1  0.100819  0.218881  0.479950  1
  Te  Te27  1  0.600874  0.061993  0.461120  1
  Te  Te28  1  0.399181  0.379132  0.618062  1
  Te  Te29  1  0.399126  0.938007  0.538880  1
