# generated using pymatgen
data_LiEr3(Si4Tc3)2
_symmetry_space_group_name_H-M   'P 1'
_cell_length_a   6.73992980
_cell_length_b   6.56184806
_cell_length_c   6.74506485
_cell_angle_alpha   70.72435486
_cell_angle_beta   89.86972640
_cell_angle_gamma   89.88574067
_symmetry_Int_Tables_number   1
_chemical_formula_structural   LiEr3(Si4Tc3)2
_chemical_formula_sum   'Li1 Er3 Si8 Tc6'
_cell_volume   281.58608366
_cell_formula_units_Z   1
loop_
 _symmetry_equiv_pos_site_id
 _symmetry_equiv_pos_as_xyz
  1  'x, y, z'
loop_
 _atom_site_type_symbol
 _atom_site_label
 _atom_site_symmetry_multiplicity
 _atom_site_fract_x
 _atom_site_fract_y
 _atom_site_fract_z
 _atom_site_occupancy
  Li  Li0  1  0.670768  0.451020  0.185370  1
  Er  Er1  1  0.167186  0.061637  0.805696  1
  Er  Er2  1  0.335756  0.555198  0.813319  1
  Er  Er3  1  0.831049  0.941523  0.194250  1
  Si  Si4  1  0.458719  0.128318  0.106791  1
  Si  Si5  1  0.947184  0.379530  0.905293  1
  Si  Si6  1  0.548181  0.873050  0.906416  1
  Si  Si7  1  0.033872  0.616570  0.106141  1
  Si  Si8  1  0.850349  0.149438  0.495568  1
  Si  Si9  1  0.373098  0.366772  0.479975  1
  Si  Si10  1  0.138581  0.864814  0.492338  1
  Si  Si11  1  0.641132  0.622737  0.501572  1
  Tc  Tc12  1  0.501243  0.997182  0.501778  1
  Tc  Tc13  1  0.001961  0.497723  0.504020  1
  Tc  Tc14  1  0.158229  0.241932  0.236798  1
  Tc  Tc15  1  0.658233  0.250601  0.769355  1
  Tc  Tc16  1  0.842869  0.759931  0.761520  1
  Tc  Tc17  1  0.341591  0.742023  0.233800  1
