# generated using pymatgen
data_Nd2Eu5Ho13Pb16
_symmetry_space_group_name_H-M   'P 1'
_cell_length_a   8.24076973
_cell_length_b   8.34139156
_cell_length_c   15.72377200
_cell_angle_alpha   90.04951756
_cell_angle_beta   90.48540313
_cell_angle_gamma   89.62272489
_symmetry_Int_Tables_number   1
_chemical_formula_structural   Nd2Eu5Ho13Pb16
_chemical_formula_sum   'Nd2 Eu5 Ho13 Pb16'
_cell_volume   1080.78145063
_cell_formula_units_Z   1
loop_
 _symmetry_equiv_pos_site_id
 _symmetry_equiv_pos_as_xyz
  1  'x, y, z'
loop_
 _atom_site_type_symbol
 _atom_site_label
 _atom_site_symmetry_multiplicity
 _atom_site_fract_x
 _atom_site_fract_y
 _atom_site_fract_z
 _atom_site_occupancy
  Nd  Nd0  1  0.975520  0.820859  0.902865  1
  Nd  Nd1  1  0.522487  0.321628  0.094859  1
  Eu  Eu2  1  0.026375  0.181415  0.405468  1
  Eu  Eu3  1  0.529176  0.323787  0.403327  1
  Eu  Eu4  1  0.026136  0.177985  0.094862  1
  Eu  Eu5  1  0.474977  0.677449  0.905193  1
  Eu  Eu6  1  0.971609  0.820529  0.596460  1
  Ho  Ho7  1  0.631518  0.157038  0.621193  1
  Ho  Ho8  1  0.134805  0.343784  0.878811  1
  Ho  Ho9  1  0.366716  0.843654  0.120838  1
  Ho  Ho10  1  0.870927  0.654511  0.381060  1
  Ho  Ho11  1  0.369235  0.842989  0.378844  1
  Ho  Ho12  1  0.867055  0.656713  0.120640  1
  Ho  Ho13  1  0.632587  0.155634  0.876488  1
  Ho  Ho14  1  0.129900  0.344641  0.620184  1
  Ho  Ho15  1  0.468587  0.675985  0.598967  1
  Ho  Ho16  1  0.795675  0.497710  0.749397  1
  Ho  Ho17  1  0.297399  0.002974  0.748940  1
  Ho  Ho18  1  0.204554  0.503484  0.251661  1
  Ho  Ho19  1  0.704570  0.996649  0.250013  1
  Pb  Pb20  1  0.702797  0.959989  0.455694  1
  Pb  Pb21  1  0.203236  0.542480  0.044013  1
  Pb  Pb22  1  0.297663  0.040994  0.955384  1
  Pb  Pb23  1  0.786568  0.465377  0.546526  1
  Pb  Pb24  1  0.297483  0.033564  0.545501  1
  Pb  Pb25  1  0.795675  0.457734  0.955970  1
  Pb  Pb26  1  0.705059  0.960607  0.043148  1
  Pb  Pb27  1  0.213446  0.543511  0.458495  1
  Pb  Pb28  1  0.435336  0.372198  0.748765  1
  Pb  Pb29  1  0.937244  0.129509  0.750378  1
  Pb  Pb30  1  0.565239  0.627684  0.248361  1
  Pb  Pb31  1  0.063700  0.870448  0.250917  1
  Pb  Pb32  1  0.658379  0.848930  0.748709  1
  Pb  Pb33  1  0.165659  0.646167  0.750521  1
  Pb  Pb34  1  0.338396  0.146368  0.248967  1
  Pb  Pb35  1  0.834310  0.355022  0.248587  1
