# generated using pymatgen
data_Tb3YGa18Ir5Pd
_symmetry_space_group_name_H-M   'P 1'
_cell_length_a   7.60714171
_cell_length_b   7.60742947
_cell_length_c   9.49406503
_cell_angle_alpha   90.05580632
_cell_angle_beta   90.05228656
_cell_angle_gamma   119.86813738
_symmetry_Int_Tables_number   1
_chemical_formula_structural   Tb3YGa18Ir5Pd
_chemical_formula_sum   'Tb3 Y1 Ga18 Ir5 Pd1'
_cell_volume   476.44967478
_cell_formula_units_Z   1
loop_
 _symmetry_equiv_pos_site_id
 _symmetry_equiv_pos_as_xyz
  1  'x, y, z'
loop_
 _atom_site_type_symbol
 _atom_site_label
 _atom_site_symmetry_multiplicity
 _atom_site_fract_x
 _atom_site_fract_y
 _atom_site_fract_z
 _atom_site_occupancy
  Tb  Tb0  1  0.996851  0.668565  0.250973  1
  Tb  Tb1  1  0.003134  0.331456  0.749019  1
  Tb  Tb2  1  0.668579  0.996851  0.250973  1
  Y  Y3  1  0.331447  0.003154  0.749023  1
  Ga  Ga4  1  0.127678  0.127669  0.251140  1
  Ga  Ga5  1  0.872342  0.872393  0.748851  1
  Ga  Ga6  1  0.999504  0.336668  0.081992  1
  Ga  Ga7  1  0.000527  0.663359  0.918046  1
  Ga  Ga8  1  0.001131  0.666126  0.579627  1
  Ga  Ga9  1  0.333896  0.998874  0.420376  1
  Ga  Ga10  1  0.998899  0.333908  0.420358  1
  Ga  Ga11  1  0.666053  0.001092  0.579611  1
  Ga  Ga12  1  0.663294  0.000490  0.918039  1
  Ga  Ga13  1  0.336667  0.999464  0.081984  1
  Ga  Ga14  1  0.332346  0.332313  0.563884  1
  Ga  Ga15  1  0.667644  0.667656  0.436087  1
  Ga  Ga16  1  0.664475  0.664480  0.066361  1
  Ga  Ga17  1  0.335549  0.335529  0.933683  1
  Ga  Ga18  1  0.338693  0.546512  0.250276  1
  Ga  Ga19  1  0.661400  0.453521  0.749719  1
  Ga  Ga20  1  0.546489  0.338678  0.250274  1
  Ga  Ga21  1  0.453474  0.661304  0.749726  1
  Ir  Ir22  1  0.671696  0.328270  0.999984  1
  Ir  Ir23  1  0.328248  0.671661  0.999995  1
  Ir  Ir24  1  0.328509  0.671418  0.500012  1
  Ir  Ir25  1  0.671481  0.328555  0.500012  1
  Ir  Ir26  1  0.999981  0.000024  0.499979  1
  Pd  Pd27  1  0.000012  0.000011  0.999994  1
