# generated using pymatgen
data_La2Y7Er11Si15Os
_symmetry_space_group_name_H-M   'P 1'
_cell_length_a   7.40246834
_cell_length_b   7.76068831
_cell_length_c   14.57393962
_cell_angle_alpha   89.69741504
_cell_angle_beta   89.99567272
_cell_angle_gamma   89.97725578
_symmetry_Int_Tables_number   1
_chemical_formula_structural   La2Y7Er11Si15Os
_chemical_formula_sum   'La2 Y7 Er11 Si15 Os1'
_cell_volume   837.23557502
_cell_formula_units_Z   1
loop_
 _symmetry_equiv_pos_site_id
 _symmetry_equiv_pos_as_xyz
  1  'x, y, z'
loop_
 _atom_site_type_symbol
 _atom_site_label
 _atom_site_symmetry_multiplicity
 _atom_site_fract_x
 _atom_site_fract_y
 _atom_site_fract_z
 _atom_site_occupancy
  La  La0  1  0.521504  0.569950  0.342070  1
  La  La1  1  0.023673  0.427310  0.658081  1
  Y  Y2  1  0.849693  0.736000  0.499930  1
  Y  Y3  1  0.478162  0.924466  0.849007  1
  Y  Y4  1  0.974120  0.067097  0.151238  1
  Y  Y5  1  0.476547  0.924603  0.150414  1
  Y  Y6  1  0.972665  0.067904  0.849628  1
  Y  Y7  1  0.527497  0.565485  0.652541  1
  Y  Y8  1  0.026549  0.432261  0.347030  1
  Er  Er9  1  0.805514  0.577291  0.878204  1
  Er  Er10  1  0.325573  0.432602  0.122493  1
  Er  Er11  1  0.183425  0.928041  0.373201  1
  Er  Er12  1  0.682224  0.069814  0.626516  1
  Er  Er13  1  0.183508  0.927276  0.628283  1
  Er  Er14  1  0.681554  0.070677  0.372231  1
  Er  Er15  1  0.808571  0.574601  0.122551  1
  Er  Er16  1  0.328445  0.437369  0.876310  1
  Er  Er17  1  0.643429  0.241410  0.999610  1
  Er  Er18  1  0.159104  0.759738  0.000326  1
  Er  Er19  1  0.350595  0.262538  0.499851  1
  Si  Si20  1  0.017935  0.352212  0.999674  1
  Si  Si21  1  0.475986  0.861999  0.501159  1
  Si  Si22  1  0.979639  0.137700  0.498939  1
  Si  Si23  1  0.653282  0.275766  0.789587  1
  Si  Si24  1  0.147294  0.720541  0.209709  1
  Si  Si25  1  0.351309  0.215000  0.286938  1
  Si  Si26  1  0.849416  0.785049  0.713107  1
  Si  Si27  1  0.361381  0.218147  0.711669  1
  Si  Si28  1  0.858354  0.781833  0.288231  1
  Si  Si29  1  0.649883  0.268484  0.207449  1
  Si  Si30  1  0.142190  0.727589  0.792883  1
  Si  Si31  1  0.768312  0.882973  0.000326  1
  Si  Si32  1  0.259511  0.126512  0.999592  1
  Si  Si33  1  0.232366  0.625740  0.502054  1
  Si  Si34  1  0.732304  0.372438  0.498797  1
  Os  Os35  1  0.518488  0.651581  0.000368  1
