# generated using pymatgen
data_AcYb(Si7Ir3)2
_symmetry_space_group_name_H-M   'P 1'
_cell_length_a   8.11501715
_cell_length_b   8.11501832
_cell_length_c   8.11501797
_cell_angle_alpha   56.68634550
_cell_angle_beta   56.68634287
_cell_angle_gamma   56.68634644
_symmetry_Int_Tables_number   1
_chemical_formula_structural   AcYb(Si7Ir3)2
_chemical_formula_sum   'Ac1 Yb1 Si14 Ir6'
_cell_volume   348.96336773
_cell_formula_units_Z   1
loop_
 _symmetry_equiv_pos_site_id
 _symmetry_equiv_pos_as_xyz
  1  'x, y, z'
loop_
 _atom_site_type_symbol
 _atom_site_label
 _atom_site_symmetry_multiplicity
 _atom_site_fract_x
 _atom_site_fract_y
 _atom_site_fract_z
 _atom_site_occupancy
  Ac  Ac0  1  0.500000  0.500000  0.500000  1
  Yb  Yb1  1  0.000000  0.000000  0.000000  1
  Si  Si2  1  0.060523  0.854633  0.675608  1
  Si  Si3  1  0.675608  0.060523  0.854633  1
  Si  Si4  1  0.854633  0.675608  0.060523  1
  Si  Si5  1  0.170458  0.346237  0.567188  1
  Si  Si6  1  0.567188  0.170458  0.346237  1
  Si  Si7  1  0.346237  0.567188  0.170458  1
  Si  Si8  1  0.939477  0.145367  0.324392  1
  Si  Si9  1  0.324392  0.939477  0.145367  1
  Si  Si10  1  0.145367  0.324392  0.939477  1
  Si  Si11  1  0.829542  0.653763  0.432812  1
  Si  Si12  1  0.432812  0.829542  0.653763  1
  Si  Si13  1  0.653763  0.432812  0.829542  1
  Si  Si14  1  0.749600  0.749600  0.749600  1
  Si  Si15  1  0.250400  0.250400  0.250400  1
  Ir  Ir16  1  0.066668  0.752568  0.429871  1
  Ir  Ir17  1  0.429871  0.066668  0.752568  1
  Ir  Ir18  1  0.752568  0.429871  0.066668  1
  Ir  Ir19  1  0.933332  0.247432  0.570129  1
  Ir  Ir20  1  0.570129  0.933332  0.247432  1
  Ir  Ir21  1  0.247432  0.570129  0.933332  1
