# generated using pymatgen
data_Ba6TbSm(BO3)6
_symmetry_space_group_name_H-M   'P 1'
_cell_length_a   8.26464753
_cell_length_b   8.26464898
_cell_length_c   8.26464804
_cell_angle_alpha   105.59231038
_cell_angle_beta   105.59230198
_cell_angle_gamma   105.59230272
_symmetry_Int_Tables_number   1
_chemical_formula_structural   Ba6TbSm(BO3)6
_chemical_formula_sum   'Ba6 Tb1 Sm1 B6 O18'
_cell_volume   487.05823163
_cell_formula_units_Z   1
loop_
 _symmetry_equiv_pos_site_id
 _symmetry_equiv_pos_as_xyz
  1  'x, y, z'
loop_
 _atom_site_type_symbol
 _atom_site_label
 _atom_site_symmetry_multiplicity
 _atom_site_fract_x
 _atom_site_fract_y
 _atom_site_fract_z
 _atom_site_occupancy
  Ba  Ba0  1  0.351140  0.734161  0.842976  1
  Ba  Ba1  1  0.842976  0.351140  0.734161  1
  Ba  Ba2  1  0.734161  0.842976  0.351140  1
  Ba  Ba3  1  0.648860  0.265839  0.157024  1
  Ba  Ba4  1  0.157024  0.648860  0.265839  1
  Ba  Ba5  1  0.265839  0.157024  0.648860  1
  Tb  Tb6  1  0.500000  0.500000  0.500000  1
  Sm  Sm7  1  0.000000  0.000000  0.000000  1
  B  B8  1  0.708433  0.620968  0.956628  1
  B  B9  1  0.956628  0.708433  0.620968  1
  B  B10  1  0.620968  0.956628  0.708433  1
  B  B11  1  0.043372  0.291567  0.379032  1
  B  B12  1  0.379032  0.043372  0.291567  1
  B  B13  1  0.291567  0.379032  0.043372  1
  O  O14  1  0.061212  0.805300  0.549050  1
  O  O15  1  0.549050  0.061212  0.805300  1
  O  O16  1  0.427281  0.491617  0.211869  1
  O  O17  1  0.491617  0.211869  0.427281  1
  O  O18  1  0.211869  0.427281  0.491617  1
  O  O19  1  0.788131  0.572719  0.508383  1
  O  O20  1  0.572719  0.508383  0.788131  1
  O  O21  1  0.508383  0.788131  0.572719  1
  O  O22  1  0.260558  0.194017  0.983030  1
  O  O23  1  0.194017  0.983030  0.260558  1
  O  O24  1  0.983030  0.260558  0.194017  1
  O  O25  1  0.739442  0.805983  0.016970  1
  O  O26  1  0.805983  0.016970  0.739442  1
  O  O27  1  0.016970  0.739442  0.805983  1
  O  O28  1  0.194700  0.450950  0.938788  1
  O  O29  1  0.450950  0.938788  0.194700  1
  O  O30  1  0.938788  0.194700  0.450950  1
  O  O31  1  0.805300  0.549050  0.061212  1
