# generated using pymatgen
data_NdSm(P2Pd7)3
_symmetry_space_group_name_H-M   'P 1'
_cell_length_a   8.67384738
_cell_length_b   8.67384774
_cell_length_c   8.67384800
_cell_angle_alpha   59.99999900
_cell_angle_beta   59.99999763
_cell_angle_gamma   59.99999979
_symmetry_Int_Tables_number   1
_chemical_formula_structural   NdSm(P2Pd7)3
_chemical_formula_sum   'Nd1 Sm1 P6 Pd21'
_cell_volume   461.44545024
_cell_formula_units_Z   1
loop_
 _symmetry_equiv_pos_site_id
 _symmetry_equiv_pos_as_xyz
  1  'x, y, z'
loop_
 _atom_site_type_symbol
 _atom_site_label
 _atom_site_symmetry_multiplicity
 _atom_site_fract_x
 _atom_site_fract_y
 _atom_site_fract_z
 _atom_site_occupancy
  Nd  Nd0  1  0.250000  0.250000  0.250000  1
  Sm  Sm1  1  0.750000  0.750000  0.750000  1
  P  P2  1  0.740224  0.259776  0.259776  1
  P  P3  1  0.259776  0.740224  0.740224  1
  P  P4  1  0.259776  0.740224  0.259776  1
  P  P5  1  0.740224  0.259776  0.740224  1
  P  P6  1  0.259776  0.259776  0.740224  1
  P  P7  1  0.740224  0.740224  0.259776  1
  Pd  Pd8  1  0.000000  0.000000  0.000000  1
  Pd  Pd9  1  0.386347  0.386347  0.386347  1
  Pd  Pd10  1  0.614023  0.614023  0.614023  1
  Pd  Pd11  1  0.386347  0.386347  0.840958  1
  Pd  Pd12  1  0.386347  0.840958  0.386347  1
  Pd  Pd13  1  0.614023  0.614023  0.157934  1
  Pd  Pd14  1  0.614023  0.157934  0.614023  1
  Pd  Pd15  1  0.840958  0.386347  0.386347  1
  Pd  Pd16  1  0.157934  0.614023  0.614023  1
  Pd  Pd17  1  0.345768  0.999299  0.999299  1
  Pd  Pd18  1  0.655634  0.999299  0.999299  1
  Pd  Pd19  1  0.999299  0.345768  0.655634  1
  Pd  Pd20  1  0.999299  0.655634  0.345768  1
  Pd  Pd21  1  0.999299  0.345768  0.999299  1
  Pd  Pd22  1  0.655634  0.999299  0.345768  1
  Pd  Pd23  1  0.999299  0.655634  0.999299  1
  Pd  Pd24  1  0.345768  0.999299  0.655634  1
  Pd  Pd25  1  0.999299  0.999299  0.345768  1
  Pd  Pd26  1  0.999299  0.999299  0.655634  1
  Pd  Pd27  1  0.655634  0.345768  0.999299  1
  Pd  Pd28  1  0.345768  0.655634  0.999299  1
