# generated using pymatgen
data_ErCuPbS3
_symmetry_space_group_name_H-M   'P 1'
_cell_length_a   3.91051300
_cell_length_b   10.16582400
_cell_length_c   13.08156800
_cell_angle_alpha   90.00000000
_cell_angle_beta   90.00000000
_cell_angle_gamma   90.00000000
_symmetry_Int_Tables_number   1
_chemical_formula_structural   ErCuPbS3
_chemical_formula_sum   'Er4 Cu4 Pb4 S12'
_cell_volume   520.03925038
_cell_formula_units_Z   4
loop_
 _symmetry_equiv_pos_site_id
 _symmetry_equiv_pos_as_xyz
  1  'x, y, z'
loop_
 _atom_site_type_symbol
 _atom_site_label
 _atom_site_symmetry_multiplicity
 _atom_site_fract_x
 _atom_site_fract_y
 _atom_site_fract_z
 _atom_site_occupancy
  Er  Er0  1  0.750000  0.006541  0.250958  1
  Er  Er1  1  0.250000  0.993459  0.749042  1
  Er  Er2  1  0.750000  0.506541  0.249042  1
  Er  Er3  1  0.250000  0.493459  0.750958  1
  Cu  Cu4  1  0.750000  0.744079  0.719143  1
  Cu  Cu5  1  0.250000  0.255921  0.280857  1
  Cu  Cu6  1  0.750000  0.244079  0.780857  1
  Cu  Cu7  1  0.250000  0.755921  0.219143  1
  Pb  Pb8  1  0.750000  0.756540  0.003029  1
  Pb  Pb9  1  0.250000  0.243460  0.996971  1
  Pb  Pb10  1  0.750000  0.256540  0.496971  1
  Pb  Pb11  1  0.250000  0.743460  0.503029  1
  S  S12  1  0.750000  0.256037  0.175099  1
  S  S13  1  0.250000  0.743963  0.824901  1
  S  S14  1  0.750000  0.756037  0.324901  1
  S  S15  1  0.250000  0.243963  0.675099  1
  S  S16  1  0.750000  0.059089  0.885904  1
  S  S17  1  0.250000  0.940911  0.114096  1
  S  S18  1  0.750000  0.559089  0.614096  1
  S  S19  1  0.250000  0.440911  0.385904  1
  S  S20  1  0.750000  0.427587  0.886768  1
  S  S21  1  0.250000  0.572413  0.113232  1
  S  S22  1  0.750000  0.927587  0.613232  1
  S  S23  1  0.250000  0.072413  0.386768  1
