# generated using pymatgen
data_Ti2P2PdRu
_symmetry_space_group_name_H-M   'P 1'
_cell_length_a   3.71802200
_cell_length_b   6.27869900
_cell_length_c   7.27385600
_cell_angle_alpha   90.00000000
_cell_angle_beta   90.00000000
_cell_angle_gamma   90.00000000
_symmetry_Int_Tables_number   1
_chemical_formula_structural   Ti2P2PdRu
_chemical_formula_sum   'Ti4 P4 Pd2 Ru2'
_cell_volume   169.80337495
_cell_formula_units_Z   2
loop_
 _symmetry_equiv_pos_site_id
 _symmetry_equiv_pos_as_xyz
  1  'x, y, z'
loop_
 _atom_site_type_symbol
 _atom_site_label
 _atom_site_symmetry_multiplicity
 _atom_site_fract_x
 _atom_site_fract_y
 _atom_site_fract_z
 _atom_site_occupancy
  Ti  Ti0  1  0.750000  0.530361  0.325273  1
  Ti  Ti1  1  0.250000  0.972234  0.824117  1
  Ti  Ti2  1  0.750000  0.030361  0.174727  1
  Ti  Ti3  1  0.250000  0.472234  0.675883  1
  P  P4  1  0.250000  0.751599  0.114143  1
  P  P5  1  0.250000  0.251599  0.385857  1
  P  P6  1  0.750000  0.259395  0.864136  1
  P  P7  1  0.750000  0.759395  0.635864  1
  Pd  Pd8  1  0.250000  0.346152  0.068684  1
  Pd  Pd9  1  0.250000  0.846152  0.431316  1
  Ru  Ru10  1  0.750000  0.140259  0.557709  1
  Ru  Ru11  1  0.750000  0.640259  0.942291  1
