# generated using pymatgen
data_Sm2Ga9Co2Pt
_symmetry_space_group_name_H-M   'P 1'
_cell_length_a   7.50801867
_cell_length_b   7.50801794
_cell_length_c   9.47907900
_cell_angle_alpha   90.00000000
_cell_angle_beta   90.00000000
_cell_angle_gamma   119.72751342
_symmetry_Int_Tables_number   1
_chemical_formula_structural   Sm2Ga9Co2Pt
_chemical_formula_sum   'Sm4 Ga18 Co4 Pt2'
_cell_volume   464.01642089
_cell_formula_units_Z   2
loop_
 _symmetry_equiv_pos_site_id
 _symmetry_equiv_pos_as_xyz
  1  'x, y, z'
loop_
 _atom_site_type_symbol
 _atom_site_label
 _atom_site_symmetry_multiplicity
 _atom_site_fract_x
 _atom_site_fract_y
 _atom_site_fract_z
 _atom_site_occupancy
  Sm  Sm0  1  0.503249  0.834444  0.250785  1
  Sm  Sm1  1  0.496751  0.165556  0.750785  1
  Sm  Sm2  1  0.165556  0.496751  0.749215  1
  Sm  Sm3  1  0.834444  0.503249  0.249215  1
  Ga  Ga4  1  0.160013  0.955107  0.241686  1
  Ga  Ga5  1  0.839987  0.044893  0.741686  1
  Ga  Ga6  1  0.044894  0.839987  0.758314  1
  Ga  Ga7  1  0.955106  0.160013  0.258314  1
  Ga  Ga8  1  0.618720  0.618720  0.750000  1
  Ga  Ga9  1  0.381280  0.381280  0.250000  1
  Ga  Ga10  1  0.169591  0.175687  0.559121  1
  Ga  Ga11  1  0.830409  0.824313  0.059121  1
  Ga  Ga12  1  0.824313  0.830409  0.440879  1
  Ga  Ga13  1  0.175687  0.169591  0.940879  1
  Ga  Ga14  1  0.510097  0.833172  0.575043  1
  Ga  Ga15  1  0.489903  0.166828  0.075043  1
  Ga  Ga16  1  0.166828  0.489903  0.424957  1
  Ga  Ga17  1  0.833172  0.510097  0.924957  1
  Ga  Ga18  1  0.510054  0.176090  0.425291  1
  Ga  Ga19  1  0.489946  0.823910  0.925291  1
  Ga  Ga20  1  0.823910  0.489946  0.574709  1
  Ga  Ga21  1  0.176090  0.510054  0.074709  1
  Co  Co22  1  0.500182  0.499818  0.500000  1
  Co  Co23  1  0.499818  0.500182  0.000000  1
  Co  Co24  1  0.829847  0.170153  0.500000  1
  Co  Co25  1  0.170153  0.829847  0.000000  1
  Pt  Pt26  1  0.171351  0.828649  0.500000  1
  Pt  Pt27  1  0.828649  0.171351  0.000000  1
