# generated using pymatgen
data_Ac5(InSb)2
_symmetry_space_group_name_H-M   'P 1'
_cell_length_a   9.69313031
_cell_length_b   9.69313123
_cell_length_c   8.91959300
_cell_angle_alpha   90.00000000
_cell_angle_beta   90.00000000
_cell_angle_gamma   126.11465338
_symmetry_Int_Tables_number   1
_chemical_formula_structural   Ac5(InSb)2
_chemical_formula_sum   'Ac10 In4 Sb4'
_cell_volume   677.01468536
_cell_formula_units_Z   2
loop_
 _symmetry_equiv_pos_site_id
 _symmetry_equiv_pos_as_xyz
  1  'x, y, z'
loop_
 _atom_site_type_symbol
 _atom_site_label
 _atom_site_symmetry_multiplicity
 _atom_site_fract_x
 _atom_site_fract_y
 _atom_site_fract_z
 _atom_site_occupancy
  Ac  Ac0  1  0.029765  0.310373  0.331730  1
  Ac  Ac1  1  0.970235  0.689627  0.668270  1
  Ac  Ac2  1  0.470235  0.189627  0.831730  1
  Ac  Ac3  1  0.810373  0.529765  0.168270  1
  Ac  Ac4  1  0.529765  0.810373  0.168270  1
  Ac  Ac5  1  0.189627  0.470235  0.831730  1
  Ac  Ac6  1  0.689627  0.970235  0.668270  1
  Ac  Ac7  1  0.310373  0.029765  0.331730  1
  Ac  Ac8  1  0.000000  0.000000  0.000000  1
  Ac  Ac9  1  0.500000  0.500000  0.500000  1
  In  In10  1  0.380724  0.380724  0.122122  1
  In  In11  1  0.619276  0.619276  0.877878  1
  In  In12  1  0.119276  0.119276  0.622122  1
  In  In13  1  0.880724  0.880724  0.377878  1
  Sb  Sb14  1  0.798845  0.201155  0.000000  1
  Sb  Sb15  1  0.201155  0.798845  0.000000  1
  Sb  Sb16  1  0.701155  0.298845  0.500000  1
  Sb  Sb17  1  0.298845  0.701155  0.500000  1
