# generated using pymatgen
data_Ho19ErIr11Ru
_symmetry_space_group_name_H-M   'P 1'
_cell_length_a   10.81737900
_cell_length_b   10.81747100
_cell_length_c   6.37238300
_cell_angle_alpha   90.00000000
_cell_angle_beta   90.00000000
_cell_angle_gamma   90.00037076
_symmetry_Int_Tables_number   1
_chemical_formula_structural   Ho19ErIr11Ru
_chemical_formula_sum   'Ho19 Er1 Ir11 Ru1'
_cell_volume   745.67512546
_cell_formula_units_Z   1
loop_
 _symmetry_equiv_pos_site_id
 _symmetry_equiv_pos_as_xyz
  1  'x, y, z'
loop_
 _atom_site_type_symbol
 _atom_site_label
 _atom_site_symmetry_multiplicity
 _atom_site_fract_x
 _atom_site_fract_y
 _atom_site_fract_z
 _atom_site_occupancy
  Ho  Ho0  1  0.292338  0.086952  0.376221  1
  Ho  Ho1  1  0.292668  0.912978  0.879262  1
  Ho  Ho2  1  0.707332  0.087022  0.879262  1
  Ho  Ho3  1  0.707662  0.913048  0.376221  1
  Ho  Ho4  1  0.587017  0.792638  0.879230  1
  Ho  Ho5  1  0.586917  0.207771  0.376267  1
  Ho  Ho6  1  0.413083  0.792229  0.376267  1
  Ho  Ho7  1  0.412983  0.207362  0.879230  1
  Ho  Ho8  1  0.209274  0.411909  0.622428  1
  Ho  Ho9  1  0.209181  0.587940  0.122102  1
  Ho  Ho10  1  0.790819  0.412060  0.122102  1
  Ho  Ho11  1  0.790726  0.588091  0.622428  1
  Ho  Ho12  1  0.912054  0.709151  0.122072  1
  Ho  Ho13  1  0.911864  0.290833  0.622453  1
  Ho  Ho14  1  0.088136  0.709167  0.622453  1
  Ho  Ho15  1  0.087946  0.290849  0.122072  1
  Ho  Ho16  1  0.000000  0.000000  0.499311  1
  Ho  Ho17  1  0.000000  0.000000  0.999265  1
  Ho  Ho18  1  0.500000  0.500000  0.999253  1
  Er  Er19  1  0.500000  0.500000  0.499300  1
  Ir  Ir20  1  0.847023  0.153777  0.250008  1
  Ir  Ir21  1  0.847058  0.846596  0.749757  1
  Ir  Ir22  1  0.152942  0.153404  0.749757  1
  Ir  Ir23  1  0.152977  0.846223  0.250008  1
  Ir  Ir24  1  0.653265  0.347186  0.749527  1
  Ir  Ir25  1  0.653647  0.652843  0.250228  1
  Ir  Ir26  1  0.346353  0.347157  0.250228  1
  Ir  Ir27  1  0.346735  0.652814  0.749527  1
  Ir  Ir28  1  0.500000  0.000000  0.622930  1
  Ir  Ir29  1  0.000000  0.500000  0.878532  1
  Ir  Ir30  1  0.000000  0.500000  0.378640  1
  Ru  Ru31  1  0.500000  0.000000  0.123657  1
