# generated using pymatgen
data_Tb11Dy9(GaBi2)4
_symmetry_space_group_name_H-M   'P 1'
_cell_length_a   8.11866635
_cell_length_b   9.32757211
_cell_length_c   12.16786250
_cell_angle_alpha   89.98825143
_cell_angle_beta   89.96925572
_cell_angle_gamma   90.01317300
_symmetry_Int_Tables_number   1
_chemical_formula_structural   Tb11Dy9(GaBi2)4
_chemical_formula_sum   'Tb11 Dy9 Ga4 Bi8'
_cell_volume   921.44097152
_cell_formula_units_Z   1
loop_
 _symmetry_equiv_pos_site_id
 _symmetry_equiv_pos_as_xyz
  1  'x, y, z'
loop_
 _atom_site_type_symbol
 _atom_site_label
 _atom_site_symmetry_multiplicity
 _atom_site_fract_x
 _atom_site_fract_y
 _atom_site_fract_z
 _atom_site_occupancy
  Tb  Tb0  1  0.832617  0.749914  0.784882  1
  Tb  Tb1  1  0.167321  0.250084  0.215169  1
  Tb  Tb2  1  0.332596  0.250068  0.715323  1
  Tb  Tb3  1  0.667291  0.749934  0.284591  1
  Tb  Tb4  1  0.359341  0.749914  0.707262  1
  Tb  Tb5  1  0.640824  0.250088  0.292785  1
  Tb  Tb6  1  0.859130  0.250048  0.793094  1
  Tb  Tb7  1  0.140910  0.749948  0.206796  1
  Tb  Tb8  1  0.959512  0.749935  0.497887  1
  Tb  Tb9  1  0.681165  0.052884  0.563443  1
  Tb  Tb10  1  0.318791  0.947375  0.436585  1
  Dy  Dy11  1  0.040583  0.250074  0.502122  1
  Dy  Dy12  1  0.459250  0.249965  0.002068  1
  Dy  Dy13  1  0.540695  0.750042  0.997910  1
  Dy  Dy14  1  0.181146  0.947069  0.936612  1
  Dy  Dy15  1  0.318982  0.552578  0.436549  1
  Dy  Dy16  1  0.818897  0.052908  0.063383  1
  Dy  Dy17  1  0.680981  0.447177  0.563461  1
  Dy  Dy18  1  0.818960  0.447064  0.063339  1
  Dy  Dy19  1  0.181089  0.552940  0.936653  1
  Ga  Ga20  1  0.590894  0.749319  0.525516  1
  Ga  Ga21  1  0.408638  0.250667  0.474656  1
  Ga  Ga22  1  0.091377  0.249957  0.974668  1
  Ga  Ga23  1  0.908613  0.750047  0.025353  1
  Bi  Bi24  1  0.566863  0.490327  0.826316  1
  Bi  Bi25  1  0.433173  0.509624  0.173667  1
  Bi  Bi26  1  0.066988  0.509435  0.673901  1
  Bi  Bi27  1  0.433289  0.990393  0.173567  1
  Bi  Bi28  1  0.933173  0.490069  0.326060  1
  Bi  Bi29  1  0.566751  0.009651  0.826428  1
  Bi  Bi30  1  0.932970  0.009931  0.325910  1
  Bi  Bi31  1  0.067188  0.990571  0.674047  1
