# generated using pymatgen
data_U2Cu2Sb3As
_symmetry_space_group_name_H-M   'P 1'
_cell_length_a   4.27564900
_cell_length_b   4.27564900
_cell_length_c   9.51169000
_cell_angle_alpha   90.00000000
_cell_angle_beta   90.00000000
_cell_angle_gamma   90.00000000
_symmetry_Int_Tables_number   1
_chemical_formula_structural   U2Cu2Sb3As
_chemical_formula_sum   'U2 Cu2 Sb3 As1'
_cell_volume   173.88486345
_cell_formula_units_Z   1
loop_
 _symmetry_equiv_pos_site_id
 _symmetry_equiv_pos_as_xyz
  1  'x, y, z'
loop_
 _atom_site_type_symbol
 _atom_site_label
 _atom_site_symmetry_multiplicity
 _atom_site_fract_x
 _atom_site_fract_y
 _atom_site_fract_z
 _atom_site_occupancy
  U  U0  1  0.000000  0.500000  0.747194  1
  U  U1  1  0.500000  0.000000  0.259309  1
  Cu  Cu2  1  0.500000  0.500000  0.492758  1
  Cu  Cu3  1  0.000000  0.000000  0.492758  1
  Sb  Sb4  1  0.500000  0.500000  0.002458  1
  Sb  Sb5  1  0.000000  0.000000  0.002458  1
  Sb  Sb6  1  0.500000  0.000000  0.665313  1
  As  As7  1  0.000000  0.500000  0.337752  1
