# generated using pymatgen
data_TbSm5(CI5)2
_symmetry_space_group_name_H-M   'P 1'
_cell_length_a   7.81013826
_cell_length_b   9.62338184
_cell_length_c   9.71641608
_cell_angle_alpha   107.03952489
_cell_angle_beta   96.56978503
_cell_angle_gamma   104.28829626
_symmetry_Int_Tables_number   1
_chemical_formula_structural   TbSm5(CI5)2
_chemical_formula_sum   'Tb1 Sm5 C2 I10'
_cell_volume   662.74450380
_cell_formula_units_Z   1
loop_
 _symmetry_equiv_pos_site_id
 _symmetry_equiv_pos_as_xyz
  1  'x, y, z'
loop_
 _atom_site_type_symbol
 _atom_site_label
 _atom_site_symmetry_multiplicity
 _atom_site_fract_x
 _atom_site_fract_y
 _atom_site_fract_z
 _atom_site_occupancy
  Tb  Tb0  1  0.629421  0.868050  0.822373  1
  Sm  Sm1  1  0.104977  0.039132  0.778521  1
  Sm  Sm2  1  0.373303  0.132557  0.178871  1
  Sm  Sm3  1  0.893755  0.960317  0.220910  1
  Sm  Sm4  1  0.030157  0.738192  0.924044  1
  Sm  Sm5  1  0.968774  0.261667  0.075432  1
  C  C6  1  0.909505  0.969740  0.958483  1
  C  C7  1  0.087854  0.029574  0.040701  1
  I  I8  1  0.197354  0.736236  0.648187  1
  I  I9  1  0.087946  0.368000  0.820816  1
  I  I10  1  0.458285  0.808691  0.089079  1
  I  I11  1  0.253770  0.083902  0.459955  1
  I  I12  1  0.543701  0.187269  0.905294  1
  I  I13  1  0.808451  0.265331  0.354400  1
  I  I14  1  0.344244  0.455421  0.273374  1
  I  I15  1  0.912553  0.632197  0.179173  1
  I  I16  1  0.653440  0.548757  0.727120  1
  I  I17  1  0.742513  0.914964  0.543266  1
