# generated using pymatgen
data_NdIn2CoIr8
_symmetry_space_group_name_H-M   'P 1'
_cell_length_a   5.21298200
_cell_length_b   8.80596400
_cell_length_c   8.80596400
_cell_angle_alpha   90.00000000
_cell_angle_beta   90.00000000
_cell_angle_gamma   90.00000000
_symmetry_Int_Tables_number   1
_chemical_formula_structural   NdIn2CoIr8
_chemical_formula_sum   'Nd2 In4 Co2 Ir16'
_cell_volume   404.24069946
_cell_formula_units_Z   2
loop_
 _symmetry_equiv_pos_site_id
 _symmetry_equiv_pos_as_xyz
  1  'x, y, z'
loop_
 _atom_site_type_symbol
 _atom_site_label
 _atom_site_symmetry_multiplicity
 _atom_site_fract_x
 _atom_site_fract_y
 _atom_site_fract_z
 _atom_site_occupancy
  Nd  Nd0  1  0.000000  0.500000  0.500000  1
  Nd  Nd1  1  0.000000  0.000000  0.000000  1
  In  In2  1  0.000000  0.623767  0.123767  1
  In  In3  1  0.000000  0.376233  0.876233  1
  In  In4  1  0.000000  0.876233  0.623767  1
  In  In5  1  0.000000  0.123767  0.376233  1
  Co  Co6  1  0.500000  0.000000  0.500000  1
  Co  Co7  1  0.500000  0.500000  0.000000  1
  Ir  Ir8  1  0.755813  0.172882  0.672882  1
  Ir  Ir9  1  0.755813  0.827118  0.327118  1
  Ir  Ir10  1  0.755813  0.327118  0.172882  1
  Ir  Ir11  1  0.755813  0.672882  0.827118  1
  Ir  Ir12  1  0.244187  0.827118  0.327118  1
  Ir  Ir13  1  0.244187  0.172882  0.672882  1
  Ir  Ir14  1  0.244187  0.672882  0.827118  1
  Ir  Ir15  1  0.244187  0.327118  0.172882  1
  Ir  Ir16  1  0.500000  0.708385  0.564265  1
  Ir  Ir17  1  0.500000  0.291615  0.435735  1
  Ir  Ir18  1  0.500000  0.791615  0.064265  1
  Ir  Ir19  1  0.500000  0.208385  0.935735  1
  Ir  Ir20  1  0.500000  0.564265  0.291615  1
  Ir  Ir21  1  0.500000  0.435735  0.708385  1
  Ir  Ir22  1  0.500000  0.064265  0.208385  1
  Ir  Ir23  1  0.500000  0.935735  0.791615  1
