# generated using pymatgen
data_ErSc15(Ga3Tc)2
_symmetry_space_group_name_H-M   'P 1'
_cell_length_a   9.51782000
_cell_length_b   9.48270855
_cell_length_c   6.46402507
_cell_angle_alpha   89.98645641
_cell_angle_beta   90.00000000
_cell_angle_gamma   120.12256647
_symmetry_Int_Tables_number   1
_chemical_formula_structural   ErSc15(Ga3Tc)2
_chemical_formula_sum   'Er1 Sc15 Ga6 Tc2'
_cell_volume   504.62159410
_cell_formula_units_Z   1
loop_
 _symmetry_equiv_pos_site_id
 _symmetry_equiv_pos_as_xyz
  1  'x, y, z'
loop_
 _atom_site_type_symbol
 _atom_site_label
 _atom_site_symmetry_multiplicity
 _atom_site_fract_x
 _atom_site_fract_y
 _atom_site_fract_z
 _atom_site_occupancy
  Er  Er0  1  0.526846  0.053690  0.794513  1
  Sc  Sc1  1  0.999792  0.999583  0.269941  1
  Sc  Sc2  1  0.000278  0.000556  0.771624  1
  Sc  Sc3  1  0.168610  0.825303  0.999915  1
  Sc  Sc4  1  0.830096  0.173339  0.492512  1
  Sc  Sc5  1  0.174410  0.348820  0.997462  1
  Sc  Sc6  1  0.656694  0.825303  0.999915  1
  Sc  Sc7  1  0.343243  0.173339  0.492512  1
  Sc  Sc8  1  0.827877  0.655754  0.496652  1
  Sc  Sc9  1  0.331447  0.662895  0.653652  1
  Sc  Sc10  1  0.668006  0.336011  0.158110  1
  Sc  Sc11  1  0.473128  0.528819  0.297034  1
  Sc  Sc12  1  0.527604  0.471739  0.795060  1
  Sc  Sc13  1  0.469787  0.939576  0.293934  1
  Sc  Sc14  1  0.055689  0.528819  0.297034  1
  Sc  Sc15  1  0.944138  0.471739  0.795060  1
  Ga  Ga16  1  0.163552  0.835642  0.536075  1
  Ga  Ga17  1  0.840432  0.164498  0.038064  1
  Ga  Ga18  1  0.163860  0.327720  0.534438  1
  Ga  Ga19  1  0.672090  0.835642  0.536075  1
  Ga  Ga20  1  0.324066  0.164498  0.038064  1
  Ga  Ga21  1  0.835861  0.671723  0.033231  1
  Tc  Tc22  1  0.334082  0.668165  0.064369  1
  Tc  Tc23  1  0.668413  0.336826  0.560872  1
