# generated using pymatgen
data_Zr6Zn19SiRh4
_symmetry_space_group_name_H-M   'P 1'
_cell_length_a   8.74494891
_cell_length_b   8.79244573
_cell_length_c   8.79244584
_cell_angle_alpha   59.68050754
_cell_angle_beta   59.86948022
_cell_angle_gamma   59.86948208
_symmetry_Int_Tables_number   1
_chemical_formula_structural   Zr6Zn19SiRh4
_chemical_formula_sum   'Zr6 Zn19 Si1 Rh4'
_cell_volume   475.93385589
_cell_formula_units_Z   1
loop_
 _symmetry_equiv_pos_site_id
 _symmetry_equiv_pos_as_xyz
  1  'x, y, z'
loop_
 _atom_site_type_symbol
 _atom_site_label
 _atom_site_symmetry_multiplicity
 _atom_site_fract_x
 _atom_site_fract_y
 _atom_site_fract_z
 _atom_site_occupancy
  Zr  Zr0  1  0.709201  0.286453  0.286453  1
  Zr  Zr1  1  0.290799  0.713547  0.713547  1
  Zr  Zr2  1  0.287072  0.719120  0.281505  1
  Zr  Zr3  1  0.712928  0.280880  0.718495  1
  Zr  Zr4  1  0.287072  0.281505  0.719120  1
  Zr  Zr5  1  0.712928  0.718495  0.280880  1
  Zn  Zn6  1  0.123827  0.116674  0.632726  1
  Zn  Zn7  1  0.123827  0.632726  0.116674  1
  Zn  Zn8  1  0.876173  0.883326  0.367274  1
  Zn  Zn9  1  0.876173  0.367274  0.883326  1
  Zn  Zn10  1  0.627468  0.123855  0.123855  1
  Zn  Zn11  1  0.372532  0.876145  0.876145  1
  Zn  Zn12  1  0.500000  0.000000  0.000000  1
  Zn  Zn13  1  0.000000  0.500000  0.500000  1
  Zn  Zn14  1  0.000000  0.500000  0.000000  1
  Zn  Zn15  1  0.000000  0.000000  0.500000  1
  Zn  Zn16  1  0.333886  0.340065  0.340065  1
  Zn  Zn17  1  0.666114  0.659935  0.659935  1
  Zn  Zn18  1  0.331972  0.332579  0.996028  1
  Zn  Zn19  1  0.331972  0.996028  0.332579  1
  Zn  Zn20  1  0.668028  0.667421  0.003972  1
  Zn  Zn21  1  0.668028  0.003972  0.667421  1
  Zn  Zn22  1  0.988411  0.333409  0.333409  1
  Zn  Zn23  1  0.011589  0.666591  0.666591  1
  Zn  Zn24  1  0.000000  0.000000  0.000000  1
  Si  Si25  1  0.500000  0.500000  0.500000  1
  Rh  Rh26  1  0.117043  0.120144  0.120144  1
  Rh  Rh27  1  0.882957  0.879856  0.879856  1
  Rh  Rh28  1  0.500000  0.000000  0.500000  1
  Rh  Rh29  1  0.500000  0.500000  0.000000  1
