# generated using pymatgen
data_Nd(AlFe)6
_symmetry_space_group_name_H-M   'P 1'
_cell_length_a   5.00696966
_cell_length_b   6.61559229
_cell_length_c   6.61559183
_cell_angle_alpha   98.94893201
_cell_angle_beta   112.23595988
_cell_angle_gamma   67.76403846
_symmetry_Int_Tables_number   1
_chemical_formula_structural   Nd(AlFe)6
_chemical_formula_sum   'Nd1 Al6 Fe6'
_cell_volume   187.73496516
_cell_formula_units_Z   1
loop_
 _symmetry_equiv_pos_site_id
 _symmetry_equiv_pos_as_xyz
  1  'x, y, z'
loop_
 _atom_site_type_symbol
 _atom_site_label
 _atom_site_symmetry_multiplicity
 _atom_site_fract_x
 _atom_site_fract_y
 _atom_site_fract_z
 _atom_site_occupancy
  Nd  Nd0  1  0.000000  0.000000  0.000000  1
  Al  Al1  1  0.651365  0.348635  0.651365  1
  Al  Al2  1  0.348635  0.651365  0.348635  1
  Al  Al3  1  0.000000  0.339648  0.339648  1
  Al  Al4  1  0.000000  0.660352  0.660352  1
  Al  Al5  1  0.695651  0.804349  0.195651  1
  Al  Al6  1  0.304349  0.195651  0.804349  1
  Fe  Fe7  1  0.500000  0.000000  0.500000  1
  Fe  Fe8  1  0.000000  0.000000  0.500000  1
  Fe  Fe9  1  0.500000  0.500000  0.000000  1
  Fe  Fe10  1  0.000000  0.500000  0.000000  1
  Fe  Fe11  1  0.500000  0.757216  0.757216  1
  Fe  Fe12  1  0.500000  0.242784  0.242784  1
