# generated using pymatgen
data_Tb5Dy(CI5)2
_symmetry_space_group_name_H-M   'P 1'
_cell_length_a   7.68581617
_cell_length_b   9.52907568
_cell_length_c   9.60891512
_cell_angle_alpha   107.02715474
_cell_angle_beta   96.52250736
_cell_angle_gamma   104.34312396
_symmetry_Int_Tables_number   1
_chemical_formula_structural   Tb5Dy(CI5)2
_chemical_formula_sum   'Tb5 Dy1 C2 I10'
_cell_volume   638.62664964
_cell_formula_units_Z   1
loop_
 _symmetry_equiv_pos_site_id
 _symmetry_equiv_pos_as_xyz
  1  'x, y, z'
loop_
 _atom_site_type_symbol
 _atom_site_label
 _atom_site_symmetry_multiplicity
 _atom_site_fract_x
 _atom_site_fract_y
 _atom_site_fract_z
 _atom_site_occupancy
  Tb  Tb0  1  0.103460  0.038191  0.781300  1
  Tb  Tb1  1  0.374700  0.132085  0.177608  1
  Tb  Tb2  1  0.896505  0.961807  0.218671  1
  Tb  Tb3  1  0.028565  0.742327  0.925216  1
  Tb  Tb4  1  0.971416  0.257684  0.074793  1
  Dy  Dy5  1  0.626004  0.868018  0.822638  1
  C  C6  1  0.908120  0.969822  0.958505  1
  C  C7  1  0.090985  0.029882  0.041089  1
  I  I8  1  0.191821  0.735892  0.648319  1
  I  I9  1  0.087267  0.364698  0.821989  1
  I  I10  1  0.456364  0.809635  0.093170  1
  I  I11  1  0.254911  0.084759  0.458304  1
  I  I12  1  0.543816  0.190048  0.906414  1
  I  I13  1  0.808613  0.264218  0.351832  1
  I  I14  1  0.345635  0.453357  0.272925  1
  I  I15  1  0.912731  0.635303  0.178008  1
  I  I16  1  0.654235  0.547120  0.727173  1
  I  I17  1  0.744853  0.915154  0.542047  1
