# generated using pymatgen
data_Dy2Er3InBi2
_symmetry_space_group_name_H-M   'P 1'
_cell_length_a   9.04388548
_cell_length_b   9.04388615
_cell_length_c   6.47716400
_cell_angle_alpha   90.00000000
_cell_angle_beta   90.00000000
_cell_angle_gamma   119.72214095
_symmetry_Int_Tables_number   1
_chemical_formula_structural   Dy2Er3InBi2
_chemical_formula_sum   'Dy4 Er6 In2 Bi4'
_cell_volume   460.08158096
_cell_formula_units_Z   2
loop_
 _symmetry_equiv_pos_site_id
 _symmetry_equiv_pos_as_xyz
  1  'x, y, z'
loop_
 _atom_site_type_symbol
 _atom_site_label
 _atom_site_symmetry_multiplicity
 _atom_site_fract_x
 _atom_site_fract_y
 _atom_site_fract_z
 _atom_site_occupancy
  Dy  Dy0  1  0.762106  0.762106  0.750000  1
  Dy  Dy1  1  0.234493  0.997742  0.750000  1
  Dy  Dy2  1  0.997742  0.234493  0.750000  1
  Dy  Dy3  1  0.234036  0.234036  0.250000  1
  Er  Er4  1  0.669073  0.329021  0.003881  1
  Er  Er5  1  0.329021  0.669073  0.003881  1
  Er  Er6  1  0.329021  0.669073  0.496119  1
  Er  Er7  1  0.669073  0.329021  0.496119  1
  Er  Er8  1  0.766023  0.008860  0.250000  1
  Er  Er9  1  0.008860  0.766023  0.250000  1
  In  In10  1  0.396976  0.001787  0.250000  1
  In  In11  1  0.001787  0.396976  0.250000  1
  Bi  Bi12  1  0.393921  0.393921  0.750000  1
  Bi  Bi13  1  0.601876  0.996746  0.750000  1
  Bi  Bi14  1  0.996746  0.601876  0.750000  1
  Bi  Bi15  1  0.609244  0.609244  0.250000  1
