# generated using pymatgen
data_Ho4Mn7Fe13P12
_symmetry_space_group_name_H-M   'P 1'
_cell_length_a   3.64166700
_cell_length_b   10.25676677
_cell_length_c   12.12303101
_cell_angle_alpha   89.97976890
_cell_angle_beta   90.00000000
_cell_angle_gamma   90.00000000
_symmetry_Int_Tables_number   1
_chemical_formula_structural   Ho4Mn7Fe13P12
_chemical_formula_sum   'Ho4 Mn7 Fe13 P12'
_cell_volume   452.81614154
_cell_formula_units_Z   1
loop_
 _symmetry_equiv_pos_site_id
 _symmetry_equiv_pos_as_xyz
  1  'x, y, z'
loop_
 _atom_site_type_symbol
 _atom_site_label
 _atom_site_symmetry_multiplicity
 _atom_site_fract_x
 _atom_site_fract_y
 _atom_site_fract_z
 _atom_site_occupancy
  Ho  Ho0  1  0.250000  0.579876  0.710326  1
  Ho  Ho1  1  0.250000  0.919314  0.210729  1
  Ho  Ho2  1  0.750000  0.419663  0.289466  1
  Ho  Ho3  1  0.750000  0.080153  0.789646  1
  Mn  Mn4  1  0.250000  0.705542  0.991862  1
  Mn  Mn5  1  0.250000  0.794409  0.491301  1
  Mn  Mn6  1  0.750000  0.293471  0.007203  1
  Mn  Mn7  1  0.750000  0.205847  0.507634  1
  Mn  Mn8  1  0.250000  0.408443  0.490048  1
  Mn  Mn9  1  0.250000  0.091811  0.991150  1
  Mn  Mn10  1  0.750000  0.591612  0.509538  1
  Fe  Fe11  1  0.750000  0.910636  0.010909  1
  Fe  Fe12  1  0.250000  0.219478  0.170964  1
  Fe  Fe13  1  0.250000  0.279402  0.671373  1
  Fe  Fe14  1  0.750000  0.778824  0.828618  1
  Fe  Fe15  1  0.750000  0.720776  0.328231  1
  Fe  Fe16  1  0.250000  0.877017  0.695996  1
  Fe  Fe17  1  0.250000  0.623831  0.194891  1
  Fe  Fe18  1  0.750000  0.123293  0.304250  1
  Fe  Fe19  1  0.750000  0.377096  0.804243  1
  Fe  Fe20  1  0.250000  0.462534  0.936221  1
  Fe  Fe21  1  0.250000  0.037480  0.436131  1
  Fe  Fe22  1  0.750000  0.537419  0.064271  1
  Fe  Fe23  1  0.750000  0.962221  0.564302  1
  P  P24  1  0.250000  0.423222  0.113421  1
  P  P25  1  0.250000  0.076582  0.613266  1
  P  P26  1  0.750000  0.576009  0.886800  1
  P  P27  1  0.750000  0.923662  0.386755  1
  P  P28  1  0.250000  0.269304  0.859878  1
  P  P29  1  0.250000  0.231407  0.360886  1
  P  P30  1  0.750000  0.731920  0.139142  1
  P  P31  1  0.750000  0.768492  0.639760  1
  P  P32  1  0.250000  0.602741  0.380553  1
  P  P33  1  0.250000  0.896318  0.881494  1
  P  P34  1  0.750000  0.397189  0.618739  1
  P  P35  1  0.750000  0.103004  0.120005  1
