# generated using pymatgen
data_Dy4ScIr2Rh
_symmetry_space_group_name_H-M   'P 1'
_cell_length_a   10.74297000
_cell_length_b   10.74297000
_cell_length_c   6.30192700
_cell_angle_alpha   90.00000000
_cell_angle_beta   90.00000000
_cell_angle_gamma   90.00000000
_symmetry_Int_Tables_number   1
_chemical_formula_structural   Dy4ScIr2Rh
_chemical_formula_sum   'Dy16 Sc4 Ir8 Rh4'
_cell_volume   727.31424563
_cell_formula_units_Z   4
loop_
 _symmetry_equiv_pos_site_id
 _symmetry_equiv_pos_as_xyz
  1  'x, y, z'
loop_
 _atom_site_type_symbol
 _atom_site_label
 _atom_site_symmetry_multiplicity
 _atom_site_fract_x
 _atom_site_fract_y
 _atom_site_fract_z
 _atom_site_occupancy
  Dy  Dy0  1  0.286831  0.086768  0.379081  1
  Dy  Dy1  1  0.286831  0.913232  0.879081  1
  Dy  Dy2  1  0.713169  0.086768  0.879081  1
  Dy  Dy3  1  0.713169  0.913232  0.379081  1
  Dy  Dy4  1  0.586768  0.786831  0.879081  1
  Dy  Dy5  1  0.586768  0.213169  0.379081  1
  Dy  Dy6  1  0.413232  0.786831  0.379081  1
  Dy  Dy7  1  0.413232  0.213169  0.879081  1
  Dy  Dy8  1  0.213169  0.413232  0.620919  1
  Dy  Dy9  1  0.213169  0.586768  0.120919  1
  Dy  Dy10  1  0.786831  0.413232  0.120919  1
  Dy  Dy11  1  0.786831  0.586768  0.620919  1
  Dy  Dy12  1  0.913232  0.713169  0.120919  1
  Dy  Dy13  1  0.913232  0.286831  0.620919  1
  Dy  Dy14  1  0.086768  0.713169  0.620919  1
  Dy  Dy15  1  0.086768  0.286831  0.120919  1
  Sc  Sc16  1  0.000000  0.000000  0.500000  1
  Sc  Sc17  1  0.000000  0.000000  0.000000  1
  Sc  Sc18  1  0.500000  0.500000  0.000000  1
  Sc  Sc19  1  0.500000  0.500000  0.500000  1
  Ir  Ir20  1  0.852189  0.147811  0.250000  1
  Ir  Ir21  1  0.852189  0.852189  0.750000  1
  Ir  Ir22  1  0.147811  0.147811  0.750000  1
  Ir  Ir23  1  0.147811  0.852189  0.250000  1
  Ir  Ir24  1  0.647811  0.352189  0.750000  1
  Ir  Ir25  1  0.647811  0.647811  0.250000  1
  Ir  Ir26  1  0.352189  0.352189  0.250000  1
  Ir  Ir27  1  0.352189  0.647811  0.750000  1
  Rh  Rh28  1  0.500000  0.000000  0.123699  1
  Rh  Rh29  1  0.500000  0.000000  0.623699  1
  Rh  Rh30  1  0.000000  0.500000  0.876301  1
  Rh  Rh31  1  0.000000  0.500000  0.376301  1
