# generated using pymatgen
data_Er2Mn3Co3Ni6P7
_symmetry_space_group_name_H-M   'P 1'
_cell_length_a   9.05994000
_cell_length_b   9.05994033
_cell_length_c   3.63088400
_cell_angle_alpha   90.00000000
_cell_angle_beta   90.00000000
_cell_angle_gamma   120.00000610
_symmetry_Int_Tables_number   1
_chemical_formula_structural   Er2Mn3Co3Ni6P7
_chemical_formula_sum   'Er2 Mn3 Co3 Ni6 P7'
_cell_volume   258.10334804
_cell_formula_units_Z   1
loop_
 _symmetry_equiv_pos_site_id
 _symmetry_equiv_pos_as_xyz
  1  'x, y, z'
loop_
 _atom_site_type_symbol
 _atom_site_label
 _atom_site_symmetry_multiplicity
 _atom_site_fract_x
 _atom_site_fract_y
 _atom_site_fract_z
 _atom_site_occupancy
  Er  Er0  1  0.333333  0.666667  0.000000  1
  Er  Er1  1  0.000000  0.000000  0.500000  1
  Mn  Mn2  1  0.788438  0.236562  0.500000  1
  Mn  Mn3  1  0.763438  0.551876  0.500000  1
  Mn  Mn4  1  0.448124  0.211562  0.500000  1
  Co  Co5  1  0.544789  0.056153  0.000000  1
  Co  Co6  1  0.943847  0.488637  0.000000  1
  Co  Co7  1  0.511363  0.455211  0.000000  1
  Ni  Ni8  1  0.039557  0.269538  0.000000  1
  Ni  Ni9  1  0.730462  0.770020  0.000000  1
  Ni  Ni10  1  0.229980  0.960443  0.000000  1
  Ni  Ni11  1  0.613618  0.894546  0.500000  1
  Ni  Ni12  1  0.105454  0.719072  0.500000  1
  Ni  Ni13  1  0.280928  0.386382  0.500000  1
  P  P14  1  0.779105  0.040117  0.000000  1
  P  P15  1  0.959883  0.738988  0.000000  1
  P  P16  1  0.261012  0.220895  0.000000  1
  P  P17  1  0.380088  0.931038  0.500000  1
  P  P18  1  0.068962  0.449051  0.500000  1
  P  P19  1  0.550949  0.619912  0.500000  1
  P  P20  1  0.666667  0.333333  0.000000  1
