# generated using pymatgen
data_Pr15Th(CdOs)4
_symmetry_space_group_name_H-M   'P 1'
_cell_length_a   10.06643117
_cell_length_b   10.06642991
_cell_length_c   10.06643117
_cell_angle_alpha   59.38463500
_cell_angle_beta   59.38463976
_cell_angle_gamma   59.38463425
_symmetry_Int_Tables_number   1
_chemical_formula_structural   Pr15Th(CdOs)4
_chemical_formula_sum   'Pr15 Th1 Cd4 Os4'
_cell_volume   711.19115062
_cell_formula_units_Z   1
loop_
 _symmetry_equiv_pos_site_id
 _symmetry_equiv_pos_as_xyz
  1  'x, y, z'
loop_
 _atom_site_type_symbol
 _atom_site_label
 _atom_site_symmetry_multiplicity
 _atom_site_fract_x
 _atom_site_fract_y
 _atom_site_fract_z
 _atom_site_occupancy
  Pr  Pr0  1  0.345856  0.345856  0.960594  1
  Pr  Pr1  1  0.345856  0.960594  0.345856  1
  Pr  Pr2  1  0.960594  0.345856  0.345856  1
  Pr  Pr3  1  0.809234  0.191475  0.191475  1
  Pr  Pr4  1  0.192076  0.809675  0.809675  1
  Pr  Pr5  1  0.191475  0.809234  0.191475  1
  Pr  Pr6  1  0.809675  0.192076  0.809675  1
  Pr  Pr7  1  0.191475  0.191475  0.809234  1
  Pr  Pr8  1  0.809675  0.809675  0.192076  1
  Pr  Pr9  1  0.941032  0.559710  0.559710  1
  Pr  Pr10  1  0.559145  0.941387  0.941387  1
  Pr  Pr11  1  0.559710  0.941032  0.559710  1
  Pr  Pr12  1  0.941387  0.559145  0.941387  1
  Pr  Pr13  1  0.559710  0.559710  0.941032  1
  Pr  Pr14  1  0.941387  0.941387  0.559145  1
  Th  Th15  1  0.341305  0.341305  0.341305  1
  Cd  Cd16  1  0.578926  0.578926  0.578926  1
  Cd  Cd17  1  0.577705  0.577705  0.261646  1
  Cd  Cd18  1  0.577705  0.261646  0.577705  1
  Cd  Cd19  1  0.261646  0.577705  0.577705  1
  Os  Os20  1  0.138522  0.138522  0.138522  1
  Os  Os21  1  0.143794  0.143794  0.578310  1
  Os  Os22  1  0.143794  0.578310  0.143794  1
  Os  Os23  1  0.578310  0.143794  0.143794  1
