# generated using pymatgen
data_YTh3(PdPt)6
_symmetry_space_group_name_H-M   'P 1'
_cell_length_a   5.92501000
_cell_length_b   5.92500985
_cell_length_c   9.79938900
_cell_angle_alpha   90.00000000
_cell_angle_beta   90.00000000
_cell_angle_gamma   120.00000086
_symmetry_Int_Tables_number   1
_chemical_formula_structural   YTh3(PdPt)6
_chemical_formula_sum   'Y1 Th3 Pd6 Pt6'
_cell_volume   297.92557754
_cell_formula_units_Z   1
loop_
 _symmetry_equiv_pos_site_id
 _symmetry_equiv_pos_as_xyz
  1  'x, y, z'
loop_
 _atom_site_type_symbol
 _atom_site_label
 _atom_site_symmetry_multiplicity
 _atom_site_fract_x
 _atom_site_fract_y
 _atom_site_fract_z
 _atom_site_occupancy
  Y  Y0  1  0.000000  0.000000  0.500000  1
  Th  Th1  1  0.000000  0.000000  0.000000  1
  Th  Th2  1  0.333333  0.666667  0.253882  1
  Th  Th3  1  0.666667  0.333333  0.746118  1
  Pd  Pd4  1  0.825759  0.651520  0.250271  1
  Pd  Pd5  1  0.348480  0.174241  0.250271  1
  Pd  Pd6  1  0.825759  0.174241  0.250271  1
  Pd  Pd7  1  0.174241  0.348480  0.749729  1
  Pd  Pd8  1  0.651520  0.825759  0.749729  1
  Pd  Pd9  1  0.174241  0.825759  0.749729  1
  Pt  Pt10  1  0.500000  0.500000  0.500000  1
  Pt  Pt11  1  0.500000  0.000000  0.500000  1
  Pt  Pt12  1  0.000000  0.500000  0.500000  1
  Pt  Pt13  1  0.500000  0.500000  0.000000  1
  Pt  Pt14  1  0.500000  0.000000  0.000000  1
  Pt  Pt15  1  0.000000  0.500000  0.000000  1
