# generated using pymatgen
data_LuInNi3Pt
_symmetry_space_group_name_H-M   'P 1'
_cell_length_a   5.14751518
_cell_length_b   5.14751551
_cell_length_c   5.14751614
_cell_angle_alpha   57.85533638
_cell_angle_beta   57.85533016
_cell_angle_gamma   57.85532879
_symmetry_Int_Tables_number   1
_chemical_formula_structural   LuInNi3Pt
_chemical_formula_sum   'Lu1 In1 Ni3 Pt1'
_cell_volume   91.69623214
_cell_formula_units_Z   1
loop_
 _symmetry_equiv_pos_site_id
 _symmetry_equiv_pos_as_xyz
  1  'x, y, z'
loop_
 _atom_site_type_symbol
 _atom_site_label
 _atom_site_symmetry_multiplicity
 _atom_site_fract_x
 _atom_site_fract_y
 _atom_site_fract_z
 _atom_site_occupancy
  Lu  Lu0  1  0.248539  0.248539  0.248539  1
  In  In1  1  0.006715  0.006715  0.006715  1
  Ni  Ni2  1  0.624411  0.624411  0.121968  1
  Ni  Ni3  1  0.624411  0.121968  0.624411  1
  Ni  Ni4  1  0.121968  0.624411  0.624411  1
  Pt  Pt5  1  0.623956  0.623956  0.623956  1
