# generated using pymatgen
data_NaDy3Bi6Rh7
_symmetry_space_group_name_H-M   'P 1'
_cell_length_a   7.80201501
_cell_length_b   7.80201420
_cell_length_c   7.72246100
_cell_angle_alpha   109.26480265
_cell_angle_beta   109.26480057
_cell_angle_gamma   109.67684433
_symmetry_Int_Tables_number   1
_chemical_formula_structural   NaDy3Bi6Rh7
_chemical_formula_sum   'Na1 Dy3 Bi6 Rh7'
_cell_volume   362.78339173
_cell_formula_units_Z   1
loop_
 _symmetry_equiv_pos_site_id
 _symmetry_equiv_pos_as_xyz
  1  'x, y, z'
loop_
 _atom_site_type_symbol
 _atom_site_label
 _atom_site_symmetry_multiplicity
 _atom_site_fract_x
 _atom_site_fract_y
 _atom_site_fract_z
 _atom_site_occupancy
  Na  Na0  1  0.000000  0.000000  0.500000  1
  Dy  Dy1  1  0.500000  0.000000  0.000000  1
  Dy  Dy2  1  0.000000  0.500000  0.000000  1
  Dy  Dy3  1  0.500000  0.500000  0.500000  1
  Bi  Bi4  1  0.307594  0.000000  0.320964  1
  Bi  Bi5  1  0.000000  0.692406  0.679036  1
  Bi  Bi6  1  0.692406  0.692406  0.013371  1
  Bi  Bi7  1  0.692406  0.000000  0.679036  1
  Bi  Bi8  1  0.000000  0.307594  0.320964  1
  Bi  Bi9  1  0.307594  0.307594  0.986629  1
  Rh  Rh10  1  0.258195  0.516390  0.758195  1
  Rh  Rh11  1  0.516390  0.258195  0.758195  1
  Rh  Rh12  1  0.741805  0.258195  0.500000  1
  Rh  Rh13  1  0.483610  0.741805  0.241805  1
  Rh  Rh14  1  0.000000  0.000000  0.000000  1
  Rh  Rh15  1  0.258195  0.741805  0.500000  1
  Rh  Rh16  1  0.741805  0.483610  0.241805  1
