# generated using pymatgen
data_Yb2Co6Ni6As7
_symmetry_space_group_name_H-M   'P 1'
_cell_length_a   9.38766200
_cell_length_b   9.38766083
_cell_length_c   3.71677900
_cell_angle_alpha   90.00000000
_cell_angle_beta   90.00000000
_cell_angle_gamma   119.99999708
_symmetry_Int_Tables_number   1
_chemical_formula_structural   Yb2Co6Ni6As7
_chemical_formula_sum   'Yb2 Co6 Ni6 As7'
_cell_volume   283.66922238
_cell_formula_units_Z   1
loop_
 _symmetry_equiv_pos_site_id
 _symmetry_equiv_pos_as_xyz
  1  'x, y, z'
loop_
 _atom_site_type_symbol
 _atom_site_label
 _atom_site_symmetry_multiplicity
 _atom_site_fract_x
 _atom_site_fract_y
 _atom_site_fract_z
 _atom_site_occupancy
  Yb  Yb0  1  0.666667  0.333333  0.000000  1
  Yb  Yb1  1  0.000000  0.000000  0.500000  1
  Co  Co2  1  0.770695  0.720733  0.000000  1
  Co  Co3  1  0.279267  0.049961  0.000000  1
  Co  Co4  1  0.950039  0.229305  0.000000  1
  Co  Co5  1  0.490207  0.941458  0.000000  1
  Co  Co6  1  0.058542  0.548749  0.000000  1
  Co  Co7  1  0.451251  0.509793  0.000000  1
  Ni  Ni8  1  0.712627  0.097941  0.500000  1
  Ni  Ni9  1  0.902059  0.614686  0.500000  1
  Ni  Ni10  1  0.385314  0.287373  0.500000  1
  Ni  Ni11  1  0.555013  0.764101  0.500000  1
  Ni  Ni12  1  0.235899  0.790912  0.500000  1
  Ni  Ni13  1  0.209088  0.444987  0.500000  1
  As  As14  1  0.333333  0.666667  0.000000  1
  As  As15  1  0.444581  0.070425  0.500000  1
  As  As16  1  0.929575  0.374157  0.500000  1
  As  As17  1  0.625843  0.555419  0.500000  1
  As  As18  1  0.741728  0.952912  0.000000  1
  As  As19  1  0.047088  0.788816  0.000000  1
  As  As20  1  0.211184  0.258272  0.000000  1
