# generated using pymatgen
data_TbErCd4(Ni7B2)2
_symmetry_space_group_name_H-M   'P 1'
_cell_length_a   4.98331632
_cell_length_b   4.98228842
_cell_length_c   14.04085401
_cell_angle_alpha   89.99822663
_cell_angle_beta   90.00406601
_cell_angle_gamma   120.02851638
_symmetry_Int_Tables_number   1
_chemical_formula_structural   TbErCd4(Ni7B2)2
_chemical_formula_sum   'Tb1 Er1 Cd4 Ni14 B4'
_cell_volume   301.81902219
_cell_formula_units_Z   1
loop_
 _symmetry_equiv_pos_site_id
 _symmetry_equiv_pos_as_xyz
  1  'x, y, z'
loop_
 _atom_site_type_symbol
 _atom_site_label
 _atom_site_symmetry_multiplicity
 _atom_site_fract_x
 _atom_site_fract_y
 _atom_site_fract_z
 _atom_site_occupancy
  Tb  Tb0  1  0.666717  0.333433  0.749962  1
  Er  Er1  1  0.333271  0.666574  0.250058  1
  Cd  Cd2  1  0.333283  0.666586  0.470800  1
  Cd  Cd3  1  0.666723  0.333405  0.972326  1
  Cd  Cd4  1  0.666696  0.333395  0.527665  1
  Cd  Cd5  1  0.333280  0.666570  0.029201  1
  Ni  Ni6  1  0.833966  0.165902  0.352478  1
  Ni  Ni7  1  0.833945  0.667863  0.352497  1
  Ni  Ni8  1  0.000091  0.000037  0.000371  1
  Ni  Ni9  1  0.999938  0.999904  0.499646  1
  Ni  Ni10  1  0.833949  0.667923  0.147563  1
  Ni  Ni11  1  0.166103  0.834039  0.646622  1
  Ni  Ni12  1  0.667832  0.833996  0.646574  1
  Ni  Ni13  1  0.331966  0.165944  0.147557  1
  Ni  Ni14  1  0.833976  0.165930  0.147532  1
  Ni  Ni15  1  0.166133  0.332240  0.853319  1
  Ni  Ni16  1  0.166116  0.834038  0.853337  1
  Ni  Ni17  1  0.166122  0.332292  0.646568  1
  Ni  Ni18  1  0.667894  0.834011  0.853398  1
  Ni  Ni19  1  0.332017  0.165931  0.352529  1
  B  B20  1  0.666593  0.333169  0.250019  1
  B  B21  1  0.333443  0.666798  0.749978  1
  B  B22  1  0.999970  0.000082  0.749991  1
  B  B23  1  0.999978  0.999938  0.250007  1
