# generated using pymatgen
data_Er2(ThOs)3
_symmetry_space_group_name_H-M   'P 1'
_cell_length_a   6.38214400
_cell_length_b   8.33866655
_cell_length_c   8.33836100
_cell_angle_alpha   120.00121695
_cell_angle_beta   90.00000000
_cell_angle_gamma   90.00000000
_symmetry_Int_Tables_number   1
_chemical_formula_structural   Er2(ThOs)3
_chemical_formula_sum   'Er4 Th6 Os6'
_cell_volume   384.29895714
_cell_formula_units_Z   2
loop_
 _symmetry_equiv_pos_site_id
 _symmetry_equiv_pos_as_xyz
  1  'x, y, z'
loop_
 _atom_site_type_symbol
 _atom_site_label
 _atom_site_symmetry_multiplicity
 _atom_site_fract_x
 _atom_site_fract_y
 _atom_site_fract_z
 _atom_site_occupancy
  Er  Er0  1  0.500009  0.333361  0.666737  1
  Er  Er1  1  0.500009  0.666624  0.333263  1
  Er  Er2  1  0.000009  0.666639  0.333263  1
  Er  Er3  1  0.000009  0.333376  0.666737  1
  Th  Th4  1  0.749997  0.255811  0.000000  1
  Th  Th5  1  0.750002  0.744144  0.744125  1
  Th  Th6  1  0.750002  0.000020  0.255875  1
  Th  Th7  1  0.249997  0.744189  0.000000  1
  Th  Th8  1  0.250002  0.255856  0.255875  1
  Th  Th9  1  0.250002  0.999980  0.744125  1
  Os  Os10  1  0.749988  0.617052  0.000000  1
  Os  Os11  1  0.749997  0.382984  0.383002  1
  Os  Os12  1  0.749997  0.999983  0.616998  1
  Os  Os13  1  0.249988  0.382948  0.000000  1
  Os  Os14  1  0.249997  0.617016  0.616998  1
  Os  Os15  1  0.249997  0.000017  0.383002  1
