# generated using pymatgen
data_Dy5SnGe2O
_symmetry_space_group_name_H-M   'P 1'
_cell_length_a   8.71033385
_cell_length_b   8.71033368
_cell_length_c   8.71033400
_cell_angle_alpha   126.70550973
_cell_angle_beta   126.70550891
_cell_angle_gamma   78.73165225
_symmetry_Int_Tables_number   1
_chemical_formula_structural   Dy5SnGe2O
_chemical_formula_sum   'Dy10 Sn2 Ge4 O2'
_cell_volume   411.07819189
_cell_formula_units_Z   2
loop_
 _symmetry_equiv_pos_site_id
 _symmetry_equiv_pos_as_xyz
  1  'x, y, z'
loop_
 _atom_site_type_symbol
 _atom_site_label
 _atom_site_symmetry_multiplicity
 _atom_site_fract_x
 _atom_site_fract_y
 _atom_site_fract_z
 _atom_site_occupancy
  Dy  Dy0  1  0.491756  0.297619  0.500000  1
  Dy  Dy1  1  0.797619  0.991756  0.500000  1
  Dy  Dy2  1  0.991756  0.491756  0.194136  1
  Dy  Dy3  1  0.297619  0.797619  0.805864  1
  Dy  Dy4  1  0.510599  0.704811  0.500000  1
  Dy  Dy5  1  0.204811  0.010599  0.500000  1
  Dy  Dy6  1  0.010599  0.510599  0.805788  1
  Dy  Dy7  1  0.704811  0.204811  0.194212  1
  Dy  Dy8  1  0.501938  0.501938  0.000000  1
  Dy  Dy9  1  0.001938  0.001938  0.000000  1
  Sn  Sn10  1  0.751432  0.751432  0.000000  1
  Sn  Sn11  1  0.251432  0.251432  0.000000  1
  Ge  Ge12  1  0.144017  0.358177  0.500000  1
  Ge  Ge13  1  0.858177  0.644017  0.500000  1
  Ge  Ge14  1  0.644017  0.144017  0.785839  1
  Ge  Ge15  1  0.358177  0.858177  0.214161  1
  O  O16  1  0.751070  0.251070  0.500000  1
  O  O17  1  0.251070  0.751070  0.500000  1
