# generated using pymatgen
data_Ho3Lu(Si5Os3)2
_symmetry_space_group_name_H-M   'P 1'
_cell_length_a   8.11327299
_cell_length_b   8.12662587
_cell_length_c   5.77421850
_cell_angle_alpha   70.60450444
_cell_angle_beta   70.54788294
_cell_angle_gamma   94.08052694
_symmetry_Int_Tables_number   1
_chemical_formula_structural   Ho3Lu(Si5Os3)2
_chemical_formula_sum   'Ho3 Lu1 Si10 Os6'
_cell_volume   331.46540384
_cell_formula_units_Z   1
loop_
 _symmetry_equiv_pos_site_id
 _symmetry_equiv_pos_as_xyz
  1  'x, y, z'
loop_
 _atom_site_type_symbol
 _atom_site_label
 _atom_site_symmetry_multiplicity
 _atom_site_fract_x
 _atom_site_fract_y
 _atom_site_fract_z
 _atom_site_occupancy
  Ho  Ho0  1  0.400090  0.130210  0.746458  1
  Ho  Ho1  1  0.130528  0.398883  0.247014  1
  Ho  Ho2  1  0.600835  0.868393  0.254285  1
  Lu  Lu3  1  0.868150  0.602296  0.753035  1
  Si  Si4  1  0.068628  0.260585  0.834390  1
  Si  Si5  1  0.737700  0.931235  0.667704  1
  Si  Si6  1  0.931990  0.739105  0.166343  1
  Si  Si7  1  0.262909  0.068995  0.333217  1
  Si  Si8  1  0.205570  0.793301  0.748753  1
  Si  Si9  1  0.792695  0.204871  0.254485  1
  Si  Si10  1  0.513460  0.487945  0.747664  1
  Si  Si11  1  0.487073  0.512342  0.250524  1
  Si  Si12  1  0.775150  0.225623  0.748149  1
  Si  Si13  1  0.224362  0.775080  0.251141  1
  Os  Os14  1  0.253635  0.543301  0.631625  1
  Os  Os15  1  0.454980  0.743452  0.869675  1
  Os  Os16  1  0.745485  0.457783  0.366197  1
  Os  Os17  1  0.546004  0.256838  0.128998  1
  Os  Os18  1  0.002488  0.997487  0.750024  1
  Os  Os19  1  0.998270  0.002275  0.250318  1
