# generated using pymatgen
data_Tb16InNi2Ag3Rh2
_symmetry_space_group_name_H-M   'P 1'
_cell_length_a   9.54610074
_cell_length_b   9.53112757
_cell_length_c   9.55827608
_cell_angle_alpha   60.09392931
_cell_angle_beta   60.28398554
_cell_angle_gamma   60.05187781
_symmetry_Int_Tables_number   1
_chemical_formula_structural   Tb16InNi2Ag3Rh2
_chemical_formula_sum   'Tb16 In1 Ni2 Ag3 Rh2'
_cell_volume   616.93289833
_cell_formula_units_Z   1
loop_
 _symmetry_equiv_pos_site_id
 _symmetry_equiv_pos_as_xyz
  1  'x, y, z'
loop_
 _atom_site_type_symbol
 _atom_site_label
 _atom_site_symmetry_multiplicity
 _atom_site_fract_x
 _atom_site_fract_y
 _atom_site_fract_z
 _atom_site_occupancy
  Tb  Tb0  1  0.809769  0.809355  0.188044  1
  Tb  Tb1  1  0.810377  0.190549  0.808525  1
  Tb  Tb2  1  0.185764  0.192323  0.811006  1
  Tb  Tb3  1  0.651895  0.050162  0.652235  1
  Tb  Tb4  1  0.067790  0.060652  0.434132  1
  Tb  Tb5  1  0.435713  0.437482  0.063063  1
  Tb  Tb6  1  0.651895  0.645708  0.652235  1
  Tb  Tb7  1  0.809769  0.192831  0.188044  1
  Tb  Tb8  1  0.185764  0.810907  0.811006  1
  Tb  Tb9  1  0.052237  0.647677  0.652410  1
  Tb  Tb10  1  0.435713  0.063742  0.063063  1
  Tb  Tb11  1  0.437451  0.063677  0.435194  1
  Tb  Tb12  1  0.068450  0.434576  0.062399  1
  Tb  Tb13  1  0.652982  0.648593  0.049832  1
  Tb  Tb14  1  0.187750  0.811477  0.189295  1
  Tb  Tb15  1  0.067790  0.437427  0.434132  1
  In  In16  1  0.737911  0.420779  0.420531  1
  Ni  Ni17  1  0.857375  0.428002  0.857647  1
  Ni  Ni18  1  0.857375  0.856976  0.857647  1
  Ag  Ag19  1  0.416853  0.418454  0.417605  1
  Ag  Ag20  1  0.416491  0.417851  0.747808  1
  Ag  Ag21  1  0.416853  0.747086  0.417605  1
  Rh  Rh22  1  0.857765  0.857008  0.428220  1
  Rh  Rh23  1  0.428271  0.856704  0.858322  1
