# generated using pymatgen
data_Ca3MnVC6
_symmetry_space_group_name_H-M   'P 1'
_cell_length_a   8.19370400
_cell_length_b   8.19370366
_cell_length_c   5.08354900
_cell_angle_alpha   90.00000000
_cell_angle_beta   90.00000000
_cell_angle_gamma   120.00000728
_symmetry_Int_Tables_number   1
_chemical_formula_structural   Ca3MnVC6
_chemical_formula_sum   'Ca6 Mn2 V2 C12'
_cell_volume   295.56849323
_cell_formula_units_Z   2
loop_
 _symmetry_equiv_pos_site_id
 _symmetry_equiv_pos_as_xyz
  1  'x, y, z'
loop_
 _atom_site_type_symbol
 _atom_site_label
 _atom_site_symmetry_multiplicity
 _atom_site_fract_x
 _atom_site_fract_y
 _atom_site_fract_z
 _atom_site_occupancy
  Ca  Ca0  1  0.604132  0.683495  0.750000  1
  Ca  Ca1  1  0.920638  0.604132  0.250000  1
  Ca  Ca2  1  0.683495  0.079362  0.250000  1
  Ca  Ca3  1  0.316505  0.920638  0.750000  1
  Ca  Ca4  1  0.079362  0.395868  0.750000  1
  Ca  Ca5  1  0.395868  0.316505  0.250000  1
  Mn  Mn6  1  0.666667  0.333333  0.750000  1
  Mn  Mn7  1  0.333333  0.666667  0.250000  1
  V  V8  1  0.000000  0.000000  0.500000  1
  V  V9  1  0.000000  0.000000  0.000000  1
  C  C10  1  0.948949  0.767950  0.750000  1
  C  C11  1  0.181000  0.948949  0.250000  1
  C  C12  1  0.767950  0.819000  0.250000  1
  C  C13  1  0.232050  0.181000  0.750000  1
  C  C14  1  0.819000  0.051051  0.750000  1
  C  C15  1  0.051051  0.232050  0.250000  1
  C  C16  1  0.852704  0.577505  0.750000  1
  C  C17  1  0.275199  0.852704  0.250000  1
  C  C18  1  0.577505  0.724801  0.250000  1
  C  C19  1  0.422495  0.275199  0.750000  1
  C  C20  1  0.147296  0.422495  0.250000  1
  C  C21  1  0.724801  0.147296  0.750000  1
