# generated using pymatgen
data_MnRh3(SO4)6
_symmetry_space_group_name_H-M   'P 1'
_cell_length_a   8.32209006
_cell_length_b   8.32209180
_cell_length_c   8.93828500
_cell_angle_alpha   117.74456394
_cell_angle_beta   62.25542975
_cell_angle_gamma   120.00000068
_symmetry_Int_Tables_number   1
_chemical_formula_structural   MnRh3(SO4)6
_chemical_formula_sum   'Mn1 Rh3 S6 O24'
_cell_volume   452.06123805
_cell_formula_units_Z   1
loop_
 _symmetry_equiv_pos_site_id
 _symmetry_equiv_pos_as_xyz
  1  'x, y, z'
loop_
 _atom_site_type_symbol
 _atom_site_label
 _atom_site_symmetry_multiplicity
 _atom_site_fract_x
 _atom_site_fract_y
 _atom_site_fract_z
 _atom_site_occupancy
  Mn  Mn0  1  0.359842  0.640157  0.920471  1
  Rh  Rh1  1  0.645198  0.354801  0.064405  1
  Rh  Rh2  1  0.845734  0.154266  0.462800  1
  Rh  Rh3  1  0.153622  0.846378  0.539134  1
  S  S4  1  0.251885  0.458871  0.253566  1
  S  S5  1  0.541129  0.046581  0.253566  1
  S  S6  1  0.953419  0.748115  0.253566  1
  S  S7  1  0.040984  0.240459  0.744584  1
  S  S8  1  0.454892  0.959017  0.744584  1
  S  S9  1  0.759541  0.545109  0.744584  1
  O  O10  1  0.101464  0.706529  0.086186  1
  O  O11  1  0.293470  0.481121  0.086186  1
  O  O12  1  0.518879  0.898536  0.086186  1
  O  O13  1  0.376751  0.367167  0.239001  1
  O  O14  1  0.632833  0.248586  0.239001  1
  O  O15  1  0.751414  0.623248  0.239001  1
  O  O16  1  0.041920  0.330290  0.303947  1
  O  O17  1  0.669709  0.015576  0.303947  1
  O  O18  1  0.984424  0.958081  0.303947  1
  O  O19  1  0.294935  0.652917  0.396703  1
  O  O20  1  0.347084  0.038723  0.396703  1
  O  O21  1  0.961277  0.705063  0.396703  1
  O  O22  1  0.027555  0.289429  0.607817  1
  O  O23  1  0.654057  0.972445  0.607817  1
  O  O24  1  0.710573  0.345943  0.607817  1
  O  O25  1  0.991304  0.026965  0.698677  1
  O  O26  1  0.336986  0.008696  0.698677  1
  O  O27  1  0.973034  0.663014  0.698677  1
  O  O28  1  0.239843  0.353987  0.752294  1
  O  O29  1  0.361849  0.760156  0.752294  1
  O  O30  1  0.646014  0.638151  0.752294  1
  O  O31  1  0.476680  0.098299  0.921623  1
  O  O32  1  0.699998  0.523320  0.921623  1
  O  O33  1  0.901700  0.300003  0.921623  1
