# generated using pymatgen
data_SmNb5FeB4Ru9
_symmetry_space_group_name_H-M   'P 1'
_cell_length_a   9.47879465
_cell_length_b   9.47879481
_cell_length_c   3.06436400
_cell_angle_alpha   90.00000000
_cell_angle_beta   90.00000000
_cell_angle_gamma   90.30163088
_symmetry_Int_Tables_number   1
_chemical_formula_structural   SmNb5FeB4Ru9
_chemical_formula_sum   'Sm1 Nb5 Fe1 B4 Ru9'
_cell_volume   275.32178130
_cell_formula_units_Z   1
loop_
 _symmetry_equiv_pos_site_id
 _symmetry_equiv_pos_as_xyz
  1  'x, y, z'
loop_
 _atom_site_type_symbol
 _atom_site_label
 _atom_site_symmetry_multiplicity
 _atom_site_fract_x
 _atom_site_fract_y
 _atom_site_fract_z
 _atom_site_occupancy
  Sm  Sm0  1  0.822507  0.677493  0.000000  1
  Nb  Nb1  1  0.180242  0.319758  0.000000  1
  Nb  Nb2  1  0.328908  0.831682  0.000000  1
  Nb  Nb3  1  0.668318  0.171092  0.000000  1
  Nb  Nb4  1  0.500680  0.500223  0.000000  1
  Nb  Nb5  1  0.999777  0.999320  0.000000  1
  Fe  Fe6  1  0.495104  0.004896  0.500000  1
  B  B7  1  0.607710  0.892290  0.000000  1
  B  B8  1  0.386328  0.113672  0.000000  1
  B  B9  1  0.125930  0.619537  0.000000  1
  B  B10  1  0.880463  0.374070  0.000000  1
  Ru  Ru11  1  0.552898  0.732350  0.500000  1
  Ru  Ru12  1  0.429971  0.277741  0.500000  1
  Ru  Ru13  1  0.085209  0.782807  0.500000  1
  Ru  Ru14  1  0.932332  0.214172  0.500000  1
  Ru  Ru15  1  0.285828  0.567668  0.500000  1
  Ru  Ru16  1  0.717193  0.414791  0.500000  1
  Ru  Ru17  1  0.222259  0.070029  0.500000  1
  Ru  Ru18  1  0.767650  0.947102  0.500000  1
  Ru  Ru19  1  0.010692  0.489308  0.500000  1
