# generated using pymatgen
data_PrHo2(Al3Ni2)3
_symmetry_space_group_name_H-M   'P 1'
_cell_length_a   9.05646000
_cell_length_b   9.05646100
_cell_length_c   4.08687200
_cell_angle_alpha   90.00000000
_cell_angle_beta   90.00000000
_cell_angle_gamma   120.00000367
_symmetry_Int_Tables_number   1
_chemical_formula_structural   PrHo2(Al3Ni2)3
_chemical_formula_sum   'Pr1 Ho2 Al9 Ni6'
_cell_volume   290.29439185
_cell_formula_units_Z   1
loop_
 _symmetry_equiv_pos_site_id
 _symmetry_equiv_pos_as_xyz
  1  'x, y, z'
loop_
 _atom_site_type_symbol
 _atom_site_label
 _atom_site_symmetry_multiplicity
 _atom_site_fract_x
 _atom_site_fract_y
 _atom_site_fract_z
 _atom_site_occupancy
  Pr  Pr0  1  0.333333  0.666667  0.500000  1
  Ho  Ho1  1  0.666667  0.333333  0.500000  1
  Ho  Ho2  1  0.000000  0.000000  0.000000  1
  Al  Al3  1  0.502296  0.004592  0.000000  1
  Al  Al4  1  0.995408  0.497704  0.000000  1
  Al  Al5  1  0.502296  0.497704  0.000000  1
  Al  Al6  1  0.296834  0.002184  0.500000  1
  Al  Al7  1  0.705350  0.002184  0.500000  1
  Al  Al8  1  0.997816  0.294650  0.500000  1
  Al  Al9  1  0.997816  0.703166  0.500000  1
  Al  Al10  1  0.705350  0.703166  0.500000  1
  Al  Al11  1  0.296834  0.294650  0.500000  1
  Ni  Ni12  1  0.178618  0.357235  0.000000  1
  Ni  Ni13  1  0.818751  0.637503  0.000000  1
  Ni  Ni14  1  0.642765  0.821382  0.000000  1
  Ni  Ni15  1  0.362497  0.181249  0.000000  1
  Ni  Ni16  1  0.178618  0.821382  0.000000  1
  Ni  Ni17  1  0.818751  0.181249  0.000000  1
