# generated using pymatgen
data_YTm5ZrNb(Co4P3)4
_symmetry_space_group_name_H-M   'P 1'
_cell_length_a   3.69282700
_cell_length_b   10.59589500
_cell_length_c   12.28580300
_cell_angle_alpha   90.00000000
_cell_angle_beta   90.00000000
_cell_angle_gamma   90.00000000
_symmetry_Int_Tables_number   1
_chemical_formula_structural   YTm5ZrNb(Co4P3)4
_chemical_formula_sum   'Y1 Tm5 Zr1 Nb1 Co16 P12'
_cell_volume   480.72881621
_cell_formula_units_Z   1
loop_
 _symmetry_equiv_pos_site_id
 _symmetry_equiv_pos_as_xyz
  1  'x, y, z'
loop_
 _atom_site_type_symbol
 _atom_site_label
 _atom_site_symmetry_multiplicity
 _atom_site_fract_x
 _atom_site_fract_y
 _atom_site_fract_z
 _atom_site_occupancy
  Y  Y0  1  0.000000  0.500000  0.527052  1
  Tm  Tm1  1  0.500000  0.000000  0.471194  1
  Tm  Tm2  1  0.500000  0.820672  0.204981  1
  Tm  Tm3  1  0.500000  0.179328  0.204981  1
  Tm  Tm4  1  0.000000  0.677808  0.794800  1
  Tm  Tm5  1  0.000000  0.322192  0.794800  1
  Zr  Zr6  1  0.000000  0.000000  0.842884  1
  Nb  Nb7  1  0.500000  0.500000  0.157759  1
  Co  Co8  1  0.500000  0.500000  0.703353  1
  Co  Co9  1  0.000000  0.000000  0.297622  1
  Co  Co10  1  0.000000  0.500000  0.986398  1
  Co  Co11  1  0.500000  0.000000  0.015991  1
  Co  Co12  1  0.500000  0.334145  0.993445  1
  Co  Co13  1  0.500000  0.665855  0.993445  1
  Co  Co14  1  0.000000  0.169927  0.009147  1
  Co  Co15  1  0.000000  0.830073  0.009147  1
  Co  Co16  1  0.500000  0.294581  0.431893  1
  Co  Co17  1  0.500000  0.705419  0.431893  1
  Co  Co18  1  0.000000  0.204308  0.566351  1
  Co  Co19  1  0.000000  0.795692  0.566351  1
  Co  Co20  1  0.500000  0.876478  0.702686  1
  Co  Co21  1  0.500000  0.123522  0.702686  1
  Co  Co22  1  0.000000  0.623438  0.295674  1
  Co  Co23  1  0.000000  0.376562  0.295674  1
  P  P24  1  0.500000  0.500000  0.881687  1
  P  P25  1  0.000000  0.000000  0.118582  1
  P  P26  1  0.500000  0.500000  0.356808  1
  P  P27  1  0.000000  0.000000  0.636294  1
  P  P28  1  0.500000  0.311102  0.616269  1
  P  P29  1  0.500000  0.688898  0.616269  1
  P  P30  1  0.000000  0.187913  0.383458  1
  P  P31  1  0.000000  0.812087  0.383458  1
  P  P32  1  0.500000  0.836544  0.894320  1
  P  P33  1  0.500000  0.163456  0.894320  1
  P  P34  1  0.000000  0.659078  0.109161  1
  P  P35  1  0.000000  0.340922  0.109161  1
