# generated using pymatgen
data_DyTm7Sc12Si15Ru
_symmetry_space_group_name_H-M   'P 1'
_cell_length_a   7.03401304
_cell_length_b   7.41000683
_cell_length_c   13.87405944
_cell_angle_alpha   90.02637412
_cell_angle_beta   90.01148734
_cell_angle_gamma   90.19969024
_symmetry_Int_Tables_number   1
_chemical_formula_structural   DyTm7Sc12Si15Ru
_chemical_formula_sum   'Dy1 Tm7 Sc12 Si15 Ru1'
_cell_volume   723.14041723
_cell_formula_units_Z   1
loop_
 _symmetry_equiv_pos_site_id
 _symmetry_equiv_pos_as_xyz
  1  'x, y, z'
loop_
 _atom_site_type_symbol
 _atom_site_label
 _atom_site_symmetry_multiplicity
 _atom_site_fract_x
 _atom_site_fract_y
 _atom_site_fract_z
 _atom_site_occupancy
  Dy  Dy0  1  0.010875  0.179040  0.095311  1
  Tm  Tm1  1  0.991346  0.826501  0.905031  1
  Tm  Tm2  1  0.489456  0.677980  0.904674  1
  Tm  Tm3  1  0.991409  0.826622  0.594866  1
  Tm  Tm4  1  0.510847  0.321868  0.095782  1
  Tm  Tm5  1  0.011120  0.179566  0.404198  1
  Tm  Tm6  1  0.510964  0.321776  0.404286  1
  Tm  Tm7  1  0.489373  0.677936  0.595246  1
  Sc  Sc8  1  0.158536  0.504511  0.750042  1
  Sc  Sc9  1  0.837666  0.494550  0.250136  1
  Sc  Sc10  1  0.339255  0.006162  0.250083  1
  Sc  Sc11  1  0.670131  0.997268  0.750065  1
  Sc  Sc12  1  0.316163  0.171833  0.627997  1
  Sc  Sc13  1  0.671577  0.825460  0.374154  1
  Sc  Sc14  1  0.171102  0.677867  0.374199  1
  Sc  Sc15  1  0.671537  0.825285  0.125902  1
  Sc  Sc16  1  0.838054  0.319971  0.627702  1
  Sc  Sc17  1  0.316402  0.171770  0.871908  1
  Sc  Sc18  1  0.837841  0.320251  0.872188  1
  Sc  Sc19  1  0.171138  0.677817  0.125905  1
  Si  Si20  1  0.968673  0.886676  0.250219  1
  Si  Si21  1  0.469459  0.611889  0.250047  1
  Si  Si22  1  0.529397  0.390060  0.749970  1
  Si  Si23  1  0.286682  0.864628  0.749985  1
  Si  Si24  1  0.713069  0.131501  0.250408  1
  Si  Si25  1  0.214559  0.369447  0.250425  1
  Si  Si26  1  0.779786  0.629087  0.749978  1
  Si  Si27  1  0.161424  0.468644  0.537359  1
  Si  Si28  1  0.842174  0.535057  0.461604  1
  Si  Si29  1  0.342677  0.966519  0.460307  1
  Si  Si30  1  0.841849  0.535818  0.038181  1
  Si  Si31  1  0.657200  0.034502  0.538747  1
  Si  Si32  1  0.161602  0.469325  0.962396  1
  Si  Si33  1  0.656976  0.034363  0.961146  1
  Si  Si34  1  0.343681  0.965960  0.039527  1
  Ru  Ru35  1  0.025999  0.102496  0.750025  1
