# generated using pymatgen
data_Pr2Re2Cl
_symmetry_space_group_name_H-M   'P 1'
_cell_length_a   4.18332600
_cell_length_b   4.18332586
_cell_length_c   17.27285000
_cell_angle_alpha   90.00000000
_cell_angle_beta   90.00000000
_cell_angle_gamma   119.99998532
_symmetry_Int_Tables_number   1
_chemical_formula_structural   Pr2Re2Cl
_chemical_formula_sum   'Pr4 Re4 Cl2'
_cell_volume   261.78098783
_cell_formula_units_Z   2
loop_
 _symmetry_equiv_pos_site_id
 _symmetry_equiv_pos_as_xyz
  1  'x, y, z'
loop_
 _atom_site_type_symbol
 _atom_site_label
 _atom_site_symmetry_multiplicity
 _atom_site_fract_x
 _atom_site_fract_y
 _atom_site_fract_z
 _atom_site_occupancy
  Pr  Pr0  1  0.000000  0.000000  0.122818  1
  Pr  Pr1  1  0.000000  0.000000  0.377182  1
  Pr  Pr2  1  0.000000  0.000000  0.622818  1
  Pr  Pr3  1  0.000000  0.000000  0.877182  1
  Re  Re4  1  0.333334  0.666668  0.016673  1
  Re  Re5  1  0.333334  0.666668  0.483327  1
  Re  Re6  1  0.666667  0.333332  0.516673  1
  Re  Re7  1  0.666667  0.333332  0.983327  1
  Cl  Cl8  1  0.666667  0.333332  0.250000  1
  Cl  Cl9  1  0.333334  0.666668  0.750000  1
