# generated using pymatgen
data_Dy2SiIrSe
_symmetry_space_group_name_H-M   'P 1'
_cell_length_a   4.06690400
_cell_length_b   4.06690211
_cell_length_c   15.01428800
_cell_angle_alpha   90.00000000
_cell_angle_beta   90.00000000
_cell_angle_gamma   120.00001535
_symmetry_Int_Tables_number   1
_chemical_formula_structural   Dy2SiIrSe
_chemical_formula_sum   'Dy4 Si2 Ir2 Se2'
_cell_volume   215.06163690
_cell_formula_units_Z   2
loop_
 _symmetry_equiv_pos_site_id
 _symmetry_equiv_pos_as_xyz
  1  'x, y, z'
loop_
 _atom_site_type_symbol
 _atom_site_label
 _atom_site_symmetry_multiplicity
 _atom_site_fract_x
 _atom_site_fract_y
 _atom_site_fract_z
 _atom_site_occupancy
  Dy  Dy0  1  0.333333  0.666667  0.378368  1
  Dy  Dy1  1  0.666667  0.333333  0.621632  1
  Dy  Dy2  1  0.666667  0.333333  0.878368  1
  Dy  Dy3  1  0.333333  0.666667  0.121632  1
  Si  Si4  1  0.000000  0.000000  0.250000  1
  Si  Si5  1  0.000000  0.000000  0.750000  1
  Ir  Ir6  1  0.333333  0.666667  0.750000  1
  Ir  Ir7  1  0.666667  0.333333  0.250000  1
  Se  Se8  1  0.000000  0.000000  0.500000  1
  Se  Se9  1  0.000000  0.000000  0.000000  1
