# generated using pymatgen
data_Tm6Lu14GaBi11
_symmetry_space_group_name_H-M   'P 1'
_cell_length_a   8.08516843
_cell_length_b   9.36130400
_cell_length_c   11.80460213
_cell_angle_alpha   90.00000000
_cell_angle_beta   89.76043068
_cell_angle_gamma   90.00000000
_symmetry_Int_Tables_number   1
_chemical_formula_structural   Tm6Lu14GaBi11
_chemical_formula_sum   'Tm6 Lu14 Ga1 Bi11'
_cell_volume   893.45560576
_cell_formula_units_Z   1
loop_
 _symmetry_equiv_pos_site_id
 _symmetry_equiv_pos_as_xyz
  1  'x, y, z'
loop_
 _atom_site_type_symbol
 _atom_site_label
 _atom_site_symmetry_multiplicity
 _atom_site_fract_x
 _atom_site_fract_y
 _atom_site_fract_z
 _atom_site_occupancy
  Tm  Tm0  1  0.147679  0.750000  0.781461  1
  Tm  Tm1  1  0.851785  0.250000  0.215907  1
  Tm  Tm2  1  0.195410  0.250000  0.777142  1
  Tm  Tm3  1  0.809250  0.750000  0.217026  1
  Tm  Tm4  1  0.312826  0.750000  0.282774  1
  Tm  Tm5  1  0.673116  0.250000  0.709462  1
  Lu  Lu6  1  0.036444  0.250000  0.508996  1
  Lu  Lu7  1  0.981265  0.750000  0.491043  1
  Lu  Lu8  1  0.476894  0.750000  0.010965  1
  Lu  Lu9  1  0.524867  0.250000  0.989206  1
  Lu  Lu10  1  0.353628  0.250000  0.293960  1
  Lu  Lu11  1  0.651252  0.750000  0.717815  1
  Lu  Lu12  1  0.192892  0.067853  0.061003  1
  Lu  Lu13  1  0.807759  0.932814  0.940911  1
  Lu  Lu14  1  0.309513  0.949048  0.558523  1
  Lu  Lu15  1  0.807759  0.567186  0.940911  1
  Lu  Lu16  1  0.683339  0.073698  0.445128  1
  Lu  Lu17  1  0.192892  0.432147  0.061003  1
  Lu  Lu18  1  0.683339  0.426302  0.445128  1
  Lu  Lu19  1  0.309513  0.550952  0.558523  1
  Ga  Ga20  1  0.405118  0.250000  0.538926  1
  Bi  Bi21  1  0.596823  0.750000  0.458822  1
  Bi  Bi22  1  0.097310  0.750000  0.043222  1
  Bi  Bi23  1  0.905738  0.250000  0.952966  1
  Bi  Bi24  1  0.061409  0.002064  0.324176  1
  Bi  Bi25  1  0.935849  0.999000  0.674839  1
  Bi  Bi26  1  0.436910  0.994960  0.825211  1
  Bi  Bi27  1  0.935849  0.501000  0.674839  1
  Bi  Bi28  1  0.562626  0.005075  0.175361  1
  Bi  Bi29  1  0.061409  0.497936  0.324176  1
  Bi  Bi30  1  0.562626  0.494925  0.175361  1
  Bi  Bi31  1  0.436910  0.505040  0.825211  1
