# generated using pymatgen
data_Dy6Al24FeRu6Pt
_symmetry_space_group_name_H-M   'P 1'
_cell_length_a   8.82099758
_cell_length_b   8.82099789
_cell_length_c   9.52888452
_cell_angle_alpha   90.09800185
_cell_angle_beta   89.90199861
_cell_angle_gamma   119.88539589
_symmetry_Int_Tables_number   1
_chemical_formula_structural   Dy6Al24FeRu6Pt
_chemical_formula_sum   'Dy6 Al24 Fe1 Ru6 Pt1'
_cell_volume   642.84703657
_cell_formula_units_Z   1
loop_
 _symmetry_equiv_pos_site_id
 _symmetry_equiv_pos_as_xyz
  1  'x, y, z'
loop_
 _atom_site_type_symbol
 _atom_site_label
 _atom_site_symmetry_multiplicity
 _atom_site_fract_x
 _atom_site_fract_y
 _atom_site_fract_z
 _atom_site_occupancy
  Dy  Dy0  1  0.194218  0.805782  0.250108  1
  Dy  Dy1  1  0.191994  0.386114  0.249906  1
  Dy  Dy2  1  0.613886  0.808006  0.249906  1
  Dy  Dy3  1  0.805782  0.194218  0.749892  1
  Dy  Dy4  1  0.808006  0.613886  0.750094  1
  Dy  Dy5  1  0.386114  0.191994  0.750094  1
  Al  Al6  1  0.561897  0.438103  0.247610  1
  Al  Al7  1  0.560758  0.121828  0.250896  1
  Al  Al8  1  0.878172  0.439242  0.250896  1
  Al  Al9  1  0.438103  0.561897  0.752390  1
  Al  Al10  1  0.439242  0.878172  0.749104  1
  Al  Al11  1  0.121828  0.560758  0.749104  1
  Al  Al12  1  0.323149  0.157631  0.422170  1
  Al  Al13  1  0.837674  0.162326  0.422075  1
  Al  Al14  1  0.842369  0.676851  0.422170  1
  Al  Al15  1  0.676851  0.842369  0.577830  1
  Al  Al16  1  0.162326  0.837674  0.577925  1
  Al  Al17  1  0.157631  0.323149  0.577830  1
  Al  Al18  1  0.681062  0.840513  0.922765  1
  Al  Al19  1  0.159809  0.840191  0.922928  1
  Al  Al20  1  0.159487  0.318938  0.922765  1
  Al  Al21  1  0.318938  0.159487  0.077235  1
  Al  Al22  1  0.840191  0.159809  0.077072  1
  Al  Al23  1  0.840513  0.681062  0.077235  1
  Al  Al24  1  0.669126  0.330874  0.519377  1
  Al  Al25  1  0.330874  0.669126  0.480623  1
  Al  Al26  1  0.333291  0.666709  0.016022  1
  Al  Al27  1  0.666709  0.333291  0.983978  1
  Al  Al28  1  0.999900  0.000100  0.244103  1
  Al  Al29  1  0.000100  0.999900  0.755897  1
  Fe  Fe30  1  0.000000  0.000000  0.000000  1
  Ru  Ru31  1  0.000000  0.000000  0.500000  1
  Ru  Ru32  1  0.500000  0.000000  0.500000  1
  Ru  Ru33  1  0.000000  0.500000  0.500000  1
  Ru  Ru34  1  0.500000  0.500000  0.000000  1
  Ru  Ru35  1  0.500000  0.000000  0.000000  1
  Ru  Ru36  1  0.000000  0.500000  0.000000  1
  Pt  Pt37  1  0.500000  0.500000  0.500000  1
