# generated using pymatgen
data_SrEr(BIr)8
_symmetry_space_group_name_H-M   'P 1'
_cell_length_a   7.66419500
_cell_length_b   7.66419500
_cell_length_c   4.00651800
_cell_angle_alpha   90.00000000
_cell_angle_beta   90.00000000
_cell_angle_gamma   90.00000000
_symmetry_Int_Tables_number   1
_chemical_formula_structural   SrEr(BIr)8
_chemical_formula_sum   'Sr1 Er1 B8 Ir8'
_cell_volume   235.34240656
_cell_formula_units_Z   1
loop_
 _symmetry_equiv_pos_site_id
 _symmetry_equiv_pos_as_xyz
  1  'x, y, z'
loop_
 _atom_site_type_symbol
 _atom_site_label
 _atom_site_symmetry_multiplicity
 _atom_site_fract_x
 _atom_site_fract_y
 _atom_site_fract_z
 _atom_site_occupancy
  Sr  Sr0  1  0.500000  0.500000  0.500000  1
  Er  Er1  1  0.000000  0.000000  0.000000  1
  B  B2  1  0.341343  0.782202  0.892833  1
  B  B3  1  0.658657  0.217798  0.892833  1
  B  B4  1  0.782202  0.658657  0.107167  1
  B  B5  1  0.217798  0.341343  0.107167  1
  B  B6  1  0.276996  0.156543  0.388038  1
  B  B7  1  0.723004  0.843457  0.388038  1
  B  B8  1  0.843457  0.276996  0.611962  1
  B  B9  1  0.156543  0.723004  0.611962  1
  Ir  Ir10  1  0.388081  0.151799  0.890480  1
  Ir  Ir11  1  0.611919  0.848201  0.890480  1
  Ir  Ir12  1  0.848201  0.388081  0.109520  1
  Ir  Ir13  1  0.151799  0.611919  0.109520  1
  Ir  Ir14  1  0.337785  0.890092  0.388545  1
  Ir  Ir15  1  0.662215  0.109908  0.388545  1
  Ir  Ir16  1  0.890092  0.662215  0.611455  1
  Ir  Ir17  1  0.109908  0.337785  0.611455  1
