# generated using pymatgen
data_AcYb7(Si4Mo3)4
_symmetry_space_group_name_H-M   'P 1'
_cell_length_a   6.77748103
_cell_length_b   6.97816977
_cell_length_c   13.13376415
_cell_angle_alpha   90.21199290
_cell_angle_beta   90.05162700
_cell_angle_gamma   90.04700122
_symmetry_Int_Tables_number   1
_chemical_formula_structural   AcYb7(Si4Mo3)4
_chemical_formula_sum   'Ac1 Yb7 Si16 Mo12'
_cell_volume   621.14895485
_cell_formula_units_Z   1
loop_
 _symmetry_equiv_pos_site_id
 _symmetry_equiv_pos_as_xyz
  1  'x, y, z'
loop_
 _atom_site_type_symbol
 _atom_site_label
 _atom_site_symmetry_multiplicity
 _atom_site_fract_x
 _atom_site_fract_y
 _atom_site_fract_z
 _atom_site_occupancy
  Ac  Ac0  1  0.001287  0.163881  0.089576  1
  Yb  Yb1  1  0.498921  0.333744  0.091069  1
  Yb  Yb2  1  0.998469  0.166215  0.409568  1
  Yb  Yb3  1  0.500826  0.667104  0.591005  1
  Yb  Yb4  1  0.001922  0.834120  0.904670  1
  Yb  Yb5  1  0.503933  0.665266  0.905317  1
  Yb  Yb6  1  0.000774  0.833226  0.591308  1
  Yb  Yb7  1  0.498377  0.335363  0.412765  1
  Si  Si8  1  0.657691  0.042478  0.546049  1
  Si  Si9  1  0.159796  0.465452  0.948901  1
  Si  Si10  1  0.353609  0.946640  0.044196  1
  Si  Si11  1  0.843401  0.541818  0.454847  1
  Si  Si12  1  0.341950  0.958510  0.455559  1
  Si  Si13  1  0.839828  0.555558  0.043669  1
  Si  Si14  1  0.652150  0.042819  0.947888  1
  Si  Si15  1  0.157127  0.456645  0.546443  1
  Si  Si16  1  0.535321  0.371373  0.748368  1
  Si  Si17  1  0.034966  0.128619  0.749149  1
  Si  Si18  1  0.465663  0.626729  0.251860  1
  Si  Si19  1  0.962388  0.864497  0.255774  1
  Si  Si20  1  0.801318  0.629080  0.747974  1
  Si  Si21  1  0.301846  0.871807  0.748590  1
  Si  Si22  1  0.203310  0.376565  0.255356  1
  Si  Si23  1  0.690199  0.126792  0.255711  1
  Mo  Mo24  1  0.835251  0.329961  0.627140  1
  Mo  Mo25  1  0.333673  0.170058  0.870493  1
  Mo  Mo26  1  0.165067  0.668888  0.129425  1
  Mo  Mo27  1  0.663517  0.828220  0.374470  1
  Mo  Mo28  1  0.166921  0.669304  0.374691  1
  Mo  Mo29  1  0.664387  0.828819  0.130424  1
  Mo  Mo30  1  0.833644  0.334191  0.869933  1
  Mo  Mo31  1  0.333828  0.169581  0.627514  1
  Mo  Mo32  1  0.661569  0.009993  0.748084  1
  Mo  Mo33  1  0.162242  0.491509  0.748520  1
  Mo  Mo34  1  0.338215  0.987501  0.252795  1
  Mo  Mo35  1  0.836612  0.507672  0.250899  1
