# generated using pymatgen
data_Tm3UCo3
_symmetry_space_group_name_H-M   'P 1'
_cell_length_a   5.77175800
_cell_length_b   5.77175719
_cell_length_c   13.95811100
_cell_angle_alpha   90.00000000
_cell_angle_beta   90.00000000
_cell_angle_gamma   142.84875440
_symmetry_Int_Tables_number   1
_chemical_formula_structural   Tm3UCo3
_chemical_formula_sum   'Tm6 U2 Co6'
_cell_volume   280.81675943
_cell_formula_units_Z   2
loop_
 _symmetry_equiv_pos_site_id
 _symmetry_equiv_pos_as_xyz
  1  'x, y, z'
loop_
 _atom_site_type_symbol
 _atom_site_label
 _atom_site_symmetry_multiplicity
 _atom_site_fract_x
 _atom_site_fract_y
 _atom_site_fract_z
 _atom_site_occupancy
  Tm  Tm0  1  0.781771  0.218229  0.385647  1
  Tm  Tm1  1  0.218229  0.781771  0.614353  1
  Tm  Tm2  1  0.781771  0.218229  0.114353  1
  Tm  Tm3  1  0.218229  0.781771  0.885647  1
  Tm  Tm4  1  0.506244  0.493756  0.250000  1
  Tm  Tm5  1  0.493756  0.506244  0.750000  1
  U  U6  1  0.500000  0.500000  0.500000  1
  U  U7  1  0.500000  0.500000  0.000000  1
  Co  Co8  1  0.077717  0.922283  0.403483  1
  Co  Co9  1  0.922283  0.077717  0.596517  1
  Co  Co10  1  0.077717  0.922283  0.096517  1
  Co  Co11  1  0.922283  0.077717  0.903483  1
  Co  Co12  1  0.205642  0.794358  0.250000  1
  Co  Co13  1  0.794358  0.205642  0.750000  1
