# generated using pymatgen
data_Er4Tm16CoNi3Sb8
_symmetry_space_group_name_H-M   'P 1'
_cell_length_a   7.81507747
_cell_length_b   8.73162900
_cell_length_c   12.04076873
_cell_angle_alpha   90.00000000
_cell_angle_beta   90.03978052
_cell_angle_gamma   90.00000000
_symmetry_Int_Tables_number   1
_chemical_formula_structural   Er4Tm16CoNi3Sb8
_chemical_formula_sum   'Er4 Tm16 Co1 Ni3 Sb8'
_cell_volume   821.64207780
_cell_formula_units_Z   1
loop_
 _symmetry_equiv_pos_site_id
 _symmetry_equiv_pos_as_xyz
  1  'x, y, z'
loop_
 _atom_site_type_symbol
 _atom_site_label
 _atom_site_symmetry_multiplicity
 _atom_site_fract_x
 _atom_site_fract_y
 _atom_site_fract_z
 _atom_site_occupancy
  Er  Er0  1  0.625187  0.750000  0.306506  1
  Er  Er1  1  0.125009  0.250000  0.193911  1
  Er  Er2  1  0.374712  0.250000  0.693734  1
  Er  Er3  1  0.877300  0.750000  0.808157  1
  Tm  Tm4  1  0.156693  0.750000  0.203953  1
  Tm  Tm5  1  0.658799  0.250000  0.293049  1
  Tm  Tm6  1  0.841857  0.250000  0.793629  1
  Tm  Tm7  1  0.340853  0.750000  0.707457  1
  Tm  Tm8  1  0.449237  0.750000  0.998887  1
  Tm  Tm9  1  0.952364  0.250000  0.500674  1
  Tm  Tm10  1  0.548323  0.250000  0.001080  1
  Tm  Tm11  1  0.047961  0.750000  0.498931  1
  Tm  Tm12  1  0.823446  0.957927  0.065894  1
  Tm  Tm13  1  0.321114  0.040200  0.433161  1
  Tm  Tm14  1  0.177798  0.463760  0.933711  1
  Tm  Tm15  1  0.679015  0.539817  0.566890  1
  Tm  Tm16  1  0.177798  0.036240  0.933711  1
  Tm  Tm17  1  0.679015  0.960183  0.566890  1
  Tm  Tm18  1  0.823446  0.542073  0.065894  1
  Tm  Tm19  1  0.321114  0.459800  0.433161  1
  Co  Co20  1  0.069894  0.750000  0.990782  1
  Ni  Ni21  1  0.428736  0.750000  0.490936  1
  Ni  Ni22  1  0.928236  0.250000  0.009794  1
  Ni  Ni23  1  0.571583  0.250000  0.509501  1
  Sb  Sb24  1  0.931192  0.991646  0.328035  1
  Sb  Sb25  1  0.431708  0.008536  0.172325  1
  Sb  Sb26  1  0.068736  0.491417  0.671853  1
  Sb  Sb27  1  0.568620  0.508031  0.827638  1
  Sb  Sb28  1  0.068736  0.008583  0.671853  1
  Sb  Sb29  1  0.568620  0.991969  0.827638  1
  Sb  Sb30  1  0.931192  0.508354  0.328035  1
  Sb  Sb31  1  0.431708  0.491464  0.172325  1
