# generated using pymatgen
data_Sm2Ho4Co15(P4Rh)3
_symmetry_space_group_name_H-M   'P 1'
_cell_length_a   3.73512000
_cell_length_b   10.61917700
_cell_length_c   12.35120100
_cell_angle_alpha   90.00000000
_cell_angle_beta   90.00000000
_cell_angle_gamma   90.00000000
_symmetry_Int_Tables_number   1
_chemical_formula_structural   Sm2Ho4Co15(P4Rh)3
_chemical_formula_sum   'Sm2 Ho4 Co15 P12 Rh3'
_cell_volume   489.89680624
_cell_formula_units_Z   1
loop_
 _symmetry_equiv_pos_site_id
 _symmetry_equiv_pos_as_xyz
  1  'x, y, z'
loop_
 _atom_site_type_symbol
 _atom_site_label
 _atom_site_symmetry_multiplicity
 _atom_site_fract_x
 _atom_site_fract_y
 _atom_site_fract_z
 _atom_site_occupancy
  Sm  Sm0  1  0.000000  0.500000  0.520708  1
  Sm  Sm1  1  0.500000  0.000000  0.474633  1
  Ho  Ho2  1  0.500000  0.818414  0.206720  1
  Ho  Ho3  1  0.500000  0.181586  0.206720  1
  Ho  Ho4  1  0.000000  0.687058  0.794622  1
  Ho  Ho5  1  0.000000  0.312942  0.794622  1
  Co  Co6  1  0.000000  0.000000  0.293286  1
  Co  Co7  1  0.000000  0.500000  0.989205  1
  Co  Co8  1  0.500000  0.000000  0.014563  1
  Co  Co9  1  0.500000  0.331334  0.994586  1
  Co  Co10  1  0.500000  0.668666  0.994586  1
  Co  Co11  1  0.000000  0.166680  0.008263  1
  Co  Co12  1  0.000000  0.833320  0.008263  1
  Co  Co13  1  0.500000  0.296856  0.427103  1
  Co  Co14  1  0.500000  0.703144  0.427103  1
  Co  Co15  1  0.000000  0.199358  0.569077  1
  Co  Co16  1  0.000000  0.800642  0.569077  1
  Co  Co17  1  0.500000  0.880590  0.710662  1
  Co  Co18  1  0.500000  0.119410  0.710662  1
  Co  Co19  1  0.000000  0.621355  0.289084  1
  Co  Co20  1  0.000000  0.378645  0.289084  1
  P  P21  1  0.500000  0.500000  0.891244  1
  P  P22  1  0.000000  0.000000  0.117271  1
  P  P23  1  0.500000  0.500000  0.347635  1
  P  P24  1  0.000000  0.000000  0.651035  1
  P  P25  1  0.500000  0.300115  0.612847  1
  P  P26  1  0.500000  0.699885  0.612847  1
  P  P27  1  0.000000  0.190861  0.382089  1
  P  P28  1  0.000000  0.809139  0.382089  1
  P  P29  1  0.500000  0.845259  0.895992  1
  P  P30  1  0.500000  0.154741  0.895992  1
  P  P31  1  0.000000  0.656751  0.106104  1
  P  P32  1  0.000000  0.343249  0.106104  1
  Rh  Rh33  1  0.500000  0.500000  0.159546  1
  Rh  Rh34  1  0.000000  0.000000  0.841056  1
  Rh  Rh35  1  0.500000  0.500000  0.705520  1
