# generated using pymatgen
data_BeV6Ga2PtN2
_symmetry_space_group_name_H-M   'P 1'
_cell_length_a   6.56345647
_cell_length_b   6.54265660
_cell_length_c   6.55314600
_cell_angle_alpha   90.00000000
_cell_angle_beta   90.00000000
_cell_angle_gamma   90.21920208
_symmetry_Int_Tables_number   1
_chemical_formula_structural   BeV6Ga2PtN2
_chemical_formula_sum   'Be2 V12 Ga4 Pt2 N4'
_cell_volume   281.40603107
_cell_formula_units_Z   2
loop_
 _symmetry_equiv_pos_site_id
 _symmetry_equiv_pos_as_xyz
  1  'x, y, z'
loop_
 _atom_site_type_symbol
 _atom_site_label
 _atom_site_symmetry_multiplicity
 _atom_site_fract_x
 _atom_site_fract_y
 _atom_site_fract_z
 _atom_site_occupancy
  Be  Be0  1  0.819297  0.326911  0.178345  1
  Be  Be1  1  0.680703  0.673089  0.678345  1
  V  V2  1  0.789031  0.964884  0.373920  1
  V  V3  1  0.710969  0.035116  0.873920  1
  V  V4  1  0.211588  0.458431  0.124618  1
  V  V5  1  0.288412  0.541569  0.624618  1
  V  V6  1  0.958657  0.384071  0.787550  1
  V  V7  1  0.038680  0.871380  0.711409  1
  V  V8  1  0.461320  0.128620  0.211409  1
  V  V9  1  0.541343  0.615929  0.287550  1
  V  V10  1  0.383956  0.785182  0.958146  1
  V  V11  1  0.871613  0.708794  0.037912  1
  V  V12  1  0.116044  0.214818  0.458146  1
  V  V13  1  0.628387  0.291206  0.537912  1
  Ga  Ga14  1  0.585173  0.432622  0.928107  1
  Ga  Ga15  1  0.444804  0.914657  0.573916  1
  Ga  Ga16  1  0.914827  0.567378  0.428107  1
  Ga  Ga17  1  0.055196  0.085343  0.073916  1
  Pt  Pt18  1  0.179303  0.823742  0.319361  1
  Pt  Pt19  1  0.320697  0.176258  0.819361  1
  N  N20  1  0.876100  0.122849  0.627960  1
  N  N21  1  0.623900  0.877151  0.127960  1
  N  N22  1  0.128099  0.627847  0.878756  1
  N  N23  1  0.371901  0.372153  0.378756  1
