# generated using pymatgen
data_Li2LaTbSi2Pb
_symmetry_space_group_name_H-M   'P 1'
_cell_length_a   9.82465216
_cell_length_b   9.82464995
_cell_length_c   6.96628500
_cell_angle_alpha   90.00000000
_cell_angle_beta   90.00000000
_cell_angle_gamma   153.40622201
_symmetry_Int_Tables_number   1
_chemical_formula_structural   Li2LaTbSi2Pb
_chemical_formula_sum   'Li4 La2 Tb2 Si4 Pb2'
_cell_volume   301.01332635
_cell_formula_units_Z   2
loop_
 _symmetry_equiv_pos_site_id
 _symmetry_equiv_pos_as_xyz
  1  'x, y, z'
loop_
 _atom_site_type_symbol
 _atom_site_label
 _atom_site_symmetry_multiplicity
 _atom_site_fract_x
 _atom_site_fract_y
 _atom_site_fract_z
 _atom_site_occupancy
  Li  Li0  1  0.183195  0.816805  0.053328  1
  Li  Li1  1  0.183195  0.816805  0.446672  1
  Li  Li2  1  0.816805  0.183195  0.946672  1
  Li  Li3  1  0.816805  0.183195  0.553328  1
  La  La4  1  0.549836  0.450164  0.250000  1
  La  La5  1  0.450164  0.549836  0.750000  1
  Tb  Tb6  1  0.354441  0.645559  0.250000  1
  Tb  Tb7  1  0.645559  0.354441  0.750000  1
  Si  Si8  1  0.057291  0.942709  0.923813  1
  Si  Si9  1  0.942709  0.057291  0.076187  1
  Si  Si10  1  0.942709  0.057291  0.423813  1
  Si  Si11  1  0.057291  0.942709  0.576187  1
  Pb  Pb12  1  0.722756  0.277244  0.250000  1
  Pb  Pb13  1  0.277244  0.722756  0.750000  1
