# generated using pymatgen
data_Eu4Sc(GaSb3)2
_symmetry_space_group_name_H-M   'P 1'
_cell_length_a   4.43632300
_cell_length_b   7.56525200
_cell_length_c   22.97412600
_cell_angle_alpha   90.00000000
_cell_angle_beta   90.00000000
_cell_angle_gamma   90.00000000
_symmetry_Int_Tables_number   1
_chemical_formula_structural   Eu4Sc(GaSb3)2
_chemical_formula_sum   'Eu8 Sc2 Ga4 Sb12'
_cell_volume   771.05535268
_cell_formula_units_Z   2
loop_
 _symmetry_equiv_pos_site_id
 _symmetry_equiv_pos_as_xyz
  1  'x, y, z'
loop_
 _atom_site_type_symbol
 _atom_site_label
 _atom_site_symmetry_multiplicity
 _atom_site_fract_x
 _atom_site_fract_y
 _atom_site_fract_z
 _atom_site_occupancy
  Eu  Eu0  1  0.000000  0.470919  0.918247  1
  Eu  Eu1  1  0.000000  0.281439  0.746155  1
  Eu  Eu2  1  0.000000  0.781439  0.753845  1
  Eu  Eu3  1  0.000000  0.529081  0.081753  1
  Eu  Eu4  1  0.000000  0.970919  0.581753  1
  Eu  Eu5  1  0.000000  0.718561  0.253845  1
  Eu  Eu6  1  0.000000  0.029081  0.418247  1
  Eu  Eu7  1  0.000000  0.218561  0.246155  1
  Sc  Sc8  1  0.000000  0.000000  0.000000  1
  Sc  Sc9  1  0.000000  0.500000  0.500000  1
  Ga  Ga10  1  0.500000  0.829700  0.880623  1
  Ga  Ga11  1  0.500000  0.170300  0.119377  1
  Ga  Ga12  1  0.500000  0.670300  0.380623  1
  Ga  Ga13  1  0.500000  0.329700  0.619377  1
  Sb  Sb14  1  0.500000  0.763679  0.496606  1
  Sb  Sb15  1  0.000000  0.459454  0.368584  1
  Sb  Sb16  1  0.000000  0.959454  0.131416  1
  Sb  Sb17  1  0.500000  0.523927  0.813643  1
  Sb  Sb18  1  0.500000  0.476073  0.186357  1
  Sb  Sb19  1  0.000000  0.040546  0.868584  1
  Sb  Sb20  1  0.000000  0.540546  0.631416  1
  Sb  Sb21  1  0.500000  0.976073  0.313643  1
  Sb  Sb22  1  0.500000  0.236321  0.503394  1
  Sb  Sb23  1  0.500000  0.023927  0.686357  1
  Sb  Sb24  1  0.500000  0.263679  0.003394  1
  Sb  Sb25  1  0.500000  0.736321  0.996606  1
