# generated using pymatgen
data_Ta5V(B2Ru5)2
_symmetry_space_group_name_H-M   'P 1'
_cell_length_a   9.41646500
_cell_length_b   9.41646500
_cell_length_c   2.99219800
_cell_angle_alpha   90.00000000
_cell_angle_beta   90.00000000
_cell_angle_gamma   90.00000000
_symmetry_Int_Tables_number   1
_chemical_formula_structural   Ta5V(B2Ru5)2
_chemical_formula_sum   'Ta5 V1 B4 Ru10'
_cell_volume   265.31763741
_cell_formula_units_Z   1
loop_
 _symmetry_equiv_pos_site_id
 _symmetry_equiv_pos_as_xyz
  1  'x, y, z'
loop_
 _atom_site_type_symbol
 _atom_site_label
 _atom_site_symmetry_multiplicity
 _atom_site_fract_x
 _atom_site_fract_y
 _atom_site_fract_z
 _atom_site_occupancy
  Ta  Ta0  1  0.821772  0.675527  0.000000  1
  Ta  Ta1  1  0.178228  0.324473  0.000000  1
  Ta  Ta2  1  0.324473  0.821772  0.000000  1
  Ta  Ta3  1  0.675527  0.178228  0.000000  1
  Ta  Ta4  1  0.000000  0.000000  0.000000  1
  V  V5  1  0.500000  0.500000  0.000000  1
  B  B6  1  0.618816  0.873752  0.000000  1
  B  B7  1  0.381184  0.126248  0.000000  1
  B  B8  1  0.126248  0.618816  0.000000  1
  B  B9  1  0.873752  0.381184  0.000000  1
  Ru  Ru10  1  0.500000  0.000000  0.500000  1
  Ru  Ru11  1  0.000000  0.500000  0.500000  1
  Ru  Ru12  1  0.567608  0.712673  0.500000  1
  Ru  Ru13  1  0.432392  0.287327  0.500000  1
  Ru  Ru14  1  0.073501  0.780424  0.500000  1
  Ru  Ru15  1  0.926499  0.219576  0.500000  1
  Ru  Ru16  1  0.287327  0.567608  0.500000  1
  Ru  Ru17  1  0.712673  0.432392  0.500000  1
  Ru  Ru18  1  0.219576  0.073501  0.500000  1
  Ru  Ru19  1  0.780424  0.926499  0.500000  1
