# generated using pymatgen
data_Ca6Al16Ir7
_symmetry_space_group_name_H-M   'P 1'
_cell_length_a   8.97328438
_cell_length_b   8.97327358
_cell_length_c   8.97324600
_cell_angle_alpha   59.99997051
_cell_angle_beta   60.00008007
_cell_angle_gamma   59.99999837
_symmetry_Int_Tables_number   1
_chemical_formula_structural   Ca6Al16Ir7
_chemical_formula_sum   'Ca6 Al16 Ir7'
_cell_volume   510.90138211
_cell_formula_units_Z   1
loop_
 _symmetry_equiv_pos_site_id
 _symmetry_equiv_pos_as_xyz
  1  'x, y, z'
loop_
 _atom_site_type_symbol
 _atom_site_label
 _atom_site_symmetry_multiplicity
 _atom_site_fract_x
 _atom_site_fract_y
 _atom_site_fract_z
 _atom_site_occupancy
  Ca  Ca0  1  0.207360  0.792640  0.792640  1
  Ca  Ca1  1  0.792640  0.207360  0.207360  1
  Ca  Ca2  1  0.792641  0.207359  0.792640  1
  Ca  Ca3  1  0.792641  0.792641  0.207360  1
  Ca  Ca4  1  0.207359  0.792641  0.207360  1
  Ca  Ca5  1  0.207359  0.207359  0.792640  1
  Al  Al6  1  0.826467  0.826466  0.826467  1
  Al  Al7  1  0.826466  0.826466  0.520601  1
  Al  Al8  1  0.520601  0.826467  0.826466  1
  Al  Al9  1  0.826467  0.520601  0.826466  1
  Al  Al10  1  0.173533  0.173534  0.173533  1
  Al  Al11  1  0.173534  0.173534  0.479399  1
  Al  Al12  1  0.173533  0.479399  0.173534  1
  Al  Al13  1  0.479399  0.173533  0.173534  1
  Al  Al14  1  0.619355  0.619356  0.619356  1
  Al  Al15  1  0.619356  0.619355  0.141934  1
  Al  Al16  1  0.141933  0.619355  0.619356  1
  Al  Al17  1  0.619355  0.141933  0.619356  1
  Al  Al18  1  0.380645  0.380644  0.380644  1
  Al  Al19  1  0.380644  0.380645  0.858066  1
  Al  Al20  1  0.380645  0.858067  0.380644  1
  Al  Al21  1  0.858067  0.380645  0.380644  1
  Ir  Ir22  1  0.500000  0.500000  0.500000  1
  Ir  Ir23  1  0.000000  0.500000  0.500000  1
  Ir  Ir24  1  0.500000  0.000000  0.000000  1
  Ir  Ir25  1  0.500000  0.000000  0.500000  1
  Ir  Ir26  1  0.500000  0.500000  0.000000  1
  Ir  Ir27  1  0.000000  0.500000  0.000000  1
  Ir  Ir28  1  0.000000  0.000000  0.500000  1
