# generated using pymatgen
data_Tb2Y3IrRh2
_symmetry_space_group_name_H-M   'P 1'
_cell_length_a   10.96014100
_cell_length_b   10.96076200
_cell_length_c   6.40361700
_cell_angle_alpha   90.00000000
_cell_angle_beta   90.00000000
_cell_angle_gamma   90.00000000
_symmetry_Int_Tables_number   1
_chemical_formula_structural   Tb2Y3IrRh2
_chemical_formula_sum   'Tb8 Y12 Ir4 Rh8'
_cell_volume   769.27609634
_cell_formula_units_Z   4
loop_
 _symmetry_equiv_pos_site_id
 _symmetry_equiv_pos_as_xyz
  1  'x, y, z'
loop_
 _atom_site_type_symbol
 _atom_site_label
 _atom_site_symmetry_multiplicity
 _atom_site_fract_x
 _atom_site_fract_y
 _atom_site_fract_z
 _atom_site_occupancy
  Tb  Tb0  1  0.291667  0.090330  0.379391  1
  Tb  Tb1  1  0.291667  0.909670  0.879391  1
  Tb  Tb2  1  0.708333  0.090330  0.879391  1
  Tb  Tb3  1  0.708333  0.909670  0.379391  1
  Tb  Tb4  1  0.000000  0.000000  0.500014  1
  Tb  Tb5  1  0.000000  0.000000  0.000014  1
  Tb  Tb6  1  0.500000  0.500000  0.000253  1
  Tb  Tb7  1  0.500000  0.500000  0.500253  1
  Y  Y8  1  0.587985  0.789881  0.879899  1
  Y  Y9  1  0.587985  0.210119  0.379899  1
  Y  Y10  1  0.412015  0.789881  0.379899  1
  Y  Y11  1  0.412015  0.210119  0.879899  1
  Y  Y12  1  0.209968  0.412146  0.620106  1
  Y  Y13  1  0.209968  0.587854  0.120106  1
  Y  Y14  1  0.790032  0.412146  0.120106  1
  Y  Y15  1  0.790032  0.587854  0.620106  1
  Y  Y16  1  0.909785  0.708519  0.120768  1
  Y  Y17  1  0.909785  0.291481  0.620768  1
  Y  Y18  1  0.090215  0.708519  0.620768  1
  Y  Y19  1  0.090215  0.291481  0.120768  1
  Ir  Ir20  1  0.654358  0.345372  0.750218  1
  Ir  Ir21  1  0.654358  0.654628  0.250218  1
  Ir  Ir22  1  0.345642  0.345372  0.250218  1
  Ir  Ir23  1  0.345642  0.654628  0.750218  1
  Rh  Rh24  1  0.846729  0.152887  0.249488  1
  Rh  Rh25  1  0.846729  0.847113  0.749488  1
  Rh  Rh26  1  0.153271  0.152887  0.749488  1
  Rh  Rh27  1  0.153271  0.847113  0.249488  1
  Rh  Rh28  1  0.500000  0.000000  0.125668  1
  Rh  Rh29  1  0.500000  0.000000  0.625668  1
  Rh  Rh30  1  0.000000  0.500000  0.874326  1
  Rh  Rh31  1  0.000000  0.500000  0.374326  1
