# generated using pymatgen
data_Y3Lu7Bi6
_symmetry_space_group_name_H-M   'P 1'
_cell_length_a   8.17951100
_cell_length_b   9.38840200
_cell_length_c   11.91395900
_cell_angle_alpha   90.00000000
_cell_angle_beta   90.00000000
_cell_angle_gamma   90.00000000
_symmetry_Int_Tables_number   1
_chemical_formula_structural   Y3Lu7Bi6
_chemical_formula_sum   'Y6 Lu14 Bi12'
_cell_volume   914.90314246
_cell_formula_units_Z   2
loop_
 _symmetry_equiv_pos_site_id
 _symmetry_equiv_pos_as_xyz
  1  'x, y, z'
loop_
 _atom_site_type_symbol
 _atom_site_label
 _atom_site_symmetry_multiplicity
 _atom_site_fract_x
 _atom_site_fract_y
 _atom_site_fract_z
 _atom_site_occupancy
  Y  Y0  1  0.647662  0.250000  0.783409  1
  Y  Y1  1  0.852338  0.750000  0.283408  1
  Y  Y2  1  0.311809  0.250000  0.218474  1
  Y  Y3  1  0.188191  0.750000  0.718475  1
  Y  Y4  1  0.813522  0.250000  0.281579  1
  Y  Y5  1  0.686477  0.750000  0.781580  1
  Lu  Lu6  1  0.476067  0.250000  0.489146  1
  Lu  Lu7  1  0.023932  0.750000  0.989146  1
  Lu  Lu8  1  0.976688  0.250000  0.010268  1
  Lu  Lu9  1  0.523313  0.750000  0.510268  1
  Lu  Lu10  1  0.149369  0.250000  0.717830  1
  Lu  Lu11  1  0.350631  0.750000  0.217830  1
  Lu  Lu12  1  0.192897  0.567293  0.440508  1
  Lu  Lu13  1  0.307103  0.432708  0.940508  1
  Lu  Lu14  1  0.693118  0.933180  0.058458  1
  Lu  Lu15  1  0.806882  0.066819  0.558459  1
  Lu  Lu16  1  0.806882  0.433181  0.558459  1
  Lu  Lu17  1  0.693118  0.566820  0.058458  1
  Lu  Lu18  1  0.307103  0.067292  0.940508  1
  Lu  Lu19  1  0.192897  0.932707  0.440508  1
  Bi  Bi20  1  0.066547  0.995212  0.172963  1
  Bi  Bi21  1  0.433453  0.004789  0.672963  1
  Bi  Bi22  1  0.563812  0.505137  0.326198  1
  Bi  Bi23  1  0.936188  0.494862  0.826197  1
  Bi  Bi24  1  0.936188  0.005139  0.826197  1
  Bi  Bi25  1  0.563812  0.994862  0.326198  1
  Bi  Bi26  1  0.433453  0.495212  0.672963  1
  Bi  Bi27  1  0.066547  0.504787  0.172963  1
  Bi  Bi28  1  0.095733  0.250000  0.459928  1
  Bi  Bi29  1  0.404268  0.750000  0.959928  1
  Bi  Bi30  1  0.595300  0.250000  0.043112  1
  Bi  Bi31  1  0.904700  0.750000  0.543113  1
