# generated using pymatgen
data_Mg3Zr(Ta3B10)2
_symmetry_space_group_name_H-M   'P 1'
_cell_length_a   6.16576949
_cell_length_b   7.03466626
_cell_length_c   7.49091821
_cell_angle_alpha   94.64877883
_cell_angle_beta   101.90556950
_cell_angle_gamma   115.93609146
_symmetry_Int_Tables_number   1
_chemical_formula_structural   Mg3Zr(Ta3B10)2
_chemical_formula_sum   'Mg3 Zr1 Ta6 B20'
_cell_volume   280.43416022
_cell_formula_units_Z   1
loop_
 _symmetry_equiv_pos_site_id
 _symmetry_equiv_pos_as_xyz
  1  'x, y, z'
loop_
 _atom_site_type_symbol
 _atom_site_label
 _atom_site_symmetry_multiplicity
 _atom_site_fract_x
 _atom_site_fract_y
 _atom_site_fract_z
 _atom_site_occupancy
  Mg  Mg0  1  0.497766  0.997959  0.996939  1
  Mg  Mg1  1  0.999958  0.203134  0.604150  1
  Mg  Mg2  1  0.003471  0.601139  0.799935  1
  Zr  Zr3  1  0.998153  0.997006  0.000985  1
  Ta  Ta4  1  0.499594  0.797444  0.401361  1
  Ta  Ta5  1  0.999633  0.399545  0.202450  1
  Ta  Ta6  1  0.501656  0.205048  0.597745  1
  Ta  Ta7  1  0.999709  0.802528  0.397787  1
  Ta  Ta8  1  0.499270  0.600978  0.797706  1
  Ta  Ta9  1  0.500206  0.395759  0.200969  1
  B  B10  1  0.335301  0.235208  0.865741  1
  B  B11  1  0.331825  0.630826  0.067397  1
  B  B12  1  0.165912  0.368460  0.930122  1
  B  B13  1  0.336204  0.032852  0.267154  1
  B  B14  1  0.167494  0.762868  0.133621  1
  B  B15  1  0.834008  0.235984  0.865368  1
  B  B16  1  0.165668  0.166260  0.338314  1
  B  B17  1  0.832646  0.629213  0.066381  1
  B  B18  1  0.332142  0.433127  0.467985  1
  B  B19  1  0.665961  0.365198  0.934385  1
  B  B20  1  0.830242  0.030775  0.269785  1
  B  B21  1  0.662954  0.764303  0.133746  1
  B  B22  1  0.333001  0.835302  0.667086  1
  B  B23  1  0.166378  0.567162  0.535356  1
  B  B24  1  0.667504  0.166440  0.335518  1
  B  B25  1  0.836124  0.434611  0.469015  1
  B  B26  1  0.168181  0.967819  0.727769  1
  B  B27  1  0.833843  0.835739  0.661867  1
  B  B28  1  0.670231  0.568919  0.533694  1
  B  B29  1  0.664965  0.968394  0.729671  1
