# generated using pymatgen
data_Cs4TaV(Te4Au)2
_symmetry_space_group_name_H-M   'P 1'
_cell_length_a   15.85344733
_cell_length_b   14.07095397
_cell_length_c   8.54179378
_cell_angle_alpha   85.31779723
_cell_angle_beta   62.20261673
_cell_angle_gamma   32.47959033
_symmetry_Int_Tables_number   1
_chemical_formula_structural   Cs4TaV(Te4Au)2
_chemical_formula_sum   'Cs4 Ta1 V1 Te8 Au2'
_cell_volume   682.91491505
_cell_formula_units_Z   1
loop_
 _symmetry_equiv_pos_site_id
 _symmetry_equiv_pos_as_xyz
  1  'x, y, z'
loop_
 _atom_site_type_symbol
 _atom_site_label
 _atom_site_symmetry_multiplicity
 _atom_site_fract_x
 _atom_site_fract_y
 _atom_site_fract_z
 _atom_site_occupancy
  Cs  Cs0  1  0.820451  0.820451  0.179549  1
  Cs  Cs1  1  0.179549  0.179549  0.820451  1
  Cs  Cs2  1  0.431514  0.431514  0.068486  1
  Cs  Cs3  1  0.068486  0.068486  0.431514  1
  Ta  Ta4  1  0.250000  0.250000  0.250000  1
  V  V5  1  0.000000  0.000000  0.000000  1
  Te  Te6  1  0.371918  0.738282  0.818698  1
  Te  Te7  1  0.071103  0.818698  0.738282  1
  Te  Te8  1  0.818698  0.071103  0.371918  1
  Te  Te9  1  0.738282  0.371918  0.071103  1
  Te  Te10  1  0.862063  0.523294  0.440648  1
  Te  Te11  1  0.173995  0.440648  0.523294  1
  Te  Te12  1  0.440648  0.173995  0.862063  1
  Te  Te13  1  0.523294  0.862063  0.173995  1
  Au  Au14  1  0.750000  0.750000  0.750000  1
  Au  Au15  1  0.500000  0.500000  0.500000  1
