# generated using pymatgen
data_La12Ir(OsBr4)3
_symmetry_space_group_name_H-M   'P 1'
_cell_length_a   10.63010321
_cell_length_b   10.63010310
_cell_length_c   10.63010303
_cell_angle_alpha   109.46666713
_cell_angle_beta   109.46667194
_cell_angle_gamma   109.46666551
_symmetry_Int_Tables_number   1
_chemical_formula_structural   La12Ir(OsBr4)3
_chemical_formula_sum   'La12 Ir1 Os3 Br12'
_cell_volume   924.83385493
_cell_formula_units_Z   1
loop_
 _symmetry_equiv_pos_site_id
 _symmetry_equiv_pos_as_xyz
  1  'x, y, z'
loop_
 _atom_site_type_symbol
 _atom_site_label
 _atom_site_symmetry_multiplicity
 _atom_site_fract_x
 _atom_site_fract_y
 _atom_site_fract_z
 _atom_site_occupancy
  La  La0  1  0.266110  0.750000  0.233890  1
  La  La1  1  0.483456  0.750000  0.016544  1
  La  La2  1  0.232132  0.467632  0.485627  1
  La  La3  1  0.014373  0.032368  0.267868  1
  La  La4  1  0.233890  0.266110  0.750000  1
  La  La5  1  0.016544  0.483456  0.750000  1
  La  La6  1  0.485627  0.232132  0.467632  1
  La  La7  1  0.267868  0.014373  0.032368  1
  La  La8  1  0.750000  0.233890  0.266110  1
  La  La9  1  0.750000  0.016544  0.483456  1
  La  La10  1  0.467632  0.485627  0.232132  1
  La  La11  1  0.032368  0.267868  0.014373  1
  Ir  Ir12  1  0.250000  0.250000  0.250000  1
  Os  Os13  1  0.498911  0.001089  0.250000  1
  Os  Os14  1  0.250000  0.498911  0.001089  1
  Os  Os15  1  0.001089  0.250000  0.498911  1
  Br  Br16  1  0.250000  0.994571  0.505429  1
  Br  Br17  1  0.510759  0.505486  0.755408  1
  Br  Br18  1  0.250000  0.755617  0.744383  1
  Br  Br19  1  0.989241  0.744592  0.994514  1
  Br  Br20  1  0.994571  0.505429  0.250000  1
  Br  Br21  1  0.744592  0.994514  0.989241  1
  Br  Br22  1  0.755617  0.744383  0.250000  1
  Br  Br23  1  0.505486  0.755408  0.510759  1
  Br  Br24  1  0.505429  0.250000  0.994571  1
  Br  Br25  1  0.755408  0.510759  0.505486  1
  Br  Br26  1  0.744383  0.250000  0.755617  1
  Br  Br27  1  0.994514  0.989241  0.744592  1
