# generated using pymatgen
data_Yb6Os2N7
_symmetry_space_group_name_H-M   'P 1'
_cell_length_a   6.03827248
_cell_length_b   6.03827203
_cell_length_c   6.03827215
_cell_angle_alpha   94.50052511
_cell_angle_beta   94.50052009
_cell_angle_gamma   94.50051546
_symmetry_Int_Tables_number   1
_chemical_formula_structural   Yb6Os2N7
_chemical_formula_sum   'Yb6 Os2 N7'
_cell_volume   218.00958285
_cell_formula_units_Z   1
loop_
 _symmetry_equiv_pos_site_id
 _symmetry_equiv_pos_as_xyz
  1  'x, y, z'
loop_
 _atom_site_type_symbol
 _atom_site_label
 _atom_site_symmetry_multiplicity
 _atom_site_fract_x
 _atom_site_fract_y
 _atom_site_fract_z
 _atom_site_occupancy
  Yb  Yb0  1  0.663805  0.109942  0.806158  1
  Yb  Yb1  1  0.109942  0.806158  0.663805  1
  Yb  Yb2  1  0.806158  0.663805  0.109942  1
  Yb  Yb3  1  0.336195  0.890058  0.193842  1
  Yb  Yb4  1  0.890058  0.193842  0.336195  1
  Yb  Yb5  1  0.193842  0.336195  0.890058  1
  Os  Os6  1  0.623719  0.623719  0.623719  1
  Os  Os7  1  0.376281  0.376281  0.376281  1
  N  N8  1  0.000000  0.000000  0.000000  1
  N  N9  1  0.730165  0.859694  0.466388  1
  N  N10  1  0.859694  0.466388  0.730165  1
  N  N11  1  0.466388  0.730165  0.859694  1
  N  N12  1  0.269835  0.140306  0.533612  1
  N  N13  1  0.140306  0.533612  0.269835  1
  N  N14  1  0.533612  0.269835  0.140306  1
