# generated using pymatgen
data_Er3Lu5Os2(WC4)2
_symmetry_space_group_name_H-M   'P 1'
_cell_length_a   5.00994400
_cell_length_b   6.52577909
_cell_length_c   9.73380490
_cell_angle_alpha   89.17161914
_cell_angle_beta   90.00000000
_cell_angle_gamma   90.00000000
_symmetry_Int_Tables_number   1
_chemical_formula_structural   Er3Lu5Os2(WC4)2
_chemical_formula_sum   'Er3 Lu5 Os2 W2 C8'
_cell_volume   318.20169182
_cell_formula_units_Z   1
loop_
 _symmetry_equiv_pos_site_id
 _symmetry_equiv_pos_as_xyz
  1  'x, y, z'
loop_
 _atom_site_type_symbol
 _atom_site_label
 _atom_site_symmetry_multiplicity
 _atom_site_fract_x
 _atom_site_fract_y
 _atom_site_fract_z
 _atom_site_occupancy
  Er  Er0  1  0.750000  0.459040  0.781926  1
  Er  Er1  1  0.750000  0.968363  0.715767  1
  Er  Er2  1  0.250000  0.031774  0.284083  1
  Lu  Lu3  1  0.250000  0.674823  0.558491  1
  Lu  Lu4  1  0.750000  0.325551  0.441158  1
  Lu  Lu5  1  0.750000  0.827359  0.059579  1
  Lu  Lu6  1  0.250000  0.172241  0.940725  1
  Lu  Lu7  1  0.250000  0.541413  0.218320  1
  Os  Os8  1  0.750000  0.781390  0.368863  1
  Os  Os9  1  0.250000  0.218711  0.630587  1
  W  W10  1  0.250000  0.713221  0.870446  1
  W  W11  1  0.750000  0.286924  0.129844  1
  C  C12  1  0.250000  0.447011  0.758756  1
  C  C13  1  0.750000  0.553343  0.240976  1
  C  C14  1  0.750000  0.050376  0.260352  1
  C  C15  1  0.250000  0.949783  0.739667  1
  C  C16  1  0.250000  0.828375  0.057808  1
  C  C17  1  0.750000  0.169583  0.943350  1
  C  C18  1  0.750000  0.671111  0.552257  1
  C  C19  1  0.250000  0.329606  0.447043  1
