# generated using pymatgen
data_CeNd(Al5Os)4
_symmetry_space_group_name_H-M   'P 1'
_cell_length_a   6.88735522
_cell_length_b   6.88735526
_cell_length_c   9.18970300
_cell_angle_alpha   90.00000000
_cell_angle_beta   90.00000000
_cell_angle_gamma   96.86765892
_symmetry_Int_Tables_number   1
_chemical_formula_structural   CeNd(Al5Os)4
_chemical_formula_sum   'Ce1 Nd1 Al20 Os4'
_cell_volume   432.79192212
_cell_formula_units_Z   1
loop_
 _symmetry_equiv_pos_site_id
 _symmetry_equiv_pos_as_xyz
  1  'x, y, z'
loop_
 _atom_site_type_symbol
 _atom_site_label
 _atom_site_symmetry_multiplicity
 _atom_site_fract_x
 _atom_site_fract_y
 _atom_site_fract_z
 _atom_site_occupancy
  Ce  Ce0  1  0.127219  0.872781  0.250000  1
  Nd  Nd1  1  0.872315  0.127685  0.750000  1
  Al  Al2  1  0.516836  0.781954  0.750000  1
  Al  Al3  1  0.782263  0.517263  0.250000  1
  Al  Al4  1  0.482737  0.217737  0.250000  1
  Al  Al5  1  0.218046  0.483164  0.750000  1
  Al  Al6  1  0.623496  0.376504  0.953206  1
  Al  Al7  1  0.376953  0.623047  0.047339  1
  Al  Al8  1  0.623496  0.376504  0.546794  1
  Al  Al9  1  0.376953  0.623047  0.452661  1
  Al  Al10  1  0.414727  0.145834  0.750000  1
  Al  Al11  1  0.145845  0.413866  0.250000  1
  Al  Al12  1  0.586134  0.854155  0.250000  1
  Al  Al13  1  0.854166  0.585273  0.750000  1
  Al  Al14  1  0.842173  0.157827  0.397526  1
  Al  Al15  1  0.158508  0.841492  0.602486  1
  Al  Al16  1  0.842173  0.157827  0.102474  1
  Al  Al17  1  0.158508  0.841492  0.897514  1
  Al  Al18  1  0.774335  0.774838  0.000130  1
  Al  Al19  1  0.774335  0.774838  0.499870  1
  Al  Al20  1  0.225162  0.225665  0.000130  1
  Al  Al21  1  0.225162  0.225665  0.499870  1
  Os  Os22  1  0.498583  0.999353  0.000877  1
  Os  Os23  1  0.000647  0.501417  0.000877  1
  Os  Os24  1  0.498583  0.999353  0.499123  1
  Os  Os25  1  0.000647  0.501417  0.499123  1
