# generated using pymatgen
data_DyLu7(Si3Pd)4
_symmetry_space_group_name_H-M   'P 1'
_cell_length_a   8.03346200
_cell_length_b   8.03346222
_cell_length_c   8.16582700
_cell_angle_alpha   90.00000000
_cell_angle_beta   90.00000000
_cell_angle_gamma   119.99999087
_symmetry_Int_Tables_number   1
_chemical_formula_structural   DyLu7(Si3Pd)4
_chemical_formula_sum   'Dy1 Lu7 Si12 Pd4'
_cell_volume   456.39023708
_cell_formula_units_Z   1
loop_
 _symmetry_equiv_pos_site_id
 _symmetry_equiv_pos_as_xyz
  1  'x, y, z'
loop_
 _atom_site_type_symbol
 _atom_site_label
 _atom_site_symmetry_multiplicity
 _atom_site_fract_x
 _atom_site_fract_y
 _atom_site_fract_z
 _atom_site_occupancy
  Dy  Dy0  1  0.000000  0.000000  0.750000  1
  Lu  Lu1  1  0.501939  0.003879  0.250000  1
  Lu  Lu2  1  0.497742  0.995484  0.750000  1
  Lu  Lu3  1  0.996121  0.498061  0.250000  1
  Lu  Lu4  1  0.004516  0.502258  0.750000  1
  Lu  Lu5  1  0.501939  0.498061  0.250000  1
  Lu  Lu6  1  0.497742  0.502258  0.750000  1
  Lu  Lu7  1  0.000000  0.000000  0.250000  1
  Si  Si8  1  0.165740  0.331480  0.001813  1
  Si  Si9  1  0.834260  0.668520  0.999460  1
  Si  Si10  1  0.668520  0.834260  0.001813  1
  Si  Si11  1  0.834260  0.668520  0.500540  1
  Si  Si12  1  0.331480  0.165740  0.999460  1
  Si  Si13  1  0.165740  0.331480  0.498187  1
  Si  Si14  1  0.165740  0.834260  0.001813  1
  Si  Si15  1  0.331480  0.165740  0.500540  1
  Si  Si16  1  0.834260  0.165740  0.999460  1
  Si  Si17  1  0.668520  0.834260  0.498187  1
  Si  Si18  1  0.834260  0.165740  0.500540  1
  Si  Si19  1  0.165740  0.834260  0.498187  1
  Pd  Pd20  1  0.333333  0.666667  0.004300  1
  Pd  Pd21  1  0.666667  0.333333  0.995768  1
  Pd  Pd22  1  0.666667  0.333333  0.504232  1
  Pd  Pd23  1  0.333333  0.666667  0.495700  1
