# generated using pymatgen
data_Tb3Er5Sc12Ga7Si9
_symmetry_space_group_name_H-M   'P 1'
_cell_length_a   7.16099040
_cell_length_b   7.39967083
_cell_length_c   14.25252152
_cell_angle_alpha   90.04381996
_cell_angle_beta   89.93584013
_cell_angle_gamma   90.09064982
_symmetry_Int_Tables_number   1
_chemical_formula_structural   Tb3Er5Sc12Ga7Si9
_chemical_formula_sum   'Tb3 Er5 Sc12 Ga7 Si9'
_cell_volume   755.22482245
_cell_formula_units_Z   1
loop_
 _symmetry_equiv_pos_site_id
 _symmetry_equiv_pos_as_xyz
  1  'x, y, z'
loop_
 _atom_site_type_symbol
 _atom_site_label
 _atom_site_symmetry_multiplicity
 _atom_site_fract_x
 _atom_site_fract_y
 _atom_site_fract_z
 _atom_site_occupancy
  Tb  Tb0  1  0.011695  0.173148  0.099232  1
  Tb  Tb1  1  0.989998  0.824123  0.901405  1
  Tb  Tb2  1  0.489048  0.676613  0.901871  1
  Er  Er3  1  0.989942  0.823538  0.599696  1
  Er  Er4  1  0.509441  0.322689  0.100348  1
  Er  Er5  1  0.009678  0.176377  0.399435  1
  Er  Er6  1  0.510078  0.322886  0.399806  1
  Er  Er7  1  0.490110  0.676728  0.599507  1
  Sc  Sc8  1  0.165922  0.501600  0.749139  1
  Sc  Sc9  1  0.835317  0.498917  0.250106  1
  Sc  Sc10  1  0.333682  0.000970  0.249577  1
  Sc  Sc11  1  0.665177  0.999314  0.749042  1
  Sc  Sc12  1  0.331313  0.172896  0.625171  1
  Sc  Sc13  1  0.667774  0.827509  0.373812  1
  Sc  Sc14  1  0.168083  0.672787  0.374008  1
  Sc  Sc15  1  0.666563  0.825778  0.126961  1
  Sc  Sc16  1  0.831653  0.327036  0.625279  1
  Sc  Sc17  1  0.331016  0.173824  0.874809  1
  Sc  Sc18  1  0.830276  0.328036  0.874187  1
  Sc  Sc19  1  0.172094  0.674857  0.125249  1
  Ga  Ga20  1  0.162160  0.462979  0.538867  1
  Ga  Ga21  1  0.837649  0.536794  0.460377  1
  Ga  Ga22  1  0.337669  0.962517  0.460260  1
  Ga  Ga23  1  0.838835  0.538251  0.040709  1
  Ga  Ga24  1  0.662136  0.036481  0.538810  1
  Ga  Ga25  1  0.159893  0.460679  0.961554  1
  Ga  Ga26  1  0.659803  0.040544  0.962185  1
  Si  Si27  1  0.033291  0.113942  0.750195  1
  Si  Si28  1  0.966509  0.884712  0.250069  1
  Si  Si29  1  0.466278  0.612186  0.249964  1
  Si  Si30  1  0.533611  0.386248  0.749480  1
  Si  Si31  1  0.285735  0.873767  0.749603  1
  Si  Si32  1  0.713726  0.127426  0.249746  1
  Si  Si33  1  0.214186  0.372332  0.250082  1
  Si  Si34  1  0.785502  0.627150  0.749414  1
  Si  Si35  1  0.344157  0.964364  0.040041  1
