# generated using pymatgen
data_Dy4Ho4Os3WC8
_symmetry_space_group_name_H-M   'P 1'
_cell_length_a   5.11559800
_cell_length_b   6.52699937
_cell_length_c   9.80546467
_cell_angle_alpha   89.67404386
_cell_angle_beta   90.00000000
_cell_angle_gamma   90.00000000
_symmetry_Int_Tables_number   1
_chemical_formula_structural   Dy4Ho4Os3WC8
_chemical_formula_sum   'Dy4 Ho4 Os3 W1 C8'
_cell_volume   327.39431280
_cell_formula_units_Z   1
loop_
 _symmetry_equiv_pos_site_id
 _symmetry_equiv_pos_as_xyz
  1  'x, y, z'
loop_
 _atom_site_type_symbol
 _atom_site_label
 _atom_site_symmetry_multiplicity
 _atom_site_fract_x
 _atom_site_fract_y
 _atom_site_fract_z
 _atom_site_occupancy
  Dy  Dy0  1  0.250000  0.680211  0.553918  1
  Dy  Dy1  1  0.250000  0.182129  0.944461  1
  Dy  Dy2  1  0.250000  0.530830  0.213344  1
  Dy  Dy3  1  0.250000  0.029164  0.285538  1
  Ho  Ho4  1  0.750000  0.321707  0.444619  1
  Ho  Ho5  1  0.750000  0.822966  0.055451  1
  Ho  Ho6  1  0.750000  0.467343  0.780257  1
  Ho  Ho7  1  0.750000  0.970534  0.716383  1
  Os  Os8  1  0.750000  0.278558  0.135447  1
  Os  Os9  1  0.750000  0.777331  0.364044  1
  Os  Os10  1  0.250000  0.223603  0.632483  1
  W  W11  1  0.250000  0.721054  0.867673  1
  C  C12  1  0.250000  0.453415  0.759206  1
  C  C13  1  0.750000  0.542483  0.242422  1
  C  C14  1  0.750000  0.043520  0.258968  1
  C  C15  1  0.250000  0.958401  0.740081  1
  C  C16  1  0.250000  0.824512  0.057216  1
  C  C17  1  0.750000  0.174801  0.950339  1
  C  C18  1  0.750000  0.673778  0.550563  1
  C  C19  1  0.250000  0.323659  0.447586  1
