# generated using pymatgen
data_Dy8ErTm(Zn2Bi)2
_symmetry_space_group_name_H-M   'P 1'
_cell_length_a   8.61386179
_cell_length_b   8.61386157
_cell_length_c   8.61386130
_cell_angle_alpha   123.39174378
_cell_angle_beta   123.39174107
_cell_angle_gamma   84.21931618
_symmetry_Int_Tables_number   1
_chemical_formula_structural   Dy8ErTm(Zn2Bi)2
_chemical_formula_sum   'Dy8 Er1 Tm1 Zn4 Bi2'
_cell_volume   426.39470395
_cell_formula_units_Z   1
loop_
 _symmetry_equiv_pos_site_id
 _symmetry_equiv_pos_as_xyz
  1  'x, y, z'
loop_
 _atom_site_type_symbol
 _atom_site_label
 _atom_site_symmetry_multiplicity
 _atom_site_fract_x
 _atom_site_fract_y
 _atom_site_fract_z
 _atom_site_occupancy
  Dy  Dy0  1  0.511053  0.011309  0.806235  1
  Dy  Dy1  1  0.205074  0.704818  0.193765  1
  Dy  Dy2  1  0.011309  0.205074  0.500256  1
  Dy  Dy3  1  0.704818  0.511053  0.499744  1
  Dy  Dy4  1  0.488947  0.988691  0.193765  1
  Dy  Dy5  1  0.794926  0.295182  0.806235  1
  Dy  Dy6  1  0.988691  0.794926  0.499744  1
  Dy  Dy7  1  0.295182  0.488947  0.500256  1
  Er  Er8  1  0.000000  0.000000  0.000000  1
  Tm  Tm9  1  0.500000  0.500000  0.000000  1
  Zn  Zn10  1  0.139775  0.639229  0.779006  1
  Zn  Zn11  1  0.860225  0.360771  0.220994  1
  Zn  Zn12  1  0.639229  0.860225  0.499454  1
  Zn  Zn13  1  0.360771  0.139775  0.500546  1
  Bi  Bi14  1  0.250267  0.250267  0.000000  1
  Bi  Bi15  1  0.749733  0.749733  0.000000  1
