# generated using pymatgen
data_Sm2HfZr3(SnRh)6
_symmetry_space_group_name_H-M   'P 1'
_cell_length_a   7.54136524
_cell_length_b   7.50470869
_cell_length_c   7.44765900
_cell_angle_alpha   90.00000000
_cell_angle_beta   90.00000000
_cell_angle_gamma   120.01568164
_symmetry_Int_Tables_number   1
_chemical_formula_structural   Sm2HfZr3(SnRh)6
_chemical_formula_sum   'Sm2 Hf1 Zr3 Sn6 Rh6'
_cell_volume   364.97707033
_cell_formula_units_Z   1
loop_
 _symmetry_equiv_pos_site_id
 _symmetry_equiv_pos_as_xyz
  1  'x, y, z'
loop_
 _atom_site_type_symbol
 _atom_site_label
 _atom_site_symmetry_multiplicity
 _atom_site_fract_x
 _atom_site_fract_y
 _atom_site_fract_z
 _atom_site_occupancy
  Sm  Sm0  1  0.002314  0.406995  0.250000  1
  Sm  Sm1  1  0.596461  0.591599  0.250000  1
  Hf  Hf2  1  0.398221  0.999713  0.750000  1
  Zr  Zr3  1  0.994149  0.388349  0.750000  1
  Zr  Zr4  1  0.605394  0.612225  0.750000  1
  Zr  Zr5  1  0.397487  0.995325  0.250000  1
  Sn  Sn6  1  0.268038  0.265636  0.511166  1
  Sn  Sn7  1  0.001869  0.734565  0.511521  1
  Sn  Sn8  1  0.001869  0.734565  0.988479  1
  Sn  Sn9  1  0.731944  0.000029  0.496261  1
  Sn  Sn10  1  0.731944  0.000029  0.003739  1
  Sn  Sn11  1  0.268038  0.265636  0.988834  1
  Rh  Rh12  1  0.334961  0.676761  0.532485  1
  Rh  Rh13  1  0.659726  0.325440  0.534466  1
  Rh  Rh14  1  0.334961  0.676761  0.967515  1
  Rh  Rh15  1  0.995575  0.000673  0.750000  1
  Rh  Rh16  1  0.017328  0.000259  0.250000  1
  Rh  Rh17  1  0.659726  0.325440  0.965534  1
