# generated using pymatgen
data_Lu8Ti5Si16W7
_symmetry_space_group_name_H-M   'P 1'
_cell_length_a   6.68571008
_cell_length_b   6.88667743
_cell_length_c   13.02130545
_cell_angle_alpha   89.96835054
_cell_angle_beta   90.00995273
_cell_angle_gamma   90.03881797
_symmetry_Int_Tables_number   1
_chemical_formula_structural   Lu8Ti5Si16W7
_chemical_formula_sum   'Lu8 Ti5 Si16 W7'
_cell_volume   599.53098794
_cell_formula_units_Z   1
loop_
 _symmetry_equiv_pos_site_id
 _symmetry_equiv_pos_as_xyz
  1  'x, y, z'
loop_
 _atom_site_type_symbol
 _atom_site_label
 _atom_site_symmetry_multiplicity
 _atom_site_fract_x
 _atom_site_fract_y
 _atom_site_fract_z
 _atom_site_occupancy
  Lu  Lu0  1  0.498567  0.329658  0.094154  1
  Lu  Lu1  1  0.000307  0.171732  0.405445  1
  Lu  Lu2  1  0.501700  0.669940  0.594911  1
  Lu  Lu3  1  0.001654  0.830064  0.906286  1
  Lu  Lu4  1  0.500419  0.672628  0.905599  1
  Lu  Lu5  1  0.000193  0.827907  0.594252  1
  Lu  Lu6  1  0.499578  0.329245  0.405281  1
  Lu  Lu7  1  0.999665  0.173251  0.094870  1
  Ti  Ti8  1  0.667390  0.828901  0.373565  1
  Ti  Ti9  1  0.167369  0.668126  0.373559  1
  Ti  Ti10  1  0.663422  0.830332  0.125255  1
  Ti  Ti11  1  0.835152  0.331271  0.874382  1
  Ti  Ti12  1  0.334388  0.169703  0.625996  1
  Si  Si13  1  0.664980  0.039186  0.542358  1
  Si  Si14  1  0.165110  0.459416  0.957856  1
  Si  Si15  1  0.333680  0.960705  0.042446  1
  Si  Si16  1  0.835281  0.539843  0.458561  1
  Si  Si17  1  0.335008  0.961082  0.456868  1
  Si  Si18  1  0.836504  0.539328  0.043412  1
  Si  Si19  1  0.662947  0.039744  0.957040  1
  Si  Si20  1  0.163308  0.460289  0.543154  1
  Si  Si21  1  0.534941  0.377537  0.750938  1
  Si  Si22  1  0.035043  0.121972  0.749691  1
  Si  Si23  1  0.463972  0.621969  0.250011  1
  Si  Si24  1  0.964871  0.875900  0.249356  1
  Si  Si25  1  0.799147  0.633643  0.751232  1
  Si  Si26  1  0.298776  0.867257  0.748660  1
  Si  Si27  1  0.201273  0.366885  0.250387  1
  Si  Si28  1  0.702534  0.132913  0.249920  1
  W  W29  1  0.831587  0.330828  0.626970  1
  W  W30  1  0.330639  0.168462  0.874589  1
  W  W31  1  0.169917  0.668366  0.124046  1
  W  W32  1  0.662071  0.009601  0.750735  1
  W  W33  1  0.162279  0.491900  0.749784  1
  W  W34  1  0.338753  0.992338  0.249268  1
  W  W35  1  0.837577  0.508075  0.249159  1
