# generated using pymatgen
data_Er16Sc4Ir11Au
_symmetry_space_group_name_H-M   'P 1'
_cell_length_a   10.73727308
_cell_length_b   10.73727397
_cell_length_c   6.22926900
_cell_angle_alpha   90.02572028
_cell_angle_beta   90.02572028
_cell_angle_gamma   89.80703267
_symmetry_Int_Tables_number   1
_chemical_formula_structural   Er16Sc4Ir11Au
_chemical_formula_sum   'Er16 Sc4 Ir11 Au1'
_cell_volume   718.16224292
_cell_formula_units_Z   1
loop_
 _symmetry_equiv_pos_site_id
 _symmetry_equiv_pos_as_xyz
  1  'x, y, z'
loop_
 _atom_site_type_symbol
 _atom_site_label
 _atom_site_symmetry_multiplicity
 _atom_site_fract_x
 _atom_site_fract_y
 _atom_site_fract_z
 _atom_site_occupancy
  Er  Er0  1  0.286457  0.084787  0.374388  1
  Er  Er1  1  0.290065  0.914000  0.873765  1
  Er  Er2  1  0.706521  0.082078  0.863511  1
  Er  Er3  1  0.707929  0.905928  0.378796  1
  Er  Er4  1  0.585383  0.787879  0.877857  1
  Er  Er5  1  0.578415  0.213554  0.376042  1
  Er  Er6  1  0.412667  0.787904  0.375152  1
  Er  Er7  1  0.412998  0.211204  0.876175  1
  Er  Er8  1  0.212121  0.414617  0.622143  1
  Er  Er9  1  0.212096  0.587333  0.124848  1
  Er  Er10  1  0.786446  0.421585  0.123958  1
  Er  Er11  1  0.788796  0.587002  0.623825  1
  Er  Er12  1  0.915213  0.713543  0.125612  1
  Er  Er13  1  0.917922  0.293479  0.636489  1
  Er  Er14  1  0.086000  0.709935  0.626235  1
  Er  Er15  1  0.094072  0.292071  0.121204  1
  Sc  Sc16  1  0.003833  0.994359  0.503436  1
  Sc  Sc17  1  0.005641  0.996167  0.996564  1
  Sc  Sc18  1  0.498868  0.500205  0.998868  1
  Sc  Sc19  1  0.499795  0.501132  0.501132  1
  Ir  Ir20  1  0.851246  0.853131  0.751316  1
  Ir  Ir21  1  0.146869  0.148754  0.748684  1
  Ir  Ir22  1  0.150361  0.849639  0.250000  1
  Ir  Ir23  1  0.650377  0.349623  0.750000  1
  Ir  Ir24  1  0.648414  0.648248  0.250495  1
  Ir  Ir25  1  0.351752  0.351586  0.249505  1
  Ir  Ir26  1  0.351550  0.648450  0.750000  1
  Ir  Ir27  1  0.500565  0.999990  0.122519  1
  Ir  Ir28  1  0.498902  0.999738  0.616126  1
  Ir  Ir29  1  0.000262  0.501098  0.883874  1
  Ir  Ir30  1  0.000010  0.499435  0.377481  1
  Au  Au31  1  0.848454  0.151546  0.250000  1
