# generated using pymatgen
data_Th4AlNi4Sn
_symmetry_space_group_name_H-M   'P 1'
_cell_length_a   7.49050200
_cell_length_b   7.49050200
_cell_length_c   3.76817100
_cell_angle_alpha   90.00000000
_cell_angle_beta   90.00000000
_cell_angle_gamma   90.00000000
_symmetry_Int_Tables_number   1
_chemical_formula_structural   Th4AlNi4Sn
_chemical_formula_sum   'Th4 Al1 Ni4 Sn1'
_cell_volume   211.42310736
_cell_formula_units_Z   1
loop_
 _symmetry_equiv_pos_site_id
 _symmetry_equiv_pos_as_xyz
  1  'x, y, z'
loop_
 _atom_site_type_symbol
 _atom_site_label
 _atom_site_symmetry_multiplicity
 _atom_site_fract_x
 _atom_site_fract_y
 _atom_site_fract_z
 _atom_site_occupancy
  Th  Th0  1  0.669940  0.183610  0.500000  1
  Th  Th1  1  0.330060  0.816390  0.500000  1
  Th  Th2  1  0.183610  0.330060  0.500000  1
  Th  Th3  1  0.816390  0.669940  0.500000  1
  Al  Al4  1  0.500000  0.500000  0.000000  1
  Ni  Ni5  1  0.869166  0.380094  0.000000  1
  Ni  Ni6  1  0.130834  0.619906  0.000000  1
  Ni  Ni7  1  0.380094  0.130834  0.000000  1
  Ni  Ni8  1  0.619906  0.869166  0.000000  1
  Sn  Sn9  1  0.000000  0.000000  0.000000  1
