# generated using pymatgen
data_NdPuN3
_symmetry_space_group_name_H-M   'P 1'
_cell_length_a   6.03217500
_cell_length_b   5.81258300
_cell_length_c   8.32445200
_cell_angle_alpha   90.00000000
_cell_angle_beta   90.00000000
_cell_angle_gamma   90.00000000
_symmetry_Int_Tables_number   1
_chemical_formula_structural   NdPuN3
_chemical_formula_sum   'Nd4 Pu4 N12'
_cell_volume   291.87624691
_cell_formula_units_Z   4
loop_
 _symmetry_equiv_pos_site_id
 _symmetry_equiv_pos_as_xyz
  1  'x, y, z'
loop_
 _atom_site_type_symbol
 _atom_site_label
 _atom_site_symmetry_multiplicity
 _atom_site_fract_x
 _atom_site_fract_y
 _atom_site_fract_z
 _atom_site_occupancy
  Nd  Nd0  1  0.053758  0.988938  0.250000  1
  Nd  Nd1  1  0.946242  0.011062  0.750000  1
  Nd  Nd2  1  0.553758  0.511062  0.250000  1
  Nd  Nd3  1  0.446242  0.488938  0.750000  1
  Pu  Pu4  1  0.500000  0.000000  0.000000  1
  Pu  Pu5  1  0.000000  0.500000  0.500000  1
  Pu  Pu6  1  0.000000  0.500000  0.000000  1
  Pu  Pu7  1  0.500000  0.000000  0.500000  1
  N  N8  1  0.691101  0.273371  0.948067  1
  N  N9  1  0.808899  0.773371  0.448067  1
  N  N10  1  0.808899  0.773371  0.051933  1
  N  N11  1  0.691101  0.273371  0.551933  1
  N  N12  1  0.191101  0.226629  0.948067  1
  N  N13  1  0.308899  0.726629  0.448067  1
  N  N14  1  0.034833  0.601452  0.750000  1
  N  N15  1  0.965167  0.398548  0.250000  1
  N  N16  1  0.465167  0.101452  0.250000  1
  N  N17  1  0.308899  0.726629  0.051933  1
  N  N18  1  0.191101  0.226629  0.551933  1
  N  N19  1  0.534833  0.898548  0.750000  1
