# generated using pymatgen
data_Ho12TcOsPd2
_symmetry_space_group_name_H-M   'P 1'
_cell_length_a   6.34156732
_cell_length_b   7.33800071
_cell_length_c   9.19769600
_cell_angle_alpha   90.00000000
_cell_angle_beta   90.00000000
_cell_angle_gamma   90.52899255
_symmetry_Int_Tables_number   1
_chemical_formula_structural   Ho12TcOsPd2
_chemical_formula_sum   'Ho12 Tc1 Os1 Pd2'
_cell_volume   427.99125717
_cell_formula_units_Z   1
loop_
 _symmetry_equiv_pos_site_id
 _symmetry_equiv_pos_as_xyz
  1  'x, y, z'
loop_
 _atom_site_type_symbol
 _atom_site_label
 _atom_site_symmetry_multiplicity
 _atom_site_fract_x
 _atom_site_fract_y
 _atom_site_fract_z
 _atom_site_occupancy
  Ho  Ho0  1  0.338020  0.674061  0.058891  1
  Ho  Ho1  1  0.173912  0.183991  0.437240  1
  Ho  Ho2  1  0.660599  0.326942  0.558989  1
  Ho  Ho3  1  0.825316  0.814533  0.937260  1
  Ho  Ho4  1  0.660599  0.326942  0.941011  1
  Ho  Ho5  1  0.825316  0.814533  0.562740  1
  Ho  Ho6  1  0.338020  0.674061  0.441109  1
  Ho  Ho7  1  0.173912  0.183991  0.062760  1
  Ho  Ho8  1  0.875119  0.528723  0.250000  1
  Ho  Ho9  1  0.622926  0.040321  0.250000  1
  Ho  Ho10  1  0.128739  0.471686  0.750000  1
  Ho  Ho11  1  0.376067  0.959208  0.750000  1
  Tc  Tc12  1  0.459600  0.384144  0.250000  1
  Os  Os13  1  0.543009  0.617321  0.750000  1
  Pd  Pd14  1  0.046706  0.885334  0.250000  1
  Pd  Pd15  1  0.952140  0.114208  0.750000  1
