# generated using pymatgen
data_Sr3Lu(Al3Pd)6
_symmetry_space_group_name_H-M   'P 1'
_cell_length_a   7.71994001
_cell_length_b   7.72963315
_cell_length_c   9.64698500
_cell_angle_alpha   90.00000000
_cell_angle_beta   90.00000000
_cell_angle_gamma   119.40571754
_symmetry_Int_Tables_number   1
_chemical_formula_structural   Sr3Lu(Al3Pd)6
_chemical_formula_sum   'Sr3 Lu1 Al18 Pd6'
_cell_volume   501.49284408
_cell_formula_units_Z   1
loop_
 _symmetry_equiv_pos_site_id
 _symmetry_equiv_pos_as_xyz
  1  'x, y, z'
loop_
 _atom_site_type_symbol
 _atom_site_label
 _atom_site_symmetry_multiplicity
 _atom_site_fract_x
 _atom_site_fract_y
 _atom_site_fract_z
 _atom_site_occupancy
  Sr  Sr0  1  0.993228  0.669691  0.250000  1
  Sr  Sr1  1  0.671502  0.995397  0.250000  1
  Sr  Sr2  1  0.002772  0.330013  0.750000  1
  Lu  Lu3  1  0.329408  0.002069  0.750000  1
  Al  Al4  1  0.138553  0.135943  0.250000  1
  Al  Al5  1  0.871495  0.867572  0.750000  1
  Al  Al6  1  0.006714  0.335505  0.071754  1
  Al  Al7  1  0.001883  0.669684  0.919420  1
  Al  Al8  1  0.001883  0.669684  0.580580  1
  Al  Al9  1  0.334511  0.004088  0.433186  1
  Al  Al10  1  0.006714  0.335505  0.428246  1
  Al  Al11  1  0.660045  0.997271  0.580565  1
  Al  Al12  1  0.660045  0.997271  0.919435  1
  Al  Al13  1  0.334511  0.004088  0.066814  1
  Al  Al14  1  0.334223  0.329550  0.562268  1
  Al  Al15  1  0.662776  0.663155  0.459104  1
  Al  Al16  1  0.662776  0.663155  0.040896  1
  Al  Al17  1  0.334223  0.329550  0.937732  1
  Al  Al18  1  0.341491  0.543853  0.250000  1
  Al  Al19  1  0.653630  0.450813  0.750000  1
  Al  Al20  1  0.539715  0.339275  0.250000  1
  Al  Al21  1  0.457796  0.666399  0.750000  1
  Pd  Pd22  1  0.669372  0.327925  0.997391  1
  Pd  Pd23  1  0.328741  0.671785  0.996957  1
  Pd  Pd24  1  0.328741  0.671785  0.503043  1
  Pd  Pd25  1  0.669372  0.327925  0.502609  1
  Pd  Pd26  1  0.001943  0.000524  0.996662  1
  Pd  Pd27  1  0.001943  0.000524  0.503338  1
