# generated using pymatgen
data_PrNd(Ga3Ru)3
_symmetry_space_group_name_H-M   'P 1'
_cell_length_a   7.55470237
_cell_length_b   7.56238352
_cell_length_c   9.89671602
_cell_angle_alpha   89.99729189
_cell_angle_beta   89.99513306
_cell_angle_gamma   119.12056344
_symmetry_Int_Tables_number   1
_chemical_formula_structural   PrNd(Ga3Ru)3
_chemical_formula_sum   'Pr2 Nd2 Ga18 Ru6'
_cell_volume   493.94501299
_cell_formula_units_Z   2
loop_
 _symmetry_equiv_pos_site_id
 _symmetry_equiv_pos_as_xyz
  1  'x, y, z'
loop_
 _atom_site_type_symbol
 _atom_site_label
 _atom_site_symmetry_multiplicity
 _atom_site_fract_x
 _atom_site_fract_y
 _atom_site_fract_z
 _atom_site_occupancy
  Pr  Pr0  1  0.998328  0.671631  0.250113  1
  Pr  Pr1  1  0.001659  0.328383  0.749993  1
  Nd  Nd2  1  0.671720  0.998435  0.249971  1
  Nd  Nd3  1  0.328334  0.001583  0.749896  1
  Ga  Ga4  1  0.130434  0.130908  0.249996  1
  Ga  Ga5  1  0.869537  0.869068  0.750034  1
  Ga  Ga6  1  0.009673  0.336076  0.073865  1
  Ga  Ga7  1  0.990452  0.664231  0.926259  1
  Ga  Ga8  1  0.990340  0.663887  0.573783  1
  Ga  Ga9  1  0.337211  0.010003  0.426627  1
  Ga  Ga10  1  0.009485  0.335788  0.426254  1
  Ga  Ga11  1  0.663091  0.990129  0.573277  1
  Ga  Ga12  1  0.662787  0.989889  0.926605  1
  Ga  Ga13  1  0.336907  0.009911  0.073355  1
  Ga  Ga14  1  0.339389  0.339029  0.556133  1
  Ga  Ga15  1  0.660567  0.660962  0.443799  1
  Ga  Ga16  1  0.660588  0.660944  0.056282  1
  Ga  Ga17  1  0.339439  0.339049  0.943793  1
  Ga  Ga18  1  0.338877  0.548526  0.250013  1
  Ga  Ga19  1  0.661239  0.451546  0.749997  1
  Ga  Ga20  1  0.547810  0.337423  0.249976  1
  Ga  Ga21  1  0.452202  0.662576  0.749983  1
  Ru  Ru22  1  0.674386  0.325858  0.999979  1
  Ru  Ru23  1  0.325601  0.674071  0.000009  1
  Ru  Ru24  1  0.325686  0.674090  0.499987  1
  Ru  Ru25  1  0.674268  0.325926  0.499986  1
  Ru  Ru26  1  0.999848  0.000194  0.000000  1
  Ru  Ru27  1  0.000140  0.999883  0.500033  1
