# generated using pymatgen
data_N3ClF7
_symmetry_space_group_name_H-M   'P 1'
_cell_length_a   3.89659143
_cell_length_b   5.05518900
_cell_length_c   11.16336495
_cell_angle_alpha   101.10230564
_cell_angle_beta   94.04941675
_cell_angle_gamma   94.68387636
_symmetry_Int_Tables_number   1
_chemical_formula_structural   N3ClF7
_chemical_formula_sum   'N3 Cl1 F7'
_cell_volume   214.22033130
_cell_formula_units_Z   1
loop_
 _symmetry_equiv_pos_site_id
 _symmetry_equiv_pos_as_xyz
  1  'x, y, z'
loop_
 _atom_site_type_symbol
 _atom_site_label
 _atom_site_symmetry_multiplicity
 _atom_site_fract_x
 _atom_site_fract_y
 _atom_site_fract_z
 _atom_site_occupancy
  N  N0  1  0.629692  0.444352  0.279472  1
  N  N1  1  0.831124  0.368641  0.336417  1
  N  N2  1  0.989332  0.547404  0.974058  1
  Cl  Cl3  1  0.124186  0.975591  0.624440  1
  F  F4  1  0.152888  0.945184  0.468801  1
  F  F5  1  0.202287  0.071506  0.781889  1
  F  F6  1  0.780092  0.334798  0.005491  1
  F  F7  1  0.897770  0.257784  0.624124  1
  F  F8  1  0.765330  0.631518  0.886582  1
  F  F9  1  0.427252  0.739779  0.626259  1
  F  F10  1  0.981752  0.756481  0.077387  1
