# generated using pymatgen
data_SiS7Br2
_symmetry_space_group_name_H-M   'P 1'
_cell_length_a   10.24988100
_cell_length_b   10.56436900
_cell_length_c   15.00232300
_cell_angle_alpha   90.00000000
_cell_angle_beta   90.00000000
_cell_angle_gamma   90.00000000
_symmetry_Int_Tables_number   1
_chemical_formula_structural   SiS7Br2
_chemical_formula_sum   'Si4 S28 Br8'
_cell_volume   1624.50441898
_cell_formula_units_Z   4
loop_
 _symmetry_equiv_pos_site_id
 _symmetry_equiv_pos_as_xyz
  1  'x, y, z'
loop_
 _atom_site_type_symbol
 _atom_site_label
 _atom_site_symmetry_multiplicity
 _atom_site_fract_x
 _atom_site_fract_y
 _atom_site_fract_z
 _atom_site_occupancy
  Si  Si0  1  0.250000  0.249184  0.448956  1
  Si  Si1  1  0.250000  0.749184  0.051044  1
  Si  Si2  1  0.750000  0.750816  0.551044  1
  Si  Si3  1  0.750000  0.250816  0.948956  1
  S  S4  1  0.431849  0.168122  0.493196  1
  S  S5  1  0.068151  0.668122  0.006804  1
  S  S6  1  0.931849  0.831878  0.506804  1
  S  S7  1  0.568151  0.331878  0.993196  1
  S  S8  1  0.568151  0.831878  0.506804  1
  S  S9  1  0.931849  0.331878  0.993196  1
  S  S10  1  0.068151  0.168122  0.493196  1
  S  S11  1  0.431849  0.668122  0.006804  1
  S  S12  1  0.481694  0.256229  0.611986  1
  S  S13  1  0.018306  0.756229  0.888014  1
  S  S14  1  0.981694  0.743771  0.388014  1
  S  S15  1  0.518306  0.243771  0.111986  1
  S  S16  1  0.518306  0.743771  0.388014  1
  S  S17  1  0.981694  0.243771  0.111986  1
  S  S18  1  0.018306  0.256229  0.611986  1
  S  S19  1  0.481694  0.756229  0.888014  1
  S  S20  1  0.415171  0.147742  0.716427  1
  S  S21  1  0.084829  0.647742  0.783573  1
  S  S22  1  0.915171  0.852258  0.283573  1
  S  S23  1  0.584829  0.352258  0.216427  1
  S  S24  1  0.584829  0.852258  0.283573  1
  S  S25  1  0.915171  0.352258  0.216427  1
  S  S26  1  0.084829  0.147742  0.716427  1
  S  S27  1  0.415171  0.647742  0.783573  1
  S  S28  1  0.250000  0.232068  0.767707  1
  S  S29  1  0.250000  0.732068  0.732293  1
  S  S30  1  0.750000  0.767932  0.232293  1
  S  S31  1  0.750000  0.267932  0.267707  1
  Br  Br32  1  0.250000  0.458122  0.463574  1
  Br  Br33  1  0.250000  0.958122  0.036426  1
  Br  Br34  1  0.750000  0.541878  0.536426  1
  Br  Br35  1  0.750000  0.041878  0.963574  1
  Br  Br36  1  0.250000  0.181079  0.308287  1
  Br  Br37  1  0.250000  0.681079  0.191713  1
  Br  Br38  1  0.750000  0.818921  0.691713  1
  Br  Br39  1  0.750000  0.318921  0.808287  1
