# generated using pymatgen
data_Re2OsRu5
_symmetry_space_group_name_H-M   'P 1'
_cell_length_a   5.50445300
_cell_length_b   5.49606558
_cell_length_c   4.34445900
_cell_angle_alpha   90.00000000
_cell_angle_beta   90.00000000
_cell_angle_gamma   120.05048905
_symmetry_Int_Tables_number   1
_chemical_formula_structural   Re2OsRu5
_chemical_formula_sum   'Re2 Os1 Ru5'
_cell_volume   113.76567076
_cell_formula_units_Z   1
loop_
 _symmetry_equiv_pos_site_id
 _symmetry_equiv_pos_as_xyz
  1  'x, y, z'
loop_
 _atom_site_type_symbol
 _atom_site_label
 _atom_site_symmetry_multiplicity
 _atom_site_fract_x
 _atom_site_fract_y
 _atom_site_fract_z
 _atom_site_occupancy
  Re  Re0  1  0.333715  0.667431  0.750000  1
  Re  Re1  1  0.668039  0.336077  0.250000  1
  Os  Os2  1  0.166846  0.333692  0.250000  1
  Ru  Ru3  1  0.666611  0.830509  0.250000  1
  Ru  Ru4  1  0.163898  0.830509  0.250000  1
  Ru  Ru5  1  0.833255  0.666510  0.750000  1
  Ru  Ru6  1  0.334961  0.167636  0.750000  1
  Ru  Ru7  1  0.832675  0.167636  0.750000  1
