# generated using pymatgen
data_NaLa6PtI12
_symmetry_space_group_name_H-M   'P 1'
_cell_length_a   10.21643658
_cell_length_b   10.21643583
_cell_length_c   10.21643612
_cell_angle_alpha   107.15798175
_cell_angle_beta   107.15798851
_cell_angle_gamma   107.15798170
_symmetry_Int_Tables_number   1
_chemical_formula_structural   NaLa6PtI12
_chemical_formula_sum   'Na1 La6 Pt1 I12'
_cell_volume   884.20829328
_cell_formula_units_Z   1
loop_
 _symmetry_equiv_pos_site_id
 _symmetry_equiv_pos_as_xyz
  1  'x, y, z'
loop_
 _atom_site_type_symbol
 _atom_site_label
 _atom_site_symmetry_multiplicity
 _atom_site_fract_x
 _atom_site_fract_y
 _atom_site_fract_z
 _atom_site_occupancy
  Na  Na0  1  0.500000  0.500000  0.500000  1
  La  La1  1  0.314039  0.105788  0.031292  1
  La  La2  1  0.031292  0.314039  0.105788  1
  La  La3  1  0.105788  0.031292  0.314039  1
  La  La4  1  0.894211  0.968708  0.685961  1
  La  La5  1  0.968708  0.685961  0.894211  1
  La  La6  1  0.685961  0.894212  0.968707  1
  Pt  Pt7  1  0.000000  0.000000  0.000000  1
  I  I8  1  0.682289  0.225851  0.074878  1
  I  I9  1  0.378482  0.457902  0.150994  1
  I  I10  1  0.074878  0.682289  0.225851  1
  I  I11  1  0.774148  0.925122  0.317711  1
  I  I12  1  0.457902  0.150995  0.378481  1
  I  I13  1  0.150995  0.378481  0.457902  1
  I  I14  1  0.849006  0.621519  0.542099  1
  I  I15  1  0.542098  0.849006  0.621519  1
  I  I16  1  0.225851  0.074878  0.682289  1
  I  I17  1  0.925122  0.317711  0.774148  1
  I  I18  1  0.621519  0.542099  0.849006  1
  I  I19  1  0.317711  0.774148  0.925122  1
