# generated using pymatgen
data_Pa3Co3Si7
_symmetry_space_group_name_H-M   'P 1'
_cell_length_a   12.82551200
_cell_length_b   12.82551152
_cell_length_c   3.99766200
_cell_angle_alpha   90.00000000
_cell_angle_beta   90.00000000
_cell_angle_gamma   161.71372886
_symmetry_Int_Tables_number   1
_chemical_formula_structural   Pa3Co3Si7
_chemical_formula_sum   'Pa3 Co3 Si7'
_cell_volume   206.32882662
_cell_formula_units_Z   1
loop_
 _symmetry_equiv_pos_site_id
 _symmetry_equiv_pos_as_xyz
  1  'x, y, z'
loop_
 _atom_site_type_symbol
 _atom_site_label
 _atom_site_symmetry_multiplicity
 _atom_site_fract_x
 _atom_site_fract_y
 _atom_site_fract_z
 _atom_site_occupancy
  Pa  Pa0  1  0.000487  0.999513  0.000000  1
  Pa  Pa1  1  0.686742  0.313258  0.500000  1
  Pa  Pa2  1  0.318199  0.681801  0.500000  1
  Co  Co3  1  0.862876  0.137124  0.000000  1
  Co  Co4  1  0.135193  0.864807  0.000000  1
  Co  Co5  1  0.451921  0.548079  0.500000  1
  Si  Si6  1  0.594520  0.405480  0.000000  1
  Si  Si7  1  0.409209  0.590791  0.000000  1
  Si  Si8  1  0.774022  0.225978  0.000000  1
  Si  Si9  1  0.226639  0.773361  0.000000  1
  Si  Si10  1  0.907548  0.092452  0.500000  1
  Si  Si11  1  0.094102  0.905898  0.500000  1
  Si  Si12  1  0.538543  0.461457  0.500000  1
