# generated using pymatgen
data_Tm12InCo4Ag
_symmetry_space_group_name_H-M   'P 1'
_cell_length_a   8.22731380
_cell_length_b   8.22731410
_cell_length_c   8.22731384
_cell_angle_alpha   111.12949389
_cell_angle_beta   110.82699793
_cell_angle_gamma   106.49762323
_symmetry_Int_Tables_number   1
_chemical_formula_structural   Tm12InCo4Ag
_chemical_formula_sum   'Tm12 In1 Co4 Ag1'
_cell_volume   427.83537162
_cell_formula_units_Z   1
loop_
 _symmetry_equiv_pos_site_id
 _symmetry_equiv_pos_as_xyz
  1  'x, y, z'
loop_
 _atom_site_type_symbol
 _atom_site_label
 _atom_site_symmetry_multiplicity
 _atom_site_fract_x
 _atom_site_fract_y
 _atom_site_fract_z
 _atom_site_occupancy
  Tm  Tm0  1  0.430589  0.225039  0.205550  1
  Tm  Tm1  1  0.569411  0.774961  0.794450  1
  Tm  Tm2  1  0.019489  0.225039  0.794450  1
  Tm  Tm3  1  0.980511  0.774961  0.205550  1
  Tm  Tm4  1  0.187451  0.290160  0.477611  1
  Tm  Tm5  1  0.812549  0.709840  0.522389  1
  Tm  Tm6  1  0.187451  0.709840  0.897291  1
  Tm  Tm7  1  0.812549  0.290160  0.102709  1
  Tm  Tm8  1  0.315068  0.618827  0.303758  1
  Tm  Tm9  1  0.684932  0.381173  0.696242  1
  Tm  Tm10  1  0.315068  0.011310  0.696242  1
  Tm  Tm11  1  0.684932  0.988690  0.303758  1
  In  In12  1  0.500000  0.500000  0.000000  1
  Co  Co13  1  0.376510  0.000000  0.376510  1
  Co  Co14  1  0.623490  0.000000  0.623490  1
  Co  Co15  1  0.112972  0.612972  0.500000  1
  Co  Co16  1  0.887028  0.387028  0.500000  1
  Ag  Ag17  1  0.000000  0.000000  0.000000  1
