# generated using pymatgen
data_Hf5U(Co3P2)6
_symmetry_space_group_name_H-M   'P 1'
_cell_length_a   3.63103500
_cell_length_b   10.32999800
_cell_length_c   11.92190400
_cell_angle_alpha   90.00000000
_cell_angle_beta   90.00000000
_cell_angle_gamma   90.00000000
_symmetry_Int_Tables_number   1
_chemical_formula_structural   Hf5U(Co3P2)6
_chemical_formula_sum   'Hf5 U1 Co18 P12'
_cell_volume   447.17374106
_cell_formula_units_Z   1
loop_
 _symmetry_equiv_pos_site_id
 _symmetry_equiv_pos_as_xyz
  1  'x, y, z'
loop_
 _atom_site_type_symbol
 _atom_site_label
 _atom_site_symmetry_multiplicity
 _atom_site_fract_x
 _atom_site_fract_y
 _atom_site_fract_z
 _atom_site_occupancy
  Hf  Hf0  1  0.500000  0.000000  0.472150  1
  Hf  Hf1  1  0.500000  0.820437  0.208352  1
  Hf  Hf2  1  0.500000  0.179563  0.208352  1
  Hf  Hf3  1  0.000000  0.681604  0.794206  1
  Hf  Hf4  1  0.000000  0.318396  0.794206  1
  U  U5  1  0.000000  0.500000  0.531973  1
  Co  Co6  1  0.500000  0.500000  0.161922  1
  Co  Co7  1  0.000000  0.000000  0.836793  1
  Co  Co8  1  0.500000  0.500000  0.698444  1
  Co  Co9  1  0.000000  0.000000  0.297146  1
  Co  Co10  1  0.000000  0.500000  0.984790  1
  Co  Co11  1  0.500000  0.000000  0.014736  1
  Co  Co12  1  0.500000  0.333008  0.992615  1
  Co  Co13  1  0.500000  0.666992  0.992615  1
  Co  Co14  1  0.000000  0.166892  0.006934  1
  Co  Co15  1  0.000000  0.833108  0.006934  1
  Co  Co16  1  0.500000  0.297198  0.431408  1
  Co  Co17  1  0.500000  0.702802  0.431408  1
  Co  Co18  1  0.000000  0.196933  0.567840  1
  Co  Co19  1  0.000000  0.803067  0.567840  1
  Co  Co20  1  0.500000  0.876945  0.710106  1
  Co  Co21  1  0.500000  0.123055  0.710106  1
  Co  Co22  1  0.000000  0.625022  0.290823  1
  Co  Co23  1  0.000000  0.374978  0.290823  1
  P  P24  1  0.500000  0.500000  0.876934  1
  P  P25  1  0.000000  0.000000  0.121759  1
  P  P26  1  0.500000  0.500000  0.348554  1
  P  P27  1  0.000000  0.000000  0.648416  1
  P  P28  1  0.500000  0.309225  0.618718  1
  P  P29  1  0.500000  0.690775  0.618718  1
  P  P30  1  0.000000  0.182251  0.382028  1
  P  P31  1  0.000000  0.817749  0.382028  1
  P  P32  1  0.500000  0.845310  0.890675  1
  P  P33  1  0.500000  0.154690  0.890675  1
  P  P34  1  0.000000  0.655314  0.109485  1
  P  P35  1  0.000000  0.344686  0.109485  1
