# generated using pymatgen
data_Zr3Fe4Co5P6
_symmetry_space_group_name_H-M   'P 1'
_cell_length_a   3.63752000
_cell_length_b   10.34456300
_cell_length_c   11.91327800
_cell_angle_alpha   90.00000000
_cell_angle_beta   90.00000000
_cell_angle_gamma   90.00000000
_symmetry_Int_Tables_number   1
_chemical_formula_structural   Zr3Fe4Co5P6
_chemical_formula_sum   'Zr6 Fe8 Co10 P12'
_cell_volume   448.27943412
_cell_formula_units_Z   2
loop_
 _symmetry_equiv_pos_site_id
 _symmetry_equiv_pos_as_xyz
  1  'x, y, z'
loop_
 _atom_site_type_symbol
 _atom_site_label
 _atom_site_symmetry_multiplicity
 _atom_site_fract_x
 _atom_site_fract_y
 _atom_site_fract_z
 _atom_site_occupancy
  Zr  Zr0  1  0.000000  0.500000  0.524978  1
  Zr  Zr1  1  0.500000  0.000000  0.475022  1
  Zr  Zr2  1  0.500000  0.821639  0.208103  1
  Zr  Zr3  1  0.500000  0.178361  0.208103  1
  Zr  Zr4  1  0.000000  0.678361  0.791897  1
  Zr  Zr5  1  0.000000  0.321639  0.791897  1
  Fe  Fe6  1  0.000000  0.500000  0.988317  1
  Fe  Fe7  1  0.500000  0.000000  0.011683  1
  Fe  Fe8  1  0.500000  0.298715  0.428756  1
  Fe  Fe9  1  0.500000  0.701285  0.428756  1
  Fe  Fe10  1  0.000000  0.201285  0.571244  1
  Fe  Fe11  1  0.000000  0.798715  0.571244  1
  Fe  Fe12  1  0.500000  0.500000  0.159473  1
  Fe  Fe13  1  0.000000  0.000000  0.840527  1
  Co  Co14  1  0.500000  0.878149  0.710621  1
  Co  Co15  1  0.500000  0.121851  0.710621  1
  Co  Co16  1  0.000000  0.621851  0.289379  1
  Co  Co17  1  0.000000  0.378149  0.289379  1
  Co  Co18  1  0.500000  0.331680  0.993315  1
  Co  Co19  1  0.500000  0.668320  0.993315  1
  Co  Co20  1  0.000000  0.168320  0.006685  1
  Co  Co21  1  0.000000  0.831680  0.006685  1
  Co  Co22  1  0.500000  0.500000  0.703525  1
  Co  Co23  1  0.000000  0.000000  0.296475  1
  P  P24  1  0.500000  0.313987  0.614798  1
  P  P25  1  0.500000  0.686013  0.614798  1
  P  P26  1  0.000000  0.186013  0.385202  1
  P  P27  1  0.000000  0.813987  0.385202  1
  P  P28  1  0.500000  0.500000  0.881728  1
  P  P29  1  0.000000  0.000000  0.118272  1
  P  P30  1  0.500000  0.845718  0.890639  1
  P  P31  1  0.500000  0.154282  0.890639  1
  P  P32  1  0.000000  0.654282  0.109361  1
  P  P33  1  0.000000  0.345718  0.109361  1
  P  P34  1  0.500000  0.500000  0.349878  1
  P  P35  1  0.000000  0.000000  0.650122  1
