# generated using pymatgen
data_Ho3Zn3CuIrPd
_symmetry_space_group_name_H-M   'P 1'
_cell_length_a   7.30083900
_cell_length_b   7.30083871
_cell_length_c   3.73467600
_cell_angle_alpha   90.00000000
_cell_angle_beta   90.00000000
_cell_angle_gamma   119.99999677
_symmetry_Int_Tables_number   1
_chemical_formula_structural   Ho3Zn3CuIrPd
_chemical_formula_sum   'Ho3 Zn3 Cu1 Ir1 Pd1'
_cell_volume   172.39676110
_cell_formula_units_Z   1
loop_
 _symmetry_equiv_pos_site_id
 _symmetry_equiv_pos_as_xyz
  1  'x, y, z'
loop_
 _atom_site_type_symbol
 _atom_site_label
 _atom_site_symmetry_multiplicity
 _atom_site_fract_x
 _atom_site_fract_y
 _atom_site_fract_z
 _atom_site_occupancy
  Ho  Ho0  1  0.412029  0.402341  0.000000  1
  Ho  Ho1  1  0.597659  0.009688  0.000000  1
  Ho  Ho2  1  0.990312  0.587971  0.000000  1
  Zn  Zn3  1  0.752203  0.750500  0.500000  1
  Zn  Zn4  1  0.249500  0.001703  0.500000  1
  Zn  Zn5  1  0.998297  0.247797  0.500000  1
  Cu  Cu6  1  0.000000  0.000000  0.000000  1
  Ir  Ir7  1  0.666667  0.333333  0.500000  1
  Pd  Pd8  1  0.333333  0.666667  0.500000  1
