# generated using pymatgen
data_Ca2LuSc(Ga2Ag)4
_symmetry_space_group_name_H-M   'P 1'
_cell_length_a   4.29643800
_cell_length_b   6.94841239
_cell_length_c   10.38423374
_cell_angle_alpha   89.62511674
_cell_angle_beta   90.00000000
_cell_angle_gamma   90.00000000
_symmetry_Int_Tables_number   1
_chemical_formula_structural   Ca2LuSc(Ga2Ag)4
_chemical_formula_sum   'Ca2 Lu1 Sc1 Ga8 Ag4'
_cell_volume   309.99828717
_cell_formula_units_Z   1
loop_
 _symmetry_equiv_pos_site_id
 _symmetry_equiv_pos_as_xyz
  1  'x, y, z'
loop_
 _atom_site_type_symbol
 _atom_site_label
 _atom_site_symmetry_multiplicity
 _atom_site_fract_x
 _atom_site_fract_y
 _atom_site_fract_z
 _atom_site_occupancy
  Ca  Ca0  1  0.750000  0.227122  0.175277  1
  Ca  Ca1  1  0.750000  0.728147  0.325748  1
  Lu  Lu2  1  0.250000  0.776585  0.825657  1
  Sc  Sc3  1  0.250000  0.277272  0.672368  1
  Ga  Ga4  1  0.250000  0.699083  0.539007  1
  Ga  Ga5  1  0.750000  0.295831  0.474022  1
  Ga  Ga6  1  0.750000  0.798799  0.028611  1
  Ga  Ga7  1  0.250000  0.204169  0.958429  1
  Ga  Ga8  1  0.250000  0.928077  0.146445  1
  Ga  Ga9  1  0.750000  0.075475  0.838498  1
  Ga  Ga10  1  0.750000  0.565121  0.659627  1
  Ga  Ga11  1  0.250000  0.427939  0.353665  1
  Ag  Ag12  1  0.250000  0.542901  0.097111  1
  Ag  Ag13  1  0.750000  0.455576  0.900970  1
  Ag  Ag14  1  0.750000  0.953733  0.600230  1
  Ag  Ag15  1  0.250000  0.044166  0.404337  1
