# generated using pymatgen
data_Y3ErGa4(IrPd)2
_symmetry_space_group_name_H-M   'P 1'
_cell_length_a   4.42969500
_cell_length_b   6.86972872
_cell_length_c   7.69816921
_cell_angle_alpha   89.88042160
_cell_angle_beta   90.00000000
_cell_angle_gamma   90.00000000
_symmetry_Int_Tables_number   1
_chemical_formula_structural   Y3ErGa4(IrPd)2
_chemical_formula_sum   'Y3 Er1 Ga4 Ir2 Pd2'
_cell_volume   234.26096034
_cell_formula_units_Z   1
loop_
 _symmetry_equiv_pos_site_id
 _symmetry_equiv_pos_as_xyz
  1  'x, y, z'
loop_
 _atom_site_type_symbol
 _atom_site_label
 _atom_site_symmetry_multiplicity
 _atom_site_fract_x
 _atom_site_fract_y
 _atom_site_fract_z
 _atom_site_occupancy
  Y  Y0  1  0.250000  0.985738  0.303878  1
  Y  Y1  1  0.750000  0.023686  0.689078  1
  Y  Y2  1  0.750000  0.523041  0.811569  1
  Er  Er3  1  0.250000  0.485618  0.195762  1
  Ga  Ga4  1  0.250000  0.333168  0.569247  1
  Ga  Ga5  1  0.250000  0.832432  0.930676  1
  Ga  Ga6  1  0.750000  0.661466  0.425516  1
  Ga  Ga7  1  0.750000  0.162586  0.073880  1
  Ir  Ir8  1  0.750000  0.770998  0.104656  1
  Ir  Ir9  1  0.750000  0.274734  0.394493  1
  Pd  Pd10  1  0.250000  0.223884  0.897103  1
  Pd  Pd11  1  0.250000  0.722651  0.604143  1
