# generated using pymatgen
data_Zr10GaSiSnBi3Pb2
_symmetry_space_group_name_H-M   'P 1'
_cell_length_a   8.82481300
_cell_length_b   8.80409617
_cell_length_c   5.94018300
_cell_angle_alpha   90.00000000
_cell_angle_beta   90.00000000
_cell_angle_gamma   119.92237357
_symmetry_Int_Tables_number   1
_chemical_formula_structural   Zr10GaSiSnBi3Pb2
_chemical_formula_sum   'Zr10 Ga1 Si1 Sn1 Bi3 Pb2'
_cell_volume   399.99994004
_cell_formula_units_Z   1
loop_
 _symmetry_equiv_pos_site_id
 _symmetry_equiv_pos_as_xyz
  1  'x, y, z'
loop_
 _atom_site_type_symbol
 _atom_site_label
 _atom_site_symmetry_multiplicity
 _atom_site_fract_x
 _atom_site_fract_y
 _atom_site_fract_z
 _atom_site_occupancy
  Zr  Zr0  1  0.670544  0.333504  0.004092  1
  Zr  Zr1  1  0.329456  0.662961  0.004092  1
  Zr  Zr2  1  0.329581  0.663431  0.495708  1
  Zr  Zr3  1  0.670419  0.333849  0.495708  1
  Zr  Zr4  1  0.745692  0.745220  0.744240  1
  Zr  Zr5  1  0.254308  0.999528  0.744240  1
  Zr  Zr6  1  0.000000  0.257003  0.744321  1
  Zr  Zr7  1  0.260195  0.265836  0.255581  1
  Zr  Zr8  1  0.739805  0.005641  0.255581  1
  Zr  Zr9  1  0.000000  0.733523  0.255246  1
  Ga  Ga10  1  0.000000  0.999575  0.006193  1
  Si  Si11  1  0.000000  0.999750  0.493976  1
  Sn  Sn12  1  0.000000  0.389879  0.249383  1
  Bi  Bi13  1  0.396577  0.395215  0.751099  1
  Bi  Bi14  1  0.603423  0.998638  0.751099  1
  Bi  Bi15  1  0.000000  0.604059  0.751089  1
  Pb  Pb16  1  0.612473  0.612432  0.249176  1
  Pb  Pb17  1  0.387527  0.999959  0.249176  1
