# generated using pymatgen
data_LaDy7(Si3Pt)4
_symmetry_space_group_name_H-M   'P 1'
_cell_length_a   8.14956400
_cell_length_b   8.14956534
_cell_length_c   8.24966200
_cell_angle_alpha   90.00000000
_cell_angle_beta   90.00000000
_cell_angle_gamma   119.99999456
_symmetry_Int_Tables_number   1
_chemical_formula_structural   LaDy7(Si3Pt)4
_chemical_formula_sum   'La1 Dy7 Si12 Pt4'
_cell_volume   474.49936056
_cell_formula_units_Z   1
loop_
 _symmetry_equiv_pos_site_id
 _symmetry_equiv_pos_as_xyz
  1  'x, y, z'
loop_
 _atom_site_type_symbol
 _atom_site_label
 _atom_site_symmetry_multiplicity
 _atom_site_fract_x
 _atom_site_fract_y
 _atom_site_fract_z
 _atom_site_occupancy
  La  La0  1  0.000000  0.000000  0.250000  1
  Dy  Dy1  1  0.000000  0.000000  0.750000  1
  Dy  Dy2  1  0.002202  0.501101  0.250000  1
  Dy  Dy3  1  0.498899  0.501101  0.250000  1
  Dy  Dy4  1  0.501085  0.002170  0.750000  1
  Dy  Dy5  1  0.498899  0.997798  0.250000  1
  Dy  Dy6  1  0.501085  0.498915  0.750000  1
  Dy  Dy7  1  0.997830  0.498915  0.750000  1
  Si  Si8  1  0.166231  0.332462  0.996148  1
  Si  Si9  1  0.667538  0.833769  0.996148  1
  Si  Si10  1  0.166231  0.332462  0.503852  1
  Si  Si11  1  0.332476  0.166238  0.997683  1
  Si  Si12  1  0.166231  0.833769  0.996148  1
  Si  Si13  1  0.667538  0.833769  0.503852  1
  Si  Si14  1  0.833762  0.667524  0.997683  1
  Si  Si15  1  0.332476  0.166238  0.502317  1
  Si  Si16  1  0.166231  0.833769  0.503852  1
  Si  Si17  1  0.833762  0.667524  0.502317  1
  Si  Si18  1  0.833762  0.166238  0.997683  1
  Si  Si19  1  0.833762  0.166238  0.502317  1
  Pt  Pt20  1  0.333333  0.666667  0.996903  1
  Pt  Pt21  1  0.333333  0.666667  0.503097  1
  Pt  Pt22  1  0.666667  0.333333  0.001667  1
  Pt  Pt23  1  0.666667  0.333333  0.498333  1
