# generated using pymatgen
data_Nb12Ga9Rh3N4
_symmetry_space_group_name_H-M   'P 1'
_cell_length_a   8.32481398
_cell_length_b   8.32120088
_cell_length_c   8.32120100
_cell_angle_alpha   59.99999556
_cell_angle_beta   60.01435162
_cell_angle_gamma   60.01435222
_symmetry_Int_Tables_number   1
_chemical_formula_structural   Nb12Ga9Rh3N4
_chemical_formula_sum   'Nb12 Ga9 Rh3 N4'
_cell_volume   407.68592816
_cell_formula_units_Z   1
loop_
 _symmetry_equiv_pos_site_id
 _symmetry_equiv_pos_as_xyz
  1  'x, y, z'
loop_
 _atom_site_type_symbol
 _atom_site_label
 _atom_site_symmetry_multiplicity
 _atom_site_fract_x
 _atom_site_fract_y
 _atom_site_fract_z
 _atom_site_occupancy
  Nb  Nb0  1  0.820200  0.814156  0.182823  1
  Nb  Nb1  1  0.186160  0.196175  0.808832  1
  Nb  Nb2  1  0.820200  0.182823  0.814156  1
  Nb  Nb3  1  0.186160  0.808832  0.196175  1
  Nb  Nb4  1  0.186160  0.808832  0.808832  1
  Nb  Nb5  1  0.820200  0.182823  0.182823  1
  Nb  Nb6  1  0.429800  0.435844  0.067177  1
  Nb  Nb7  1  0.063840  0.053825  0.441168  1
  Nb  Nb8  1  0.429800  0.067177  0.435844  1
  Nb  Nb9  1  0.063840  0.441168  0.053825  1
  Nb  Nb10  1  0.063840  0.441168  0.441168  1
  Nb  Nb11  1  0.429800  0.067177  0.067177  1
  Ga  Ga12  1  0.125000  0.625000  0.625000  1
  Ga  Ga13  1  0.763403  0.412199  0.412199  1
  Ga  Ga14  1  0.424113  0.758225  0.408832  1
  Ga  Ga15  1  0.424113  0.408832  0.758225  1
  Ga  Ga16  1  0.424113  0.408832  0.408832  1
  Ga  Ga17  1  0.486597  0.837801  0.837801  1
  Ga  Ga18  1  0.825887  0.491775  0.841168  1
  Ga  Ga19  1  0.825887  0.841168  0.491775  1
  Ga  Ga20  1  0.825887  0.841168  0.841168  1
  Rh  Rh21  1  0.625000  0.125000  0.625000  1
  Rh  Rh22  1  0.625000  0.625000  0.125000  1
  Rh  Rh23  1  0.625000  0.625000  0.625000  1
  N  N24  1  0.625000  0.125000  0.125000  1
  N  N25  1  0.125000  0.625000  0.125000  1
  N  N26  1  0.125000  0.125000  0.625000  1
  N  N27  1  0.125000  0.125000  0.125000  1
