# generated using pymatgen
data_BeTe28
_symmetry_space_group_name_H-M   'P 1'
_cell_length_a   9.05160470
_cell_length_b   12.63759638
_cell_length_c   11.91474400
_cell_angle_alpha   121.89544278
_cell_angle_beta   96.49718573
_cell_angle_gamma   100.61836741
_symmetry_Int_Tables_number   1
_chemical_formula_structural   BeTe28
_chemical_formula_sum   'Be1 Te28'
_cell_volume   1100.54911307
_cell_formula_units_Z   1
loop_
 _symmetry_equiv_pos_site_id
 _symmetry_equiv_pos_as_xyz
  1  'x, y, z'
loop_
 _atom_site_type_symbol
 _atom_site_label
 _atom_site_symmetry_multiplicity
 _atom_site_fract_x
 _atom_site_fract_y
 _atom_site_fract_z
 _atom_site_occupancy
  Be  Be0  1  0.500000  0.000000  0.000000  1
  Te  Te1  1  0.141792  0.103459  0.421135  1
  Te  Te2  1  0.616755  0.102994  0.406651  1
  Te  Te3  1  0.303345  0.376633  0.814961  1
  Te  Te4  1  0.826192  0.351493  0.815790  1
  Te  Te5  1  0.317096  0.794801  0.900521  1
  Te  Te6  1  0.705131  0.592846  0.736981  1
  Te  Te7  1  0.383245  0.897006  0.593349  1
  Te  Te8  1  0.858208  0.896541  0.578865  1
  Te  Te9  1  0.173808  0.648507  0.184210  1
  Te  Te10  1  0.696655  0.623367  0.185039  1
  Te  Te11  1  0.294869  0.407154  0.263019  1
  Te  Te12  1  0.682904  0.205199  0.099479  1
  Te  Te13  1  0.715402  0.075214  0.762612  1
  Te  Te14  1  0.266365  0.051044  0.823266  1
  Te  Te15  1  0.932091  0.644033  0.988976  1
  Te  Te16  1  0.493313  0.681139  0.045740  1
  Te  Te17  1  0.482165  0.251264  0.281660  1
  Te  Te18  1  0.987299  0.180348  0.264418  1
  Te  Te19  1  0.733635  0.948956  0.176734  1
  Te  Te20  1  0.284598  0.924786  0.237388  1
  Te  Te21  1  0.506687  0.318861  0.954260  1
  Te  Te22  1  0.067909  0.355967  0.011024  1
  Te  Te23  1  0.012701  0.819652  0.735582  1
  Te  Te24  1  0.517835  0.748736  0.718340  1
  Te  Te25  1  0.929334  0.303023  0.576759  1
  Te  Te26  1  0.449868  0.354313  0.600533  1
  Te  Te27  1  0.550132  0.645687  0.399467  1
  Te  Te28  1  0.070666  0.696977  0.423241  1
