# generated using pymatgen
data_LiCa20Al2Zn9
_symmetry_space_group_name_H-M   'P 1'
_cell_length_a   8.01741400
_cell_length_b   8.01741400
_cell_length_c   15.18993000
_cell_angle_alpha   90.00000000
_cell_angle_beta   90.00000000
_cell_angle_gamma   90.00000000
_symmetry_Int_Tables_number   1
_chemical_formula_structural   LiCa20Al2Zn9
_chemical_formula_sum   'Li1 Ca20 Al2 Zn9'
_cell_volume   976.39240536
_cell_formula_units_Z   1
loop_
 _symmetry_equiv_pos_site_id
 _symmetry_equiv_pos_as_xyz
  1  'x, y, z'
loop_
 _atom_site_type_symbol
 _atom_site_label
 _atom_site_symmetry_multiplicity
 _atom_site_fract_x
 _atom_site_fract_y
 _atom_site_fract_z
 _atom_site_occupancy
  Li  Li0  1  0.500000  0.500000  0.000000  1
  Ca  Ca1  1  0.677631  0.161984  0.105796  1
  Ca  Ca2  1  0.171579  0.670615  0.601819  1
  Ca  Ca3  1  0.322369  0.838016  0.105796  1
  Ca  Ca4  1  0.828421  0.329385  0.601819  1
  Ca  Ca5  1  0.838016  0.677631  0.105796  1
  Ca  Ca6  1  0.329385  0.171579  0.601819  1
  Ca  Ca7  1  0.161984  0.322369  0.105796  1
  Ca  Ca8  1  0.670615  0.828421  0.601819  1
  Ca  Ca9  1  0.838016  0.322369  0.894204  1
  Ca  Ca10  1  0.329385  0.828421  0.398181  1
  Ca  Ca11  1  0.161984  0.677631  0.894204  1
  Ca  Ca12  1  0.670615  0.171579  0.398181  1
  Ca  Ca13  1  0.677631  0.838016  0.894204  1
  Ca  Ca14  1  0.171579  0.329385  0.398181  1
  Ca  Ca15  1  0.322369  0.161984  0.894204  1
  Ca  Ca16  1  0.828421  0.670615  0.398181  1
  Ca  Ca17  1  0.500000  0.500000  0.744537  1
  Ca  Ca18  1  0.000000  0.000000  0.262527  1
  Ca  Ca19  1  0.000000  0.000000  0.737473  1
  Ca  Ca20  1  0.500000  0.500000  0.255463  1
  Al  Al21  1  0.500000  0.500000  0.500000  1
  Al  Al22  1  0.000000  0.000000  0.500000  1
  Zn  Zn23  1  0.616053  0.118492  0.751642  1
  Zn  Zn24  1  0.118492  0.616053  0.248358  1
  Zn  Zn25  1  0.881508  0.383947  0.248358  1
  Zn  Zn26  1  0.383947  0.881508  0.751642  1
  Zn  Zn27  1  0.881508  0.616053  0.751642  1
  Zn  Zn28  1  0.383947  0.118492  0.248358  1
  Zn  Zn29  1  0.118492  0.383947  0.751642  1
  Zn  Zn30  1  0.616053  0.881508  0.248358  1
  Zn  Zn31  1  0.000000  0.000000  0.000000  1
