# generated using pymatgen
data_Er12Fe4HgBi
_symmetry_space_group_name_H-M   'P 1'
_cell_length_a   8.33003541
_cell_length_b   8.33003382
_cell_length_c   8.33003528
_cell_angle_alpha   110.01278527
_cell_angle_beta   111.63091572
_cell_angle_gamma   106.80670941
_symmetry_Int_Tables_number   1
_chemical_formula_structural   Er12Fe4HgBi
_chemical_formula_sum   'Er12 Fe4 Hg1 Bi1'
_cell_volume   444.14693523
_cell_formula_units_Z   1
loop_
 _symmetry_equiv_pos_site_id
 _symmetry_equiv_pos_as_xyz
  1  'x, y, z'
loop_
 _atom_site_type_symbol
 _atom_site_label
 _atom_site_symmetry_multiplicity
 _atom_site_fract_x
 _atom_site_fract_y
 _atom_site_fract_z
 _atom_site_occupancy
  Er  Er0  1  0.288930  0.186915  0.475846  1
  Er  Er1  1  0.711070  0.813085  0.524154  1
  Er  Er2  1  0.288930  0.813085  0.102014  1
  Er  Er3  1  0.711070  0.186915  0.897986  1
  Er  Er4  1  0.613522  0.311035  0.302488  1
  Er  Er5  1  0.386478  0.688965  0.697512  1
  Er  Er6  1  0.008549  0.311035  0.697512  1
  Er  Er7  1  0.991451  0.688965  0.302488  1
  Er  Er8  1  0.221495  0.438478  0.216983  1
  Er  Er9  1  0.778505  0.561522  0.783017  1
  Er  Er10  1  0.221495  0.004512  0.783017  1
  Er  Er11  1  0.778505  0.995488  0.216983  1
  Fe  Fe12  1  0.000000  0.386858  0.386858  1
  Fe  Fe13  1  0.000000  0.613142  0.613142  1
  Fe  Fe14  1  0.391684  0.891684  0.500000  1
  Fe  Fe15  1  0.608316  0.108316  0.500000  1
  Hg  Hg16  1  0.000000  0.000000  0.000000  1
  Bi  Bi17  1  0.500000  0.500000  0.000000  1
