# generated using pymatgen
data_Hf6Zr4BePPb6
_symmetry_space_group_name_H-M   'P 1'
_cell_length_a   8.72342870
_cell_length_b   8.73343037
_cell_length_c   5.88895500
_cell_angle_alpha   89.95628862
_cell_angle_beta   90.02187960
_cell_angle_gamma   120.03793287
_symmetry_Int_Tables_number   1
_chemical_formula_structural   Hf6Zr4BePPb6
_chemical_formula_sum   'Hf6 Zr4 Be1 P1 Pb6'
_cell_volume   388.39594645
_cell_formula_units_Z   1
loop_
 _symmetry_equiv_pos_site_id
 _symmetry_equiv_pos_as_xyz
  1  'x, y, z'
loop_
 _atom_site_type_symbol
 _atom_site_label
 _atom_site_symmetry_multiplicity
 _atom_site_fract_x
 _atom_site_fract_y
 _atom_site_fract_z
 _atom_site_occupancy
  Hf  Hf0  1  0.667029  0.333487  0.499042  1
  Hf  Hf1  1  0.332971  0.666459  0.499042  1
  Hf  Hf2  1  0.333329  0.666704  0.001117  1
  Hf  Hf3  1  0.666671  0.333373  0.001117  1
  Hf  Hf4  1  0.752564  0.753341  0.253214  1
  Hf  Hf5  1  0.247436  0.000777  0.253214  1
  Zr  Zr6  1  0.000000  0.248731  0.252493  1
  Zr  Zr7  1  0.244293  0.243280  0.747600  1
  Zr  Zr8  1  0.755707  0.998986  0.747600  1
  Zr  Zr9  1  0.000000  0.755830  0.745603  1
  Be  Be10  1  0.000000  0.999861  0.494350  1
  P  P11  1  0.000000  0.998743  0.006464  1
  Pb  Pb12  1  0.395320  0.394897  0.250587  1
  Pb  Pb13  1  0.604680  0.999577  0.250587  1
  Pb  Pb14  1  0.000000  0.607326  0.249522  1
  Pb  Pb15  1  0.603682  0.603491  0.749572  1
  Pb  Pb16  1  0.396318  0.999809  0.749572  1
  Pb  Pb17  1  0.000000  0.395325  0.749301  1
