# generated using pymatgen
data_Sr2Ca5Ni4Sn13
_symmetry_space_group_name_H-M   'P 1'
_cell_length_a   11.34964200
_cell_length_b   11.34964200
_cell_length_c   4.66416100
_cell_angle_alpha   90.00000000
_cell_angle_beta   90.00000000
_cell_angle_gamma   90.00000000
_symmetry_Int_Tables_number   1
_chemical_formula_structural   Sr2Ca5Ni4Sn13
_chemical_formula_sum   'Sr2 Ca5 Ni4 Sn13'
_cell_volume   600.81097725
_cell_formula_units_Z   1
loop_
 _symmetry_equiv_pos_site_id
 _symmetry_equiv_pos_as_xyz
  1  'x, y, z'
loop_
 _atom_site_type_symbol
 _atom_site_label
 _atom_site_symmetry_multiplicity
 _atom_site_fract_x
 _atom_site_fract_y
 _atom_site_fract_z
 _atom_site_occupancy
  Sr  Sr0  1  0.000000  0.500000  0.000000  1
  Sr  Sr1  1  0.500000  0.000000  0.000000  1
  Ca  Ca2  1  0.838155  0.170168  0.000000  1
  Ca  Ca3  1  0.829832  0.838155  0.000000  1
  Ca  Ca4  1  0.161845  0.829832  0.000000  1
  Ca  Ca5  1  0.170168  0.161845  0.000000  1
  Ca  Ca6  1  0.500000  0.500000  0.500000  1
  Ni  Ni7  1  0.775654  0.618831  0.500000  1
  Ni  Ni8  1  0.381169  0.775654  0.500000  1
  Ni  Ni9  1  0.618831  0.224346  0.500000  1
  Ni  Ni10  1  0.224346  0.381169  0.500000  1
  Sn  Sn11  1  0.019239  0.280976  0.500000  1
  Sn  Sn12  1  0.980761  0.719024  0.500000  1
  Sn  Sn13  1  0.217692  0.612021  0.500000  1
  Sn  Sn14  1  0.577667  0.309190  0.000000  1
  Sn  Sn15  1  0.690810  0.577667  0.000000  1
  Sn  Sn16  1  0.782308  0.387979  0.500000  1
  Sn  Sn17  1  0.719024  0.019239  0.500000  1
  Sn  Sn18  1  0.000000  0.000000  0.500000  1
  Sn  Sn19  1  0.280976  0.980761  0.500000  1
  Sn  Sn20  1  0.422333  0.690810  0.000000  1
  Sn  Sn21  1  0.612021  0.782308  0.500000  1
  Sn  Sn22  1  0.309190  0.422333  0.000000  1
  Sn  Sn23  1  0.387979  0.217692  0.500000  1
