# generated using pymatgen
data_Be8V2RhW
_symmetry_space_group_name_H-M   'P 1'
_cell_length_a   4.37183300
_cell_length_b   4.37183374
_cell_length_c   7.15950400
_cell_angle_alpha   90.00000000
_cell_angle_beta   90.00000000
_cell_angle_gamma   120.00000200
_symmetry_Int_Tables_number   1
_chemical_formula_structural   Be8V2RhW
_chemical_formula_sum   'Be8 V2 Rh1 W1'
_cell_volume   118.50611477
_cell_formula_units_Z   1
loop_
 _symmetry_equiv_pos_site_id
 _symmetry_equiv_pos_as_xyz
  1  'x, y, z'
loop_
 _atom_site_type_symbol
 _atom_site_label
 _atom_site_symmetry_multiplicity
 _atom_site_fract_x
 _atom_site_fract_y
 _atom_site_fract_z
 _atom_site_occupancy
  Be  Be0  1  0.000000  0.000000  0.001152  1
  Be  Be1  1  0.000000  0.000000  0.494168  1
  Be  Be2  1  0.829901  0.659800  0.248744  1
  Be  Be3  1  0.168590  0.831410  0.751523  1
  Be  Be4  1  0.662821  0.831410  0.751523  1
  Be  Be5  1  0.340200  0.170099  0.248744  1
  Be  Be6  1  0.829901  0.170099  0.248744  1
  Be  Be7  1  0.168590  0.337179  0.751523  1
  V  V8  1  0.666667  0.333333  0.937764  1
  V  V9  1  0.333333  0.666667  0.436841  1
  Rh  Rh10  1  0.333333  0.666667  0.065528  1
  W  W11  1  0.666667  0.333333  0.563747  1
