# generated using pymatgen
data_Dy4Tm6Si5Pb
_symmetry_space_group_name_H-M   'P 1'
_cell_length_a   8.49780525
_cell_length_b   8.49780493
_cell_length_c   6.33634200
_cell_angle_alpha   90.00000000
_cell_angle_beta   90.00000000
_cell_angle_gamma   120.31326058
_symmetry_Int_Tables_number   1
_chemical_formula_structural   Dy4Tm6Si5Pb
_chemical_formula_sum   'Dy4 Tm6 Si5 Pb1'
_cell_volume   395.00554892
_cell_formula_units_Z   1
loop_
 _symmetry_equiv_pos_site_id
 _symmetry_equiv_pos_as_xyz
  1  'x, y, z'
loop_
 _atom_site_type_symbol
 _atom_site_label
 _atom_site_symmetry_multiplicity
 _atom_site_fract_x
 _atom_site_fract_y
 _atom_site_fract_z
 _atom_site_occupancy
  Dy  Dy0  1  0.767165  0.767165  0.250000  1
  Dy  Dy1  1  0.240096  0.240096  0.750000  1
  Dy  Dy2  1  0.755321  0.998750  0.750000  1
  Dy  Dy3  1  0.998750  0.755321  0.750000  1
  Tm  Tm4  1  0.675303  0.330812  0.503308  1
  Tm  Tm5  1  0.330812  0.675303  0.503308  1
  Tm  Tm6  1  0.330812  0.675303  0.996692  1
  Tm  Tm7  1  0.675303  0.330812  0.996692  1
  Tm  Tm8  1  0.240735  0.987629  0.250000  1
  Tm  Tm9  1  0.987629  0.240735  0.250000  1
  Si  Si10  1  0.603285  0.999144  0.250000  1
  Si  Si11  1  0.999144  0.603285  0.250000  1
  Si  Si12  1  0.604707  0.604707  0.750000  1
  Si  Si13  1  0.394997  0.001849  0.750000  1
  Si  Si14  1  0.001849  0.394997  0.750000  1
  Pb  Pb15  1  0.394090  0.394090  0.250000  1
