# generated using pymatgen
data_Ca14ScSb11
_symmetry_space_group_name_H-M   'P 1'
_cell_length_a   16.32811457
_cell_length_b   16.32811483
_cell_length_c   16.32811700
_cell_angle_alpha   92.94974793
_cell_angle_beta   118.31181890
_cell_angle_gamma   118.31192210
_symmetry_Int_Tables_number   1
_chemical_formula_structural   Ca14ScSb11
_chemical_formula_sum   'Ca56 Sc4 Sb44'
_cell_volume   3152.19623446
_cell_formula_units_Z   4
loop_
 _symmetry_equiv_pos_site_id
 _symmetry_equiv_pos_as_xyz
  1  'x, y, z'
loop_
 _atom_site_type_symbol
 _atom_site_label
 _atom_site_symmetry_multiplicity
 _atom_site_fract_x
 _atom_site_fract_y
 _atom_site_fract_z
 _atom_site_occupancy
  Ca  Ca0  1  0.598631  0.614591  0.969882  1
  Ca  Ca1  1  0.098635  0.128743  0.984038  1
  Ca  Ca2  1  0.910363  0.477183  0.249257  1
  Ca  Ca3  1  0.855306  0.984048  0.385425  1
  Ca  Ca4  1  0.901383  0.530118  0.885411  1
  Ca  Ca5  1  0.355001  0.250000  0.604997  1
  Ca  Ca6  1  0.401369  0.385409  0.030118  1
  Ca  Ca7  1  0.383285  0.597841  0.127840  1
  Ca  Ca8  1  0.616715  0.402159  0.872160  1
  Ca  Ca9  1  0.227925  0.750745  0.161096  1
  Ca  Ca10  1  0.970010  0.214556  0.597854  1
  Ca  Ca11  1  0.727933  0.566832  0.477185  1
  Ca  Ca12  1  0.272070  0.338900  0.749253  1
  Ca  Ca13  1  0.589637  0.250742  0.022817  1
  Ca  Ca14  1  0.855309  0.371264  0.469888  1
  Ca  Ca15  1  0.144691  0.628736  0.530112  1
  Ca  Ca16  1  0.145010  0.895007  0.250000  1
  Ca  Ca17  1  0.089637  0.522817  0.750743  1
  Ca  Ca18  1  0.883285  0.755449  0.785450  1
  Ca  Ca19  1  0.355000  0.605002  0.750008  1
  Ca  Ca20  1  0.855004  0.250008  0.105006  1
  Ca  Ca21  1  0.144996  0.749992  0.894994  1
  Ca  Ca22  1  0.098617  0.469882  0.114589  1
  Ca  Ca23  1  0.598633  0.484048  0.628745  1
  Ca  Ca24  1  0.116710  0.372161  0.902153  1
  Ca  Ca25  1  0.089639  0.066823  0.338897  1
  Ca  Ca26  1  0.470010  0.872156  0.755465  1
  Ca  Ca27  1  0.410350  0.161095  0.433171  1
  Ca  Ca28  1  0.529998  0.902150  0.285451  1
  Ca  Ca29  1  0.383284  0.285441  0.255443  1
  Ca  Ca30  1  0.272067  0.433168  0.522815  1
  Ca  Ca31  1  0.529990  0.127844  0.244535  1
  Ca  Ca32  1  0.029985  0.744541  0.627845  1
  Ca  Ca33  1  0.029990  0.785444  0.402146  1
  Ca  Ca34  1  0.645000  0.394998  0.249992  1
  Ca  Ca35  1  0.355299  0.885429  0.484044  1
  Ca  Ca36  1  0.644701  0.114571  0.515956  1
  Ca  Ca37  1  0.227926  0.977187  0.066823  1
  Ca  Ca38  1  0.772074  0.022813  0.933177  1
  Ca  Ca39  1  0.589650  0.838905  0.566829  1
  Ca  Ca40  1  0.355298  0.969880  0.871260  1
  Ca  Ca41  1  0.116715  0.244551  0.214550  1
  Ca  Ca42  1  0.644702  0.030120  0.128740  1
  Ca  Ca43  1  0.144694  0.015952  0.614575  1
  Ca  Ca44  1  0.883290  0.627839  0.097847  1
  Ca  Ca45  1  0.644999  0.750000  0.395003  1
  Ca  Ca46  1  0.410363  0.749258  0.977183  1
  Ca  Ca47  1  0.616716  0.714559  0.744557  1
  Ca  Ca48  1  0.970015  0.255459  0.372155  1
  Ca  Ca49  1  0.854990  0.104993  0.750000  1
  Ca  Ca50  1  0.401367  0.515952  0.371255  1
  Ca  Ca51  1  0.727930  0.661100  0.250747  1
  Ca  Ca52  1  0.772075  0.249255  0.838904  1
  Ca  Ca53  1  0.470002  0.097850  0.714549  1
  Ca  Ca54  1  0.910361  0.933177  0.661103  1
  Ca  Ca55  1  0.901365  0.871257  0.015962  1
  Sc  Sc56  1  0.249961  0.624951  0.374991  1
  Sc  Sc57  1  0.749983  0.874943  0.124988  1
  Sc  Sc58  1  0.250017  0.125057  0.875012  1
  Sc  Sc59  1  0.750039  0.375049  0.625009  1
  Sb  Sb60  1  0.114380  0.918012  0.812035  1
  Sb  Sb61  1  0.894484  0.572751  0.417067  1
  Sb  Sb62  1  0.521074  0.510538  0.260538  1
  Sb  Sb63  1  0.749999  0.989463  0.510536  1
  Sb  Sb64  1  0.844316  0.417070  0.022582  1
  Sb  Sb65  1  0.394039  0.697667  0.312030  1
  Sb  Sb66  1  0.885620  0.081988  0.187965  1
  Sb  Sb67  1  0.385653  0.687983  0.582038  1
  Sb  Sb68  1  0.894031  0.812031  0.197662  1
  Sb  Sb69  1  0.614347  0.312017  0.417962  1
  Sb  Sb70  1  0.893968  0.581911  0.696338  1
  Sb  Sb71  1  0.105516  0.427249  0.582933  1
  Sb  Sb72  1  0.394482  0.917065  0.072750  1
  Sb  Sb73  1  0.655685  0.678269  0.572753  1
  Sb  Sb74  1  0.105969  0.187969  0.802338  1
  Sb  Sb75  1  0.155682  0.072751  0.178267  1
  Sb  Sb76  1  0.250004  0.875002  0.625002  1
  Sb  Sb77  1  0.394487  0.977417  0.321731  1
  Sb  Sb78  1  0.021075  0.760537  0.010539  1
  Sb  Sb79  1  0.894483  0.821731  0.477415  1
  Sb  Sb80  1  0.605518  0.082935  0.927250  1
  Sb  Sb81  1  0.844318  0.927249  0.821733  1
  Sb  Sb82  1  0.749999  0.624997  0.875003  1
  Sb  Sb83  1  0.978925  0.239463  0.989461  1
  Sb  Sb84  1  0.105517  0.178269  0.522585  1
  Sb  Sb85  1  0.393974  0.196345  0.081923  1
  Sb  Sb86  1  0.106032  0.418089  0.303662  1
  Sb  Sb87  1  0.344316  0.522582  0.917070  1
  Sb  Sb88  1  0.605513  0.022583  0.678269  1
  Sb  Sb89  1  0.885602  0.303636  0.697646  1
  Sb  Sb90  1  0.749996  0.124998  0.374998  1
  Sb  Sb91  1  0.344315  0.321731  0.427247  1
  Sb  Sb92  1  0.750000  0.260537  0.239464  1
  Sb  Sb93  1  0.605961  0.302333  0.687970  1
  Sb  Sb94  1  0.155684  0.582930  0.977418  1
  Sb  Sb95  1  0.385634  0.197664  0.803621  1
  Sb  Sb96  1  0.614366  0.802336  0.196379  1
  Sb  Sb97  1  0.655684  0.477418  0.082930  1
  Sb  Sb98  1  0.250001  0.375003  0.124997  1
  Sb  Sb99  1  0.114398  0.696364  0.302354  1
  Sb  Sb100  1  0.606026  0.803655  0.918077  1
  Sb  Sb101  1  0.250001  0.010537  0.489464  1
  Sb  Sb102  1  0.250000  0.739463  0.760536  1
  Sb  Sb103  1  0.478926  0.489462  0.739462  1
