# generated using pymatgen
data_U5Si12Mo3Ir16
_symmetry_space_group_name_H-M   'P 1'
_cell_length_a   12.86033100
_cell_length_b   12.86033095
_cell_length_c   4.01541000
_cell_angle_alpha   90.00000000
_cell_angle_beta   90.00000000
_cell_angle_gamma   120.00000270
_symmetry_Int_Tables_number   1
_chemical_formula_structural   U5Si12Mo3Ir16
_chemical_formula_sum   'U5 Si12 Mo3 Ir16'
_cell_volume   575.12839197
_cell_formula_units_Z   1
loop_
 _symmetry_equiv_pos_site_id
 _symmetry_equiv_pos_as_xyz
  1  'x, y, z'
loop_
 _atom_site_type_symbol
 _atom_site_label
 _atom_site_symmetry_multiplicity
 _atom_site_fract_x
 _atom_site_fract_y
 _atom_site_fract_z
 _atom_site_occupancy
  U  U0  1  0.333333  0.666667  0.500000  1
  U  U1  1  0.666667  0.333333  0.500000  1
  U  U2  1  0.000000  0.811959  0.000000  1
  U  U3  1  0.188041  0.188041  0.000000  1
  U  U4  1  0.811959  0.000000  0.000000  1
  Si  Si5  1  0.000000  0.629994  0.500000  1
  Si  Si6  1  0.370006  0.370006  0.500000  1
  Si  Si7  1  0.629994  0.000000  0.500000  1
  Si  Si8  1  0.520245  0.686067  0.000000  1
  Si  Si9  1  0.313933  0.834179  0.000000  1
  Si  Si10  1  0.165821  0.479755  0.000000  1
  Si  Si11  1  0.479755  0.165821  0.000000  1
  Si  Si12  1  0.686067  0.520245  0.000000  1
  Si  Si13  1  0.834179  0.313933  0.000000  1
  Si  Si14  1  0.000000  0.179749  0.500000  1
  Si  Si15  1  0.820251  0.820251  0.500000  1
  Si  Si16  1  0.179749  0.000000  0.500000  1
  Mo  Mo17  1  0.000000  0.440952  0.500000  1
  Mo  Mo18  1  0.559048  0.559048  0.500000  1
  Mo  Mo19  1  0.440952  0.000000  0.500000  1
  Ir  Ir20  1  0.512182  0.871068  0.000000  1
  Ir  Ir21  1  0.128932  0.641116  0.000000  1
  Ir  Ir22  1  0.358884  0.487818  0.000000  1
  Ir  Ir23  1  0.487818  0.358884  0.000000  1
  Ir  Ir24  1  0.871068  0.512182  0.000000  1
  Ir  Ir25  1  0.641116  0.128932  0.000000  1
  Ir  Ir26  1  0.000000  0.277816  0.000000  1
  Ir  Ir27  1  0.722184  0.722184  0.000000  1
  Ir  Ir28  1  0.277816  0.000000  0.000000  1
  Ir  Ir29  1  0.627410  0.808353  0.500000  1
  Ir  Ir30  1  0.191647  0.819058  0.500000  1
  Ir  Ir31  1  0.180942  0.372590  0.500000  1
  Ir  Ir32  1  0.372590  0.180942  0.500000  1
  Ir  Ir33  1  0.808353  0.627410  0.500000  1
  Ir  Ir34  1  0.819058  0.191647  0.500000  1
  Ir  Ir35  1  0.000000  0.000000  0.500000  1
