# generated using pymatgen
data_Tb2Ho2NiB16Ir3
_symmetry_space_group_name_H-M   'P 1'
_cell_length_a   6.97575819
_cell_length_b   6.97577003
_cell_length_c   6.97576504
_cell_angle_alpha   111.32312945
_cell_angle_beta   112.29436466
_cell_angle_gamma   104.89262985
_symmetry_Int_Tables_number   1
_chemical_formula_structural   Tb2Ho2NiB16Ir3
_chemical_formula_sum   'Tb2 Ho2 Ni1 B16 Ir3'
_cell_volume   260.04959724
_cell_formula_units_Z   1
loop_
 _symmetry_equiv_pos_site_id
 _symmetry_equiv_pos_as_xyz
  1  'x, y, z'
loop_
 _atom_site_type_symbol
 _atom_site_label
 _atom_site_symmetry_multiplicity
 _atom_site_fract_x
 _atom_site_fract_y
 _atom_site_fract_z
 _atom_site_occupancy
  Tb  Tb0  1  0.787426  0.790381  0.002955  1
  Tb  Tb1  1  0.212575  0.215530  0.002956  1
  Ho  Ho2  1  0.751630  0.252332  0.500702  1
  Ho  Ho3  1  0.248370  0.749068  0.500700  1
  Ni  Ni4  1  0.499988  0.256496  0.756507  1
  B  B5  1  0.270250  0.108651  0.378898  1
  B  B6  1  0.735365  0.893889  0.629251  1
  B  B7  1  0.264636  0.893889  0.158524  1
  B  B8  1  0.729752  0.108651  0.838401  1
  B  B9  1  0.108105  0.731712  0.839816  1
  B  B10  1  0.890993  0.264723  0.155714  1
  B  B11  1  0.109008  0.264723  0.373730  1
  B  B12  1  0.891896  0.731712  0.623608  1
  B  B13  1  0.118064  0.112648  0.531650  1
  B  B14  1  0.584760  0.584144  0.474716  1
  B  B15  1  0.109429  0.584144  0.999383  1
  B  B16  1  0.580997  0.112648  0.994583  1
  B  B17  1  0.890570  0.889956  0.474714  1
  B  B18  1  0.419003  0.413585  0.531651  1
  B  B19  1  0.881934  0.413586  0.994583  1
  B  B20  1  0.415243  0.889956  0.999385  1
  Ir  Ir21  1  0.266196  0.496901  0.763094  1
  Ir  Ir22  1  0.733807  0.496901  0.230706  1
  Ir  Ir23  1  0.500000  0.743774  0.243774  1
