# generated using pymatgen
data_MnI35
_symmetry_space_group_name_H-M   'P 1'
_cell_length_a   17.58017498
_cell_length_b   12.54030950
_cell_length_c   11.87107100
_cell_angle_alpha   88.81408644
_cell_angle_beta   66.02770740
_cell_angle_gamma   92.31545562
_symmetry_Int_Tables_number   1
_chemical_formula_structural   MnI35
_chemical_formula_sum   'Mn1 I35'
_cell_volume   2387.43274716
_cell_formula_units_Z   1
loop_
 _symmetry_equiv_pos_site_id
 _symmetry_equiv_pos_as_xyz
  1  'x, y, z'
loop_
 _atom_site_type_symbol
 _atom_site_label
 _atom_site_symmetry_multiplicity
 _atom_site_fract_x
 _atom_site_fract_y
 _atom_site_fract_z
 _atom_site_occupancy
  Mn  Mn0  1  0.230602  0.425729  0.458931  1
  I  I1  1  0.516996  0.277052  0.532557  1
  I  I2  1  0.751835  0.591188  0.575565  1
  I  I3  1  0.467642  0.692822  0.745322  1
  I  I4  1  0.072867  0.887949  0.833568  1
  I  I5  1  0.896665  0.151154  0.018743  1
  I  I6  1  0.653841  0.316525  0.282751  1
  I  I7  1  0.608410  0.339896  0.836062  1
  I  I8  1  0.332571  0.779552  0.694486  1
  I  I9  1  0.325449  0.558651  0.240201  1
  I  I10  1  0.646081  0.126688  0.811963  1
  I  I11  1  0.905993  0.563889  0.365832  1
  I  I12  1  0.074816  0.949774  0.595597  1
  I  I13  1  0.902650  0.109698  0.263423  1
  I  I14  1  0.889480  0.196920  0.785102  1
  I  I15  1  0.653539  0.054396  0.235801  1
  I  I16  1  0.043823  0.820827  0.088551  1
  I  I17  1  0.355291  0.003747  0.738304  1
  I  I18  1  0.904232  0.333077  0.321882  1
  I  I19  1  0.884984  0.919364  0.701755  1
  I  I20  1  0.913653  0.659816  0.779358  1
  I  I21  1  0.315844  0.031709  0.259588  1
  I  I22  1  0.321307  0.307262  0.268413  1
  I  I23  1  0.600278  0.609553  0.807139  1
  I  I24  1  0.097197  0.437497  0.412804  1
  I  I25  1  0.709186  0.889254  0.807212  1
  I  I26  1  0.881984  0.438459  0.787340  1
  I  I27  1  0.486633  0.039842  0.250048  1
  I  I28  1  0.172432  0.260747  0.604864  1
  I  I29  1  0.679666  0.788120  0.264007  1
  I  I30  1  0.862141  0.809304  0.175883  1
  I  I31  1  0.383716  0.231162  0.772528  1
  I  I32  1  0.339679  0.481174  0.550409  1
  I  I33  1  0.660368  0.550197  0.259218  1
  I  I34  1  0.155390  0.581429  0.602330  1
  I  I35  1  0.302757  0.785578  0.272462  1
