# generated using pymatgen
data_SrGaFeCl8
_symmetry_space_group_name_H-M   'P 1'
_cell_length_a   7.16567536
_cell_length_b   7.58425279
_cell_length_c   13.06078112
_cell_angle_alpha   85.66054382
_cell_angle_beta   90.07213809
_cell_angle_gamma   89.84643252
_symmetry_Int_Tables_number   1
_chemical_formula_structural   SrGaFeCl8
_chemical_formula_sum   'Sr2 Ga2 Fe2 Cl16'
_cell_volume   707.76691508
_cell_formula_units_Z   2
loop_
 _symmetry_equiv_pos_site_id
 _symmetry_equiv_pos_as_xyz
  1  'x, y, z'
loop_
 _atom_site_type_symbol
 _atom_site_label
 _atom_site_symmetry_multiplicity
 _atom_site_fract_x
 _atom_site_fract_y
 _atom_site_fract_z
 _atom_site_occupancy
  Sr  Sr0  1  0.840623  0.499478  0.749820  1
  Sr  Sr1  1  0.159377  0.500522  0.250180  1
  Ga  Ga2  1  0.262037  0.675039  0.580700  1
  Ga  Ga3  1  0.737963  0.324961  0.419300  1
  Fe  Fe4  1  0.262178  0.324143  0.919020  1
  Fe  Fe5  1  0.737822  0.675857  0.080980  1
  Cl  Cl6  1  0.305207  0.267298  0.086493  1
  Cl  Cl7  1  0.176838  0.601973  0.882579  1
  Cl  Cl8  1  0.024992  0.172164  0.861687  1
  Cl  Cl9  1  0.823427  0.601684  0.382715  1
  Cl  Cl10  1  0.524899  0.741409  0.656757  1
  Cl  Cl11  1  0.472971  0.739514  0.157569  1
  Cl  Cl12  1  0.692895  0.265839  0.585512  1
  Cl  Cl13  1  0.307105  0.734161  0.414488  1
  Cl  Cl14  1  0.527029  0.260486  0.842431  1
  Cl  Cl15  1  0.475101  0.258591  0.343243  1
  Cl  Cl16  1  0.176573  0.398316  0.617285  1
  Cl  Cl17  1  0.823162  0.398027  0.117421  1
  Cl  Cl18  1  0.694793  0.732702  0.913507  1
  Cl  Cl19  1  0.975008  0.827836  0.138313  1
  Cl  Cl20  1  0.973890  0.172252  0.362041  1
  Cl  Cl21  1  0.026110  0.827748  0.637959  1
