# generated using pymatgen
data_MgTa2(TiRe12)2
_symmetry_space_group_name_H-M   'P 1'
_cell_length_a   8.39954407
_cell_length_b   8.39954336
_cell_length_c   8.40064000
_cell_angle_alpha   109.47664144
_cell_angle_beta   109.47664170
_cell_angle_gamma   109.45510618
_symmetry_Int_Tables_number   1
_chemical_formula_structural   MgTa2(TiRe12)2
_chemical_formula_sum   'Mg1 Ta2 Ti2 Re24'
_cell_volume   456.27861448
_cell_formula_units_Z   1
loop_
 _symmetry_equiv_pos_site_id
 _symmetry_equiv_pos_as_xyz
  1  'x, y, z'
loop_
 _atom_site_type_symbol
 _atom_site_label
 _atom_site_symmetry_multiplicity
 _atom_site_fract_x
 _atom_site_fract_y
 _atom_site_fract_z
 _atom_site_occupancy
  Mg  Mg0  1  0.003028  0.003028  0.000000  1
  Ta  Ta1  1  0.635010  0.000035  0.000000  1
  Ta  Ta2  1  0.000035  0.635010  0.000000  1
  Ti  Ti3  1  0.999873  0.999873  0.634509  1
  Ti  Ti4  1  0.365365  0.365365  0.365491  1
  Re  Re5  1  0.397611  0.680197  0.000000  1
  Re  Re6  1  0.717684  0.320625  0.319867  1
  Re  Re7  1  0.397817  0.000758  0.680133  1
  Re  Re8  1  0.680197  0.397611  0.000000  1
  Re  Re9  1  0.000758  0.397817  0.680133  1
  Re  Re10  1  0.320625  0.717684  0.319867  1
  Re  Re11  1  0.319326  0.319326  0.718005  1
  Re  Re12  1  0.000676  0.681138  0.399253  1
  Re  Re13  1  0.681138  0.000676  0.399253  1
  Re  Re14  1  0.601321  0.601321  0.281995  1
  Re  Re15  1  0.281885  0.601424  0.600747  1
  Re  Re16  1  0.601424  0.281885  0.600747  1
  Re  Re17  1  0.374070  0.192594  0.000000  1
  Re  Re18  1  0.180961  0.806184  0.805283  1
  Re  Re19  1  0.375678  0.000900  0.194717  1
  Re  Re20  1  0.192594  0.374070  0.000000  1
  Re  Re21  1  0.000900  0.375678  0.194717  1
  Re  Re22  1  0.806184  0.180961  0.805283  1
  Re  Re23  1  0.805228  0.805228  0.181549  1
  Re  Re24  1  0.000532  0.193022  0.375085  1
  Re  Re25  1  0.193022  0.000532  0.375085  1
  Re  Re26  1  0.623678  0.623678  0.818451  1
  Re  Re27  1  0.817936  0.625447  0.624915  1
  Re  Re28  1  0.625447  0.817936  0.624915  1
