# generated using pymatgen
data_Lu6FeCo22
_symmetry_space_group_name_H-M   'P 1'
_cell_length_a   8.27136200
_cell_length_b   8.27136359
_cell_length_c   8.27136200
_cell_angle_alpha   120.00000162
_cell_angle_beta   90.00000000
_cell_angle_gamma   120.00000162
_symmetry_Int_Tables_number   1
_chemical_formula_structural   Lu6FeCo22
_chemical_formula_sum   'Lu6 Fe1 Co22'
_cell_volume   400.14385292
_cell_formula_units_Z   1
loop_
 _symmetry_equiv_pos_site_id
 _symmetry_equiv_pos_as_xyz
  1  'x, y, z'
loop_
 _atom_site_type_symbol
 _atom_site_label
 _atom_site_symmetry_multiplicity
 _atom_site_fract_x
 _atom_site_fract_y
 _atom_site_fract_z
 _atom_site_occupancy
  Lu  Lu0  1  0.713531  0.000000  0.286468  1
  Lu  Lu1  1  0.286469  0.000000  0.286469  1
  Lu  Lu2  1  0.286469  0.572938  0.286469  1
  Lu  Lu3  1  0.286468  0.000000  0.713531  1
  Lu  Lu4  1  0.713531  0.000000  0.713531  1
  Lu  Lu5  1  0.713531  0.427063  0.713531  1
  Fe  Fe6  1  0.000000  0.000000  0.000000  1
  Co  Co7  1  0.500001  0.000000  0.000000  1
  Co  Co8  1  0.000000  0.500001  0.000000  1
  Co  Co9  1  0.500001  0.500001  0.000000  1
  Co  Co10  1  0.676374  0.352748  0.029123  1
  Co  Co11  1  0.876600  0.753201  0.123400  1
  Co  Co12  1  0.370198  0.246798  0.123400  1
  Co  Co13  1  0.876600  0.246798  0.123400  1
  Co  Co14  1  0.676374  0.352748  0.323625  1
  Co  Co15  1  0.676374  0.647252  0.323625  1
  Co  Co16  1  0.970877  0.647252  0.323625  1
  Co  Co17  1  0.123400  0.246798  0.370198  1
  Co  Co18  1  0.000000  0.000000  0.500001  1
  Co  Co19  1  0.000000  0.500001  0.500001  1
  Co  Co20  1  0.500001  0.500001  0.500001  1
  Co  Co21  1  0.876600  0.753201  0.629801  1
  Co  Co22  1  0.029123  0.352748  0.676374  1
  Co  Co23  1  0.323625  0.352748  0.676374  1
  Co  Co24  1  0.323625  0.647252  0.676374  1
  Co  Co25  1  0.123400  0.246798  0.876600  1
  Co  Co26  1  0.123400  0.753201  0.876600  1
  Co  Co27  1  0.629801  0.753201  0.876600  1
  Co  Co28  1  0.323625  0.647252  0.970877  1
