# generated using pymatgen
data_Th8Co(Si4Rh)3
_symmetry_space_group_name_H-M   'P 1'
_cell_length_a   8.24446400
_cell_length_b   8.24446550
_cell_length_c   8.42559100
_cell_angle_alpha   90.00000000
_cell_angle_beta   90.00000000
_cell_angle_gamma   119.99999397
_symmetry_Int_Tables_number   1
_chemical_formula_structural   Th8Co(Si4Rh)3
_chemical_formula_sum   'Th8 Co1 Si12 Rh3'
_cell_volume   495.97063363
_cell_formula_units_Z   1
loop_
 _symmetry_equiv_pos_site_id
 _symmetry_equiv_pos_as_xyz
  1  'x, y, z'
loop_
 _atom_site_type_symbol
 _atom_site_label
 _atom_site_symmetry_multiplicity
 _atom_site_fract_x
 _atom_site_fract_y
 _atom_site_fract_z
 _atom_site_occupancy
  Th  Th0  1  0.000000  0.000000  0.250476  1
  Th  Th1  1  0.000000  0.000000  0.749621  1
  Th  Th2  1  0.498353  0.501647  0.252407  1
  Th  Th3  1  0.498353  0.996708  0.252407  1
  Th  Th4  1  0.003292  0.501647  0.252407  1
  Th  Th5  1  0.498571  0.501429  0.748029  1
  Th  Th6  1  0.498571  0.997140  0.748029  1
  Th  Th7  1  0.002860  0.501429  0.748029  1
  Co  Co8  1  0.333333  0.666667  0.497011  1
  Si  Si9  1  0.172057  0.827943  0.500749  1
  Si  Si10  1  0.172057  0.344115  0.500749  1
  Si  Si11  1  0.655885  0.827943  0.500749  1
  Si  Si12  1  0.834140  0.165860  0.499741  1
  Si  Si13  1  0.834140  0.668281  0.499741  1
  Si  Si14  1  0.331719  0.165860  0.499741  1
  Si  Si15  1  0.833217  0.166783  0.999580  1
  Si  Si16  1  0.833217  0.666435  0.999580  1
  Si  Si17  1  0.333565  0.166783  0.999580  1
  Si  Si18  1  0.166362  0.833638  0.000345  1
  Si  Si19  1  0.166362  0.332726  0.000345  1
  Si  Si20  1  0.667274  0.833638  0.000345  1
  Rh  Rh21  1  0.666667  0.333333  0.500178  1
  Rh  Rh22  1  0.666667  0.333333  0.000430  1
  Rh  Rh23  1  0.333333  0.666667  0.999727  1
