# generated using pymatgen
data_CaPr9Si5Ge
_symmetry_space_group_name_H-M   'P 1'
_cell_length_a   9.00692744
_cell_length_b   9.00685446
_cell_length_c   9.00686063
_cell_angle_alpha   128.39137964
_cell_angle_beta   128.39160581
_cell_angle_gamma   75.99122873
_symmetry_Int_Tables_number   1
_chemical_formula_structural   CaPr9Si5Ge
_chemical_formula_sum   'Ca1 Pr9 Si5 Ge1'
_cell_volume   436.42997992
_cell_formula_units_Z   1
loop_
 _symmetry_equiv_pos_site_id
 _symmetry_equiv_pos_as_xyz
  1  'x, y, z'
loop_
 _atom_site_type_symbol
 _atom_site_label
 _atom_site_symmetry_multiplicity
 _atom_site_fract_x
 _atom_site_fract_y
 _atom_site_fract_z
 _atom_site_occupancy
  Ca  Ca0  1  0.499548  0.499543  0.999998  1
  Pr  Pr1  1  0.534352  0.031944  0.856485  1
  Pr  Pr2  1  0.175457  0.677864  0.143514  1
  Pr  Pr3  1  0.031947  0.175459  0.497596  1
  Pr  Pr4  1  0.677863  0.534350  0.502406  1
  Pr  Pr5  1  0.467601  0.966196  0.143554  1
  Pr  Pr6  1  0.822644  0.324048  0.856449  1
  Pr  Pr7  1  0.966195  0.822642  0.498592  1
  Pr  Pr8  1  0.324047  0.467603  0.501404  1
  Pr  Pr9  1  0.999343  0.999345  0.000001  1
  Si  Si10  1  0.753377  0.753376  0.000001  1
  Si  Si11  1  0.888157  0.385767  0.273649  1
  Si  Si12  1  0.112116  0.614508  0.726350  1
  Si  Si13  1  0.385767  0.112118  0.497608  1
  Si  Si14  1  0.614509  0.888158  0.502391  1
  Ge  Ge15  1  0.247076  0.247079  0.000002  1
