# generated using pymatgen
data_La2(P2Pd7)3
_symmetry_space_group_name_H-M   'P 1'
_cell_length_a   8.69519780
_cell_length_b   8.69529459
_cell_length_c   8.69512001
_cell_angle_alpha   60.00265706
_cell_angle_beta   60.00131541
_cell_angle_gamma   59.99999361
_symmetry_Int_Tables_number   1
_chemical_formula_structural   La2(P2Pd7)3
_chemical_formula_sum   'La2 P6 Pd21'
_cell_volume   464.87625692
_cell_formula_units_Z   1
loop_
 _symmetry_equiv_pos_site_id
 _symmetry_equiv_pos_as_xyz
  1  'x, y, z'
loop_
 _atom_site_type_symbol
 _atom_site_label
 _atom_site_symmetry_multiplicity
 _atom_site_fract_x
 _atom_site_fract_y
 _atom_site_fract_z
 _atom_site_occupancy
  La  La0  1  0.750000  0.750000  0.750004  1
  La  La1  1  0.250000  0.250000  0.249996  1
  P  P2  1  0.739891  0.739902  0.260096  1
  P  P3  1  0.260113  0.739901  0.260098  1
  P  P4  1  0.739898  0.260106  0.260102  1
  P  P5  1  0.260109  0.260098  0.739904  1
  P  P6  1  0.739887  0.260099  0.739902  1
  P  P7  1  0.260102  0.739894  0.739898  1
  Pd  Pd8  1  0.000000  0.000000  0.000000  1
  Pd  Pd9  1  0.613404  0.613402  0.159783  1
  Pd  Pd10  1  0.613405  0.159782  0.613405  1
  Pd  Pd11  1  0.159785  0.613407  0.613407  1
  Pd  Pd12  1  0.613401  0.613401  0.613413  1
  Pd  Pd13  1  0.386596  0.386598  0.840217  1
  Pd  Pd14  1  0.386595  0.840218  0.386595  1
  Pd  Pd15  1  0.840215  0.386593  0.386593  1
  Pd  Pd16  1  0.386599  0.386599  0.386587  1
  Pd  Pd17  1  0.000009  0.000007  0.344372  1
  Pd  Pd18  1  0.655607  0.000009  0.344378  1
  Pd  Pd19  1  0.999998  0.655620  0.344388  1
  Pd  Pd20  1  0.655606  0.344376  0.000009  1
  Pd  Pd21  1  0.000008  0.344377  0.000010  1
  Pd  Pd22  1  0.000002  0.344380  0.655612  1
  Pd  Pd23  1  0.344394  0.655624  0.999991  1
  Pd  Pd24  1  0.344393  0.999991  0.655622  1
  Pd  Pd25  1  0.344393  0.999997  0.000003  1
  Pd  Pd26  1  0.999991  0.999993  0.655628  1
  Pd  Pd27  1  0.999992  0.655623  0.999990  1
  Pd  Pd28  1  0.655607  0.000003  0.999997  1
