# generated using pymatgen
data_DyHo11(Si2Ni)4
_symmetry_space_group_name_H-M   'P 1'
_cell_length_a   4.10692700
_cell_length_b   11.13693300
_cell_length_c   11.20224800
_cell_angle_alpha   89.99919466
_cell_angle_beta   90.00000000
_cell_angle_gamma   90.00000000
_symmetry_Int_Tables_number   1
_chemical_formula_structural   DyHo11(Si2Ni)4
_chemical_formula_sum   'Dy1 Ho11 Si8 Ni4'
_cell_volume   512.37481363
_cell_formula_units_Z   1
loop_
 _symmetry_equiv_pos_site_id
 _symmetry_equiv_pos_as_xyz
  1  'x, y, z'
loop_
 _atom_site_type_symbol
 _atom_site_label
 _atom_site_symmetry_multiplicity
 _atom_site_fract_x
 _atom_site_fract_y
 _atom_site_fract_z
 _atom_site_occupancy
  Dy  Dy0  1  0.250000  0.124109  0.557075  1
  Ho  Ho1  1  0.250000  0.375772  0.057257  1
  Ho  Ho2  1  0.750000  0.875689  0.442697  1
  Ho  Ho3  1  0.750000  0.624213  0.942750  1
  Ho  Ho4  1  0.250000  0.803003  0.715291  1
  Ho  Ho5  1  0.250000  0.696996  0.215218  1
  Ho  Ho6  1  0.750000  0.196993  0.284677  1
  Ho  Ho7  1  0.750000  0.303107  0.784823  1
  Ho  Ho8  1  0.250000  0.059275  0.882270  1
  Ho  Ho9  1  0.250000  0.440670  0.382134  1
  Ho  Ho10  1  0.750000  0.940665  0.117807  1
  Ho  Ho11  1  0.750000  0.559337  0.617866  1
  Si  Si12  1  0.250000  0.495412  0.803634  1
  Si  Si13  1  0.250000  0.004559  0.303514  1
  Si  Si14  1  0.750000  0.504627  0.196372  1
  Si  Si15  1  0.750000  0.995183  0.696596  1
  Si  Si16  1  0.250000  0.812847  0.976219  1
  Si  Si17  1  0.250000  0.687143  0.476254  1
  Si  Si18  1  0.750000  0.187178  0.023736  1
  Si  Si19  1  0.750000  0.313077  0.523750  1
  Ni  Ni20  1  0.250000  0.365707  0.629649  1
  Ni  Ni21  1  0.250000  0.134446  0.129625  1
  Ni  Ni22  1  0.750000  0.634453  0.370383  1
  Ni  Ni23  1  0.750000  0.865540  0.870403  1
