# generated using pymatgen
data_YbHo4HfH18
_symmetry_space_group_name_H-M   'P 1'
_cell_length_a   6.20917830
_cell_length_b   6.21834628
_cell_length_c   6.47657069
_cell_angle_alpha   89.88275029
_cell_angle_beta   90.03313372
_cell_angle_gamma   119.93845354
_symmetry_Int_Tables_number   1
_chemical_formula_structural   YbHo4HfH18
_chemical_formula_sum   'Yb1 Ho4 Hf1 H18'
_cell_volume   216.69695952
_cell_formula_units_Z   1
loop_
 _symmetry_equiv_pos_site_id
 _symmetry_equiv_pos_as_xyz
  1  'x, y, z'
loop_
 _atom_site_type_symbol
 _atom_site_label
 _atom_site_symmetry_multiplicity
 _atom_site_fract_x
 _atom_site_fract_y
 _atom_site_fract_z
 _atom_site_occupancy
  Yb  Yb0  1  0.335399  0.337643  0.750170  1
  Ho  Ho1  1  0.996296  0.659175  0.749700  1
  Ho  Ho2  1  0.661851  0.663321  0.252914  1
  Ho  Ho3  1  0.001260  0.334023  0.246027  1
  Ho  Ho4  1  0.336964  0.002477  0.251044  1
  Hf  Hf5  1  0.657451  0.998948  0.750165  1
  H  H6  1  0.345578  0.960114  0.903940  1
  H  H7  1  0.651274  0.707024  0.903210  1
  H  H8  1  0.011162  0.348328  0.906677  1
  H  H9  1  0.316951  0.342004  0.405021  1
  H  H10  1  0.029650  0.679467  0.408892  1
  H  H11  1  0.657800  0.974676  0.421891  1
  H  H12  1  0.681613  0.026132  0.078400  1
  H  H13  1  0.347309  0.320841  0.095205  1
  H  H14  1  0.973499  0.659143  0.090811  1
  H  H15  1  0.685255  0.662897  0.592398  1
  H  H16  1  0.937094  0.302752  0.596812  1
  H  H17  1  0.378883  0.023673  0.596634  1
  H  H18  1  0.976753  0.996283  0.749982  1
  H  H19  1  0.999927  0.998597  0.250378  1
  H  H20  1  0.666826  0.311563  0.814097  1
  H  H21  1  0.668157  0.334614  0.309319  1
  H  H22  1  0.332415  0.666771  0.190378  1
  H  H23  1  0.350632  0.689535  0.685933  1
