# generated using pymatgen
data_Hf3ZrSb4(PdRu)2
_symmetry_space_group_name_H-M   'P 1'
_cell_length_a   6.34621238
_cell_length_b   6.34594668
_cell_length_c   7.75542750
_cell_angle_alpha   65.85330665
_cell_angle_beta   65.81642340
_cell_angle_gamma   90.00445323
_symmetry_Int_Tables_number   1
_chemical_formula_structural   Hf3ZrSb4(PdRu)2
_chemical_formula_sum   'Hf3 Zr1 Sb4 Pd2 Ru2'
_cell_volume   254.66274021
_cell_formula_units_Z   1
loop_
 _symmetry_equiv_pos_site_id
 _symmetry_equiv_pos_as_xyz
  1  'x, y, z'
loop_
 _atom_site_type_symbol
 _atom_site_label
 _atom_site_symmetry_multiplicity
 _atom_site_fract_x
 _atom_site_fract_y
 _atom_site_fract_z
 _atom_site_occupancy
  Hf  Hf0  1  0.625000  0.631140  0.249991  1
  Hf  Hf1  1  0.368615  0.874820  0.750024  1
  Hf  Hf2  1  0.881387  0.374838  0.749973  1
  Zr  Zr3  1  0.124991  0.118932  0.249998  1
  Sb  Sb4  1  0.625016  0.119509  0.250034  1
  Sb  Sb5  1  0.124983  0.630109  0.249984  1
  Sb  Sb6  1  0.369577  0.375412  0.749423  1
  Sb  Sb7  1  0.880419  0.874756  0.750588  1
  Pd  Pd8  1  0.501839  0.501854  0.998799  1
  Pd  Pd9  1  0.748143  0.250671  0.501200  1
  Ru  Ru10  1  0.999518  0.999557  0.998860  1
  Ru  Ru11  1  0.250510  0.748402  0.501125  1
