# generated using pymatgen
data_La9Cu2Pb6O
_symmetry_space_group_name_H-M   'P 1'
_cell_length_a   23.91674155
_cell_length_b   22.76883346
_cell_length_c   16.94720700
_cell_angle_alpha   90.00000000
_cell_angle_beta   90.00000000
_cell_angle_gamma   122.54635763
_symmetry_Int_Tables_number   1
_chemical_formula_structural   La9Cu2Pb6O
_chemical_formula_sum   'La9 Cu2 Pb6 O1'
_cell_volume   7779.39924262
_cell_formula_units_Z   1
loop_
 _symmetry_equiv_pos_site_id
 _symmetry_equiv_pos_as_xyz
  1  'x, y, z'
loop_
 _atom_site_type_symbol
 _atom_site_label
 _atom_site_symmetry_multiplicity
 _atom_site_fract_x
 _atom_site_fract_y
 _atom_site_fract_z
 _atom_site_occupancy
  La  La0  1  0.252557  0.007496  0.750000  1
  La  La1  1  0.999912  0.244874  0.750000  1
  La  La2  1  0.224315  0.222878  0.250000  1
  La  La3  1  0.755780  0.003562  0.250000  1
  La  La4  1  0.007442  0.760088  0.250000  1
  La  La5  1  0.678207  0.353478  0.992115  1
  La  La6  1  0.356616  0.681408  0.990995  1
  La  La7  1  0.356616  0.681408  0.509005  1
  La  La8  1  0.678207  0.353478  0.507885  1
  Cu  Cu9  1  0.927634  0.926719  0.949591  1
  Cu  Cu10  1  0.927634  0.926719  0.550409  1
  Pb  Pb11  1  0.394348  0.393690  0.750000  1
  Pb  Pb12  1  0.607274  0.020791  0.750000  1
  Pb  Pb13  1  0.027047  0.615532  0.750000  1
  Pb  Pb14  1  0.590076  0.592232  0.250000  1
  Pb  Pb15  1  0.403723  0.003762  0.250000  1
  Pb  Pb16  1  0.006782  0.405811  0.250000  1
  O  O17  1  0.805830  0.806074  0.750000  1
