# generated using pymatgen
data_La2Pr6ReTc3C8
_symmetry_space_group_name_H-M   'P 1'
_cell_length_a   5.42177400
_cell_length_b   6.75436505
_cell_length_c   10.31499832
_cell_angle_alpha   89.97873898
_cell_angle_beta   90.00000000
_cell_angle_gamma   90.00000000
_symmetry_Int_Tables_number   1
_chemical_formula_structural   La2Pr6ReTc3C8
_chemical_formula_sum   'La2 Pr6 Re1 Tc3 C8'
_cell_volume   377.74182255
_cell_formula_units_Z   1
loop_
 _symmetry_equiv_pos_site_id
 _symmetry_equiv_pos_as_xyz
  1  'x, y, z'
loop_
 _atom_site_type_symbol
 _atom_site_label
 _atom_site_symmetry_multiplicity
 _atom_site_fract_x
 _atom_site_fract_y
 _atom_site_fract_z
 _atom_site_occupancy
  La  La0  1  0.750000  0.524267  0.787695  1
  La  La1  1  0.250000  0.975412  0.288402  1
  Pr  Pr2  1  0.750000  0.686086  0.449088  1
  Pr  Pr3  1  0.250000  0.813241  0.949064  1
  Pr  Pr4  1  0.750000  0.189184  0.051390  1
  Pr  Pr5  1  0.250000  0.311913  0.551212  1
  Pr  Pr6  1  0.250000  0.473328  0.213292  1
  Pr  Pr7  1  0.750000  0.025972  0.712741  1
  Re  Re8  1  0.750000  0.730384  0.143408  1
  Tc  Tc9  1  0.250000  0.269948  0.856192  1
  Tc  Tc10  1  0.250000  0.769536  0.644097  1
  Tc  Tc11  1  0.750000  0.230209  0.356094  1
  C  C12  1  0.250000  0.688210  0.466778  1
  C  C13  1  0.250000  0.533364  0.757224  1
  C  C14  1  0.750000  0.467656  0.241326  1
  C  C15  1  0.750000  0.811799  0.965020  1
  C  C16  1  0.250000  0.033460  0.742659  1
  C  C17  1  0.250000  0.189751  0.034092  1
  C  C18  1  0.750000  0.310287  0.533958  1
  C  C19  1  0.750000  0.965991  0.256272  1
