# generated using pymatgen
data_NdCo3P3Rh2
_symmetry_space_group_name_H-M   'P 1'
_cell_length_a   3.78178400
_cell_length_b   10.60277900
_cell_length_c   12.15964200
_cell_angle_alpha   90.00000000
_cell_angle_beta   90.00000000
_cell_angle_gamma   90.00000000
_symmetry_Int_Tables_number   1
_chemical_formula_structural   NdCo3P3Rh2
_chemical_formula_sum   'Nd4 Co12 P12 Rh8'
_cell_volume   487.57027205
_cell_formula_units_Z   4
loop_
 _symmetry_equiv_pos_site_id
 _symmetry_equiv_pos_as_xyz
  1  'x, y, z'
loop_
 _atom_site_type_symbol
 _atom_site_label
 _atom_site_symmetry_multiplicity
 _atom_site_fract_x
 _atom_site_fract_y
 _atom_site_fract_z
 _atom_site_occupancy
  Nd  Nd0  1  0.250000  0.585159  0.708435  1
  Nd  Nd1  1  0.250000  0.914841  0.208435  1
  Nd  Nd2  1  0.750000  0.414841  0.291565  1
  Nd  Nd3  1  0.750000  0.085159  0.791565  1
  Co  Co4  1  0.250000  0.222577  0.177765  1
  Co  Co5  1  0.250000  0.277423  0.677765  1
  Co  Co6  1  0.750000  0.777423  0.822235  1
  Co  Co7  1  0.750000  0.722577  0.322235  1
  Co  Co8  1  0.250000  0.883344  0.696982  1
  Co  Co9  1  0.250000  0.616656  0.196982  1
  Co  Co10  1  0.750000  0.116656  0.303018  1
  Co  Co11  1  0.750000  0.383344  0.803018  1
  Co  Co12  1  0.250000  0.464605  0.932845  1
  Co  Co13  1  0.250000  0.035395  0.432845  1
  Co  Co14  1  0.750000  0.535395  0.067155  1
  Co  Co15  1  0.750000  0.964605  0.567155  1
  P  P16  1  0.250000  0.422779  0.109197  1
  P  P17  1  0.250000  0.077221  0.609197  1
  P  P18  1  0.750000  0.577221  0.890803  1
  P  P19  1  0.750000  0.922779  0.390803  1
  P  P20  1  0.250000  0.278740  0.863119  1
  P  P21  1  0.250000  0.221260  0.363119  1
  P  P22  1  0.750000  0.721260  0.136881  1
  P  P23  1  0.750000  0.778740  0.636881  1
  P  P24  1  0.250000  0.607012  0.380806  1
  P  P25  1  0.250000  0.892988  0.880806  1
  P  P26  1  0.750000  0.392988  0.619194  1
  P  P27  1  0.750000  0.107012  0.119194  1
  Rh  Rh28  1  0.250000  0.711068  0.987385  1
  Rh  Rh29  1  0.250000  0.788932  0.487385  1
  Rh  Rh30  1  0.750000  0.288932  0.012615  1
  Rh  Rh31  1  0.750000  0.211068  0.512615  1
  Rh  Rh32  1  0.250000  0.405703  0.485490  1
  Rh  Rh33  1  0.250000  0.094297  0.985490  1
  Rh  Rh34  1  0.750000  0.594297  0.514510  1
  Rh  Rh35  1  0.750000  0.905703  0.014510  1
