# generated using pymatgen
data_Er5SnGePb2
_symmetry_space_group_name_H-M   'P 1'
_cell_length_a   9.22983900
_cell_length_b   9.19386686
_cell_length_c   6.52199900
_cell_angle_alpha   90.00000000
_cell_angle_beta   90.00000000
_cell_angle_gamma   120.12952399
_symmetry_Int_Tables_number   1
_chemical_formula_structural   Er5SnGePb2
_chemical_formula_sum   'Er10 Sn2 Ge2 Pb4'
_cell_volume   478.66909266
_cell_formula_units_Z   2
loop_
 _symmetry_equiv_pos_site_id
 _symmetry_equiv_pos_as_xyz
  1  'x, y, z'
loop_
 _atom_site_type_symbol
 _atom_site_label
 _atom_site_symmetry_multiplicity
 _atom_site_fract_x
 _atom_site_fract_y
 _atom_site_fract_z
 _atom_site_occupancy
  Er  Er0  1  0.254962  0.000000  0.250000  1
  Er  Er1  1  0.745038  0.000000  0.750000  1
  Er  Er2  1  0.995747  0.248515  0.250000  1
  Er  Er3  1  0.004253  0.751485  0.750000  1
  Er  Er4  1  0.747233  0.751485  0.250000  1
  Er  Er5  1  0.252767  0.248515  0.750000  1
  Er  Er6  1  0.335912  0.671825  0.000000  1
  Er  Er7  1  0.664088  0.328175  0.000000  1
  Er  Er8  1  0.664088  0.328175  0.500000  1
  Er  Er9  1  0.335912  0.671825  0.500000  1
  Sn  Sn10  1  0.605959  0.000000  0.250000  1
  Sn  Sn11  1  0.394041  0.000000  0.750000  1
  Ge  Ge12  1  0.000000  0.000000  0.000000  1
  Ge  Ge13  1  0.000000  0.000000  0.500000  1
  Pb  Pb14  1  0.999187  0.606710  0.250000  1
  Pb  Pb15  1  0.000813  0.393290  0.750000  1
  Pb  Pb16  1  0.392477  0.393290  0.250000  1
  Pb  Pb17  1  0.607523  0.606710  0.750000  1
