# generated using pymatgen
data_Ho2ThNi9
_symmetry_space_group_name_H-M   'P 1'
_cell_length_a   8.63079101
_cell_length_b   8.63079070
_cell_length_c   8.63079045
_cell_angle_alpha   33.30480093
_cell_angle_beta   33.30480466
_cell_angle_gamma   33.30480177
_symmetry_Int_Tables_number   1
_chemical_formula_structural   Ho2ThNi9
_chemical_formula_sum   'Ho2 Th1 Ni9'
_cell_volume   172.58640522
_cell_formula_units_Z   1
loop_
 _symmetry_equiv_pos_site_id
 _symmetry_equiv_pos_as_xyz
  1  'x, y, z'
loop_
 _atom_site_type_symbol
 _atom_site_label
 _atom_site_symmetry_multiplicity
 _atom_site_fract_x
 _atom_site_fract_y
 _atom_site_fract_z
 _atom_site_occupancy
  Ho  Ho0  1  0.859840  0.859840  0.859840  1
  Ho  Ho1  1  0.140160  0.140160  0.140160  1
  Th  Th2  1  0.000000  0.000000  0.000000  1
  Ni  Ni3  1  0.416056  0.416056  0.917832  1
  Ni  Ni4  1  0.917832  0.416056  0.416056  1
  Ni  Ni5  1  0.416056  0.917832  0.416056  1
  Ni  Ni6  1  0.500000  0.500000  0.500000  1
  Ni  Ni7  1  0.333267  0.333267  0.333267  1
  Ni  Ni8  1  0.666733  0.666733  0.666733  1
  Ni  Ni9  1  0.082168  0.583944  0.583944  1
  Ni  Ni10  1  0.583944  0.583944  0.082168  1
  Ni  Ni11  1  0.583944  0.082168  0.583944  1
