# generated using pymatgen
data_HoTmAl2NiRh
_symmetry_space_group_name_H-M   'P 1'
_cell_length_a   4.20839600
_cell_length_b   6.71873291
_cell_length_c   7.79567523
_cell_angle_alpha   90.08655248
_cell_angle_beta   90.00000000
_cell_angle_gamma   90.00000000
_symmetry_Int_Tables_number   1
_chemical_formula_structural   HoTmAl2NiRh
_chemical_formula_sum   'Ho2 Tm2 Al4 Ni2 Rh2'
_cell_volume   220.42315717
_cell_formula_units_Z   2
loop_
 _symmetry_equiv_pos_site_id
 _symmetry_equiv_pos_as_xyz
  1  'x, y, z'
loop_
 _atom_site_type_symbol
 _atom_site_label
 _atom_site_symmetry_multiplicity
 _atom_site_fract_x
 _atom_site_fract_y
 _atom_site_fract_z
 _atom_site_occupancy
  Ho  Ho0  1  0.250000  0.967688  0.320017  1
  Ho  Ho1  1  0.750000  0.536533  0.826742  1
  Tm  Tm2  1  0.250000  0.466753  0.180304  1
  Tm  Tm3  1  0.750000  0.036887  0.673929  1
  Al  Al4  1  0.750000  0.632115  0.436079  1
  Al  Al5  1  0.750000  0.132817  0.063276  1
  Al  Al6  1  0.250000  0.360363  0.553595  1
  Al  Al7  1  0.250000  0.860611  0.945883  1
  Ni  Ni8  1  0.750000  0.767081  0.128304  1
  Ni  Ni9  1  0.750000  0.268640  0.371702  1
  Rh  Rh10  1  0.250000  0.233964  0.877580  1
  Rh  Rh11  1  0.250000  0.736546  0.622589  1
