# generated using pymatgen
data_Er4MgNi2Au
_symmetry_space_group_name_H-M   'P 1'
_cell_length_a   8.41495461
_cell_length_b   8.41495427
_cell_length_c   8.41495474
_cell_angle_alpha   128.60307675
_cell_angle_beta   128.60307435
_cell_angle_gamma   75.65008962
_symmetry_Int_Tables_number   1
_chemical_formula_structural   Er4MgNi2Au
_chemical_formula_sum   'Er8 Mg2 Ni4 Au2'
_cell_volume   354.02077697
_cell_formula_units_Z   2
loop_
 _symmetry_equiv_pos_site_id
 _symmetry_equiv_pos_as_xyz
  1  'x, y, z'
loop_
 _atom_site_type_symbol
 _atom_site_label
 _atom_site_symmetry_multiplicity
 _atom_site_fract_x
 _atom_site_fract_y
 _atom_site_fract_z
 _atom_site_occupancy
  Er  Er0  1  0.804043  0.304043  0.841946  1
  Er  Er1  1  0.195957  0.695957  0.158054  1
  Er  Er2  1  0.462097  0.962097  0.158054  1
  Er  Er3  1  0.304043  0.462097  0.500000  1
  Er  Er4  1  0.037903  0.195957  0.500000  1
  Er  Er5  1  0.537903  0.037903  0.841946  1
  Er  Er6  1  0.695957  0.537903  0.500000  1
  Er  Er7  1  0.962097  0.804043  0.500000  1
  Mg  Mg8  1  0.000000  0.000000  0.000000  1
  Mg  Mg9  1  0.500000  0.500000  0.000000  1
  Ni  Ni10  1  0.125934  0.625934  0.751869  1
  Ni  Ni11  1  0.874066  0.374066  0.248131  1
  Ni  Ni12  1  0.625934  0.874066  0.500000  1
  Ni  Ni13  1  0.374066  0.125934  0.500000  1
  Au  Au14  1  0.250000  0.250000  0.000000  1
  Au  Au15  1  0.750000  0.750000  0.000000  1
