# generated using pymatgen
data_Dy2Tm10TcRu3
_symmetry_space_group_name_H-M   'P 1'
_cell_length_a   6.25010901
_cell_length_b   7.30341033
_cell_length_c   8.99128400
_cell_angle_alpha   90.00000000
_cell_angle_beta   90.00000000
_cell_angle_gamma   90.35403629
_symmetry_Int_Tables_number   1
_chemical_formula_structural   Dy2Tm10TcRu3
_chemical_formula_sum   'Dy2 Tm10 Tc1 Ru3'
_cell_volume   410.41830081
_cell_formula_units_Z   1
loop_
 _symmetry_equiv_pos_site_id
 _symmetry_equiv_pos_as_xyz
  1  'x, y, z'
loop_
 _atom_site_type_symbol
 _atom_site_label
 _atom_site_symmetry_multiplicity
 _atom_site_fract_x
 _atom_site_fract_y
 _atom_site_fract_z
 _atom_site_occupancy
  Dy  Dy0  1  0.629416  0.039517  0.250000  1
  Dy  Dy1  1  0.367827  0.958023  0.750000  1
  Tm  Tm2  1  0.132382  0.457724  0.750000  1
  Tm  Tm3  1  0.874598  0.541811  0.250000  1
  Tm  Tm4  1  0.164136  0.177725  0.064027  1
  Tm  Tm5  1  0.834527  0.822087  0.936407  1
  Tm  Tm6  1  0.665442  0.326555  0.937582  1
  Tm  Tm7  1  0.834527  0.822087  0.563593  1
  Tm  Tm8  1  0.332279  0.674809  0.063566  1
  Tm  Tm9  1  0.164136  0.177725  0.435973  1
  Tm  Tm10  1  0.332279  0.674809  0.436434  1
  Tm  Tm11  1  0.665442  0.326555  0.562418  1
  Tc  Tc12  1  0.464665  0.384842  0.250000  1
  Ru  Ru13  1  0.538568  0.616386  0.750000  1
  Ru  Ru14  1  0.959956  0.116399  0.750000  1
  Ru  Ru15  1  0.039819  0.882945  0.250000  1
