# generated using pymatgen
data_Mg2Sc2As6Ir3Ru4
_symmetry_space_group_name_H-M   'P 1'
_cell_length_a   7.02951598
_cell_length_b   7.11077225
_cell_length_c   7.03472730
_cell_angle_alpha   109.50275344
_cell_angle_beta   108.98488408
_cell_angle_gamma   109.47323856
_symmetry_Int_Tables_number   1
_chemical_formula_structural   Mg2Sc2As6Ir3Ru4
_chemical_formula_sum   'Mg2 Sc2 As6 Ir3 Ru4'
_cell_volume   272.18392922
_cell_formula_units_Z   1
loop_
 _symmetry_equiv_pos_site_id
 _symmetry_equiv_pos_as_xyz
  1  'x, y, z'
loop_
 _atom_site_type_symbol
 _atom_site_label
 _atom_site_symmetry_multiplicity
 _atom_site_fract_x
 _atom_site_fract_y
 _atom_site_fract_z
 _atom_site_occupancy
  Mg  Mg0  1  0.000792  0.500647  0.001317  1
  Mg  Mg1  1  0.499855  0.500647  0.499331  1
  Sc  Sc2  1  0.000284  0.000567  0.500284  1
  Sc  Sc3  1  0.499937  0.999874  0.999937  1
  As  As4  1  0.684936  0.683349  0.991724  1
  As  As5  1  0.308325  0.310236  0.995149  1
  As  As6  1  0.998415  0.683349  0.691626  1
  As  As7  1  0.001911  0.310236  0.315088  1
  As  As8  1  0.691753  0.006494  0.691655  1
  As  As9  1  0.314741  0.006494  0.314841  1
  Ir  Ir10  1  0.499139  0.749276  0.249834  1
  Ir  Ir11  1  0.749481  0.498962  0.249481  1
  Ir  Ir12  1  0.250137  0.749276  0.499442  1
  Ru  Ru13  1  0.000118  0.000237  0.000118  1
  Ru  Ru14  1  0.249685  0.499369  0.749685  1
  Ru  Ru15  1  0.749538  0.250491  0.500820  1
  Ru  Ru16  1  0.500954  0.250491  0.749672  1
