# generated using pymatgen
data_YbYPt2O7
_symmetry_space_group_name_H-M   'P 1'
_cell_length_a   7.26579654
_cell_length_b   7.24801790
_cell_length_c   7.26579648
_cell_angle_alpha   60.08091149
_cell_angle_beta   60.08148818
_cell_angle_gamma   60.08091654
_symmetry_Int_Tables_number   1
_chemical_formula_structural   YbYPt2O7
_chemical_formula_sum   'Yb2 Y2 Pt4 O14'
_cell_volume   271.06171791
_cell_formula_units_Z   2
loop_
 _symmetry_equiv_pos_site_id
 _symmetry_equiv_pos_as_xyz
  1  'x, y, z'
loop_
 _atom_site_type_symbol
 _atom_site_label
 _atom_site_symmetry_multiplicity
 _atom_site_fract_x
 _atom_site_fract_y
 _atom_site_fract_z
 _atom_site_occupancy
  Yb  Yb0  1  0.125000  0.125000  0.625000  1
  Yb  Yb1  1  0.625000  0.125000  0.125000  1
  Y  Y2  1  0.125000  0.625000  0.125000  1
  Y  Y3  1  0.125000  0.125000  0.125000  1
  Pt  Pt4  1  0.625000  0.625000  0.625000  1
  Pt  Pt5  1  0.125000  0.625000  0.625000  1
  Pt  Pt6  1  0.625000  0.625000  0.125000  1
  Pt  Pt7  1  0.625000  0.125000  0.625000  1
  O  O8  1  0.289644  0.706767  0.713400  1
  O  O9  1  0.536600  0.959811  0.960356  1
  O  O10  1  0.713400  0.706767  0.289644  1
  O  O11  1  0.289644  0.290189  0.713400  1
  O  O12  1  0.004596  0.995404  0.004596  1
  O  O13  1  0.288212  0.711788  0.288212  1
  O  O14  1  0.708026  0.291974  0.708026  1
  O  O15  1  0.961788  0.538212  0.961788  1
  O  O16  1  0.536600  0.543233  0.960356  1
  O  O17  1  0.960356  0.959811  0.536600  1
  O  O18  1  0.245404  0.254596  0.245404  1
  O  O19  1  0.541974  0.958026  0.541974  1
  O  O20  1  0.713400  0.290189  0.289644  1
  O  O21  1  0.960356  0.543233  0.536600  1
