# generated using pymatgen
data_Ho(TlBr2)3
_symmetry_space_group_name_H-M   'P 1'
_cell_length_a   8.21923100
_cell_length_b   13.34276745
_cell_length_c   13.92227900
_cell_angle_alpha   71.28936223
_cell_angle_beta   90.00000000
_cell_angle_gamma   90.00000000
_symmetry_Int_Tables_number   1
_chemical_formula_structural   Ho(TlBr2)3
_chemical_formula_sum   'Ho4 Tl12 Br24'
_cell_volume   1446.12733928
_cell_formula_units_Z   4
loop_
 _symmetry_equiv_pos_site_id
 _symmetry_equiv_pos_as_xyz
  1  'x, y, z'
loop_
 _atom_site_type_symbol
 _atom_site_label
 _atom_site_symmetry_multiplicity
 _atom_site_fract_x
 _atom_site_fract_y
 _atom_site_fract_z
 _atom_site_occupancy
  Ho  Ho0  1  0.000000  0.500000  0.500000  1
  Ho  Ho1  1  0.500000  0.000000  0.500000  1
  Ho  Ho2  1  0.000000  0.000000  0.000000  1
  Ho  Ho3  1  0.500000  0.500000  0.000000  1
  Tl  Tl4  1  0.434199  0.734547  0.316168  1
  Tl  Tl5  1  0.565801  0.265453  0.683832  1
  Tl  Tl6  1  0.934199  0.765453  0.683832  1
  Tl  Tl7  1  0.065801  0.234547  0.316168  1
  Tl  Tl8  1  0.967599  0.639577  0.099027  1
  Tl  Tl9  1  0.032401  0.360423  0.900973  1
  Tl  Tl10  1  0.467599  0.860423  0.900973  1
  Tl  Tl11  1  0.532401  0.139577  0.099027  1
  Tl  Tl12  1  0.934628  0.887333  0.320223  1
  Tl  Tl13  1  0.065372  0.112667  0.679777  1
  Tl  Tl14  1  0.434628  0.612667  0.679777  1
  Tl  Tl15  1  0.565372  0.387333  0.320223  1
  Br  Br16  1  0.498037  0.630628  0.118732  1
  Br  Br17  1  0.501963  0.369372  0.881268  1
  Br  Br18  1  0.998037  0.869372  0.881268  1
  Br  Br19  1  0.001963  0.130628  0.118732  1
  Br  Br20  1  0.290159  0.995775  0.344129  1
  Br  Br21  1  0.709841  0.004225  0.655871  1
  Br  Br22  1  0.790159  0.504225  0.655871  1
  Br  Br23  1  0.209841  0.495775  0.344129  1
  Br  Br24  1  0.785053  0.607861  0.346151  1
  Br  Br25  1  0.214947  0.392139  0.653849  1
  Br  Br26  1  0.285053  0.892139  0.653849  1
  Br  Br27  1  0.714947  0.107861  0.346151  1
  Br  Br28  1  0.641589  0.807731  0.501010  1
  Br  Br29  1  0.358411  0.192269  0.498990  1
  Br  Br30  1  0.141589  0.692269  0.498990  1
  Br  Br31  1  0.858411  0.307731  0.501010  1
  Br  Br32  1  0.181722  0.844485  0.138767  1
  Br  Br33  1  0.818278  0.155515  0.861233  1
  Br  Br34  1  0.681722  0.655515  0.861233  1
  Br  Br35  1  0.318278  0.344485  0.138767  1
  Br  Br36  1  0.714084  0.903273  0.100651  1
  Br  Br37  1  0.285916  0.096727  0.899349  1
  Br  Br38  1  0.214084  0.596727  0.899349  1
  Br  Br39  1  0.785916  0.403273  0.100651  1
