# generated using pymatgen
data_Dy4HoIrRh2
_symmetry_space_group_name_H-M   'P 1'
_cell_length_a   10.88966900
_cell_length_b   10.88966900
_cell_length_c   6.36622600
_cell_angle_alpha   90.00000000
_cell_angle_beta   90.00000000
_cell_angle_gamma   90.00000000
_symmetry_Int_Tables_number   1
_chemical_formula_structural   Dy4HoIrRh2
_chemical_formula_sum   'Dy16 Ho4 Ir4 Rh8'
_cell_volume   754.93821584
_cell_formula_units_Z   4
loop_
 _symmetry_equiv_pos_site_id
 _symmetry_equiv_pos_as_xyz
  1  'x, y, z'
loop_
 _atom_site_type_symbol
 _atom_site_label
 _atom_site_symmetry_multiplicity
 _atom_site_fract_x
 _atom_site_fract_y
 _atom_site_fract_z
 _atom_site_occupancy
  Dy  Dy0  1  0.290808  0.089323  0.377903  1
  Dy  Dy1  1  0.290808  0.910677  0.877903  1
  Dy  Dy2  1  0.709192  0.089323  0.877903  1
  Dy  Dy3  1  0.709192  0.910677  0.377903  1
  Dy  Dy4  1  0.587642  0.789841  0.878828  1
  Dy  Dy5  1  0.587642  0.210159  0.378828  1
  Dy  Dy6  1  0.412358  0.789841  0.378828  1
  Dy  Dy7  1  0.412358  0.210159  0.878828  1
  Dy  Dy8  1  0.210159  0.412358  0.621172  1
  Dy  Dy9  1  0.210159  0.587642  0.121172  1
  Dy  Dy10  1  0.789841  0.412358  0.121172  1
  Dy  Dy11  1  0.789841  0.587642  0.621172  1
  Dy  Dy12  1  0.910677  0.709192  0.122097  1
  Dy  Dy13  1  0.910677  0.290808  0.622097  1
  Dy  Dy14  1  0.089323  0.709192  0.622097  1
  Dy  Dy15  1  0.089323  0.290808  0.122097  1
  Ho  Ho16  1  0.000000  0.000000  0.500000  1
  Ho  Ho17  1  0.000000  0.000000  0.000000  1
  Ho  Ho18  1  0.500000  0.500000  0.000000  1
  Ho  Ho19  1  0.500000  0.500000  0.500000  1
  Ir  Ir20  1  0.654071  0.345929  0.750000  1
  Ir  Ir21  1  0.654071  0.654071  0.250000  1
  Ir  Ir22  1  0.345929  0.345929  0.250000  1
  Ir  Ir23  1  0.345929  0.654071  0.750000  1
  Rh  Rh24  1  0.847131  0.152869  0.250000  1
  Rh  Rh25  1  0.847131  0.847131  0.750000  1
  Rh  Rh26  1  0.152869  0.152869  0.750000  1
  Rh  Rh27  1  0.152869  0.847131  0.250000  1
  Rh  Rh28  1  0.500000  0.000000  0.122407  1
  Rh  Rh29  1  0.500000  0.000000  0.622407  1
  Rh  Rh30  1  0.000000  0.500000  0.877593  1
  Rh  Rh31  1  0.000000  0.500000  0.377593  1
