# generated using pymatgen
data_Cs2MnTc11Te14
_symmetry_space_group_name_H-M   'P 1'
_cell_length_a   10.24353428
_cell_length_b   10.26883984
_cell_length_c   10.27966400
_cell_angle_alpha   61.72406446
_cell_angle_beta   61.45571897
_cell_angle_gamma   61.94871411
_symmetry_Int_Tables_number   1
_chemical_formula_structural   Cs2MnTc11Te14
_chemical_formula_sum   'Cs2 Mn1 Tc11 Te14'
_cell_volume   793.87083799
_cell_formula_units_Z   1
loop_
 _symmetry_equiv_pos_site_id
 _symmetry_equiv_pos_as_xyz
  1  'x, y, z'
loop_
 _atom_site_type_symbol
 _atom_site_label
 _atom_site_symmetry_multiplicity
 _atom_site_fract_x
 _atom_site_fract_y
 _atom_site_fract_z
 _atom_site_occupancy
  Cs  Cs0  1  0.615617  0.615601  0.616235  1
  Cs  Cs1  1  0.382768  0.385381  0.384315  1
  Mn  Mn2  1  0.713940  0.875340  0.993210  1
  Tc  Tc3  1  0.999837  0.707198  0.876422  1
  Tc  Tc4  1  0.874431  0.001758  0.707899  1
  Tc  Tc5  1  0.294799  0.124728  0.995952  1
  Tc  Tc6  1  0.998641  0.292373  0.126969  1
  Tc  Tc7  1  0.124526  0.997229  0.294114  1
  Tc  Tc8  1  0.942612  0.807925  0.109587  1
  Tc  Tc9  1  0.104175  0.940615  0.812586  1
  Tc  Tc10  1  0.811593  0.105778  0.940041  1
  Tc  Tc11  1  0.057395  0.188610  0.895682  1
  Tc  Tc12  1  0.893615  0.057452  0.188979  1
  Tc  Tc13  1  0.186162  0.893256  0.061577  1
  Te  Te14  1  0.418118  0.822147  0.162939  1
  Te  Te15  1  0.166289  0.419006  0.816590  1
  Te  Te16  1  0.814716  0.164157  0.421364  1
  Te  Te17  1  0.580026  0.192829  0.827162  1
  Te  Te18  1  0.836147  0.577489  0.181286  1
  Te  Te19  1  0.182212  0.835861  0.579621  1
  Te  Te20  1  0.647573  0.983283  0.240098  1
  Te  Te21  1  0.239433  0.644767  0.984691  1
  Te  Te22  1  0.983763  0.239247  0.645993  1
  Te  Te23  1  0.354631  0.016496  0.761968  1
  Te  Te24  1  0.760336  0.353104  0.018806  1
  Te  Te25  1  0.014173  0.760342  0.358263  1
  Te  Te26  1  0.775041  0.774925  0.774660  1
  Te  Te27  1  0.227436  0.223106  0.222993  1
