# generated using pymatgen
data_YHo3HfPt15
_symmetry_space_group_name_H-M   'P 1'
_cell_length_a   4.10459300
_cell_length_b   4.10459300
_cell_length_c   20.46425900
_cell_angle_alpha   90.00000000
_cell_angle_beta   90.00000000
_cell_angle_gamma   90.00000000
_symmetry_Int_Tables_number   1
_chemical_formula_structural   YHo3HfPt15
_chemical_formula_sum   'Y1 Ho3 Hf1 Pt15'
_cell_volume   344.77536270
_cell_formula_units_Z   1
loop_
 _symmetry_equiv_pos_site_id
 _symmetry_equiv_pos_as_xyz
  1  'x, y, z'
loop_
 _atom_site_type_symbol
 _atom_site_label
 _atom_site_symmetry_multiplicity
 _atom_site_fract_x
 _atom_site_fract_y
 _atom_site_fract_z
 _atom_site_occupancy
  Y  Y0  1  0.000000  0.000000  0.198753  1
  Ho  Ho1  1  0.000000  0.000000  0.399505  1
  Ho  Ho2  1  0.000000  0.000000  0.600498  1
  Ho  Ho3  1  0.000000  0.000000  0.801184  1
  Hf  Hf4  1  0.000000  0.000000  0.000016  1
  Pt  Pt5  1  0.500000  0.500000  0.000024  1
  Pt  Pt6  1  0.500000  0.500000  0.196844  1
  Pt  Pt7  1  0.500000  0.500000  0.399181  1
  Pt  Pt8  1  0.500000  0.500000  0.600822  1
  Pt  Pt9  1  0.500000  0.500000  0.803125  1
  Pt  Pt10  1  0.500000  0.000000  0.094896  1
  Pt  Pt11  1  0.500000  0.000000  0.298537  1
  Pt  Pt12  1  0.500000  0.000000  0.499983  1
  Pt  Pt13  1  0.500000  0.000000  0.701719  1
  Pt  Pt14  1  0.500000  0.000000  0.904890  1
  Pt  Pt15  1  0.000000  0.500000  0.094896  1
  Pt  Pt16  1  0.000000  0.500000  0.298537  1
  Pt  Pt17  1  0.000000  0.500000  0.499983  1
  Pt  Pt18  1  0.000000  0.500000  0.701719  1
  Pt  Pt19  1  0.000000  0.500000  0.904890  1
