# generated using pymatgen
data_Tb4MnOsC4
_symmetry_space_group_name_H-M   'P 1'
_cell_length_a   5.11438000
_cell_length_b   6.42552697
_cell_length_c   9.77893084
_cell_angle_alpha   90.45359473
_cell_angle_beta   90.00000000
_cell_angle_gamma   90.00000000
_symmetry_Int_Tables_number   1
_chemical_formula_structural   Tb4MnOsC4
_chemical_formula_sum   'Tb8 Mn2 Os2 C8'
_cell_volume   321.35089127
_cell_formula_units_Z   2
loop_
 _symmetry_equiv_pos_site_id
 _symmetry_equiv_pos_as_xyz
  1  'x, y, z'
loop_
 _atom_site_type_symbol
 _atom_site_label
 _atom_site_symmetry_multiplicity
 _atom_site_fract_x
 _atom_site_fract_y
 _atom_site_fract_z
 _atom_site_occupancy
  Tb  Tb0  1  0.250000  0.686392  0.556237  1
  Tb  Tb1  1  0.750000  0.313608  0.443763  1
  Tb  Tb2  1  0.750000  0.817797  0.051354  1
  Tb  Tb3  1  0.250000  0.182203  0.948646  1
  Tb  Tb4  1  0.250000  0.524171  0.215529  1
  Tb  Tb5  1  0.750000  0.475829  0.784471  1
  Tb  Tb6  1  0.750000  0.976075  0.714247  1
  Tb  Tb7  1  0.250000  0.023925  0.285753  1
  Mn  Mn8  1  0.250000  0.729173  0.860464  1
  Mn  Mn9  1  0.750000  0.270827  0.139536  1
  Os  Os10  1  0.750000  0.772528  0.359394  1
  Os  Os11  1  0.250000  0.227472  0.640606  1
  C  C12  1  0.250000  0.471011  0.764048  1
  C  C13  1  0.750000  0.528989  0.235952  1
  C  C14  1  0.750000  0.043450  0.253712  1
  C  C15  1  0.250000  0.956550  0.746288  1
  C  C16  1  0.250000  0.811441  0.037025  1
  C  C17  1  0.750000  0.188559  0.962975  1
  C  C18  1  0.750000  0.679689  0.547244  1
  C  C19  1  0.250000  0.320311  0.452756  1
