# generated using pymatgen
data_TmLu7Sc12Ga7Si9
_symmetry_space_group_name_H-M   'P 1'
_cell_length_a   7.09959534
_cell_length_b   7.35896420
_cell_length_c   14.14354016
_cell_angle_alpha   90.00541347
_cell_angle_beta   89.92390100
_cell_angle_gamma   90.00402494
_symmetry_Int_Tables_number   1
_chemical_formula_structural   TmLu7Sc12Ga7Si9
_chemical_formula_sum   'Tm1 Lu7 Sc12 Ga7 Si9'
_cell_volume   738.93804526
_cell_formula_units_Z   1
loop_
 _symmetry_equiv_pos_site_id
 _symmetry_equiv_pos_as_xyz
  1  'x, y, z'
loop_
 _atom_site_type_symbol
 _atom_site_label
 _atom_site_symmetry_multiplicity
 _atom_site_fract_x
 _atom_site_fract_y
 _atom_site_fract_z
 _atom_site_occupancy
  Tm  Tm0  1  0.489660  0.676783  0.599164  1
  Lu  Lu1  1  0.012369  0.174778  0.098658  1
  Lu  Lu2  1  0.989783  0.822597  0.901717  1
  Lu  Lu3  1  0.488452  0.677285  0.901770  1
  Lu  Lu4  1  0.989782  0.823140  0.599377  1
  Lu  Lu5  1  0.510367  0.322024  0.098808  1
  Lu  Lu6  1  0.009974  0.176455  0.400369  1
  Lu  Lu7  1  0.510432  0.322871  0.400229  1
  Sc  Sc8  1  0.163902  0.503521  0.750104  1
  Sc  Sc9  1  0.836760  0.497355  0.249787  1
  Sc  Sc10  1  0.335785  0.003572  0.248935  1
  Sc  Sc11  1  0.663708  0.996925  0.749826  1
  Sc  Sc12  1  0.330254  0.173353  0.625837  1
  Sc  Sc13  1  0.669274  0.826950  0.373798  1
  Sc  Sc14  1  0.169432  0.673672  0.373737  1
  Sc  Sc15  1  0.668082  0.825404  0.126136  1
  Sc  Sc16  1  0.830268  0.326470  0.626060  1
  Sc  Sc17  1  0.329845  0.173994  0.875069  1
  Sc  Sc18  1  0.829296  0.326608  0.874518  1
  Sc  Sc19  1  0.171908  0.675502  0.124982  1
  Ga  Ga20  1  0.161906  0.464059  0.539518  1
  Ga  Ga21  1  0.837942  0.535740  0.460206  1
  Ga  Ga22  1  0.337628  0.963931  0.460328  1
  Ga  Ga23  1  0.837989  0.537015  0.040164  1
  Ga  Ga24  1  0.662266  0.036177  0.539348  1
  Ga  Ga25  1  0.161450  0.463419  0.960658  1
  Ga  Ga26  1  0.660963  0.036676  0.960994  1
  Si  Si27  1  0.031657  0.111458  0.750863  1
  Si  Si28  1  0.967984  0.887612  0.249477  1
  Si  Si29  1  0.467841  0.611172  0.249544  1
  Si  Si30  1  0.531873  0.387908  0.750360  1
  Si  Si31  1  0.284299  0.871906  0.750926  1
  Si  Si32  1  0.715786  0.128775  0.249069  1
  Si  Si33  1  0.215051  0.370816  0.249393  1
  Si  Si34  1  0.784724  0.628915  0.750687  1
  Si  Si35  1  0.341308  0.965163  0.039586  1
