# generated using pymatgen
data_TbDy3Cd2CuNi3
_symmetry_space_group_name_H-M   'P 1'
_cell_length_a   7.43495203
_cell_length_b   7.43720170
_cell_length_c   3.65782900
_cell_angle_alpha   90.00000000
_cell_angle_beta   90.00000000
_cell_angle_gamma   89.53803877
_symmetry_Int_Tables_number   1
_chemical_formula_structural   TbDy3Cd2CuNi3
_chemical_formula_sum   'Tb1 Dy3 Cd2 Cu1 Ni3'
_cell_volume   202.25395047
_cell_formula_units_Z   1
loop_
 _symmetry_equiv_pos_site_id
 _symmetry_equiv_pos_as_xyz
  1  'x, y, z'
loop_
 _atom_site_type_symbol
 _atom_site_label
 _atom_site_symmetry_multiplicity
 _atom_site_fract_x
 _atom_site_fract_y
 _atom_site_fract_z
 _atom_site_occupancy
  Tb  Tb0  1  0.814616  0.672315  0.500000  1
  Dy  Dy1  1  0.675457  0.175665  0.500000  1
  Dy  Dy2  1  0.335623  0.835925  0.500000  1
  Dy  Dy3  1  0.172320  0.314466  0.500000  1
  Cd  Cd4  1  0.999056  0.996987  0.000000  1
  Cd  Cd5  1  0.495769  0.498349  0.000000  1
  Cu  Cu6  1  0.120668  0.619420  0.000000  1
  Ni  Ni7  1  0.881897  0.380991  0.000000  1
  Ni  Ni8  1  0.621910  0.883274  0.000000  1
  Ni  Ni9  1  0.382685  0.122608  0.000000  1
