# generated using pymatgen
data_Pa3Ga3NiOs2
_symmetry_space_group_name_H-M   'P 1'
_cell_length_a   6.92500800
_cell_length_b   6.92500676
_cell_length_c   7.87092800
_cell_angle_alpha   90.00000000
_cell_angle_beta   90.00000000
_cell_angle_gamma   119.99999635
_symmetry_Int_Tables_number   1
_chemical_formula_structural   Pa3Ga3NiOs2
_chemical_formula_sum   'Pa6 Ga6 Ni2 Os4'
_cell_volume   326.88656293
_cell_formula_units_Z   2
loop_
 _symmetry_equiv_pos_site_id
 _symmetry_equiv_pos_as_xyz
  1  'x, y, z'
loop_
 _atom_site_type_symbol
 _atom_site_label
 _atom_site_symmetry_multiplicity
 _atom_site_fract_x
 _atom_site_fract_y
 _atom_site_fract_z
 _atom_site_occupancy
  Pa  Pa0  1  0.750774  0.080622  0.000000  1
  Pa  Pa1  1  0.329848  0.249226  0.000000  1
  Pa  Pa2  1  0.919378  0.670152  0.000000  1
  Pa  Pa3  1  0.330117  0.249373  0.500000  1
  Pa  Pa4  1  0.750627  0.080745  0.500000  1
  Pa  Pa5  1  0.919255  0.669883  0.500000  1
  Ga  Ga6  1  0.580188  0.670450  0.750006  1
  Ga  Ga7  1  0.090262  0.419812  0.750006  1
  Ga  Ga8  1  0.329550  0.909738  0.750006  1
  Ga  Ga9  1  0.580188  0.670450  0.249994  1
  Ga  Ga10  1  0.090262  0.419812  0.249994  1
  Ga  Ga11  1  0.329550  0.909738  0.249994  1
  Ni  Ni12  1  0.000000  0.000000  0.250419  1
  Ni  Ni13  1  0.000000  0.000000  0.749581  1
  Os  Os14  1  0.333333  0.666667  0.000000  1
  Os  Os15  1  0.333333  0.666667  0.500000  1
  Os  Os16  1  0.666667  0.333333  0.750220  1
  Os  Os17  1  0.666667  0.333333  0.249780  1
