# generated using pymatgen
data_Nd8Gd11LuPb16
_symmetry_space_group_name_H-M   'P 1'
_cell_length_a   8.22444500
_cell_length_b   8.32877835
_cell_length_c   15.67064400
_cell_angle_alpha   90.00000000
_cell_angle_beta   90.00000000
_cell_angle_gamma   90.01655836
_symmetry_Int_Tables_number   1
_chemical_formula_structural   Nd8Gd11LuPb16
_chemical_formula_sum   'Nd8 Gd11 Lu1 Pb16'
_cell_volume   1073.43247871
_cell_formula_units_Z   1
loop_
 _symmetry_equiv_pos_site_id
 _symmetry_equiv_pos_as_xyz
  1  'x, y, z'
loop_
 _atom_site_type_symbol
 _atom_site_label
 _atom_site_symmetry_multiplicity
 _atom_site_fract_x
 _atom_site_fract_y
 _atom_site_fract_z
 _atom_site_occupancy
  Nd  Nd0  1  0.477965  0.678842  0.596333  1
  Nd  Nd1  1  0.978153  0.820709  0.903978  1
  Nd  Nd2  1  0.522412  0.320887  0.096782  1
  Nd  Nd3  1  0.021840  0.178630  0.403278  1
  Nd  Nd4  1  0.522412  0.320887  0.403218  1
  Nd  Nd5  1  0.021840  0.178630  0.096722  1
  Nd  Nd6  1  0.477965  0.678842  0.903667  1
  Nd  Nd7  1  0.978153  0.820709  0.596022  1
  Gd  Gd8  1  0.632289  0.159736  0.621119  1
  Gd  Gd9  1  0.132514  0.340182  0.878243  1
  Gd  Gd10  1  0.366406  0.841414  0.122115  1
  Gd  Gd11  1  0.865600  0.658807  0.378111  1
  Gd  Gd12  1  0.366406  0.841414  0.377885  1
  Gd  Gd13  1  0.865600  0.658807  0.121889  1
  Gd  Gd14  1  0.632289  0.159736  0.878881  1
  Gd  Gd15  1  0.132514  0.340182  0.621757  1
  Gd  Gd16  1  0.804595  0.493935  0.750000  1
  Gd  Gd17  1  0.304337  0.006436  0.750000  1
  Gd  Gd18  1  0.197572  0.505084  0.250000  1
  Lu  Lu19  1  0.699228  0.994515  0.250000  1
  Pb  Pb20  1  0.706830  0.961311  0.456110  1
  Pb  Pb21  1  0.206288  0.539600  0.042662  1
  Pb  Pb22  1  0.292661  0.038644  0.957058  1
  Pb  Pb23  1  0.793003  0.461468  0.543037  1
  Pb  Pb24  1  0.292661  0.038644  0.542942  1
  Pb  Pb25  1  0.793003  0.461468  0.956963  1
  Pb  Pb26  1  0.706830  0.961311  0.043890  1
  Pb  Pb27  1  0.206288  0.539600  0.457338  1
  Pb  Pb28  1  0.436912  0.381079  0.750000  1
  Pb  Pb29  1  0.936000  0.118188  0.750000  1
  Pb  Pb30  1  0.563754  0.623707  0.250000  1
  Pb  Pb31  1  0.060196  0.880020  0.250000  1
  Pb  Pb32  1  0.670688  0.850872  0.750000  1
  Pb  Pb33  1  0.170931  0.650043  0.750000  1
  Pb  Pb34  1  0.334159  0.149433  0.250000  1
  Pb  Pb35  1  0.829711  0.346222  0.250000  1
