# generated using pymatgen
data_Tm4Nb2AlOs5
_symmetry_space_group_name_H-M   'P 1'
_cell_length_a   5.50580900
_cell_length_b   5.52654978
_cell_length_c   8.56890700
_cell_angle_alpha   90.00000000
_cell_angle_beta   90.00000000
_cell_angle_gamma   119.87680312
_symmetry_Int_Tables_number   1
_chemical_formula_structural   Tm4Nb2AlOs5
_chemical_formula_sum   'Tm4 Nb2 Al1 Os5'
_cell_volume   226.08361573
_cell_formula_units_Z   1
loop_
 _symmetry_equiv_pos_site_id
 _symmetry_equiv_pos_as_xyz
  1  'x, y, z'
loop_
 _atom_site_type_symbol
 _atom_site_label
 _atom_site_symmetry_multiplicity
 _atom_site_fract_x
 _atom_site_fract_y
 _atom_site_fract_z
 _atom_site_occupancy
  Tm  Tm0  1  0.666350  0.332706  0.557629  1
  Tm  Tm1  1  0.336198  0.672411  0.432892  1
  Tm  Tm2  1  0.336198  0.672411  0.067108  1
  Tm  Tm3  1  0.666350  0.332706  0.942371  1
  Nb  Nb4  1  0.993353  0.986708  0.497498  1
  Nb  Nb5  1  0.993353  0.986708  0.002502  1
  Al  Al6  1  0.173138  0.346279  0.750000  1
  Os  Os7  1  0.184082  0.836355  0.750000  1
  Os  Os8  1  0.652283  0.836362  0.750000  1
  Os  Os9  1  0.822506  0.645031  0.250000  1
  Os  Os10  1  0.830895  0.176146  0.250000  1
  Os  Os11  1  0.345294  0.176178  0.250000  1
