# generated using pymatgen
data_Ta2GaFe5B2
_symmetry_space_group_name_H-M   'P 1'
_cell_length_a   8.65763400
_cell_length_b   8.65763400
_cell_length_c   2.94291500
_cell_angle_alpha   90.00000000
_cell_angle_beta   90.00000000
_cell_angle_gamma   90.00000000
_symmetry_Int_Tables_number   1
_chemical_formula_structural   Ta2GaFe5B2
_chemical_formula_sum   'Ta4 Ga2 Fe10 B4'
_cell_volume   220.58509458
_cell_formula_units_Z   2
loop_
 _symmetry_equiv_pos_site_id
 _symmetry_equiv_pos_as_xyz
  1  'x, y, z'
loop_
 _atom_site_type_symbol
 _atom_site_label
 _atom_site_symmetry_multiplicity
 _atom_site_fract_x
 _atom_site_fract_y
 _atom_site_fract_z
 _atom_site_occupancy
  Ta  Ta0  1  0.822992  0.322992  0.000000  1
  Ta  Ta1  1  0.177008  0.677008  0.000000  1
  Ta  Ta2  1  0.322992  0.177008  0.000000  1
  Ta  Ta3  1  0.677008  0.822992  0.000000  1
  Ga  Ga4  1  0.500000  0.500000  0.000000  1
  Ga  Ga5  1  0.000000  0.000000  0.000000  1
  Fe  Fe6  1  0.500000  0.000000  0.500000  1
  Fe  Fe7  1  0.000000  0.500000  0.500000  1
  Fe  Fe8  1  0.719785  0.568369  0.500000  1
  Fe  Fe9  1  0.280215  0.431631  0.500000  1
  Fe  Fe10  1  0.219785  0.931631  0.500000  1
  Fe  Fe11  1  0.780215  0.068369  0.500000  1
  Fe  Fe12  1  0.431631  0.719785  0.500000  1
  Fe  Fe13  1  0.568369  0.280215  0.500000  1
  Fe  Fe14  1  0.068369  0.219785  0.500000  1
  Fe  Fe15  1  0.931631  0.780215  0.500000  1
  B  B16  1  0.621566  0.121566  0.000000  1
  B  B17  1  0.378434  0.878434  0.000000  1
  B  B18  1  0.121566  0.378434  0.000000  1
  B  B19  1  0.878434  0.621566  0.000000  1
