# generated using pymatgen
data_YbSc3(B6Ru)2
_symmetry_space_group_name_H-M   'P 1'
_cell_length_a   3.51209300
_cell_length_b   8.92529854
_cell_length_c   11.26666968
_cell_angle_alpha   89.95573549
_cell_angle_beta   89.99986867
_cell_angle_gamma   89.99990603
_symmetry_Int_Tables_number   1
_chemical_formula_structural   YbSc3(B6Ru)2
_chemical_formula_sum   'Yb2 Sc6 B24 Ru4'
_cell_volume   353.17031401
_cell_formula_units_Z   2
loop_
 _symmetry_equiv_pos_site_id
 _symmetry_equiv_pos_as_xyz
  1  'x, y, z'
loop_
 _atom_site_type_symbol
 _atom_site_label
 _atom_site_symmetry_multiplicity
 _atom_site_fract_x
 _atom_site_fract_y
 _atom_site_fract_z
 _atom_site_occupancy
  Yb  Yb0  1  0.999999  0.322652  0.414251  1
  Yb  Yb1  1  0.000001  0.677348  0.585749  1
  Sc  Sc2  1  0.999993  0.820146  0.086019  1
  Sc  Sc3  1  0.000007  0.179854  0.913981  1
  Sc  Sc4  1  0.999995  0.943114  0.370136  1
  Sc  Sc5  1  0.000005  0.056886  0.629864  1
  Sc  Sc6  1  0.999999  0.443645  0.128388  1
  Sc  Sc7  1  0.000001  0.556355  0.871612  1
  B  B8  1  0.500000  0.554898  0.432012  1
  B  B9  1  0.500000  0.445102  0.567988  1
  B  B10  1  0.500001  0.053432  0.064353  1
  B  B11  1  0.499999  0.946568  0.935647  1
  B  B12  1  0.500000  0.752469  0.417561  1
  B  B13  1  0.500000  0.247531  0.582439  1
  B  B14  1  0.500000  0.251518  0.078785  1
  B  B15  1  0.500000  0.748482  0.921215  1
  B  B16  1  0.499999  0.794748  0.262120  1
  B  B17  1  0.500001  0.205252  0.737880  1
  B  B18  1  0.499999  0.292656  0.233676  1
  B  B19  1  0.500001  0.707344  0.766324  1
  B  B20  1  0.499999  0.630690  0.181152  1
  B  B21  1  0.500001  0.369310  0.818848  1
  B  B22  1  0.500000  0.128936  0.315492  1
  B  B23  1  0.500000  0.871064  0.684508  1
  B  B24  1  0.500001  0.980199  0.211418  1
  B  B25  1  0.499999  0.019801  0.788582  1
  B  B26  1  0.499999  0.482019  0.285178  1
  B  B27  1  0.500001  0.517981  0.714822  1
  B  B28  1  0.499998  0.600327  0.027162  1
  B  B29  1  0.500002  0.399673  0.972838  1
  B  B30  1  0.500000  0.096419  0.473649  1
  B  B31  1  0.500000  0.903581  0.526351  1
  Ru  Ru32  1  0.999999  0.641995  0.315677  1
  Ru  Ru33  1  0.000001  0.358005  0.684323  1
  Ru  Ru34  1  0.000001  0.137280  0.177280  1
  Ru  Ru35  1  0.999999  0.862720  0.822720  1
