# generated using pymatgen
data_Ho4Ge3Sb3Rh7
_symmetry_space_group_name_H-M   'P 1'
_cell_length_a   7.41964701
_cell_length_b   7.41964654
_cell_length_c   7.45640400
_cell_angle_alpha   109.57161518
_cell_angle_beta   109.57161389
_cell_angle_gamma   109.37065006
_symmetry_Int_Tables_number   1
_chemical_formula_structural   Ho4Ge3Sb3Rh7
_chemical_formula_sum   'Ho4 Ge3 Sb3 Rh7'
_cell_volume   315.59808528
_cell_formula_units_Z   1
loop_
 _symmetry_equiv_pos_site_id
 _symmetry_equiv_pos_as_xyz
  1  'x, y, z'
loop_
 _atom_site_type_symbol
 _atom_site_label
 _atom_site_symmetry_multiplicity
 _atom_site_fract_x
 _atom_site_fract_y
 _atom_site_fract_z
 _atom_site_occupancy
  Ho  Ho0  1  0.000000  0.000000  0.545265  1
  Ho  Ho1  1  0.000000  0.479047  0.987906  1
  Ho  Ho2  1  0.479047  0.000000  0.987906  1
  Ho  Ho3  1  0.520953  0.520953  0.508859  1
  Ge  Ge4  1  0.333265  0.333265  0.006167  1
  Ge  Ge5  1  0.666735  0.000000  0.672903  1
  Ge  Ge6  1  0.000000  0.666735  0.672903  1
  Sb  Sb7  1  0.696818  0.696818  0.009482  1
  Sb  Sb8  1  0.303182  0.000000  0.312664  1
  Sb  Sb9  1  0.000000  0.303182  0.312664  1
  Rh  Rh10  1  0.749363  0.249283  0.503078  1
  Rh  Rh11  1  0.750717  0.500080  0.253794  1
  Rh  Rh12  1  0.499920  0.250637  0.753714  1
  Rh  Rh13  1  0.250637  0.499920  0.753714  1
  Rh  Rh14  1  0.249283  0.749363  0.503078  1
  Rh  Rh15  1  0.500080  0.750717  0.253794  1
  Rh  Rh16  1  0.000000  0.000000  0.962110  1
