# generated using pymatgen
data_HoLu2In3Ag2Rh
_symmetry_space_group_name_H-M   'P 1'
_cell_length_a   7.97025048
_cell_length_b   7.98130157
_cell_length_c   3.64802100
_cell_angle_alpha   90.00000000
_cell_angle_beta   90.00000000
_cell_angle_gamma   119.91464447
_symmetry_Int_Tables_number   1
_chemical_formula_structural   HoLu2In3Ag2Rh
_chemical_formula_sum   'Ho1 Lu2 In3 Ag2 Rh1'
_cell_volume   201.14375184
_cell_formula_units_Z   1
loop_
 _symmetry_equiv_pos_site_id
 _symmetry_equiv_pos_as_xyz
  1  'x, y, z'
loop_
 _atom_site_type_symbol
 _atom_site_label
 _atom_site_symmetry_multiplicity
 _atom_site_fract_x
 _atom_site_fract_y
 _atom_site_fract_z
 _atom_site_occupancy
  Ho  Ho0  1  0.419246  0.030581  0.500000  1
  Lu  Lu1  1  0.965832  0.388148  0.500000  1
  Lu  Lu2  1  0.613477  0.578994  0.500000  1
  In  In3  1  0.269714  0.276665  0.000000  1
  In  In4  1  0.006459  0.730167  0.000000  1
  In  In5  1  0.724310  0.993858  0.000000  1
  Ag  Ag6  1  0.332885  0.664137  0.000000  1
  Ag  Ag7  1  0.998847  0.000094  0.500000  1
  Rh  Rh8  1  0.669229  0.337357  0.000000  1
