# generated using pymatgen
data_ZrSc7Si16(Mo3W)3
_symmetry_space_group_name_H-M   'P 1'
_cell_length_a   6.58173629
_cell_length_b   6.77900373
_cell_length_c   12.68656818
_cell_angle_alpha   89.99591080
_cell_angle_beta   90.03117830
_cell_angle_gamma   89.97902595
_symmetry_Int_Tables_number   1
_chemical_formula_structural   ZrSc7Si16(Mo3W)3
_chemical_formula_sum   'Zr1 Sc7 Si16 Mo9 W3'
_cell_volume   566.04428992
_cell_formula_units_Z   1
loop_
 _symmetry_equiv_pos_site_id
 _symmetry_equiv_pos_as_xyz
  1  'x, y, z'
loop_
 _atom_site_type_symbol
 _atom_site_label
 _atom_site_symmetry_multiplicity
 _atom_site_fract_x
 _atom_site_fract_y
 _atom_site_fract_z
 _atom_site_occupancy
  Zr  Zr0  1  0.494681  0.670677  0.594297  1
  Sc  Sc1  1  0.994489  0.830494  0.908043  1
  Sc  Sc2  1  0.505275  0.329855  0.093071  1
  Sc  Sc3  1  0.005823  0.170081  0.406415  1
  Sc  Sc4  1  0.504762  0.330695  0.406611  1
  Sc  Sc5  1  0.005055  0.170149  0.093177  1
  Sc  Sc6  1  0.493601  0.670155  0.907218  1
  Sc  Sc7  1  0.993695  0.830248  0.592396  1
  Si  Si8  1  0.667039  0.963373  0.455751  1
  Si  Si9  1  0.166849  0.536824  0.044692  1
  Si  Si10  1  0.334035  0.037185  0.955502  1
  Si  Si11  1  0.834093  0.460494  0.543759  1
  Si  Si12  1  0.332509  0.039734  0.543154  1
  Si  Si13  1  0.833464  0.462382  0.955251  1
  Si  Si14  1  0.666499  0.962984  0.044543  1
  Si  Si15  1  0.167739  0.537580  0.455659  1
  Si  Si16  1  0.465162  0.376657  0.750749  1
  Si  Si17  1  0.965502  0.122805  0.749742  1
  Si  Si18  1  0.535268  0.621330  0.249150  1
  Si  Si19  1  0.034837  0.878128  0.249570  1
  Si  Si20  1  0.700642  0.859865  0.751611  1
  Si  Si21  1  0.195633  0.640256  0.751584  1
  Si  Si22  1  0.301613  0.141330  0.249629  1
  Si  Si23  1  0.801331  0.358669  0.250056  1
  Mo  Mo24  1  0.667126  0.163802  0.624415  1
  Mo  Mo25  1  0.168283  0.334125  0.875727  1
  Mo  Mo26  1  0.332179  0.835554  0.124444  1
  Mo  Mo27  1  0.831827  0.665554  0.375835  1
  Mo  Mo28  1  0.332773  0.834472  0.375391  1
  Mo  Mo29  1  0.832193  0.664266  0.124252  1
  Mo  Mo30  1  0.668407  0.164795  0.875613  1
  Mo  Mo31  1  0.168827  0.336698  0.624579  1
  Mo  Mo32  1  0.832700  0.505801  0.749227  1
  W  W33  1  0.334028  0.993079  0.749027  1
  W  W34  1  0.166104  0.495751  0.250104  1
  W  W35  1  0.665960  0.004153  0.249756  1
