# generated using pymatgen
data_Sm8Si13Au3
_symmetry_space_group_name_H-M   'P 1'
_cell_length_a   8.25930700
_cell_length_b   8.25929970
_cell_length_c   8.36027400
_cell_angle_alpha   90.00014111
_cell_angle_beta   89.99994501
_cell_angle_gamma   120.00011592
_symmetry_Int_Tables_number   1
_chemical_formula_structural   Sm8Si13Au3
_chemical_formula_sum   'Sm8 Si13 Au3'
_cell_volume   493.89823037
_cell_formula_units_Z   1
loop_
 _symmetry_equiv_pos_site_id
 _symmetry_equiv_pos_as_xyz
  1  'x, y, z'
loop_
 _atom_site_type_symbol
 _atom_site_label
 _atom_site_symmetry_multiplicity
 _atom_site_fract_x
 _atom_site_fract_y
 _atom_site_fract_z
 _atom_site_occupancy
  Sm  Sm0  1  0.000000  0.000000  0.753969  1
  Sm  Sm1  1  0.000001  0.000000  0.246141  1
  Sm  Sm2  1  0.495373  0.504625  0.757641  1
  Sm  Sm3  1  0.495374  0.990749  0.757641  1
  Sm  Sm4  1  0.009251  0.504626  0.757641  1
  Sm  Sm5  1  0.496082  0.503922  0.242342  1
  Sm  Sm6  1  0.007840  0.503921  0.242342  1
  Sm  Sm7  1  0.496081  0.992160  0.242342  1
  Si  Si8  1  0.836405  0.163595  0.999742  1
  Si  Si9  1  0.836405  0.672809  0.999741  1
  Si  Si10  1  0.327189  0.163594  0.999742  1
  Si  Si11  1  0.835807  0.164192  0.500366  1
  Si  Si12  1  0.835807  0.671615  0.500367  1
  Si  Si13  1  0.328385  0.164192  0.500367  1
  Si  Si14  1  0.163398  0.836602  0.499688  1
  Si  Si15  1  0.673204  0.836600  0.499687  1
  Si  Si16  1  0.163397  0.326794  0.499687  1
  Si  Si17  1  0.166357  0.833642  0.000431  1
  Si  Si18  1  0.667282  0.833641  0.000431  1
  Si  Si19  1  0.166359  0.332718  0.000431  1
  Si  Si20  1  0.333334  0.666666  0.000623  1
  Au  Au21  1  0.666667  0.333333  0.998540  1
  Au  Au22  1  0.666666  0.333333  0.501079  1
  Au  Au23  1  0.333334  0.666666  0.499016  1
