# generated using pymatgen
data_Tl(S8Cl)3
_symmetry_space_group_name_H-M   'P 1'
_cell_length_a   15.06126309
_cell_length_b   15.06126240
_cell_length_c   15.06126249
_cell_angle_alpha   118.57094231
_cell_angle_beta   118.57094171
_cell_angle_gamma   118.57094811
_symmetry_Int_Tables_number   1
_chemical_formula_structural   Tl(S8Cl)3
_chemical_formula_sum   'Tl1 S24 Cl3'
_cell_volume   1053.44065098
_cell_formula_units_Z   1
loop_
 _symmetry_equiv_pos_site_id
 _symmetry_equiv_pos_as_xyz
  1  'x, y, z'
loop_
 _atom_site_type_symbol
 _atom_site_label
 _atom_site_symmetry_multiplicity
 _atom_site_fract_x
 _atom_site_fract_y
 _atom_site_fract_z
 _atom_site_occupancy
  Tl  Tl0  1  0.076359  0.076359  0.076359  1
  S  S1  1  0.029262  0.627450  0.627450  1
  S  S2  1  0.627450  0.627450  0.029262  1
  S  S3  1  0.627450  0.029262  0.627450  1
  S  S4  1  0.232863  0.844916  0.715231  1
  S  S5  1  0.844916  0.715231  0.232863  1
  S  S6  1  0.715231  0.232863  0.844916  1
  S  S7  1  0.844916  0.232863  0.715231  1
  S  S8  1  0.232863  0.715231  0.844916  1
  S  S9  1  0.715231  0.844916  0.232863  1
  S  S10  1  0.107362  0.637543  0.454844  1
  S  S11  1  0.637543  0.454844  0.107362  1
  S  S12  1  0.454844  0.107362  0.637543  1
  S  S13  1  0.637543  0.107362  0.454844  1
  S  S14  1  0.107362  0.454844  0.637543  1
  S  S15  1  0.454844  0.637543  0.107362  1
  S  S16  1  0.349239  0.737495  0.607398  1
  S  S17  1  0.737495  0.607398  0.349239  1
  S  S18  1  0.607398  0.349239  0.737495  1
  S  S19  1  0.737495  0.349239  0.607398  1
  S  S20  1  0.349239  0.607398  0.737495  1
  S  S21  1  0.607398  0.737495  0.349239  1
  S  S22  1  0.194978  0.474418  0.474418  1
  S  S23  1  0.474418  0.474418  0.194978  1
  S  S24  1  0.474418  0.194978  0.474418  1
  Cl  Cl25  1  0.162974  0.003005  0.003005  1
  Cl  Cl26  1  0.003005  0.003005  0.162974  1
  Cl  Cl27  1  0.003005  0.162974  0.003005  1
