# generated using pymatgen
data_Th10Sn5BiSb2
_symmetry_space_group_name_H-M   'P 1'
_cell_length_a   9.69929659
_cell_length_b   9.69929650
_cell_length_c   6.57558700
_cell_angle_alpha   90.00000000
_cell_angle_beta   90.00000000
_cell_angle_gamma   120.06562074
_symmetry_Int_Tables_number   1
_chemical_formula_structural   Th10Sn5BiSb2
_chemical_formula_sum   'Th10 Sn5 Bi1 Sb2'
_cell_volume   535.37499477
_cell_formula_units_Z   1
loop_
 _symmetry_equiv_pos_site_id
 _symmetry_equiv_pos_as_xyz
  1  'x, y, z'
loop_
 _atom_site_type_symbol
 _atom_site_label
 _atom_site_symmetry_multiplicity
 _atom_site_fract_x
 _atom_site_fract_y
 _atom_site_fract_z
 _atom_site_occupancy
  Th  Th0  1  0.003666  0.720907  0.750000  1
  Th  Th1  1  0.276894  0.276894  0.750000  1
  Th  Th2  1  0.331264  0.667109  0.497422  1
  Th  Th3  1  0.667109  0.331264  0.497422  1
  Th  Th4  1  0.719791  0.719791  0.250000  1
  Th  Th5  1  0.720907  0.003666  0.750000  1
  Th  Th6  1  0.999730  0.281569  0.250000  1
  Th  Th7  1  0.281569  0.999730  0.250000  1
  Th  Th8  1  0.331264  0.667109  0.002578  1
  Th  Th9  1  0.667109  0.331264  0.002578  1
  Sn  Sn10  1  0.620401  0.999680  0.250000  1
  Sn  Sn11  1  0.379741  0.379741  0.250000  1
  Sn  Sn12  1  0.999582  0.999582  0.000890  1
  Sn  Sn13  1  0.999680  0.620401  0.250000  1
  Sn  Sn14  1  0.999582  0.999582  0.499110  1
  Bi  Bi15  1  0.619085  0.619085  0.750000  1
  Sb  Sb16  1  0.000236  0.382392  0.750000  1
  Sb  Sb17  1  0.382392  0.000236  0.750000  1
