# generated using pymatgen
data_HoAl3Au
_symmetry_space_group_name_H-M   'P 1'
_cell_length_a   4.16898989
_cell_length_b   4.16898979
_cell_length_c   6.34765494
_cell_angle_alpha   70.82902832
_cell_angle_beta   70.82903468
_cell_angle_gamma   90.00000067
_symmetry_Int_Tables_number   1
_chemical_formula_structural   HoAl3Au
_chemical_formula_sum   'Ho1 Al3 Au1'
_cell_volume   97.70624559
_cell_formula_units_Z   1
loop_
 _symmetry_equiv_pos_site_id
 _symmetry_equiv_pos_as_xyz
  1  'x, y, z'
loop_
 _atom_site_type_symbol
 _atom_site_label
 _atom_site_symmetry_multiplicity
 _atom_site_fract_x
 _atom_site_fract_y
 _atom_site_fract_z
 _atom_site_occupancy
  Ho  Ho0  1  0.988821  0.988821  0.022358  1
  Al  Al1  1  0.749563  0.249563  0.500874  1
  Al  Al2  1  0.249563  0.749563  0.500874  1
  Al  Al3  1  0.396579  0.396579  0.206842  1
  Au  Au4  1  0.615473  0.615473  0.769053  1
