# generated using pymatgen
data_Pr3SmTh2Co16(MoP6)2
_symmetry_space_group_name_H-M   'P 1'
_cell_length_a   3.77986800
_cell_length_b   10.63213103
_cell_length_c   12.35371000
_cell_angle_alpha   89.97479599
_cell_angle_beta   90.00000000
_cell_angle_gamma   90.00000000
_symmetry_Int_Tables_number   1
_chemical_formula_structural   Pr3SmTh2Co16(MoP6)2
_chemical_formula_sum   'Pr3 Sm1 Th2 Co16 Mo2 P12'
_cell_volume   496.47148995
_cell_formula_units_Z   1
loop_
 _symmetry_equiv_pos_site_id
 _symmetry_equiv_pos_as_xyz
  1  'x, y, z'
loop_
 _atom_site_type_symbol
 _atom_site_label
 _atom_site_symmetry_multiplicity
 _atom_site_fract_x
 _atom_site_fract_y
 _atom_site_fract_z
 _atom_site_occupancy
  Pr  Pr0  1  0.500000  0.182071  0.205150  1
  Pr  Pr1  1  0.000000  0.682721  0.794649  1
  Pr  Pr2  1  0.000000  0.317498  0.795382  1
  Sm  Sm3  1  0.500000  0.816871  0.204331  1
  Th  Th4  1  0.000000  0.499926  0.525437  1
  Th  Th5  1  0.500000  0.999543  0.474056  1
  Co  Co6  1  0.500000  0.500265  0.698357  1
  Co  Co7  1  0.000000  0.998583  0.300818  1
  Co  Co8  1  0.000000  0.500848  0.987426  1
  Co  Co9  1  0.500000  0.998897  0.014382  1
  Co  Co10  1  0.500000  0.332329  0.992549  1
  Co  Co11  1  0.500000  0.668487  0.992714  1
  Co  Co12  1  0.000000  0.166898  0.008852  1
  Co  Co13  1  0.000000  0.832121  0.009462  1
  Co  Co14  1  0.500000  0.298245  0.431765  1
  Co  Co15  1  0.500000  0.701990  0.430008  1
  Co  Co16  1  0.000000  0.201390  0.567977  1
  Co  Co17  1  0.000000  0.798558  0.566773  1
  Co  Co18  1  0.500000  0.881931  0.707688  1
  Co  Co19  1  0.500000  0.118272  0.708466  1
  Co  Co20  1  0.000000  0.619735  0.290487  1
  Co  Co21  1  0.000000  0.382067  0.291846  1
  Mo  Mo22  1  0.500000  0.500685  0.153501  1
  Mo  Mo23  1  0.000000  0.999616  0.847205  1
  P  P24  1  0.500000  0.500511  0.884901  1
  P  P25  1  0.000000  0.998168  0.117213  1
  P  P26  1  0.500000  0.500108  0.343746  1
  P  P27  1  0.000000  0.000142  0.656324  1
  P  P28  1  0.500000  0.304677  0.614679  1
  P  P29  1  0.500000  0.695682  0.613555  1
  P  P30  1  0.000000  0.194792  0.385353  1
  P  P31  1  0.000000  0.805409  0.382768  1
  P  P32  1  0.500000  0.847013  0.895785  1
  P  P33  1  0.500000  0.152583  0.896617  1
  P  P34  1  0.000000  0.654562  0.105457  1
  P  P35  1  0.000000  0.346807  0.104323  1
