# generated using pymatgen
data_K3TmNb2O8
_symmetry_space_group_name_H-M   'P 1'
_cell_length_a   6.12652000
_cell_length_b   6.12652054
_cell_length_c   7.88363600
_cell_angle_alpha   90.00000000
_cell_angle_beta   90.00000000
_cell_angle_gamma   120.00000790
_symmetry_Int_Tables_number   1
_chemical_formula_structural   K3TmNb2O8
_chemical_formula_sum   'K3 Tm1 Nb2 O8'
_cell_volume   256.26241255
_cell_formula_units_Z   1
loop_
 _symmetry_equiv_pos_site_id
 _symmetry_equiv_pos_as_xyz
  1  'x, y, z'
loop_
 _atom_site_type_symbol
 _atom_site_label
 _atom_site_symmetry_multiplicity
 _atom_site_fract_x
 _atom_site_fract_y
 _atom_site_fract_z
 _atom_site_occupancy
  K  K0  1  0.333333  0.666667  0.686547  1
  K  K1  1  0.666667  0.333333  0.313453  1
  K  K2  1  0.000000  0.000000  0.000000  1
  Tm  Tm3  1  0.000000  0.000000  0.500000  1
  Nb  Nb4  1  0.333333  0.666667  0.240249  1
  Nb  Nb5  1  0.666667  0.333333  0.759751  1
  O  O6  1  0.333333  0.666667  0.008890  1
  O  O7  1  0.666667  0.333333  0.991110  1
  O  O8  1  0.166834  0.833166  0.327747  1
  O  O9  1  0.666331  0.833166  0.327747  1
  O  O10  1  0.166834  0.333669  0.327747  1
  O  O11  1  0.833166  0.166834  0.672253  1
  O  O12  1  0.333669  0.166834  0.672253  1
  O  O13  1  0.833166  0.666331  0.672253  1
