# generated using pymatgen
data_Y2Pa(CoSn)3
_symmetry_space_group_name_H-M   'P 1'
_cell_length_a   7.51315900
_cell_length_b   7.35179853
_cell_length_c   3.76906600
_cell_angle_alpha   90.00000000
_cell_angle_beta   90.00000000
_cell_angle_gamma   120.72875728
_symmetry_Int_Tables_number   1
_chemical_formula_structural   Y2Pa(CoSn)3
_chemical_formula_sum   'Y2 Pa1 Co3 Sn3'
_cell_volume   178.95517566
_cell_formula_units_Z   1
loop_
 _symmetry_equiv_pos_site_id
 _symmetry_equiv_pos_as_xyz
  1  'x, y, z'
loop_
 _atom_site_type_symbol
 _atom_site_label
 _atom_site_symmetry_multiplicity
 _atom_site_fract_x
 _atom_site_fract_y
 _atom_site_fract_z
 _atom_site_occupancy
  Y  Y0  1  0.002548  0.406889  0.500000  1
  Y  Y1  1  0.595659  0.593111  0.500000  1
  Pa  Pa2  1  0.415537  0.000000  0.500000  1
  Co  Co3  1  0.338296  0.709716  0.000000  1
  Co  Co4  1  0.628581  0.290284  0.000000  1
  Co  Co5  1  0.015174  0.000000  0.500000  1
  Sn  Sn6  1  0.757901  0.000000  0.000000  1
  Sn  Sn7  1  0.990673  0.735041  0.000000  1
  Sn  Sn8  1  0.255632  0.264959  0.000000  1
