# generated using pymatgen
data_Pr6HoTmAu4
_symmetry_space_group_name_H-M   'P 1'
_cell_length_a   5.04242500
_cell_length_b   7.39240369
_cell_length_c   9.27093649
_cell_angle_alpha   89.94748403
_cell_angle_beta   90.00000000
_cell_angle_gamma   90.00000000
_symmetry_Int_Tables_number   1
_chemical_formula_structural   Pr6HoTmAu4
_chemical_formula_sum   'Pr6 Ho1 Tm1 Au4'
_cell_volume   345.57995692
_cell_formula_units_Z   1
loop_
 _symmetry_equiv_pos_site_id
 _symmetry_equiv_pos_as_xyz
  1  'x, y, z'
loop_
 _atom_site_type_symbol
 _atom_site_label
 _atom_site_symmetry_multiplicity
 _atom_site_fract_x
 _atom_site_fract_y
 _atom_site_fract_z
 _atom_site_occupancy
  Pr  Pr0  1  0.250000  0.489092  0.174958  1
  Pr  Pr1  1  0.750000  0.510026  0.825100  1
  Pr  Pr2  1  0.250000  0.991935  0.323645  1
  Pr  Pr3  1  0.750000  0.008369  0.676488  1
  Pr  Pr4  1  0.750000  0.650550  0.410950  1
  Pr  Pr5  1  0.250000  0.349502  0.588859  1
  Ho  Ho6  1  0.250000  0.851755  0.922951  1
  Tm  Tm7  1  0.750000  0.148167  0.077197  1
  Au  Au8  1  0.250000  0.240864  0.912532  1
  Au  Au9  1  0.750000  0.759896  0.088096  1
  Au  Au10  1  0.250000  0.758213  0.610860  1
  Au  Au11  1  0.750000  0.241630  0.388366  1
