# generated using pymatgen
data_Lu6HfFe2(Co5P4)3
_symmetry_space_group_name_H-M   'P 1'
_cell_length_a   3.67183200
_cell_length_b   10.54790500
_cell_length_c   12.14105800
_cell_angle_alpha   90.00000000
_cell_angle_beta   90.00000000
_cell_angle_gamma   90.00000000
_symmetry_Int_Tables_number   1
_chemical_formula_structural   Lu6HfFe2(Co5P4)3
_chemical_formula_sum   'Lu6 Hf1 Fe2 Co15 P12'
_cell_volume   470.22481674
_cell_formula_units_Z   1
loop_
 _symmetry_equiv_pos_site_id
 _symmetry_equiv_pos_as_xyz
  1  'x, y, z'
loop_
 _atom_site_type_symbol
 _atom_site_label
 _atom_site_symmetry_multiplicity
 _atom_site_fract_x
 _atom_site_fract_y
 _atom_site_fract_z
 _atom_site_occupancy
  Lu  Lu0  1  0.000000  0.500000  0.529883  1
  Lu  Lu1  1  0.500000  0.000000  0.476589  1
  Lu  Lu2  1  0.500000  0.823651  0.205921  1
  Lu  Lu3  1  0.500000  0.176349  0.205921  1
  Lu  Lu4  1  0.000000  0.681809  0.796336  1
  Lu  Lu5  1  0.000000  0.318191  0.796336  1
  Hf  Hf6  1  0.500000  0.500000  0.154775  1
  Fe  Fe7  1  0.000000  0.000000  0.839201  1
  Fe  Fe8  1  0.500000  0.000000  0.010781  1
  Co  Co9  1  0.500000  0.500000  0.702082  1
  Co  Co10  1  0.000000  0.000000  0.297763  1
  Co  Co11  1  0.000000  0.500000  0.984198  1
  Co  Co12  1  0.500000  0.328028  0.988385  1
  Co  Co13  1  0.500000  0.671972  0.988385  1
  Co  Co14  1  0.000000  0.164343  0.001579  1
  Co  Co15  1  0.000000  0.835657  0.001579  1
  Co  Co16  1  0.500000  0.294485  0.434582  1
  Co  Co17  1  0.500000  0.705515  0.434582  1
  Co  Co18  1  0.000000  0.201703  0.570177  1
  Co  Co19  1  0.000000  0.798297  0.570177  1
  Co  Co20  1  0.500000  0.879100  0.706865  1
  Co  Co21  1  0.500000  0.120900  0.706865  1
  Co  Co22  1  0.000000  0.623780  0.296426  1
  Co  Co23  1  0.000000  0.376220  0.296426  1
  P  P24  1  0.500000  0.500000  0.880645  1
  P  P25  1  0.000000  0.000000  0.115709  1
  P  P26  1  0.500000  0.500000  0.363042  1
  P  P27  1  0.000000  0.000000  0.653368  1
  P  P28  1  0.500000  0.310958  0.619133  1
  P  P29  1  0.500000  0.689042  0.619133  1
  P  P30  1  0.000000  0.186636  0.385206  1
  P  P31  1  0.000000  0.813364  0.385206  1
  P  P32  1  0.500000  0.850745  0.887900  1
  P  P33  1  0.500000  0.149255  0.887900  1
  P  P34  1  0.000000  0.665030  0.103471  1
  P  P35  1  0.000000  0.334970  0.103471  1
