# generated using pymatgen
data_As4OsRu
_symmetry_space_group_name_H-M   'P 1'
_cell_length_a   5.49080063
_cell_length_b   6.25139671
_cell_length_c   3.02504100
_cell_angle_alpha   90.00000000
_cell_angle_beta   90.00000000
_cell_angle_gamma   90.05479416
_symmetry_Int_Tables_number   1
_chemical_formula_structural   As4OsRu
_chemical_formula_sum   'As4 Os1 Ru1'
_cell_volume   103.83500819
_cell_formula_units_Z   1
loop_
 _symmetry_equiv_pos_site_id
 _symmetry_equiv_pos_as_xyz
  1  'x, y, z'
loop_
 _atom_site_type_symbol
 _atom_site_label
 _atom_site_symmetry_multiplicity
 _atom_site_fract_x
 _atom_site_fract_y
 _atom_site_fract_z
 _atom_site_occupancy
  As  As0  1  0.170748  0.365482  0.000000  1
  As  As1  1  0.829254  0.634518  0.000000  1
  As  As2  1  0.670153  0.135169  0.499998  1
  As  As3  1  0.329849  0.864831  0.499998  1
  Os  Os4  1  0.000000  0.000000  0.000000  1
  Ru  Ru5  1  0.500000  0.500000  0.499998  1
