# generated using pymatgen
data_ScPaAlB6
_symmetry_space_group_name_H-M   'P 1'
_cell_length_a   3.57215200
_cell_length_b   9.04078200
_cell_length_c   11.42614100
_cell_angle_alpha   90.00000000
_cell_angle_beta   90.00000000
_cell_angle_gamma   90.00000000
_symmetry_Int_Tables_number   1
_chemical_formula_structural   ScPaAlB6
_chemical_formula_sum   'Sc4 Pa4 Al4 B24'
_cell_volume   369.00776637
_cell_formula_units_Z   4
loop_
 _symmetry_equiv_pos_site_id
 _symmetry_equiv_pos_as_xyz
  1  'x, y, z'
loop_
 _atom_site_type_symbol
 _atom_site_label
 _atom_site_symmetry_multiplicity
 _atom_site_fract_x
 _atom_site_fract_y
 _atom_site_fract_z
 _atom_site_occupancy
  Sc  Sc0  1  0.000000  0.443836  0.127663  1
  Sc  Sc1  1  0.000000  0.556164  0.872337  1
  Sc  Sc2  1  0.000000  0.943836  0.372337  1
  Sc  Sc3  1  0.000000  0.056164  0.627663  1
  Pa  Pa4  1  0.000000  0.821942  0.084965  1
  Pa  Pa5  1  0.000000  0.178058  0.915035  1
  Pa  Pa6  1  0.000000  0.321942  0.415035  1
  Pa  Pa7  1  0.000000  0.678058  0.584965  1
  Al  Al8  1  0.000000  0.141967  0.181703  1
  Al  Al9  1  0.000000  0.858033  0.818297  1
  Al  Al10  1  0.000000  0.641967  0.318297  1
  Al  Al11  1  0.000000  0.358033  0.681703  1
  B  B12  1  0.500000  0.052211  0.065705  1
  B  B13  1  0.500000  0.947789  0.934295  1
  B  B14  1  0.500000  0.552211  0.434295  1
  B  B15  1  0.500000  0.447789  0.565705  1
  B  B16  1  0.500000  0.256674  0.080079  1
  B  B17  1  0.500000  0.743326  0.919921  1
  B  B18  1  0.500000  0.756674  0.419921  1
  B  B19  1  0.500000  0.243326  0.580079  1
  B  B20  1  0.500000  0.298189  0.236873  1
  B  B21  1  0.500000  0.701811  0.763127  1
  B  B22  1  0.500000  0.798189  0.263127  1
  B  B23  1  0.500000  0.201811  0.736873  1
  B  B24  1  0.500000  0.129748  0.319415  1
  B  B25  1  0.500000  0.870252  0.680585  1
  B  B26  1  0.500000  0.629748  0.180585  1
  B  B27  1  0.500000  0.370252  0.819415  1
  B  B28  1  0.500000  0.478672  0.285276  1
  B  B29  1  0.500000  0.521328  0.714724  1
  B  B30  1  0.500000  0.978672  0.214724  1
  B  B31  1  0.500000  0.021328  0.785276  1
  B  B32  1  0.500000  0.099361  0.472952  1
  B  B33  1  0.500000  0.900639  0.527048  1
  B  B34  1  0.500000  0.599361  0.027048  1
  B  B35  1  0.500000  0.400639  0.972952  1
