# generated using pymatgen
data_Ce2Sc2ReB12Mo
_symmetry_space_group_name_H-M   'P 1'
_cell_length_a   3.64669600
_cell_length_b   9.08224600
_cell_length_c   11.48883001
_cell_angle_alpha   89.99626882
_cell_angle_beta   90.00000000
_cell_angle_gamma   90.00000000
_symmetry_Int_Tables_number   1
_chemical_formula_structural   Ce2Sc2ReB12Mo
_chemical_formula_sum   'Ce4 Sc4 Re2 B24 Mo2'
_cell_volume   380.51223390
_cell_formula_units_Z   2
loop_
 _symmetry_equiv_pos_site_id
 _symmetry_equiv_pos_as_xyz
  1  'x, y, z'
loop_
 _atom_site_type_symbol
 _atom_site_label
 _atom_site_symmetry_multiplicity
 _atom_site_fract_x
 _atom_site_fract_y
 _atom_site_fract_z
 _atom_site_occupancy
  Ce  Ce0  1  0.000000  0.320012  0.414185  1
  Ce  Ce1  1  0.000000  0.679988  0.585815  1
  Ce  Ce2  1  0.000000  0.821686  0.084846  1
  Ce  Ce3  1  0.000000  0.178314  0.915154  1
  Sc  Sc4  1  0.000000  0.945333  0.372143  1
  Sc  Sc5  1  0.000000  0.054667  0.627857  1
  Sc  Sc6  1  0.000000  0.443965  0.127724  1
  Sc  Sc7  1  0.000000  0.556035  0.872276  1
  Re  Re8  1  0.000000  0.140599  0.181201  1
  Re  Re9  1  0.000000  0.859401  0.818799  1
  B  B10  1  0.500000  0.554072  0.432357  1
  B  B11  1  0.500000  0.445928  0.567643  1
  B  B12  1  0.500000  0.055716  0.068919  1
  B  B13  1  0.500000  0.944284  0.931081  1
  B  B14  1  0.500000  0.755513  0.418669  1
  B  B15  1  0.500000  0.244487  0.581331  1
  B  B16  1  0.500000  0.253656  0.082904  1
  B  B17  1  0.500000  0.746344  0.917096  1
  B  B18  1  0.500000  0.796595  0.264377  1
  B  B19  1  0.500000  0.203405  0.735623  1
  B  B20  1  0.500000  0.293505  0.234801  1
  B  B21  1  0.500000  0.706495  0.765199  1
  B  B22  1  0.500000  0.629093  0.181669  1
  B  B23  1  0.500000  0.370907  0.818331  1
  B  B24  1  0.500000  0.128835  0.315953  1
  B  B25  1  0.500000  0.871165  0.684047  1
  B  B26  1  0.500000  0.982851  0.213981  1
  B  B27  1  0.500000  0.017149  0.786019  1
  B  B28  1  0.500000  0.480118  0.284731  1
  B  B29  1  0.500000  0.519882  0.715269  1
  B  B30  1  0.500000  0.596936  0.025756  1
  B  B31  1  0.500000  0.403064  0.974244  1
  B  B32  1  0.500000  0.096497  0.473215  1
  B  B33  1  0.500000  0.903503  0.526785  1
  Mo  Mo34  1  0.000000  0.641538  0.317828  1
  Mo  Mo35  1  0.000000  0.358462  0.682172  1
