# generated using pymatgen
data_Dy2Sc2SnBi
_symmetry_space_group_name_H-M   'P 1'
_cell_length_a   4.42559900
_cell_length_b   4.42559900
_cell_length_c   8.24747700
_cell_angle_alpha   90.00000000
_cell_angle_beta   90.00000000
_cell_angle_gamma   90.00000000
_symmetry_Int_Tables_number   1
_chemical_formula_structural   Dy2Sc2SnBi
_chemical_formula_sum   'Dy2 Sc2 Sn1 Bi1'
_cell_volume   161.53447841
_cell_formula_units_Z   1
loop_
 _symmetry_equiv_pos_site_id
 _symmetry_equiv_pos_as_xyz
  1  'x, y, z'
loop_
 _atom_site_type_symbol
 _atom_site_label
 _atom_site_symmetry_multiplicity
 _atom_site_fract_x
 _atom_site_fract_y
 _atom_site_fract_z
 _atom_site_occupancy
  Dy  Dy0  1  0.000000  0.500000  0.662109  1
  Dy  Dy1  1  0.500000  0.000000  0.350379  1
  Sc  Sc2  1  0.000000  0.000000  0.992812  1
  Sc  Sc3  1  0.500000  0.500000  0.992812  1
  Sn  Sn4  1  0.500000  0.000000  0.734248  1
  Bi  Bi5  1  0.000000  0.500000  0.267640  1
