# generated using pymatgen
data_TbYbRuPtO7
_symmetry_space_group_name_H-M   'P 1'
_cell_length_a   7.24983271
_cell_length_b   7.24983215
_cell_length_c   7.29863900
_cell_angle_alpha   59.77705631
_cell_angle_beta   59.77705892
_cell_angle_gamma   59.42563087
_symmetry_Int_Tables_number   1
_chemical_formula_structural   TbYbRuPtO7
_chemical_formula_sum   'Tb2 Yb2 Ru2 Pt2 O14'
_cell_volume   269.15538001
_cell_formula_units_Z   2
loop_
 _symmetry_equiv_pos_site_id
 _symmetry_equiv_pos_as_xyz
  1  'x, y, z'
loop_
 _atom_site_type_symbol
 _atom_site_label
 _atom_site_symmetry_multiplicity
 _atom_site_fract_x
 _atom_site_fract_y
 _atom_site_fract_z
 _atom_site_occupancy
  Tb  Tb0  1  0.625000  0.625000  0.125000  1
  Tb  Tb1  1  0.625000  0.625000  0.625000  1
  Yb  Yb2  1  0.625000  0.125000  0.625000  1
  Yb  Yb3  1  0.125000  0.625000  0.625000  1
  Ru  Ru4  1  0.125000  0.125000  0.625000  1
  Ru  Ru5  1  0.125000  0.125000  0.125000  1
  Pt  Pt6  1  0.125000  0.625000  0.125000  1
  Pt  Pt7  1  0.625000  0.125000  0.125000  1
  O  O8  1  0.747279  0.747279  0.752721  1
  O  O9  1  0.502721  0.502721  0.497279  1
  O  O10  1  0.045737  0.455610  0.038593  1
  O  O11  1  0.794390  0.204263  0.789940  1
  O  O12  1  0.065032  0.065032  0.434968  1
  O  O13  1  0.455610  0.045737  0.038593  1
  O  O14  1  0.045737  0.455610  0.460060  1
  O  O15  1  0.466882  0.466882  0.033118  1
  O  O16  1  0.455610  0.045737  0.460060  1
  O  O17  1  0.204263  0.794390  0.789940  1
  O  O18  1  0.794390  0.204263  0.211407  1
  O  O19  1  0.204263  0.794390  0.211407  1
  O  O20  1  0.783118  0.783118  0.216882  1
  O  O21  1  0.184968  0.184968  0.815032  1
