# generated using pymatgen
data_Tb3Dy(Co2O5)4
_symmetry_space_group_name_H-M   'P 1'
_cell_length_a   5.62856500
_cell_length_b   7.27622417
_cell_length_c   8.49729020
_cell_angle_alpha   89.97548565
_cell_angle_beta   90.00000000
_cell_angle_gamma   90.00000000
_symmetry_Int_Tables_number   1
_chemical_formula_structural   Tb3Dy(Co2O5)4
_chemical_formula_sum   'Tb3 Dy1 Co8 O20'
_cell_volume   348.00394462
_cell_formula_units_Z   1
loop_
 _symmetry_equiv_pos_site_id
 _symmetry_equiv_pos_as_xyz
  1  'x, y, z'
loop_
 _atom_site_type_symbol
 _atom_site_label
 _atom_site_symmetry_multiplicity
 _atom_site_fract_x
 _atom_site_fract_y
 _atom_site_fract_z
 _atom_site_occupancy
  Tb  Tb0  1  0.000000  0.141695  0.173475  1
  Tb  Tb1  1  0.000000  0.358182  0.673800  1
  Tb  Tb2  1  0.000000  0.642012  0.326293  1
  Dy  Dy3  1  0.000000  0.857833  0.826233  1
  Co  Co4  1  0.743418  0.999914  0.500219  1
  Co  Co5  1  0.500000  0.597164  0.646882  1
  Co  Co6  1  0.500000  0.402789  0.353390  1
  Co  Co7  1  0.500000  0.903149  0.146713  1
  Co  Co8  1  0.500000  0.096893  0.853409  1
  Co  Co9  1  0.256629  0.500315  0.999850  1
  Co  Co10  1  0.743371  0.500315  0.999850  1
  Co  Co11  1  0.256582  0.999914  0.500219  1
  O  O12  1  0.000000  0.339219  0.947780  1
  O  O13  1  0.724494  0.999191  0.999429  1
  O  O14  1  0.275506  0.999191  0.999429  1
  O  O15  1  0.500000  0.154293  0.442707  1
  O  O16  1  0.000000  0.161037  0.447924  1
  O  O17  1  0.723982  0.499959  0.500143  1
  O  O18  1  0.000000  0.838760  0.552929  1
  O  O19  1  0.754371  0.598303  0.789079  1
  O  O20  1  0.245579  0.096480  0.711316  1
  O  O21  1  0.500000  0.653991  0.057256  1
  O  O22  1  0.500000  0.345644  0.942057  1
  O  O23  1  0.000000  0.661767  0.051812  1
  O  O24  1  0.753965  0.902902  0.289000  1
  O  O25  1  0.753909  0.402797  0.210980  1
  O  O26  1  0.754421  0.096480  0.711316  1
  O  O27  1  0.245629  0.598303  0.789079  1
  O  O28  1  0.276018  0.499959  0.500143  1
  O  O29  1  0.246035  0.902902  0.289000  1
  O  O30  1  0.246091  0.402797  0.210980  1
  O  O31  1  0.500000  0.845850  0.557306  1
