# generated using pymatgen
data_Al(FeBr4)2
_symmetry_space_group_name_H-M   'P 1'
_cell_length_a   8.38104190
_cell_length_b   8.38104029
_cell_length_c   6.30871000
_cell_angle_alpha   91.28780454
_cell_angle_beta   91.28779746
_cell_angle_gamma   63.77616208
_symmetry_Int_Tables_number   1
_chemical_formula_structural   Al(FeBr4)2
_chemical_formula_sum   'Al1 Fe2 Br8'
_cell_volume   397.38628658
_cell_formula_units_Z   1
loop_
 _symmetry_equiv_pos_site_id
 _symmetry_equiv_pos_as_xyz
  1  'x, y, z'
loop_
 _atom_site_type_symbol
 _atom_site_label
 _atom_site_symmetry_multiplicity
 _atom_site_fract_x
 _atom_site_fract_y
 _atom_site_fract_z
 _atom_site_occupancy
  Al  Al0  1  0.164280  0.164280  0.393879  1
  Fe  Fe1  1  0.987323  0.987323  0.986757  1
  Fe  Fe2  1  0.840839  0.840839  0.616062  1
  Br  Br3  1  0.841788  0.841788  0.229787  1
  Br  Br4  1  0.876706  0.278912  0.238943  1
  Br  Br5  1  0.278912  0.876706  0.238943  1
  Br  Br6  1  0.318576  0.318576  0.310394  1
  Br  Br7  1  0.684410  0.684410  0.695900  1
  Br  Br8  1  0.711202  0.139486  0.762193  1
  Br  Br9  1  0.139486  0.711202  0.762193  1
  Br  Br10  1  0.156480  0.156480  0.764951  1
