# generated using pymatgen
data_Tb2Mg2CdPb3
_symmetry_space_group_name_H-M   'P 1'
_cell_length_a   4.76810600
_cell_length_b   4.97513800
_cell_length_c   8.86684100
_cell_angle_alpha   90.00000000
_cell_angle_beta   90.00000000
_cell_angle_gamma   90.00000000
_symmetry_Int_Tables_number   1
_chemical_formula_structural   Tb2Mg2CdPb3
_chemical_formula_sum   'Tb2 Mg2 Cd1 Pb3'
_cell_volume   210.33907229
_cell_formula_units_Z   1
loop_
 _symmetry_equiv_pos_site_id
 _symmetry_equiv_pos_as_xyz
  1  'x, y, z'
loop_
 _atom_site_type_symbol
 _atom_site_label
 _atom_site_symmetry_multiplicity
 _atom_site_fract_x
 _atom_site_fract_y
 _atom_site_fract_z
 _atom_site_occupancy
  Tb  Tb0  1  0.000000  0.000000  0.250325  1
  Tb  Tb1  1  0.000000  0.000000  0.749675  1
  Mg  Mg2  1  0.500000  0.500000  0.258617  1
  Mg  Mg3  1  0.500000  0.500000  0.741383  1
  Cd  Cd4  1  0.000000  0.500000  0.500000  1
  Pb  Pb5  1  0.000000  0.500000  0.000000  1
  Pb  Pb6  1  0.500000  0.000000  0.500000  1
  Pb  Pb7  1  0.500000  0.000000  0.000000  1
