# generated using pymatgen
data_LaDy7(P7Ir8)2
_symmetry_space_group_name_H-M   'P 1'
_cell_length_a   3.95118100
_cell_length_b   12.72722278
_cell_length_c   13.16772571
_cell_angle_alpha   80.72210807
_cell_angle_beta   90.00000000
_cell_angle_gamma   90.00000000
_symmetry_Int_Tables_number   1
_chemical_formula_structural   LaDy7(P7Ir8)2
_chemical_formula_sum   'La1 Dy7 P14 Ir16'
_cell_volume   653.51026225
_cell_formula_units_Z   1
loop_
 _symmetry_equiv_pos_site_id
 _symmetry_equiv_pos_as_xyz
  1  'x, y, z'
loop_
 _atom_site_type_symbol
 _atom_site_label
 _atom_site_symmetry_multiplicity
 _atom_site_fract_x
 _atom_site_fract_y
 _atom_site_fract_z
 _atom_site_occupancy
  La  La0  1  0.250000  0.279581  0.104627  1
  Dy  Dy1  1  0.750000  0.791503  0.561344  1
  Dy  Dy2  1  0.250000  0.208559  0.439460  1
  Dy  Dy3  1  0.750000  0.479567  0.705444  1
  Dy  Dy4  1  0.250000  0.521322  0.294893  1
  Dy  Dy5  1  0.750000  0.719671  0.897358  1
  Dy  Dy6  1  0.250000  0.102669  0.788877  1
  Dy  Dy7  1  0.750000  0.897705  0.211646  1
  P  P8  1  0.250000  0.906496  0.412203  1
  P  P9  1  0.750000  0.474403  0.129498  1
  P  P10  1  0.250000  0.527734  0.869991  1
  P  P11  1  0.750000  0.093015  0.588551  1
  P  P12  1  0.250000  0.741690  0.079007  1
  P  P13  1  0.750000  0.255992  0.916889  1
  P  P14  1  0.750000  0.157280  0.284623  1
  P  P15  1  0.250000  0.842907  0.717358  1
  P  P16  1  0.250000  0.047805  0.100597  1
  P  P17  1  0.750000  0.946834  0.898786  1
  P  P18  1  0.250000  0.312180  0.689014  1
  P  P19  1  0.750000  0.688216  0.310605  1
  P  P20  1  0.250000  0.607901  0.566495  1
  P  P21  1  0.750000  0.393117  0.435108  1
  Ir  Ir22  1  0.250000  0.990816  0.576523  1
  Ir  Ir23  1  0.750000  0.008837  0.424219  1
  Ir  Ir24  1  0.250000  0.662505  0.730372  1
  Ir  Ir25  1  0.750000  0.339855  0.272681  1
  Ir  Ir26  1  0.250000  0.555088  0.045810  1
  Ir  Ir27  1  0.750000  0.450770  0.950474  1
  Ir  Ir28  1  0.250000  0.059263  0.273338  1
  Ir  Ir29  1  0.750000  0.938882  0.727162  1
  Ir  Ir30  1  0.250000  0.422362  0.524769  1
  Ir  Ir31  1  0.750000  0.578637  0.475950  1
  Ir  Ir32  1  0.250000  0.913749  0.996290  1
  Ir  Ir33  1  0.750000  0.082488  0.000832  1
  Ir  Ir34  1  0.250000  0.729317  0.394763  1
  Ir  Ir35  1  0.750000  0.270419  0.605473  1
  Ir  Ir36  1  0.250000  0.341471  0.856933  1
  Ir  Ir37  1  0.750000  0.659395  0.142039  1
