# generated using pymatgen
data_La4PrEr(RuI3)2
_symmetry_space_group_name_H-M   'P 1'
_cell_length_a   4.36675500
_cell_length_b   9.51075622
_cell_length_c   12.51977739
_cell_angle_alpha   86.72734109
_cell_angle_beta   90.00000000
_cell_angle_gamma   90.00000000
_symmetry_Int_Tables_number   1
_chemical_formula_structural   La4PrEr(RuI3)2
_chemical_formula_sum   'La4 Pr1 Er1 Ru2 I6'
_cell_volume   519.11268957
_cell_formula_units_Z   1
loop_
 _symmetry_equiv_pos_site_id
 _symmetry_equiv_pos_as_xyz
  1  'x, y, z'
loop_
 _atom_site_type_symbol
 _atom_site_label
 _atom_site_symmetry_multiplicity
 _atom_site_fract_x
 _atom_site_fract_y
 _atom_site_fract_z
 _atom_site_occupancy
  La  La0  1  0.750000  0.687006  0.115608  1
  La  La1  1  0.250000  0.312849  0.882094  1
  La  La2  1  0.250000  0.884327  0.329326  1
  La  La3  1  0.750000  0.111560  0.670992  1
  Pr  Pr4  1  0.750000  0.095601  0.103028  1
  Er  Er5  1  0.250000  0.915115  0.899225  1
  Ru  Ru6  1  0.250000  0.886112  0.125560  1
  Ru  Ru7  1  0.750000  0.109311  0.871509  1
  I  I8  1  0.250000  0.862307  0.622778  1
  I  I9  1  0.750000  0.135325  0.380001  1
  I  I10  1  0.750000  0.632690  0.378116  1
  I  I11  1  0.250000  0.365913  0.622048  1
  I  I12  1  0.250000  0.392907  0.137921  1
  I  I13  1  0.750000  0.608977  0.861792  1
