# generated using pymatgen
data_ErHf7TiNb11AlSi15
_symmetry_space_group_name_H-M   'P 1'
_cell_length_a   6.88564319
_cell_length_b   6.88846471
_cell_length_c   12.69961300
_cell_angle_alpha   89.99851946
_cell_angle_beta   89.94482311
_cell_angle_gamma   89.94915285
_symmetry_Int_Tables_number   1
_chemical_formula_structural   ErHf7TiNb11AlSi15
_chemical_formula_sum   'Er1 Hf7 Ti1 Nb11 Al1 Si15'
_cell_volume   602.36130649
_cell_formula_units_Z   1
loop_
 _symmetry_equiv_pos_site_id
 _symmetry_equiv_pos_as_xyz
  1  'x, y, z'
loop_
 _atom_site_type_symbol
 _atom_site_label
 _atom_site_symmetry_multiplicity
 _atom_site_fract_x
 _atom_site_fract_y
 _atom_site_fract_z
 _atom_site_occupancy
  Er  Er0  1  0.997053  0.661702  0.031173  1
  Hf  Hf1  1  0.343853  0.996665  0.466156  1
  Hf  Hf2  1  0.506829  0.838388  0.719211  1
  Hf  Hf3  1  0.498726  0.160738  0.219931  1
  Hf  Hf4  1  0.840866  0.502555  0.283037  1
  Hf  Hf5  1  0.160277  0.500837  0.781951  1
  Hf  Hf6  1  0.656554  0.003240  0.967540  1
  Hf  Hf7  1  0.995706  0.342188  0.528779  1
  Ti  Ti8  1  0.988872  0.843209  0.624525  1
  Nb  Nb9  1  0.332813  0.327638  0.999953  1
  Nb  Nb10  1  0.170073  0.830682  0.252038  1
  Nb  Nb11  1  0.827474  0.168378  0.749770  1
  Nb  Nb12  1  0.669557  0.671097  0.500414  1
  Nb  Nb13  1  0.155006  0.001844  0.873787  1
  Nb  Nb14  1  0.497737  0.651923  0.125077  1
  Nb  Nb15  1  0.505679  0.352137  0.622960  1
  Nb  Nb16  1  0.652399  0.492843  0.874814  1
  Nb  Nb17  1  0.347165  0.504599  0.377619  1
  Nb  Nb18  1  0.846947  0.997721  0.374178  1
  Nb  Nb19  1  0.004590  0.152397  0.127245  1
  Al  Al20  1  0.205631  0.130622  0.673214  1
  Si  Si21  1  0.368749  0.707059  0.926592  1
  Si  Si22  1  0.635902  0.293456  0.426992  1
  Si  Si23  1  0.705398  0.360130  0.072702  1
  Si  Si24  1  0.288201  0.639960  0.575780  1
  Si  Si25  1  0.789746  0.867959  0.179553  1
  Si  Si26  1  0.135902  0.208320  0.323878  1
  Si  Si27  1  0.864486  0.794969  0.818834  1
  Si  Si28  1  0.301566  0.956372  0.064344  1
  Si  Si29  1  0.543253  0.799480  0.313940  1
  Si  Si30  1  0.454010  0.199611  0.811247  1
  Si  Si31  1  0.803321  0.543550  0.686001  1
  Si  Si32  1  0.201823  0.454908  0.187999  1
  Si  Si33  1  0.702158  0.044916  0.564558  1
  Si  Si34  1  0.957185  0.295019  0.935388  1
  Si  Si35  1  0.044495  0.702885  0.438821  1
