# generated using pymatgen
data_Ti12FeRe6Ir5
_symmetry_space_group_name_H-M   'P 1'
_cell_length_a   4.37613200
_cell_length_b   6.19641300
_cell_length_c   13.15883900
_cell_angle_alpha   90.00000000
_cell_angle_beta   89.99876635
_cell_angle_gamma   90.00000000
_symmetry_Int_Tables_number   1
_chemical_formula_structural   Ti12FeRe6Ir5
_chemical_formula_sum   'Ti12 Fe1 Re6 Ir5'
_cell_volume   356.81930509
_cell_formula_units_Z   1
loop_
 _symmetry_equiv_pos_site_id
 _symmetry_equiv_pos_as_xyz
  1  'x, y, z'
loop_
 _atom_site_type_symbol
 _atom_site_label
 _atom_site_symmetry_multiplicity
 _atom_site_fract_x
 _atom_site_fract_y
 _atom_site_fract_z
 _atom_site_occupancy
  Ti  Ti0  1  0.500000  0.256896  0.000000  1
  Ti  Ti1  1  0.500000  0.743106  0.000000  1
  Ti  Ti2  1  0.000066  0.252787  0.162942  1
  Ti  Ti3  1  0.000066  0.747213  0.162942  1
  Ti  Ti4  1  0.500069  0.249831  0.332624  1
  Ti  Ti5  1  0.500069  0.750167  0.332624  1
  Ti  Ti6  1  0.000000  0.249490  0.500000  1
  Ti  Ti7  1  0.000000  0.750510  0.500000  1
  Ti  Ti8  1  0.499930  0.249831  0.667376  1
  Ti  Ti9  1  0.499930  0.750167  0.667376  1
  Ti  Ti10  1  0.999934  0.252787  0.837058  1
  Ti  Ti11  1  0.999934  0.747213  0.837058  1
  Fe  Fe12  1  0.000000  0.499999  0.000000  1
  Re  Re13  1  0.000000  0.000000  0.000000  1
  Re  Re14  1  0.500064  0.499999  0.166142  1
  Re  Re15  1  0.000070  0.000000  0.332754  1
  Re  Re16  1  0.500000  0.499999  0.500000  1
  Re  Re17  1  0.999930  0.000000  0.667246  1
  Re  Re18  1  0.499935  0.499999  0.833858  1
  Ir  Ir19  1  0.500076  0.000000  0.166190  1
  Ir  Ir20  1  0.000070  0.499999  0.333177  1
  Ir  Ir21  1  0.500000  0.000000  0.500000  1
  Ir  Ir22  1  0.999930  0.499999  0.666823  1
  Ir  Ir23  1  0.499923  0.000000  0.833809  1
