# generated using pymatgen
data_TbEr9In8(CuPt)2
_symmetry_space_group_name_H-M   'P 1'
_cell_length_a   3.61271800
_cell_length_b   8.05609401
_cell_length_c   18.06222130
_cell_angle_alpha   90.04213749
_cell_angle_beta   90.00000000
_cell_angle_gamma   90.00000000
_symmetry_Int_Tables_number   1
_chemical_formula_structural   TbEr9In8(CuPt)2
_chemical_formula_sum   'Tb1 Er9 In8 Cu2 Pt2'
_cell_volume   525.68989632
_cell_formula_units_Z   1
loop_
 _symmetry_equiv_pos_site_id
 _symmetry_equiv_pos_as_xyz
  1  'x, y, z'
loop_
 _atom_site_type_symbol
 _atom_site_label
 _atom_site_symmetry_multiplicity
 _atom_site_fract_x
 _atom_site_fract_y
 _atom_site_fract_z
 _atom_site_occupancy
  Tb  Tb0  1  0.000000  0.000000  0.000000  1
  Er  Er1  1  0.000000  0.117264  0.415315  1
  Er  Er2  1  0.000000  0.882736  0.584685  1
  Er  Er3  1  0.000000  0.383453  0.915382  1
  Er  Er4  1  0.000000  0.616547  0.084618  1
  Er  Er5  1  0.000000  0.246679  0.219653  1
  Er  Er6  1  0.000000  0.753321  0.780347  1
  Er  Er7  1  0.000000  0.260389  0.720345  1
  Er  Er8  1  0.000000  0.739611  0.279655  1
  Er  Er9  1  0.000000  0.500000  0.500000  1
  In  In10  1  0.500000  0.421281  0.352306  1
  In  In11  1  0.500000  0.578719  0.647694  1
  In  In12  1  0.500000  0.074925  0.849316  1
  In  In13  1  0.500000  0.925075  0.150684  1
  In  In14  1  0.500000  0.292999  0.066757  1
  In  In15  1  0.500000  0.707001  0.933243  1
  In  In16  1  0.500000  0.206989  0.567935  1
  In  In17  1  0.500000  0.793011  0.432065  1
  Cu  Cu18  1  0.500000  0.026249  0.302301  1
  Cu  Cu19  1  0.500000  0.973751  0.697699  1
  Pt  Pt20  1  0.500000  0.473236  0.802436  1
  Pt  Pt21  1  0.500000  0.526764  0.197564  1
