# generated using pymatgen
data_K8Y6BeBr20
_symmetry_space_group_name_H-M   'P 1'
_cell_length_a   12.05841326
_cell_length_b   12.05841326
_cell_length_c   12.05841200
_cell_angle_alpha   59.99999798
_cell_angle_beta   59.99999797
_cell_angle_gamma   59.99999865
_symmetry_Int_Tables_number   1
_chemical_formula_structural   K8Y6BeBr20
_chemical_formula_sum   'K8 Y6 Be1 Br20'
_cell_volume   1239.81084330
_cell_formula_units_Z   1
loop_
 _symmetry_equiv_pos_site_id
 _symmetry_equiv_pos_as_xyz
  1  'x, y, z'
loop_
 _atom_site_type_symbol
 _atom_site_label
 _atom_site_symmetry_multiplicity
 _atom_site_fract_x
 _atom_site_fract_y
 _atom_site_fract_z
 _atom_site_occupancy
  K  K0  1  0.358543  0.358543  0.358543  1
  K  K1  1  0.641457  0.641457  0.641457  1
  K  K2  1  0.358543  0.358543  0.924369  1
  K  K3  1  0.358543  0.924369  0.358543  1
  K  K4  1  0.641457  0.641457  0.075631  1
  K  K5  1  0.641457  0.075631  0.641457  1
  K  K6  1  0.924369  0.358543  0.358543  1
  K  K7  1  0.075631  0.641457  0.641457  1
  Y  Y8  1  0.841093  0.158907  0.158907  1
  Y  Y9  1  0.158907  0.841093  0.841093  1
  Y  Y10  1  0.158907  0.841093  0.158907  1
  Y  Y11  1  0.841093  0.158907  0.841093  1
  Y  Y12  1  0.158907  0.158907  0.841093  1
  Y  Y13  1  0.841093  0.841093  0.158907  1
  Be  Be14  1  0.000000  0.000000  0.000000  1
  Br  Br15  1  0.338293  0.000000  0.000000  1
  Br  Br16  1  0.661707  0.000000  0.000000  1
  Br  Br17  1  0.000000  0.338293  0.661707  1
  Br  Br18  1  0.000000  0.661707  0.338293  1
  Br  Br19  1  0.000000  0.338293  0.000000  1
  Br  Br20  1  0.661707  0.000000  0.338293  1
  Br  Br21  1  0.000000  0.661707  0.000000  1
  Br  Br22  1  0.338293  0.000000  0.661707  1
  Br  Br23  1  0.000000  0.000000  0.338293  1
  Br  Br24  1  0.000000  0.000000  0.661707  1
  Br  Br25  1  0.661707  0.338293  0.000000  1
  Br  Br26  1  0.338293  0.661707  0.000000  1
  Br  Br27  1  0.672679  0.327321  0.327321  1
  Br  Br28  1  0.327321  0.672679  0.672679  1
  Br  Br29  1  0.327321  0.672679  0.327321  1
  Br  Br30  1  0.672679  0.327321  0.672679  1
  Br  Br31  1  0.327321  0.327321  0.672679  1
  Br  Br32  1  0.672679  0.672679  0.327321  1
  Br  Br33  1  0.250000  0.250000  0.250000  1
  Br  Br34  1  0.750000  0.750000  0.750000  1
