# generated using pymatgen
data_Sm8Si15Ag
_symmetry_space_group_name_H-M   'P 1'
_cell_length_a   8.23591800
_cell_length_b   8.23591782
_cell_length_c   8.21662500
_cell_angle_alpha   90.00000000
_cell_angle_beta   90.00000000
_cell_angle_gamma   120.00000074
_symmetry_Int_Tables_number   1
_chemical_formula_structural   Sm8Si15Ag
_chemical_formula_sum   'Sm8 Si15 Ag1'
_cell_volume   482.66756265
_cell_formula_units_Z   1
loop_
 _symmetry_equiv_pos_site_id
 _symmetry_equiv_pos_as_xyz
  1  'x, y, z'
loop_
 _atom_site_type_symbol
 _atom_site_label
 _atom_site_symmetry_multiplicity
 _atom_site_fract_x
 _atom_site_fract_y
 _atom_site_fract_z
 _atom_site_occupancy
  Sm  Sm0  1  0.000000  0.000000  0.748139  1
  Sm  Sm1  1  0.000000  0.000000  0.251858  1
  Sm  Sm2  1  0.503254  0.496746  0.743208  1
  Sm  Sm3  1  0.503254  0.006511  0.743208  1
  Sm  Sm4  1  0.993489  0.496746  0.743208  1
  Sm  Sm5  1  0.503625  0.496375  0.256782  1
  Sm  Sm6  1  0.992750  0.496375  0.256782  1
  Sm  Sm7  1  0.503625  0.007250  0.256782  1
  Si  Si8  1  0.666667  0.333333  0.999702  1
  Si  Si9  1  0.666667  0.333333  0.500688  1
  Si  Si10  1  0.333333  0.666667  0.499208  1
  Si  Si11  1  0.833781  0.166219  0.999830  1
  Si  Si12  1  0.833781  0.667562  0.999830  1
  Si  Si13  1  0.332438  0.166219  0.999830  1
  Si  Si14  1  0.833121  0.166879  0.500006  1
  Si  Si15  1  0.833121  0.666243  0.500006  1
  Si  Si16  1  0.333757  0.166879  0.500006  1
  Si  Si17  1  0.166661  0.833339  0.500004  1
  Si  Si18  1  0.666680  0.833339  0.500004  1
  Si  Si19  1  0.166661  0.333320  0.500004  1
  Si  Si20  1  0.163420  0.836580  0.000116  1
  Si  Si21  1  0.673159  0.836580  0.000116  1
  Si  Si22  1  0.163420  0.326841  0.000116  1
  Ag  Ag23  1  0.333333  0.666667  0.000565  1
