# generated using pymatgen
data_Nd4MoRu6W
_symmetry_space_group_name_H-M   'P 1'
_cell_length_a   5.23092957
_cell_length_b   5.23093028
_cell_length_c   9.24102200
_cell_angle_alpha   90.00000000
_cell_angle_beta   90.00000000
_cell_angle_gamma   113.36019996
_symmetry_Int_Tables_number   1
_chemical_formula_structural   Nd4MoRu6W
_chemical_formula_sum   'Nd4 Mo1 Ru6 W1'
_cell_volume   232.13189347
_cell_formula_units_Z   1
loop_
 _symmetry_equiv_pos_site_id
 _symmetry_equiv_pos_as_xyz
  1  'x, y, z'
loop_
 _atom_site_type_symbol
 _atom_site_label
 _atom_site_symmetry_multiplicity
 _atom_site_fract_x
 _atom_site_fract_y
 _atom_site_fract_z
 _atom_site_occupancy
  Nd  Nd0  1  0.332677  0.667323  0.434219  1
  Nd  Nd1  1  0.666090  0.333910  0.566169  1
  Nd  Nd2  1  0.666090  0.333910  0.933831  1
  Nd  Nd3  1  0.332677  0.667323  0.065781  1
  Mo  Mo4  1  0.159949  0.840051  0.750000  1
  Ru  Ru5  1  0.998284  0.001716  0.499412  1
  Ru  Ru6  1  0.998284  0.001716  0.000588  1
  Ru  Ru7  1  0.837232  0.648759  0.250000  1
  Ru  Ru8  1  0.351241  0.162768  0.250000  1
  Ru  Ru9  1  0.161173  0.347527  0.750000  1
  Ru  Ru10  1  0.652473  0.838827  0.750000  1
  W  W11  1  0.843832  0.156168  0.250000  1
