# generated using pymatgen
data_Tb3YbCrSb2PdO14
_symmetry_space_group_name_H-M   'P 1'
_cell_length_a   7.30337380
_cell_length_b   7.18742631
_cell_length_c   7.35445200
_cell_angle_alpha   89.99938618
_cell_angle_beta   59.76559813
_cell_angle_gamma   120.11113135
_symmetry_Int_Tables_number   1
_chemical_formula_structural   Tb3YbCrSb2PdO14
_chemical_formula_sum   'Tb3 Yb1 Cr1 Sb2 Pd1 O14'
_cell_volume   271.54716099
_cell_formula_units_Z   1
loop_
 _symmetry_equiv_pos_site_id
 _symmetry_equiv_pos_as_xyz
  1  'x, y, z'
loop_
 _atom_site_type_symbol
 _atom_site_label
 _atom_site_symmetry_multiplicity
 _atom_site_fract_x
 _atom_site_fract_y
 _atom_site_fract_z
 _atom_site_occupancy
  Tb  Tb0  1  0.499923  0.000043  0.999996  1
  Tb  Tb1  1  0.000062  0.000103  0.500047  1
  Tb  Tb2  1  0.000007  0.000086  0.999903  1
  Yb  Yb3  1  0.499931  0.500021  0.000015  1
  Cr  Cr4  1  0.500021  0.499651  0.499914  1
  Sb  Sb5  1  0.999895  0.499988  0.999988  1
  Sb  Sb6  1  0.999865  0.500097  0.500131  1
  Pd  Pd7  1  0.499975  0.999866  0.499998  1
  O  O8  1  0.248131  0.118975  0.125905  1
  O  O9  1  0.751643  0.881035  0.874157  1
  O  O10  1  0.681268  0.839779  0.409410  1
  O  O11  1  0.838561  0.415379  0.830717  1
  O  O12  1  0.254008  0.837301  0.833967  1
  O  O13  1  0.245155  0.418272  0.421122  1
  O  O14  1  0.245173  0.418295  0.833832  1
  O  O15  1  0.254098  0.837358  0.411993  1
  O  O16  1  0.319198  0.160112  0.590408  1
  O  O17  1  0.161209  0.584603  0.169386  1
  O  O18  1  0.745988  0.162599  0.165987  1
  O  O19  1  0.754934  0.581893  0.578972  1
  O  O20  1  0.754930  0.581912  0.166138  1
  O  O21  1  0.746029  0.162631  0.588016  1
