# generated using pymatgen
data_La6Dy9Er(CdIr)4
_symmetry_space_group_name_H-M   'P 1'
_cell_length_a   9.82004374
_cell_length_b   9.82004418
_cell_length_c   9.82818200
_cell_angle_alpha   59.97258320
_cell_angle_beta   59.97258173
_cell_angle_gamma   59.94284051
_symmetry_Int_Tables_number   1
_chemical_formula_structural   La6Dy9Er(CdIr)4
_chemical_formula_sum   'La6 Dy9 Er1 Cd4 Ir4'
_cell_volume   669.60262852
_cell_formula_units_Z   1
loop_
 _symmetry_equiv_pos_site_id
 _symmetry_equiv_pos_as_xyz
  1  'x, y, z'
loop_
 _atom_site_type_symbol
 _atom_site_label
 _atom_site_symmetry_multiplicity
 _atom_site_fract_x
 _atom_site_fract_y
 _atom_site_fract_z
 _atom_site_occupancy
  La  La0  1  0.192434  0.807432  0.807253  1
  La  La1  1  0.807432  0.192434  0.192881  1
  La  La2  1  0.807432  0.192434  0.807253  1
  La  La3  1  0.192434  0.807432  0.192881  1
  La  La4  1  0.807606  0.807606  0.192394  1
  La  La5  1  0.193018  0.193018  0.806982  1
  Dy  Dy6  1  0.596625  0.596625  0.596316  1
  Dy  Dy7  1  0.596625  0.596625  0.210432  1
  Dy  Dy8  1  0.597213  0.209995  0.596395  1
  Dy  Dy9  1  0.209995  0.597213  0.596395  1
  Dy  Dy10  1  0.062942  0.435943  0.437191  1
  Dy  Dy11  1  0.435943  0.062942  0.063924  1
  Dy  Dy12  1  0.435943  0.062942  0.437191  1
  Dy  Dy13  1  0.062942  0.435943  0.063924  1
  Dy  Dy14  1  0.436708  0.436708  0.063292  1
  Er  Er15  1  0.063473  0.063473  0.436527  1
  Cd  Cd16  1  0.828682  0.828682  0.828281  1
  Cd  Cd17  1  0.828682  0.828682  0.514353  1
  Cd  Cd18  1  0.828784  0.513969  0.828622  1
  Cd  Cd19  1  0.513969  0.828784  0.828622  1
  Ir  Ir20  1  0.391426  0.391426  0.390606  1
  Ir  Ir21  1  0.391426  0.391426  0.826542  1
  Ir  Ir22  1  0.390895  0.827366  0.390869  1
  Ir  Ir23  1  0.827366  0.390895  0.390869  1
