# generated using pymatgen
data_Tb8Ti10NbSi16Ag
_symmetry_space_group_name_H-M   'P 1'
_cell_length_a   7.08239849
_cell_length_b   7.08239816
_cell_length_c   12.95408890
_cell_angle_alpha   90.15859105
_cell_angle_beta   89.84140786
_cell_angle_gamma   89.66707899
_symmetry_Int_Tables_number   1
_chemical_formula_structural   Tb8Ti10NbSi16Ag
_chemical_formula_sum   'Tb8 Ti10 Nb1 Si16 Ag1'
_cell_volume   649.76586471
_cell_formula_units_Z   1
loop_
 _symmetry_equiv_pos_site_id
 _symmetry_equiv_pos_as_xyz
  1  'x, y, z'
loop_
 _atom_site_type_symbol
 _atom_site_label
 _atom_site_symmetry_multiplicity
 _atom_site_fract_x
 _atom_site_fract_y
 _atom_site_fract_z
 _atom_site_occupancy
  Tb  Tb0  1  0.340873  0.002211  0.467150  1
  Tb  Tb1  1  0.497434  0.839953  0.716644  1
  Tb  Tb2  1  0.501336  0.158744  0.214369  1
  Tb  Tb3  1  0.839953  0.497434  0.283356  1
  Tb  Tb4  1  0.158744  0.501336  0.785631  1
  Tb  Tb5  1  0.656478  0.000696  0.968337  1
  Tb  Tb6  1  0.002211  0.340873  0.532850  1
  Tb  Tb7  1  0.000696  0.656478  0.031663  1
  Ti  Ti8  1  0.173798  0.826451  0.249798  1
  Ti  Ti9  1  0.826451  0.173798  0.750202  1
  Ti  Ti10  1  0.148635  0.008500  0.877451  1
  Ti  Ti11  1  0.494015  0.651117  0.124168  1
  Ti  Ti12  1  0.508877  0.350174  0.625058  1
  Ti  Ti13  1  0.651117  0.494015  0.875832  1
  Ti  Ti14  1  0.350174  0.508877  0.374942  1
  Ti  Ti15  1  0.847832  0.990973  0.375233  1
  Ti  Ti16  1  0.008500  0.148635  0.122549  1
  Ti  Ti17  1  0.990973  0.847832  0.624767  1
  Nb  Nb18  1  0.673249  0.673249  0.500000  1
  Si  Si19  1  0.201726  0.130850  0.685436  1
  Si  Si20  1  0.374248  0.718297  0.930644  1
  Si  Si21  1  0.629994  0.294725  0.433873  1
  Si  Si22  1  0.718297  0.374248  0.069356  1
  Si  Si23  1  0.294725  0.629994  0.566127  1
  Si  Si24  1  0.798402  0.869312  0.183391  1
  Si  Si25  1  0.130850  0.201726  0.314564  1
  Si  Si26  1  0.869312  0.798402  0.816609  1
  Si  Si27  1  0.285703  0.937909  0.066337  1
  Si  Si28  1  0.546254  0.791563  0.313595  1
  Si  Si29  1  0.455723  0.207888  0.809100  1
  Si  Si30  1  0.791563  0.546254  0.686405  1
  Si  Si31  1  0.207888  0.455723  0.190900  1
  Si  Si32  1  0.709665  0.047769  0.564321  1
  Si  Si33  1  0.937909  0.285703  0.933663  1
  Si  Si34  1  0.047769  0.709665  0.435679  1
  Ag  Ag35  1  0.328629  0.328629  0.000000  1
