# generated using pymatgen
data_Np2Ni7As4
_symmetry_space_group_name_H-M   'P 1'
_cell_length_a   3.86545200
_cell_length_b   9.34280900
_cell_length_c   10.71461400
_cell_angle_alpha   90.00000000
_cell_angle_beta   90.00000000
_cell_angle_gamma   90.00000000
_symmetry_Int_Tables_number   1
_chemical_formula_structural   Np2Ni7As4
_chemical_formula_sum   'Np4 Ni14 As8'
_cell_volume   386.94949578
_cell_formula_units_Z   2
loop_
 _symmetry_equiv_pos_site_id
 _symmetry_equiv_pos_as_xyz
  1  'x, y, z'
loop_
 _atom_site_type_symbol
 _atom_site_label
 _atom_site_symmetry_multiplicity
 _atom_site_fract_x
 _atom_site_fract_y
 _atom_site_fract_z
 _atom_site_occupancy
  Np  Np0  1  0.000000  0.554932  0.005897  1
  Np  Np1  1  0.500001  0.059125  0.281932  1
  Np  Np2  1  0.500001  0.445068  0.505898  1
  Np  Np3  1  0.000000  0.940876  0.781932  1
  Ni  Ni4  1  0.500001  0.311907  0.057204  1
  Ni  Ni5  1  0.000000  0.895907  0.075746  1
  Ni  Ni6  1  0.500001  0.723907  0.170480  1
  Ni  Ni7  1  0.000000  0.316593  0.265141  1
  Ni  Ni8  1  0.000000  0.575149  0.328118  1
  Ni  Ni9  1  0.500001  0.733537  0.402721  1
  Ni  Ni10  1  0.000000  0.944114  0.479898  1
  Ni  Ni11  1  0.000000  0.688093  0.557204  1
  Ni  Ni12  1  0.500001  0.104093  0.575745  1
  Ni  Ni13  1  0.000000  0.276093  0.670480  1
  Ni  Ni14  1  0.500001  0.683408  0.765141  1
  Ni  Ni15  1  0.500001  0.424851  0.828118  1
  Ni  Ni16  1  0.000000  0.266463  0.902721  1
  Ni  Ni17  1  0.500001  0.055887  0.979898  1
  As  As18  1  0.000000  0.152011  0.092815  1
  As  As19  1  0.500001  0.472809  0.222394  1
  As  As20  1  0.000000  0.819489  0.285883  1
  As  As21  1  0.000000  0.196608  0.462973  1
  As  As22  1  0.500001  0.847989  0.592814  1
  As  As23  1  0.000000  0.527191  0.722394  1
  As  As24  1  0.500001  0.180512  0.785882  1
  As  As25  1  0.500001  0.803393  0.962974  1
