# generated using pymatgen
data_Ba(In3Pt2)2
_symmetry_space_group_name_H-M   'P 1'
_cell_length_a   7.93400600
_cell_length_b   7.93400485
_cell_length_c   4.47676400
_cell_angle_alpha   90.00000000
_cell_angle_beta   90.00000000
_cell_angle_gamma   119.99999645
_symmetry_Int_Tables_number   1
_chemical_formula_structural   Ba(In3Pt2)2
_chemical_formula_sum   'Ba1 In6 Pt4'
_cell_volume   244.05057425
_cell_formula_units_Z   1
loop_
 _symmetry_equiv_pos_site_id
 _symmetry_equiv_pos_as_xyz
  1  'x, y, z'
loop_
 _atom_site_type_symbol
 _atom_site_label
 _atom_site_symmetry_multiplicity
 _atom_site_fract_x
 _atom_site_fract_y
 _atom_site_fract_z
 _atom_site_occupancy
  Ba  Ba0  1  0.000000  0.000000  0.000000  1
  In  In1  1  0.534481  0.465519  0.000000  1
  In  In2  1  0.197749  0.802251  0.500000  1
  In  In3  1  0.534481  0.068961  0.000000  1
  In  In4  1  0.197749  0.395497  0.500000  1
  In  In5  1  0.931039  0.465519  0.000000  1
  In  In6  1  0.604503  0.802251  0.500000  1
  Pt  Pt7  1  0.789712  0.210288  0.500000  1
  Pt  Pt8  1  0.333333  0.666667  0.000000  1
  Pt  Pt9  1  0.789712  0.579424  0.500000  1
  Pt  Pt10  1  0.420576  0.210288  0.500000  1
