# generated using pymatgen
data_Nd4TaNb3N8
_symmetry_space_group_name_H-M   'P 1'
_cell_length_a   3.39596700
_cell_length_b   5.82251237
_cell_length_c   11.10204233
_cell_angle_alpha   90.14032868
_cell_angle_beta   90.00000000
_cell_angle_gamma   90.00000000
_symmetry_Int_Tables_number   1
_chemical_formula_structural   Nd4TaNb3N8
_chemical_formula_sum   'Nd4 Ta1 Nb3 N8'
_cell_volume   219.52068895
_cell_formula_units_Z   1
loop_
 _symmetry_equiv_pos_site_id
 _symmetry_equiv_pos_as_xyz
  1  'x, y, z'
loop_
 _atom_site_type_symbol
 _atom_site_label
 _atom_site_symmetry_multiplicity
 _atom_site_fract_x
 _atom_site_fract_y
 _atom_site_fract_z
 _atom_site_occupancy
  Nd  Nd0  1  0.250000  0.585091  0.861020  1
  Nd  Nd1  1  0.750000  0.412033  0.139022  1
  Nd  Nd2  1  0.750000  0.914302  0.362690  1
  Nd  Nd3  1  0.250000  0.084543  0.637798  1
  Ta  Ta4  1  0.250000  0.917185  0.109576  1
  Nb  Nb5  1  0.750000  0.083090  0.888969  1
  Nb  Nb6  1  0.750000  0.581001  0.607193  1
  Nb  Nb7  1  0.250000  0.418554  0.392595  1
  N  N8  1  0.250000  0.665900  0.243508  1
  N  N9  1  0.750000  0.338514  0.753698  1
  N  N10  1  0.750000  0.837711  0.748151  1
  N  N11  1  0.250000  0.159389  0.250484  1
  N  N12  1  0.250000  0.730179  0.511522  1
  N  N13  1  0.750000  0.270167  0.487458  1
  N  N14  1  0.750000  0.776707  0.016797  1
  N  N15  1  0.250000  0.225634  0.989519  1
