# generated using pymatgen
data_Dy6YTe8
_symmetry_space_group_name_H-M   'P 1'
_cell_length_a   8.58653190
_cell_length_b   8.58074333
_cell_length_c   8.58653300
_cell_angle_alpha   119.97934132
_cell_angle_beta   90.08698600
_cell_angle_gamma   119.96480019
_symmetry_Int_Tables_number   1
_chemical_formula_structural   Dy6YTe8
_chemical_formula_sum   'Dy6 Y1 Te8'
_cell_volume   447.38558907
_cell_formula_units_Z   1
loop_
 _symmetry_equiv_pos_site_id
 _symmetry_equiv_pos_as_xyz
  1  'x, y, z'
loop_
 _atom_site_type_symbol
 _atom_site_label
 _atom_site_symmetry_multiplicity
 _atom_site_fract_x
 _atom_site_fract_y
 _atom_site_fract_z
 _atom_site_occupancy
  Dy  Dy0  1  0.249952  0.999996  0.249956  1
  Dy  Dy1  1  0.249993  0.499935  0.249983  1
  Dy  Dy2  1  0.750042  0.999994  0.249979  1
  Dy  Dy3  1  0.249987  0.000010  0.750059  1
  Dy  Dy4  1  0.750022  0.999998  0.750019  1
  Dy  Dy5  1  0.750047  0.500065  0.750058  1
  Y  Y6  1  0.250029  0.500000  0.750031  1
  Te  Te7  1  0.000017  0.999998  0.000017  1
  Te  Te8  1  0.500031  0.000000  0.500029  1
  Te  Te9  1  0.991921  0.983885  0.491947  1
  Te  Te10  1  0.991829  0.500001  0.491827  1
  Te  Te11  1  0.507847  0.500061  0.492185  1
  Te  Te12  1  0.992121  0.499941  0.007791  1
  Te  Te13  1  0.508098  0.499998  0.008092  1
  Te  Te14  1  0.508066  0.016122  0.008038  1
