# generated using pymatgen
data_Li2HoPaRh2
_symmetry_space_group_name_H-M   'P 1'
_cell_length_a   3.75391200
_cell_length_b   7.11319739
_cell_length_c   8.58002223
_cell_angle_alpha   92.89923574
_cell_angle_beta   90.00000000
_cell_angle_gamma   90.00000000
_symmetry_Int_Tables_number   1
_chemical_formula_structural   Li2HoPaRh2
_chemical_formula_sum   'Li4 Ho2 Pa2 Rh4'
_cell_volume   228.81322488
_cell_formula_units_Z   2
loop_
 _symmetry_equiv_pos_site_id
 _symmetry_equiv_pos_as_xyz
  1  'x, y, z'
loop_
 _atom_site_type_symbol
 _atom_site_label
 _atom_site_symmetry_multiplicity
 _atom_site_fract_x
 _atom_site_fract_y
 _atom_site_fract_z
 _atom_site_occupancy
  Li  Li0  1  0.250000  0.120581  0.941209  1
  Li  Li1  1  0.750000  0.879419  0.058791  1
  Li  Li2  1  0.250000  0.625160  0.553623  1
  Li  Li3  1  0.750000  0.374840  0.446377  1
  Ho  Ho4  1  0.250000  0.054307  0.319560  1
  Ho  Ho5  1  0.750000  0.945693  0.680440  1
  Pa  Pa6  1  0.250000  0.545135  0.191554  1
  Pa  Pa7  1  0.750000  0.454865  0.808446  1
  Rh  Rh8  1  0.750000  0.747295  0.355429  1
  Rh  Rh9  1  0.250000  0.252705  0.644571  1
  Rh  Rh10  1  0.750000  0.287551  0.119778  1
  Rh  Rh11  1  0.250000  0.712449  0.880222  1
