# generated using pymatgen
data_TbNpGa8Fe9
_symmetry_space_group_name_H-M   'P 1'
_cell_length_a   6.55742002
_cell_length_b   6.55742065
_cell_length_c   6.55742087
_cell_angle_alpha   83.66273578
_cell_angle_beta   96.33725862
_cell_angle_gamma   96.33726770
_symmetry_Int_Tables_number   1
_chemical_formula_structural   TbNpGa8Fe9
_chemical_formula_sum   'Tb1 Np1 Ga8 Fe9'
_cell_volume   277.15243044
_cell_formula_units_Z   1
loop_
 _symmetry_equiv_pos_site_id
 _symmetry_equiv_pos_as_xyz
  1  'x, y, z'
loop_
 _atom_site_type_symbol
 _atom_site_label
 _atom_site_symmetry_multiplicity
 _atom_site_fract_x
 _atom_site_fract_y
 _atom_site_fract_z
 _atom_site_occupancy
  Tb  Tb0  1  0.359253  0.640749  0.640748  1
  Np  Np1  1  0.625231  0.374770  0.374770  1
  Ga  Ga2  1  0.318276  0.315314  0.998333  1
  Ga  Ga3  1  0.684686  0.681724  0.998333  1
  Ga  Ga4  1  0.865354  0.134647  0.134647  1
  Ga  Ga5  1  0.001667  0.681725  0.315313  1
  Ga  Ga6  1  0.318276  0.998333  0.315314  1
  Ga  Ga7  1  0.684686  0.998333  0.681724  1
  Ga  Ga8  1  0.001667  0.315313  0.681724  1
  Ga  Ga9  1  0.127672  0.872330  0.872329  1
  Fe  Fe10  1  0.500863  0.998940  0.998940  1
  Fe  Fe11  1  0.001060  0.499137  0.998940  1
  Fe  Fe12  1  0.340902  0.659099  0.164161  1
  Fe  Fe13  1  0.166689  0.337041  0.337041  1
  Fe  Fe14  1  0.662959  0.833310  0.337042  1
  Fe  Fe15  1  0.001060  0.998940  0.499137  1
  Fe  Fe16  1  0.835838  0.659099  0.659098  1
  Fe  Fe17  1  0.340902  0.164161  0.659099  1
  Fe  Fe18  1  0.662958  0.337041  0.833310  1
