# generated using pymatgen
data_TaNbVF12
_symmetry_space_group_name_H-M   'P 1'
_cell_length_a   5.35203147
_cell_length_b   5.70337649
_cell_length_c   9.39317987
_cell_angle_alpha   104.79887448
_cell_angle_beta   90.86987335
_cell_angle_gamma   119.16633623
_symmetry_Int_Tables_number   1
_chemical_formula_structural   TaNbVF12
_chemical_formula_sum   'Ta1 Nb1 V1 F12'
_cell_volume   238.72902306
_cell_formula_units_Z   1
loop_
 _symmetry_equiv_pos_site_id
 _symmetry_equiv_pos_as_xyz
  1  'x, y, z'
loop_
 _atom_site_type_symbol
 _atom_site_label
 _atom_site_symmetry_multiplicity
 _atom_site_fract_x
 _atom_site_fract_y
 _atom_site_fract_z
 _atom_site_occupancy
  Ta  Ta0  1  0.222231  0.494065  0.738480  1
  Nb  Nb1  1  0.778018  0.506833  0.262877  1
  V  V2  1  0.999826  0.000466  0.000252  1
  F  F3  1  0.817843  0.261123  0.703329  1
  F  F4  1  0.184055  0.739818  0.295999  1
  F  F5  1  0.180460  0.744813  0.918570  1
  F  F6  1  0.702840  0.721164  0.424851  1
  F  F7  1  0.296069  0.280264  0.577010  1
  F  F8  1  0.779619  0.264032  0.365413  1
  F  F9  1  0.221165  0.734217  0.635068  1
  F  F10  1  0.354841  0.259836  0.176210  1
  F  F11  1  0.642366  0.738388  0.822616  1
  F  F12  1  0.775915  0.731227  0.127955  1
  F  F13  1  0.224964  0.270586  0.870991  1
  F  F14  1  0.819788  0.253168  0.080379  1
