# generated using pymatgen
data_Tb6Y4Si5Pb
_symmetry_space_group_name_H-M   'P 1'
_cell_length_a   8.56629100
_cell_length_b   8.60163436
_cell_length_c   6.46003800
_cell_angle_alpha   90.00000000
_cell_angle_beta   90.00000000
_cell_angle_gamma   119.86416725
_symmetry_Int_Tables_number   1
_chemical_formula_structural   Tb6Y4Si5Pb
_chemical_formula_sum   'Tb6 Y4 Si5 Pb1'
_cell_volume   412.79299264
_cell_formula_units_Z   1
loop_
 _symmetry_equiv_pos_site_id
 _symmetry_equiv_pos_as_xyz
  1  'x, y, z'
loop_
 _atom_site_type_symbol
 _atom_site_label
 _atom_site_symmetry_multiplicity
 _atom_site_fract_x
 _atom_site_fract_y
 _atom_site_fract_z
 _atom_site_occupancy
  Tb  Tb0  1  0.998067  0.242726  0.250000  1
  Tb  Tb1  1  0.755341  0.757274  0.250000  1
  Tb  Tb2  1  0.331043  0.655896  0.496174  1
  Tb  Tb3  1  0.675149  0.344104  0.003826  1
  Tb  Tb4  1  0.675149  0.344104  0.496174  1
  Tb  Tb5  1  0.331043  0.655896  0.003826  1
  Y  Y6  1  0.987877  0.746781  0.750000  1
  Y  Y7  1  0.766574  0.000000  0.750000  1
  Y  Y8  1  0.241096  0.253219  0.750000  1
  Y  Y9  1  0.241023  0.000000  0.250000  1
  Si  Si10  1  0.393213  0.391276  0.250000  1
  Si  Si11  1  0.001936  0.608724  0.250000  1
  Si  Si12  1  0.998179  0.393978  0.750000  1
  Si  Si13  1  0.604201  0.606022  0.750000  1
  Si  Si14  1  0.605693  0.000000  0.250000  1
  Pb  Pb15  1  0.394415  0.000000  0.750000  1
