# generated using pymatgen
data_Yb10Ag2Ir3Pt
_symmetry_space_group_name_H-M   'P 1'
_cell_length_a   8.88453209
_cell_length_b   8.88452726
_cell_length_c   8.89124300
_cell_angle_alpha   129.04828593
_cell_angle_beta   129.04816098
_cell_angle_gamma   74.87691430
_symmetry_Int_Tables_number   1
_chemical_formula_structural   Yb10Ag2Ir3Pt
_chemical_formula_sum   'Yb10 Ag2 Ir3 Pt1'
_cell_volume   412.39836958
_cell_formula_units_Z   1
loop_
 _symmetry_equiv_pos_site_id
 _symmetry_equiv_pos_as_xyz
  1  'x, y, z'
loop_
 _atom_site_type_symbol
 _atom_site_label
 _atom_site_symmetry_multiplicity
 _atom_site_fract_x
 _atom_site_fract_y
 _atom_site_fract_z
 _atom_site_occupancy
  Yb  Yb0  1  0.502667  0.498105  0.000769  1
  Yb  Yb1  1  0.998105  0.002666  0.000769  1
  Yb  Yb2  1  0.535633  0.035632  0.833557  1
  Yb  Yb3  1  0.205374  0.705373  0.173911  1
  Yb  Yb4  1  0.033877  0.198323  0.495191  1
  Yb  Yb5  1  0.698321  0.533875  0.495190  1
  Yb  Yb6  1  0.468544  0.968544  0.173930  1
  Yb  Yb7  1  0.797929  0.297928  0.833559  1
  Yb  Yb8  1  0.961303  0.796857  0.495171  1
  Yb  Yb9  1  0.296856  0.461301  0.495170  1
  Ag  Ag10  1  0.249945  0.249933  0.999881  1
  Ag  Ag11  1  0.749929  0.749948  0.999880  1
  Ir  Ir12  1  0.871221  0.371222  0.242438  1
  Ir  Ir13  1  0.628528  0.871624  0.500150  1
  Ir  Ir14  1  0.371623  0.128523  0.500146  1
  Pt  Pt15  1  0.130142  0.630143  0.760286  1
