# generated using pymatgen
data_YEr4Tm11(InRh)4
_symmetry_space_group_name_H-M   'P 1'
_cell_length_a   9.54782966
_cell_length_b   9.54672723
_cell_length_c   9.54920807
_cell_angle_alpha   59.99902506
_cell_angle_beta   59.98649948
_cell_angle_gamma   59.97547247
_symmetry_Int_Tables_number   1
_chemical_formula_structural   YEr4Tm11(InRh)4
_chemical_formula_sum   'Y1 Er4 Tm11 In4 Rh4'
_cell_volume   615.29509670
_cell_formula_units_Z   1
loop_
 _symmetry_equiv_pos_site_id
 _symmetry_equiv_pos_as_xyz
  1  'x, y, z'
loop_
 _atom_site_type_symbol
 _atom_site_label
 _atom_site_symmetry_multiplicity
 _atom_site_fract_x
 _atom_site_fract_y
 _atom_site_fract_z
 _atom_site_occupancy
  Y  Y0  1  0.062134  0.062236  0.437819  1
  Er  Er1  1  0.438735  0.061682  0.438398  1
  Er  Er2  1  0.061671  0.438692  0.061287  1
  Er  Er3  1  0.049845  0.648862  0.650615  1
  Er  Er4  1  0.437784  0.437774  0.062228  1
  Tm  Tm5  1  0.648914  0.049625  0.650772  1
  Tm  Tm6  1  0.189311  0.811019  0.187930  1
  Tm  Tm7  1  0.188634  0.188532  0.811416  1
  Tm  Tm8  1  0.811181  0.811205  0.188802  1
  Tm  Tm9  1  0.438933  0.061455  0.060998  1
  Tm  Tm10  1  0.810987  0.189293  0.187997  1
  Tm  Tm11  1  0.061471  0.438878  0.438547  1
  Tm  Tm12  1  0.810960  0.189312  0.811701  1
  Tm  Tm13  1  0.189283  0.811055  0.811766  1
  Tm  Tm14  1  0.650058  0.650137  0.048329  1
  Tm  Tm15  1  0.650128  0.650067  0.651478  1
  In  In16  1  0.416636  0.416646  0.416512  1
  In  In17  1  0.749144  0.417600  0.416676  1
  In  In18  1  0.417680  0.749143  0.416533  1
  In  In19  1  0.416757  0.416516  0.750213  1
  Rh  Rh20  1  0.857288  0.857464  0.427120  1
  Rh  Rh21  1  0.857158  0.857584  0.858123  1
  Rh  Rh22  1  0.427639  0.857803  0.857348  1
  Rh  Rh23  1  0.857672  0.427423  0.857391  1
