# generated using pymatgen
data_Dy4Zr3Au10
_symmetry_space_group_name_H-M   'P 1'
_cell_length_a   8.66732500
_cell_length_b   8.66732386
_cell_length_c   10.15872400
_cell_angle_alpha   90.00000000
_cell_angle_beta   90.00000000
_cell_angle_gamma   107.71120687
_symmetry_Int_Tables_number   1
_chemical_formula_structural   Dy4Zr3Au10
_chemical_formula_sum   'Dy8 Zr6 Au20'
_cell_volume   726.97713932
_cell_formula_units_Z   2
loop_
 _symmetry_equiv_pos_site_id
 _symmetry_equiv_pos_as_xyz
  1  'x, y, z'
loop_
 _atom_site_type_symbol
 _atom_site_label
 _atom_site_symmetry_multiplicity
 _atom_site_fract_x
 _atom_site_fract_y
 _atom_site_fract_z
 _atom_site_occupancy
  Dy  Dy0  1  0.688776  0.311224  0.000000  1
  Dy  Dy1  1  0.188776  0.811224  0.500000  1
  Dy  Dy2  1  0.809444  0.809444  0.307172  1
  Dy  Dy3  1  0.309444  0.309444  0.192828  1
  Dy  Dy4  1  0.811224  0.188776  0.500000  1
  Dy  Dy5  1  0.311224  0.688776  0.000000  1
  Dy  Dy6  1  0.690556  0.690556  0.807172  1
  Dy  Dy7  1  0.190556  0.190556  0.692828  1
  Zr  Zr8  1  0.504746  0.004746  0.250000  1
  Zr  Zr9  1  0.995254  0.495254  0.750000  1
  Zr  Zr10  1  0.000000  0.000000  0.000000  1
  Zr  Zr11  1  0.004746  0.504746  0.250000  1
  Zr  Zr12  1  0.495254  0.995254  0.750000  1
  Zr  Zr13  1  0.500000  0.500000  0.500000  1
  Au  Au14  1  0.148306  0.442750  0.496920  1
  Au  Au15  1  0.897221  0.897221  0.600423  1
  Au  Au16  1  0.557250  0.851694  0.503080  1
  Au  Au17  1  0.858812  0.153761  0.203799  1
  Au  Au18  1  0.358812  0.653761  0.296201  1
  Au  Au19  1  0.653761  0.358812  0.296201  1
  Au  Au20  1  0.397221  0.397221  0.899577  1
  Au  Au21  1  0.942750  0.648306  0.003080  1
  Au  Au22  1  0.346239  0.641188  0.703799  1
  Au  Au23  1  0.351694  0.057250  0.996920  1
  Au  Au24  1  0.602779  0.602779  0.100423  1
  Au  Au25  1  0.648306  0.942750  0.003080  1
  Au  Au26  1  0.102779  0.102779  0.399577  1
  Au  Au27  1  0.641188  0.346239  0.703799  1
  Au  Au28  1  0.141188  0.846239  0.796201  1
  Au  Au29  1  0.057250  0.351694  0.996920  1
  Au  Au30  1  0.851694  0.557250  0.503080  1
  Au  Au31  1  0.153761  0.858812  0.203799  1
  Au  Au32  1  0.442750  0.148306  0.496920  1
  Au  Au33  1  0.846239  0.141188  0.796201  1
