# generated using pymatgen
data_CeScAs(PRu2)6
_symmetry_space_group_name_H-M   'P 1'
_cell_length_a   9.45669556
_cell_length_b   9.46825344
_cell_length_c   3.94649800
_cell_angle_alpha   90.00000000
_cell_angle_beta   90.00000000
_cell_angle_gamma   119.76575427
_symmetry_Int_Tables_number   1
_chemical_formula_structural   CeScAs(PRu2)6
_chemical_formula_sum   'Ce1 Sc1 As1 P6 Ru12'
_cell_volume   306.74118035
_cell_formula_units_Z   1
loop_
 _symmetry_equiv_pos_site_id
 _symmetry_equiv_pos_as_xyz
  1  'x, y, z'
loop_
 _atom_site_type_symbol
 _atom_site_label
 _atom_site_symmetry_multiplicity
 _atom_site_fract_x
 _atom_site_fract_y
 _atom_site_fract_z
 _atom_site_occupancy
  Ce  Ce0  1  0.327625  0.665030  0.000000  1
  Sc  Sc1  1  0.667268  0.332975  0.500000  1
  As  As2  1  0.598841  0.716585  0.500000  1
  P  P3  1  0.001357  0.998861  0.000000  1
  P  P4  1  0.283240  0.887254  0.500000  1
  P  P5  1  0.112914  0.394291  0.500000  1
  P  P6  1  0.885952  0.571371  0.000000  1
  P  P7  1  0.429632  0.313178  0.000000  1
  P  P8  1  0.686466  0.118775  0.000000  1
  Ru  Ru9  1  0.557742  0.958392  0.500000  1
  Ru  Ru10  1  0.388604  0.433019  0.500000  1
  Ru  Ru11  1  0.913158  0.121917  0.500000  1
  Ru  Ru12  1  0.203412  0.083672  0.500000  1
  Ru  Ru13  1  0.886503  0.795627  0.500000  1
  Ru  Ru14  1  0.731115  0.898628  0.000000  1
  Ru  Ru15  1  0.110602  0.834307  0.000000  1
  Ru  Ru16  1  0.162808  0.270878  0.000000  1
  Ru  Ru17  1  0.425522  0.073237  0.000000  1
  Ru  Ru18  1  0.928540  0.354626  0.000000  1
  Ru  Ru19  1  0.647548  0.571222  0.000000  1
  Ru  Ru20  1  0.051154  0.606151  0.500000  1
