# generated using pymatgen
data_TbDy2Th3Si4
_symmetry_space_group_name_H-M   'P 1'
_cell_length_a   7.63666605
_cell_length_b   7.63666611
_cell_length_c   4.24442600
_cell_angle_alpha   90.00000000
_cell_angle_beta   90.00000000
_cell_angle_gamma   90.58361843
_symmetry_Int_Tables_number   1
_chemical_formula_structural   TbDy2Th3Si4
_chemical_formula_sum   'Tb1 Dy2 Th3 Si4'
_cell_volume   247.51643324
_cell_formula_units_Z   1
loop_
 _symmetry_equiv_pos_site_id
 _symmetry_equiv_pos_as_xyz
  1  'x, y, z'
loop_
 _atom_site_type_symbol
 _atom_site_label
 _atom_site_symmetry_multiplicity
 _atom_site_fract_x
 _atom_site_fract_y
 _atom_site_fract_z
 _atom_site_occupancy
  Tb  Tb0  1  0.676283  0.176283  0.500000  1
  Dy  Dy1  1  0.500572  0.501393  0.000000  1
  Dy  Dy2  1  0.001393  0.000572  0.000000  1
  Th  Th3  1  0.322695  0.822695  0.500000  1
  Th  Th4  1  0.178212  0.320306  0.500000  1
  Th  Th5  1  0.820306  0.678212  0.500000  1
  Si  Si6  1  0.115677  0.615677  0.000000  1
  Si  Si7  1  0.880967  0.380967  0.000000  1
  Si  Si8  1  0.617483  0.886411  0.000000  1
  Si  Si9  1  0.386411  0.117483  0.000000  1
