# generated using pymatgen
data_Er2Ga9Tc2Ru3
_symmetry_space_group_name_H-M   'P 1'
_cell_length_a   7.97640574
_cell_length_b   7.97640523
_cell_length_c   7.97640507
_cell_angle_alpha   134.05709598
_cell_angle_beta   134.05708866
_cell_angle_gamma   66.99884878
_symmetry_Int_Tables_number   1
_chemical_formula_structural   Er2Ga9Tc2Ru3
_chemical_formula_sum   'Er2 Ga9 Tc2 Ru3'
_cell_volume   257.82613205
_cell_formula_units_Z   1
loop_
 _symmetry_equiv_pos_site_id
 _symmetry_equiv_pos_as_xyz
  1  'x, y, z'
loop_
 _atom_site_type_symbol
 _atom_site_label
 _atom_site_symmetry_multiplicity
 _atom_site_fract_x
 _atom_site_fract_y
 _atom_site_fract_z
 _atom_site_occupancy
  Er  Er0  1  0.000000  0.500000  0.500000  1
  Er  Er1  1  0.500000  0.000000  0.500000  1
  Ga  Ga2  1  0.436627  0.858114  0.000000  1
  Ga  Ga3  1  0.141886  0.141886  0.578513  1
  Ga  Ga4  1  0.858114  0.436627  0.000000  1
  Ga  Ga5  1  0.858114  0.858114  0.421487  1
  Ga  Ga6  1  0.563373  0.141886  0.000000  1
  Ga  Ga7  1  0.141886  0.563373  0.000000  1
  Ga  Ga8  1  0.563373  0.563373  0.421487  1
  Ga  Ga9  1  0.000000  0.000000  0.000000  1
  Ga  Ga10  1  0.436627  0.436627  0.578513  1
  Tc  Tc11  1  0.183556  0.183556  0.000000  1
  Tc  Tc12  1  0.816444  0.816444  0.000000  1
  Ru  Ru13  1  0.250000  0.750000  0.500000  1
  Ru  Ru14  1  0.750000  0.250000  0.500000  1
  Ru  Ru15  1  0.500000  0.500000  0.000000  1
