# generated using pymatgen
data_Nd2Bi2Ir2O11
_symmetry_space_group_name_H-M   'P 1'
_cell_length_a   6.62395115
_cell_length_b   7.65957249
_cell_length_c   9.83112926
_cell_angle_alpha   101.27670692
_cell_angle_beta   92.77970387
_cell_angle_gamma   89.99116139
_symmetry_Int_Tables_number   1
_chemical_formula_structural   Nd2Bi2Ir2O11
_chemical_formula_sum   'Nd4 Bi4 Ir4 O22'
_cell_volume   488.57099810
_cell_formula_units_Z   2
loop_
 _symmetry_equiv_pos_site_id
 _symmetry_equiv_pos_as_xyz
  1  'x, y, z'
loop_
 _atom_site_type_symbol
 _atom_site_label
 _atom_site_symmetry_multiplicity
 _atom_site_fract_x
 _atom_site_fract_y
 _atom_site_fract_z
 _atom_site_occupancy
  Nd  Nd0  1  0.746126  0.369314  0.483122  1
  Nd  Nd1  1  0.253874  0.630686  0.516878  1
  Nd  Nd2  1  0.753130  0.872000  0.482797  1
  Nd  Nd3  1  0.246870  0.128000  0.517203  1
  Bi  Bi4  1  0.489947  0.955147  0.820810  1
  Bi  Bi5  1  0.510053  0.044853  0.179190  1
  Bi  Bi6  1  0.400622  0.456730  0.826097  1
  Bi  Bi7  1  0.599378  0.543270  0.173903  1
  Ir  Ir8  1  0.942437  0.702049  0.808159  1
  Ir  Ir9  1  0.057563  0.297951  0.191841  1
  Ir  Ir10  1  0.941770  0.202301  0.809212  1
  Ir  Ir11  1  0.058230  0.797699  0.190788  1
  O  O12  1  0.238705  0.721457  0.768201  1
  O  O13  1  0.761295  0.278543  0.231799  1
  O  O14  1  0.647791  0.675641  0.824230  1
  O  O15  1  0.352209  0.324359  0.175770  1
  O  O16  1  0.647287  0.236858  0.825857  1
  O  O17  1  0.352713  0.763142  0.174143  1
  O  O18  1  0.901867  0.155527  0.602124  1
  O  O19  1  0.098133  0.844473  0.397876  1
  O  O20  1  0.237401  0.162122  0.768758  1
  O  O21  1  0.762599  0.837878  0.231242  1
  O  O22  1  0.906586  0.645632  0.602176  1
  O  O23  1  0.093414  0.354368  0.397824  1
  O  O24  1  0.967772  0.551381  0.204695  1
  O  O25  1  0.032228  0.448619  0.795305  1
  O  O26  1  0.999902  0.760963  0.999764  1
  O  O27  1  0.000098  0.239037  0.000236  1
  O  O28  1  0.568285  0.598624  0.393978  1
  O  O29  1  0.431715  0.401376  0.606022  1
  O  O30  1  0.153806  0.053128  0.212898  1
  O  O31  1  0.846194  0.946872  0.787102  1
  O  O32  1  0.546547  0.100246  0.399507  1
  O  O33  1  0.453453  0.899754  0.600493  1
