# generated using pymatgen
data_Hf18Re3Mo3(PW)2
_symmetry_space_group_name_H-M   'P 1'
_cell_length_a   8.64848800
_cell_length_b   8.64848773
_cell_length_c   8.58763400
_cell_angle_alpha   90.00000000
_cell_angle_beta   90.00000000
_cell_angle_gamma   120.00000103
_symmetry_Int_Tables_number   1
_chemical_formula_structural   Hf18Re3Mo3(PW)2
_chemical_formula_sum   'Hf18 Re3 Mo3 P2 W2'
_cell_volume   556.26856018
_cell_formula_units_Z   1
loop_
 _symmetry_equiv_pos_site_id
 _symmetry_equiv_pos_as_xyz
  1  'x, y, z'
loop_
 _atom_site_type_symbol
 _atom_site_label
 _atom_site_symmetry_multiplicity
 _atom_site_fract_x
 _atom_site_fract_y
 _atom_site_fract_z
 _atom_site_occupancy
  Hf  Hf0  1  0.196976  0.803024  0.453339  1
  Hf  Hf1  1  0.196976  0.393950  0.453339  1
  Hf  Hf2  1  0.606050  0.803024  0.453339  1
  Hf  Hf3  1  0.803713  0.196287  0.551697  1
  Hf  Hf4  1  0.803713  0.607428  0.551697  1
  Hf  Hf5  1  0.392572  0.196287  0.551697  1
  Hf  Hf6  1  0.803713  0.196287  0.948303  1
  Hf  Hf7  1  0.803713  0.607428  0.948303  1
  Hf  Hf8  1  0.392572  0.196287  0.948303  1
  Hf  Hf9  1  0.196976  0.803024  0.046661  1
  Hf  Hf10  1  0.196976  0.393950  0.046661  1
  Hf  Hf11  1  0.606050  0.803024  0.046661  1
  Hf  Hf12  1  0.538636  0.461364  0.250000  1
  Hf  Hf13  1  0.538636  0.077271  0.250000  1
  Hf  Hf14  1  0.922729  0.461364  0.250000  1
  Hf  Hf15  1  0.459848  0.540152  0.750000  1
  Hf  Hf16  1  0.459848  0.919697  0.750000  1
  Hf  Hf17  1  0.080303  0.540152  0.750000  1
  Re  Re18  1  0.110770  0.889230  0.750000  1
  Re  Re19  1  0.110770  0.221542  0.750000  1
  Re  Re20  1  0.778458  0.889230  0.750000  1
  Mo  Mo21  1  0.889224  0.110776  0.250000  1
  Mo  Mo22  1  0.889224  0.778447  0.250000  1
  Mo  Mo23  1  0.221553  0.110776  0.250000  1
  P  P24  1  0.333333  0.666667  0.250000  1
  P  P25  1  0.666667  0.333333  0.750000  1
  W  W26  1  0.000000  0.000000  0.500402  1
  W  W27  1  0.000000  0.000000  0.999598  1
