# generated using pymatgen
data_CaSbRuF12
_symmetry_space_group_name_H-M   'P 1'
_cell_length_a   11.63849359
_cell_length_b   5.87114314
_cell_length_c   5.87980246
_cell_angle_alpha   57.33046173
_cell_angle_beta   56.76449649
_cell_angle_gamma   56.89894392
_symmetry_Int_Tables_number   1
_chemical_formula_structural   CaSbRuF12
_chemical_formula_sum   'Ca1 Sb1 Ru1 F12'
_cell_volume   264.41642507
_cell_formula_units_Z   1
loop_
 _symmetry_equiv_pos_site_id
 _symmetry_equiv_pos_as_xyz
  1  'x, y, z'
loop_
 _atom_site_type_symbol
 _atom_site_label
 _atom_site_symmetry_multiplicity
 _atom_site_fract_x
 _atom_site_fract_y
 _atom_site_fract_z
 _atom_site_occupancy
  Ca  Ca0  1  0.751359  0.498154  0.500113  1
  Sb  Sb1  1  0.488519  0.014927  0.001144  1
  Ru  Ru2  1  0.007119  0.989114  0.000473  1
  F  F3  1  0.162406  0.120988  0.777713  1
  F  F4  1  0.664711  0.122643  0.777301  1
  F  F5  1  0.058553  0.779633  0.326147  1
  F  F6  1  0.567983  0.777727  0.311907  1
  F  F7  1  0.111143  0.671760  0.881743  1
  F  F8  1  0.617038  0.679838  0.870420  1
  F  F9  1  0.444655  0.221618  0.659915  1
  F  F10  1  0.934353  0.221511  0.681626  1
  F  F11  1  0.333960  0.870741  0.232341  1
  F  F12  1  0.834938  0.871673  0.227515  1
  F  F13  1  0.388939  0.337239  0.120414  1
  F  F14  1  0.884325  0.322431  0.131227  1
