# generated using pymatgen
data_Sc22FeCoRu6
_symmetry_space_group_name_H-M   'P 1'
_cell_length_a   9.43471177
_cell_length_b   9.43471200
_cell_length_c   9.43471100
_cell_angle_alpha   59.99999999
_cell_angle_beta   59.99999918
_cell_angle_gamma   59.99999824
_symmetry_Int_Tables_number   1
_chemical_formula_structural   Sc22FeCoRu6
_chemical_formula_sum   'Sc22 Fe1 Co1 Ru6'
_cell_volume   593.84195813
_cell_formula_units_Z   1
loop_
 _symmetry_equiv_pos_site_id
 _symmetry_equiv_pos_as_xyz
  1  'x, y, z'
loop_
 _atom_site_type_symbol
 _atom_site_label
 _atom_site_symmetry_multiplicity
 _atom_site_fract_x
 _atom_site_fract_y
 _atom_site_fract_z
 _atom_site_occupancy
  Sc  Sc0  1  0.807219  0.807219  0.192781  1
  Sc  Sc1  1  0.192781  0.807219  0.192781  1
  Sc  Sc2  1  0.807219  0.192781  0.192781  1
  Sc  Sc3  1  0.192781  0.192781  0.807219  1
  Sc  Sc4  1  0.807219  0.192781  0.807219  1
  Sc  Sc5  1  0.192781  0.807219  0.807219  1
  Sc  Sc6  1  0.615243  0.615243  0.154270  1
  Sc  Sc7  1  0.615243  0.154270  0.615243  1
  Sc  Sc8  1  0.154270  0.615243  0.615243  1
  Sc  Sc9  1  0.615243  0.615243  0.615243  1
  Sc  Sc10  1  0.384757  0.384757  0.845730  1
  Sc  Sc11  1  0.384757  0.845730  0.384757  1
  Sc  Sc12  1  0.845730  0.384757  0.384757  1
  Sc  Sc13  1  0.384757  0.384757  0.384757  1
  Sc  Sc14  1  0.842595  0.842595  0.472216  1
  Sc  Sc15  1  0.842595  0.472216  0.842595  1
  Sc  Sc16  1  0.472216  0.842595  0.842595  1
  Sc  Sc17  1  0.842595  0.842595  0.842595  1
  Sc  Sc18  1  0.157405  0.157405  0.527784  1
  Sc  Sc19  1  0.157405  0.527784  0.157405  1
  Sc  Sc20  1  0.527784  0.157405  0.157405  1
  Sc  Sc21  1  0.157405  0.157405  0.157405  1
  Fe  Fe22  1  0.000000  0.000000  0.000000  1
  Co  Co23  1  0.500000  0.500000  0.500000  1
  Ru  Ru24  1  0.000000  0.000000  0.500000  1
  Ru  Ru25  1  0.500000  0.000000  0.500000  1
  Ru  Ru26  1  0.000000  0.500000  0.500000  1
  Ru  Ru27  1  0.500000  0.500000  0.000000  1
  Ru  Ru28  1  0.000000  0.500000  0.000000  1
  Ru  Ru29  1  0.500000  0.000000  0.000000  1
