# generated using pymatgen
data_DyEr7Os3WC8
_symmetry_space_group_name_H-M   'P 1'
_cell_length_a   5.06926900
_cell_length_b   6.51194291
_cell_length_c   9.75844545
_cell_angle_alpha   89.60439090
_cell_angle_beta   90.00000000
_cell_angle_gamma   90.00000000
_symmetry_Int_Tables_number   1
_chemical_formula_structural   DyEr7Os3WC8
_chemical_formula_sum   'Dy1 Er7 Os3 W1 C8'
_cell_volume   322.12631755
_cell_formula_units_Z   1
loop_
 _symmetry_equiv_pos_site_id
 _symmetry_equiv_pos_as_xyz
  1  'x, y, z'
loop_
 _atom_site_type_symbol
 _atom_site_label
 _atom_site_symmetry_multiplicity
 _atom_site_fract_x
 _atom_site_fract_y
 _atom_site_fract_z
 _atom_site_occupancy
  Dy  Dy0  1  0.750000  0.970632  0.716132  1
  Er  Er1  1  0.250000  0.678447  0.554589  1
  Er  Er2  1  0.750000  0.322429  0.443984  1
  Er  Er3  1  0.750000  0.824149  0.056158  1
  Er  Er4  1  0.250000  0.180848  0.943958  1
  Er  Er5  1  0.250000  0.531455  0.214532  1
  Er  Er6  1  0.750000  0.467201  0.780073  1
  Er  Er7  1  0.250000  0.029425  0.284559  1
  Os  Os8  1  0.750000  0.279371  0.135050  1
  Os  Os9  1  0.750000  0.777529  0.364557  1
  Os  Os10  1  0.250000  0.223879  0.631539  1
  W  W11  1  0.250000  0.720736  0.868662  1
  C  C12  1  0.250000  0.453199  0.759601  1
  C  C13  1  0.750000  0.542839  0.242048  1
  C  C14  1  0.750000  0.043857  0.259261  1
  C  C15  1  0.250000  0.958132  0.740031  1
  C  C16  1  0.250000  0.825391  0.058768  1
  C  C17  1  0.750000  0.174604  0.949235  1
  C  C18  1  0.750000  0.671116  0.551610  1
  C  C19  1  0.250000  0.324761  0.445653  1
