# generated using pymatgen
data_Ca2Bi2O6F
_symmetry_space_group_name_H-M   'P 1'
_cell_length_a   7.79809270
_cell_length_b   7.79809287
_cell_length_c   7.79809200
_cell_angle_alpha   59.99999521
_cell_angle_beta   59.99999447
_cell_angle_gamma   59.99999950
_symmetry_Int_Tables_number   1
_chemical_formula_structural   Ca2Bi2O6F
_chemical_formula_sum   'Ca4 Bi4 O12 F2'
_cell_volume   335.31278875
_cell_formula_units_Z   2
loop_
 _symmetry_equiv_pos_site_id
 _symmetry_equiv_pos_as_xyz
  1  'x, y, z'
loop_
 _atom_site_type_symbol
 _atom_site_label
 _atom_site_symmetry_multiplicity
 _atom_site_fract_x
 _atom_site_fract_y
 _atom_site_fract_z
 _atom_site_occupancy
  Ca  Ca0  1  0.125000  0.125000  0.625000  1
  Ca  Ca1  1  0.125000  0.625000  0.125000  1
  Ca  Ca2  1  0.625000  0.125000  0.125000  1
  Ca  Ca3  1  0.125000  0.125000  0.125000  1
  Bi  Bi4  1  0.625000  0.625000  0.125000  1
  Bi  Bi5  1  0.625000  0.125000  0.625000  1
  Bi  Bi6  1  0.125000  0.625000  0.625000  1
  Bi  Bi7  1  0.625000  0.625000  0.625000  1
  O  O8  1  0.285792  0.285792  0.714208  1
  O  O9  1  0.714208  0.714208  0.285792  1
  O  O10  1  0.964208  0.535792  0.535792  1
  O  O11  1  0.714208  0.285792  0.285792  1
  O  O12  1  0.535792  0.964208  0.535792  1
  O  O13  1  0.535792  0.535792  0.964208  1
  O  O14  1  0.285792  0.714208  0.714208  1
  O  O15  1  0.964208  0.535792  0.964208  1
  O  O16  1  0.535792  0.964208  0.964208  1
  O  O17  1  0.714208  0.285792  0.714208  1
  O  O18  1  0.285792  0.714208  0.285792  1
  O  O19  1  0.964208  0.964208  0.535792  1
  F  F20  1  0.250000  0.250000  0.250000  1
  F  F21  1  0.000000  0.000000  0.000000  1
