# generated using pymatgen
data_Ho2Er2Si4IrRu3
_symmetry_space_group_name_H-M   'P 1'
_cell_length_a   4.29372800
_cell_length_b   6.93468624
_cell_length_c   7.16921708
_cell_angle_alpha   89.77356747
_cell_angle_beta   90.00000000
_cell_angle_gamma   90.00000000
_symmetry_Int_Tables_number   1
_chemical_formula_structural   Ho2Er2Si4IrRu3
_chemical_formula_sum   'Ho2 Er2 Si4 Ir1 Ru3'
_cell_volume   213.46647802
_cell_formula_units_Z   1
loop_
 _symmetry_equiv_pos_site_id
 _symmetry_equiv_pos_as_xyz
  1  'x, y, z'
loop_
 _atom_site_type_symbol
 _atom_site_label
 _atom_site_symmetry_multiplicity
 _atom_site_fract_x
 _atom_site_fract_y
 _atom_site_fract_z
 _atom_site_occupancy
  Ho  Ho0  1  0.250000  0.988385  0.814936  1
  Ho  Ho1  1  0.250000  0.489527  0.686692  1
  Er  Er2  1  0.750000  0.013869  0.186985  1
  Er  Er3  1  0.750000  0.508762  0.311922  1
  Si  Si4  1  0.250000  0.302953  0.107338  1
  Si  Si5  1  0.750000  0.698471  0.895054  1
  Si  Si6  1  0.250000  0.801895  0.388502  1
  Si  Si7  1  0.750000  0.198191  0.608026  1
  Ir  Ir8  1  0.750000  0.843890  0.566028  1
  Ru  Ru9  1  0.250000  0.152753  0.434649  1
  Ru  Ru10  1  0.750000  0.346338  0.934023  1
  Ru  Ru11  1  0.250000  0.654968  0.065844  1
