# generated using pymatgen
data_Ca14GaBi11
_symmetry_space_group_name_H-M   'P 1'
_cell_length_a   16.60538127
_cell_length_b   16.60538090
_cell_length_c   16.60538100
_cell_angle_alpha   117.56788670
_cell_angle_beta   117.56788604
_cell_angle_gamma   94.26683545
_symmetry_Int_Tables_number   1
_chemical_formula_structural   Ca14GaBi11
_chemical_formula_sum   'Ca56 Ga4 Bi44'
_cell_volume   3346.64356403
_cell_formula_units_Z   4
loop_
 _symmetry_equiv_pos_site_id
 _symmetry_equiv_pos_as_xyz
  1  'x, y, z'
loop_
 _atom_site_type_symbol
 _atom_site_label
 _atom_site_symmetry_multiplicity
 _atom_site_fract_x
 _atom_site_fract_y
 _atom_site_fract_z
 _atom_site_occupancy
  Ca  Ca0  1  0.306491  0.646074  0.018234  1
  Ca  Ca1  1  0.400442  0.004040  0.649388  1
  Ca  Ca2  1  0.396074  0.877840  0.839583  1
  Ca  Ca3  1  0.161512  0.378565  0.133468  1
  Ca  Ca4  1  0.038257  0.556491  0.160417  1
  Ca  Ca5  1  0.254040  0.150442  0.149388  1
  Ca  Ca6  1  0.995960  0.645348  0.396402  1
  Ca  Ca7  1  0.211743  0.872160  0.018234  1
  Ca  Ca8  1  0.478173  0.875000  0.103174  1
  Ca  Ca9  1  0.849558  0.998946  0.103598  1
  Ca  Ca10  1  0.625000  0.521827  0.396827  1
  Ca  Ca11  1  0.349558  0.245960  0.850612  1
  Ca  Ca12  1  0.853926  0.193509  0.981766  1
  Ca  Ca13  1  0.745097  0.878565  0.217053  1
  Ca  Ca14  1  0.771826  0.375000  0.896826  1
  Ca  Ca15  1  0.121435  0.338488  0.866532  1
  Ca  Ca16  1  0.943509  0.461743  0.839583  1
  Ca  Ca17  1  0.754040  0.604652  0.103598  1
  Ca  Ca18  1  0.711743  0.693509  0.339583  1
  Ca  Ca19  1  0.495960  0.099558  0.350612  1
  Ca  Ca20  1  0.900442  0.251054  0.396402  1
  Ca  Ca21  1  0.354652  0.751054  0.350612  1
  Ca  Ca22  1  0.353926  0.372160  0.660417  1
  Ca  Ca23  1  0.504903  0.221955  0.633468  1
  Ca  Ca24  1  0.245097  0.028045  0.866532  1
  Ca  Ca25  1  0.622160  0.103926  0.160417  1
  Ca  Ca26  1  0.854652  0.504040  0.603598  1
  Ca  Ca27  1  0.895348  0.745960  0.896402  1
  Ca  Ca28  1  0.896074  0.056491  0.518234  1
  Ca  Ca29  1  0.122160  0.961743  0.518234  1
  Ca  Ca30  1  0.628565  0.911512  0.633468  1
  Ca  Ca31  1  0.088488  0.721955  0.717053  1
  Ca  Ca32  1  0.127840  0.146074  0.339583  1
  Ca  Ca33  1  0.271827  0.375000  0.396826  1
  Ca  Ca34  1  0.538257  0.377840  0.481766  1
  Ca  Ca35  1  0.625000  0.021826  0.896826  1
  Ca  Ca36  1  0.748946  0.145348  0.649388  1
  Ca  Ca37  1  0.004903  0.371435  0.282947  1
  Ca  Ca38  1  0.128565  0.495097  0.717053  1
  Ca  Ca39  1  0.501054  0.650442  0.896402  1
  Ca  Ca40  1  0.971955  0.838488  0.217053  1
  Ca  Ca41  1  0.588488  0.871435  0.366532  1
  Ca  Ca42  1  0.125000  0.228174  0.603174  1
  Ca  Ca43  1  0.248946  0.599558  0.603598  1
  Ca  Ca44  1  0.778045  0.411512  0.282947  1
  Ca  Ca45  1  0.621435  0.754903  0.782947  1
  Ca  Ca46  1  0.443509  0.603926  0.481766  1
  Ca  Ca47  1  0.125000  0.728174  0.103174  1
  Ca  Ca48  1  0.627840  0.288257  0.981766  1
  Ca  Ca49  1  0.978174  0.875000  0.603174  1
  Ca  Ca50  1  0.395348  0.498946  0.149388  1
  Ca  Ca51  1  0.278045  0.995097  0.366532  1
  Ca  Ca52  1  0.661512  0.528045  0.782947  1
  Ca  Ca53  1  0.001054  0.104652  0.850612  1
  Ca  Ca54  1  0.806491  0.788257  0.660417  1
  Ca  Ca55  1  0.471955  0.254903  0.133468  1
  Ga  Ga56  1  0.000000  0.000000  0.000000  1
  Ga  Ga57  1  0.500000  0.500000  0.000000  1
  Ga  Ga58  1  0.250000  0.750000  0.500000  1
  Ga  Ga59  1  0.750000  0.250000  0.500000  1
  Bi  Bi60  1  0.293011  0.429322  0.850942  1
  Bi  Bi61  1  0.362793  0.862793  0.225588  1
  Bi  Bi62  1  0.793011  0.942069  0.863689  1
  Bi  Bi63  1  0.171619  0.807931  0.350942  1
  Bi  Bi64  1  0.958114  0.050157  0.353071  1
  Bi  Bi65  1  0.179322  0.828381  0.636311  1
  Bi  Bi66  1  0.112793  0.112793  0.725588  1
  Bi  Bi67  1  0.791886  0.199843  0.146929  1
  Bi  Bi68  1  0.355044  0.208114  0.407957  1
  Bi  Bi69  1  0.250000  0.250000  0.000000  1
  Bi  Bi70  1  0.800157  0.947085  0.592043  1
  Bi  Bi71  1  0.456989  0.820678  0.649058  1
  Bi  Bi72  1  0.057931  0.921619  0.850942  1
  Bi  Bi73  1  0.862793  0.637207  0.500000  1
  Bi  Bi74  1  0.552915  0.699843  0.407957  1
  Bi  Bi75  1  0.679322  0.043011  0.350942  1
  Bi  Bi76  1  0.070678  0.206989  0.149058  1
  Bi  Bi77  1  0.137207  0.362793  0.500000  1
  Bi  Bi78  1  0.192069  0.543011  0.363689  1
  Bi  Bi79  1  0.387207  0.387207  0.274412  1
  Bi  Bi80  1  0.500000  0.000000  0.500000  1
  Bi  Bi81  1  0.078381  0.929322  0.136311  1
  Bi  Bi82  1  0.570678  0.421619  0.863689  1
  Bi  Bi83  1  0.449843  0.541886  0.646929  1
  Bi  Bi84  1  0.671619  0.320678  0.363689  1
  Bi  Bi85  1  0.458114  0.105044  0.907957  1
  Bi  Bi86  1  0.394956  0.041886  0.092043  1
  Bi  Bi87  1  0.894956  0.802915  0.353071  1
  Bi  Bi88  1  0.697085  0.605044  0.646929  1
  Bi  Bi89  1  0.692069  0.328381  0.649058  1
  Bi  Bi90  1  0.750000  0.750000  0.000000  1
  Bi  Bi91  1  0.197085  0.550157  0.092043  1
  Bi  Bi92  1  0.956989  0.307931  0.636311  1
  Bi  Bi93  1  0.855044  0.447085  0.146929  1
  Bi  Bi94  1  0.887207  0.612793  0.000000  1
  Bi  Bi95  1  0.300157  0.708114  0.853071  1
  Bi  Bi96  1  0.000000  0.500000  0.500000  1
  Bi  Bi97  1  0.291886  0.144956  0.592043  1
  Bi  Bi98  1  0.637207  0.137207  0.774412  1
  Bi  Bi99  1  0.557931  0.706989  0.136311  1
  Bi  Bi100  1  0.578381  0.442069  0.149058  1
  Bi  Bi101  1  0.052915  0.644956  0.853071  1
  Bi  Bi102  1  0.949843  0.302915  0.907957  1
  Bi  Bi103  1  0.612793  0.887207  0.000000  1
