# generated using pymatgen
data_Hf2Sc2Si6Rh7
_symmetry_space_group_name_H-M   'P 1'
_cell_length_a   6.97952838
_cell_length_b   6.96204412
_cell_length_c   6.96204379
_cell_angle_alpha   109.34188436
_cell_angle_beta   109.48500399
_cell_angle_gamma   109.48500879
_symmetry_Int_Tables_number   1
_chemical_formula_structural   Hf2Sc2Si6Rh7
_chemical_formula_sum   'Hf2 Sc2 Si6 Rh7'
_cell_volume   260.74817107
_cell_formula_units_Z   1
loop_
 _symmetry_equiv_pos_site_id
 _symmetry_equiv_pos_as_xyz
  1  'x, y, z'
loop_
 _atom_site_type_symbol
 _atom_site_label
 _atom_site_symmetry_multiplicity
 _atom_site_fract_x
 _atom_site_fract_y
 _atom_site_fract_z
 _atom_site_occupancy
  Hf  Hf0  1  0.000000  0.000000  0.500000  1
  Hf  Hf1  1  0.000000  0.500000  0.000000  1
  Sc  Sc2  1  0.500000  0.000000  0.000000  1
  Sc  Sc3  1  0.500000  0.500000  0.500000  1
  Si  Si4  1  0.678570  0.681408  0.997162  1
  Si  Si5  1  0.321430  0.002838  0.318592  1
  Si  Si6  1  0.000000  0.318767  0.318767  1
  Si  Si7  1  0.321430  0.318592  0.002838  1
  Si  Si8  1  0.678570  0.997162  0.681408  1
  Si  Si9  1  0.000000  0.681233  0.681233  1
  Rh  Rh10  1  0.751366  0.249810  0.501556  1
  Rh  Rh11  1  0.751366  0.501556  0.249810  1
  Rh  Rh12  1  0.500000  0.250000  0.750000  1
  Rh  Rh13  1  0.248634  0.498444  0.750190  1
  Rh  Rh14  1  0.248634  0.750190  0.498444  1
  Rh  Rh15  1  0.500000  0.750000  0.250000  1
  Rh  Rh16  1  0.000000  0.000000  0.000000  1
