# generated using pymatgen
data_Na2(P2Pd7)3
_symmetry_space_group_name_H-M   'P 1'
_cell_length_a   8.60511732
_cell_length_b   8.60511695
_cell_length_c   8.60511800
_cell_angle_alpha   59.99999597
_cell_angle_beta   59.99999737
_cell_angle_gamma   59.99999241
_symmetry_Int_Tables_number   1
_chemical_formula_structural   Na2(P2Pd7)3
_chemical_formula_sum   'Na2 P6 Pd21'
_cell_volume   450.56282718
_cell_formula_units_Z   1
loop_
 _symmetry_equiv_pos_site_id
 _symmetry_equiv_pos_as_xyz
  1  'x, y, z'
loop_
 _atom_site_type_symbol
 _atom_site_label
 _atom_site_symmetry_multiplicity
 _atom_site_fract_x
 _atom_site_fract_y
 _atom_site_fract_z
 _atom_site_occupancy
  Na  Na0  1  0.750000  0.750000  0.750000  1
  Na  Na1  1  0.250000  0.250000  0.250000  1
  P  P2  1  0.735364  0.735364  0.264636  1
  P  P3  1  0.264636  0.735364  0.264636  1
  P  P4  1  0.735364  0.264636  0.264636  1
  P  P5  1  0.264636  0.264636  0.735364  1
  P  P6  1  0.735364  0.264636  0.735364  1
  P  P7  1  0.264636  0.735364  0.735364  1
  Pd  Pd8  1  0.000000  0.000000  0.000000  1
  Pd  Pd9  1  0.615033  0.615033  0.154902  1
  Pd  Pd10  1  0.615033  0.154902  0.615033  1
  Pd  Pd11  1  0.154902  0.615033  0.615033  1
  Pd  Pd12  1  0.615033  0.615033  0.615033  1
  Pd  Pd13  1  0.384967  0.384967  0.845098  1
  Pd  Pd14  1  0.384967  0.845098  0.384967  1
  Pd  Pd15  1  0.845098  0.384967  0.384967  1
  Pd  Pd16  1  0.384967  0.384967  0.384967  1
  Pd  Pd17  1  0.000000  0.000000  0.342236  1
  Pd  Pd18  1  0.657764  0.000000  0.342236  1
  Pd  Pd19  1  0.000000  0.657764  0.342236  1
  Pd  Pd20  1  0.657764  0.342236  0.000000  1
  Pd  Pd21  1  0.000000  0.342236  0.000000  1
  Pd  Pd22  1  0.000000  0.342236  0.657764  1
  Pd  Pd23  1  0.342236  0.657764  0.000000  1
  Pd  Pd24  1  0.342236  0.000000  0.657764  1
  Pd  Pd25  1  0.342236  0.000000  0.000000  1
  Pd  Pd26  1  0.000000  0.000000  0.657764  1
  Pd  Pd27  1  0.000000  0.657764  0.000000  1
  Pd  Pd28  1  0.657764  0.000000  0.000000  1
