# generated using pymatgen
data_Nd2Sn2Ru2C
_symmetry_space_group_name_H-M   'P 1'
_cell_length_a   6.27612486
_cell_length_b   6.27612525
_cell_length_c   7.46507600
_cell_angle_alpha   127.04604113
_cell_angle_beta   127.04603238
_cell_angle_gamma   40.03653860
_symmetry_Int_Tables_number   1
_chemical_formula_structural   Nd2Sn2Ru2C
_chemical_formula_sum   'Nd2 Sn2 Ru2 C1'
_cell_volume   145.15231160
_cell_formula_units_Z   1
loop_
 _symmetry_equiv_pos_site_id
 _symmetry_equiv_pos_as_xyz
  1  'x, y, z'
loop_
 _atom_site_type_symbol
 _atom_site_label
 _atom_site_symmetry_multiplicity
 _atom_site_fract_x
 _atom_site_fract_y
 _atom_site_fract_z
 _atom_site_occupancy
  Nd  Nd0  1  0.447120  0.447120  0.171928  1
  Nd  Nd1  1  0.552880  0.552880  0.828073  1
  Sn  Sn2  1  0.838964  0.838964  0.373414  1
  Sn  Sn3  1  0.161035  0.161035  0.626586  1
  Ru  Ru4  1  0.186942  0.186942  0.295590  1
  Ru  Ru5  1  0.813057  0.813057  0.704409  1
  C  C6  1  0.000000  0.000000  0.000000  1
