# generated using pymatgen
data_Cs3RbPbI6
_symmetry_space_group_name_H-M   'P 1'
_cell_length_a   10.55096046
_cell_length_b   10.55096108
_cell_length_c   10.55096059
_cell_angle_alpha   90.62335798
_cell_angle_beta   90.62335965
_cell_angle_gamma   90.62335789
_symmetry_Int_Tables_number   1
_chemical_formula_structural   Cs3RbPbI6
_chemical_formula_sum   'Cs6 Rb2 Pb2 I12'
_cell_volume   1174.35212502
_cell_formula_units_Z   2
loop_
 _symmetry_equiv_pos_site_id
 _symmetry_equiv_pos_as_xyz
  1  'x, y, z'
loop_
 _atom_site_type_symbol
 _atom_site_label
 _atom_site_symmetry_multiplicity
 _atom_site_fract_x
 _atom_site_fract_y
 _atom_site_fract_z
 _atom_site_occupancy
  Cs  Cs0  1  0.250000  0.627523  0.872477  1
  Cs  Cs1  1  0.872477  0.250000  0.627523  1
  Cs  Cs2  1  0.627523  0.872477  0.250000  1
  Cs  Cs3  1  0.750000  0.372477  0.127523  1
  Cs  Cs4  1  0.127523  0.750000  0.372477  1
  Cs  Cs5  1  0.372477  0.127523  0.750000  1
  Rb  Rb6  1  0.250000  0.250000  0.250000  1
  Rb  Rb7  1  0.750000  0.750000  0.750000  1
  Pb  Pb8  1  0.000000  0.000000  0.000000  1
  Pb  Pb9  1  0.500000  0.500000  0.500000  1
  I  I10  1  0.554717  0.205147  0.423819  1
  I  I11  1  0.423819  0.554717  0.205147  1
  I  I12  1  0.205147  0.423819  0.554717  1
  I  I13  1  0.945283  0.076181  0.294853  1
  I  I14  1  0.294853  0.945283  0.076181  1
  I  I15  1  0.076181  0.294853  0.945283  1
  I  I16  1  0.445283  0.794853  0.576181  1
  I  I17  1  0.576181  0.445283  0.794853  1
  I  I18  1  0.794853  0.576181  0.445283  1
  I  I19  1  0.054717  0.923819  0.705147  1
  I  I20  1  0.923819  0.705147  0.054717  1
  I  I21  1  0.705147  0.054717  0.923819  1
