# generated using pymatgen
data_NaLa5(PaH12)2
_symmetry_space_group_name_H-M   'P 1'
_cell_length_a   6.91885800
_cell_length_b   6.96997100
_cell_length_c   6.96997100
_cell_angle_alpha   90.00000000
_cell_angle_beta   90.00000000
_cell_angle_gamma   90.00000000
_symmetry_Int_Tables_number   1
_chemical_formula_structural   NaLa5(PaH12)2
_chemical_formula_sum   'Na1 La5 Pa2 H24'
_cell_volume   336.12155160
_cell_formula_units_Z   1
loop_
 _symmetry_equiv_pos_site_id
 _symmetry_equiv_pos_as_xyz
  1  'x, y, z'
loop_
 _atom_site_type_symbol
 _atom_site_label
 _atom_site_symmetry_multiplicity
 _atom_site_fract_x
 _atom_site_fract_y
 _atom_site_fract_z
 _atom_site_occupancy
  Na  Na0  1  0.250000  0.000000  0.500000  1
  La  La1  1  0.750000  0.000000  0.500000  1
  La  La2  1  0.002143  0.500000  0.253162  1
  La  La3  1  0.002143  0.500000  0.746838  1
  La  La4  1  0.497857  0.753162  0.000000  1
  La  La5  1  0.497857  0.246838  0.000000  1
  Pa  Pa6  1  0.000374  0.000000  0.000000  1
  Pa  Pa7  1  0.499626  0.500000  0.500000  1
  H  H8  1  0.987064  0.151854  0.279665  1
  H  H9  1  0.512936  0.220335  0.651854  1
  H  H10  1  0.512936  0.779665  0.348146  1
  H  H11  1  0.792323  0.649119  0.500000  1
  H  H12  1  0.208726  0.646332  0.500000  1
  H  H13  1  0.349746  0.500000  0.790695  1
  H  H14  1  0.648857  0.500000  0.790655  1
  H  H15  1  0.291274  0.000000  0.146332  1
  H  H16  1  0.150254  0.290695  0.000000  1
  H  H17  1  0.851143  0.709345  0.000000  1
  H  H18  1  0.291274  0.000000  0.853668  1
  H  H19  1  0.851143  0.290655  0.000000  1
  H  H20  1  0.707677  0.000000  0.149119  1
  H  H21  1  0.707677  0.000000  0.850881  1
  H  H22  1  0.150254  0.709305  0.000000  1
  H  H23  1  0.987064  0.848146  0.720335  1
  H  H24  1  0.987064  0.151854  0.720335  1
  H  H25  1  0.987064  0.848146  0.279665  1
  H  H26  1  0.648857  0.500000  0.209345  1
  H  H27  1  0.349746  0.500000  0.209305  1
  H  H28  1  0.792323  0.350881  0.500000  1
  H  H29  1  0.208726  0.353668  0.500000  1
  H  H30  1  0.512936  0.779665  0.651854  1
  H  H31  1  0.512936  0.220335  0.348146  1
