# generated using pymatgen
data_Dy12Si12IrPt3
_symmetry_space_group_name_H-M   'P 1'
_cell_length_a   4.25755400
_cell_length_b   10.65483893
_cell_length_c   12.35451207
_cell_angle_alpha   90.04778100
_cell_angle_beta   90.00000000
_cell_angle_gamma   90.00000000
_symmetry_Int_Tables_number   1
_chemical_formula_structural   Dy12Si12IrPt3
_chemical_formula_sum   'Dy12 Si12 Ir1 Pt3'
_cell_volume   560.44435713
_cell_formula_units_Z   1
loop_
 _symmetry_equiv_pos_site_id
 _symmetry_equiv_pos_as_xyz
  1  'x, y, z'
loop_
 _atom_site_type_symbol
 _atom_site_label
 _atom_site_symmetry_multiplicity
 _atom_site_fract_x
 _atom_site_fract_y
 _atom_site_fract_z
 _atom_site_occupancy
  Dy  Dy0  1  0.250000  0.878762  0.020421  1
  Dy  Dy1  1  0.250000  0.619240  0.521894  1
  Dy  Dy2  1  0.750000  0.120831  0.978501  1
  Dy  Dy3  1  0.750000  0.379407  0.479745  1
  Dy  Dy4  1  0.250000  0.918701  0.602907  1
  Dy  Dy5  1  0.250000  0.580807  0.102342  1
  Dy  Dy6  1  0.750000  0.081285  0.398285  1
  Dy  Dy7  1  0.750000  0.419410  0.896697  1
  Dy  Dy8  1  0.250000  0.659148  0.800759  1
  Dy  Dy9  1  0.250000  0.838866  0.302052  1
  Dy  Dy10  1  0.750000  0.339064  0.198110  1
  Dy  Dy11  1  0.750000  0.161548  0.697725  1
  Si  Si12  1  0.250000  0.016194  0.823001  1
  Si  Si13  1  0.250000  0.484980  0.322028  1
  Si  Si14  1  0.750000  0.984702  0.177457  1
  Si  Si15  1  0.750000  0.509696  0.678736  1
  Si  Si16  1  0.250000  0.247565  0.839742  1
  Si  Si17  1  0.250000  0.255346  0.343637  1
  Si  Si18  1  0.750000  0.754745  0.157220  1
  Si  Si19  1  0.750000  0.743978  0.656641  1
  Si  Si20  1  0.250000  0.201488  0.543685  1
  Si  Si21  1  0.250000  0.304500  0.039555  1
  Si  Si22  1  0.750000  0.804976  0.459741  1
  Si  Si23  1  0.750000  0.695306  0.959104  1
  Ir  Ir24  1  0.250000  0.390080  0.681053  1
  Pt  Pt25  1  0.250000  0.109847  0.182091  1
  Pt  Pt26  1  0.750000  0.609185  0.318240  1
  Pt  Pt27  1  0.750000  0.890345  0.818632  1
