# generated using pymatgen
data_Hf6Al8Si8Ru3Rh4
_symmetry_space_group_name_H-M   'P 1'
_cell_length_a   8.57048937
_cell_length_b   8.57312826
_cell_length_c   8.56457537
_cell_angle_alpha   60.01260969
_cell_angle_beta   59.99076138
_cell_angle_gamma   59.94418235
_symmetry_Int_Tables_number   1
_chemical_formula_structural   Hf6Al8Si8Ru3Rh4
_chemical_formula_sum   'Hf6 Al8 Si8 Ru3 Rh4'
_cell_volume   444.79844862
_cell_formula_units_Z   1
loop_
 _symmetry_equiv_pos_site_id
 _symmetry_equiv_pos_as_xyz
  1  'x, y, z'
loop_
 _atom_site_type_symbol
 _atom_site_label
 _atom_site_symmetry_multiplicity
 _atom_site_fract_x
 _atom_site_fract_y
 _atom_site_fract_z
 _atom_site_occupancy
  Hf  Hf0  1  0.690090  0.308479  0.309910  1
  Hf  Hf1  1  0.309910  0.691519  0.690090  1
  Hf  Hf2  1  0.309660  0.690339  0.309660  1
  Hf  Hf3  1  0.310500  0.309263  0.689499  1
  Hf  Hf4  1  0.690342  0.309657  0.690342  1
  Hf  Hf5  1  0.689499  0.690735  0.310500  1
  Al  Al6  1  0.119862  0.119553  0.123488  1
  Al  Al7  1  0.122742  0.118832  0.635948  1
  Al  Al8  1  0.635948  0.122478  0.122742  1
  Al  Al9  1  0.123488  0.637097  0.119862  1
  Al  Al10  1  0.880138  0.880446  0.876512  1
  Al  Al11  1  0.877258  0.881167  0.364054  1
  Al  Al12  1  0.876512  0.362904  0.880138  1
  Al  Al13  1  0.364054  0.877521  0.877258  1
  Si  Si14  1  0.344636  0.342314  0.342794  1
  Si  Si15  1  0.344138  0.343784  0.970256  1
  Si  Si16  1  0.970256  0.341820  0.344138  1
  Si  Si17  1  0.342794  0.970254  0.344636  1
  Si  Si18  1  0.655365  0.657684  0.657207  1
  Si  Si19  1  0.655863  0.656216  0.029745  1
  Si  Si20  1  0.657207  0.029746  0.655365  1
  Si  Si21  1  0.029745  0.658179  0.655863  1
  Ru  Ru22  1  0.000001  0.000001  0.499999  1
  Ru  Ru23  1  0.500002  0.999998  0.500002  1
  Ru  Ru24  1  0.499999  0.499999  0.000001  1
  Rh  Rh25  1  0.999994  0.000006  0.999994  1
  Rh  Rh26  1  0.499998  0.000001  0.999998  1
  Rh  Rh27  1  0.999998  0.500003  0.499998  1
  Rh  Rh28  1  0.999998  0.500002  0.999998  1
