# generated using pymatgen
data_Tb3Sm2Ho5In8(PdPt)2
_symmetry_space_group_name_H-M   'P 1'
_cell_length_a   3.63413600
_cell_length_b   8.19241375
_cell_length_c   18.37538900
_cell_angle_alpha   89.95308585
_cell_angle_beta   90.00000000
_cell_angle_gamma   90.00000000
_symmetry_Int_Tables_number   1
_chemical_formula_structural   Tb3Sm2Ho5In8(PdPt)2
_chemical_formula_sum   'Tb3 Sm2 Ho5 In8 Pd2 Pt2'
_cell_volume   547.07825070
_cell_formula_units_Z   1
loop_
 _symmetry_equiv_pos_site_id
 _symmetry_equiv_pos_as_xyz
  1  'x, y, z'
loop_
 _atom_site_type_symbol
 _atom_site_label
 _atom_site_symmetry_multiplicity
 _atom_site_fract_x
 _atom_site_fract_y
 _atom_site_fract_z
 _atom_site_occupancy
  Tb  Tb0  1  0.000000  0.735190  0.280785  1
  Tb  Tb1  1  0.000000  0.264864  0.719058  1
  Tb  Tb2  1  0.000000  0.756601  0.781999  1
  Sm  Sm3  1  0.000000  0.500224  0.499674  1
  Sm  Sm4  1  0.000000  0.999891  0.000037  1
  Ho  Ho5  1  0.000000  0.243676  0.218388  1
  Ho  Ho6  1  0.000000  0.617879  0.085406  1
  Ho  Ho7  1  0.000000  0.381645  0.915243  1
  Ho  Ho8  1  0.000000  0.880831  0.583981  1
  Ho  Ho9  1  0.000000  0.119402  0.415583  1
  In  In10  1  0.500000  0.703247  0.933700  1
  In  In11  1  0.500000  0.295669  0.067247  1
  In  In12  1  0.500000  0.798196  0.432531  1
  In  In13  1  0.500000  0.202420  0.567055  1
  In  In14  1  0.500000  0.583053  0.650790  1
  In  In15  1  0.500000  0.416357  0.348809  1
  In  In16  1  0.500000  0.921429  0.152033  1
  In  In17  1  0.500000  0.080060  0.848036  1
  Pd  Pd18  1  0.500000  0.975955  0.694870  1
  Pd  Pd19  1  0.500000  0.025962  0.304385  1
  Pt  Pt20  1  0.500000  0.521808  0.195618  1
  Pt  Pt21  1  0.500000  0.475639  0.804767  1
