# generated using pymatgen
data_BaCo3(P2O7)2
_symmetry_space_group_name_H-M   'P 1'
_cell_length_a   7.72260145
_cell_length_b   7.92585035
_cell_length_c   9.77416700
_cell_angle_alpha   90.10804433
_cell_angle_beta   112.65310140
_cell_angle_gamma   89.97176259
_symmetry_Int_Tables_number   1
_chemical_formula_structural   BaCo3(P2O7)2
_chemical_formula_sum   'Ba2 Co6 P8 O28'
_cell_volume   552.10451306
_cell_formula_units_Z   2
loop_
 _symmetry_equiv_pos_site_id
 _symmetry_equiv_pos_as_xyz
  1  'x, y, z'
loop_
 _atom_site_type_symbol
 _atom_site_label
 _atom_site_symmetry_multiplicity
 _atom_site_fract_x
 _atom_site_fract_y
 _atom_site_fract_z
 _atom_site_occupancy
  Ba  Ba0  1  0.500000  0.500000  0.500000  1
  Ba  Ba1  1  0.500000  0.000000  0.000000  1
  Co  Co2  1  0.182969  0.625461  0.023743  1
  Co  Co3  1  0.000000  0.000000  0.000000  1
  Co  Co4  1  0.186343  0.876626  0.526121  1
  Co  Co5  1  0.817031  0.374539  0.976257  1
  Co  Co6  1  0.813657  0.123374  0.473879  1
  Co  Co7  1  0.000000  0.500000  0.500000  1
  P  P8  1  0.612656  0.050144  0.698525  1
  P  P9  1  0.387188  0.549600  0.801150  1
  P  P10  1  0.387344  0.949856  0.301475  1
  P  P11  1  0.612812  0.450400  0.198850  1
  P  P12  1  0.899883  0.799236  0.694503  1
  P  P13  1  0.100396  0.298240  0.805118  1
  P  P14  1  0.899604  0.701760  0.194882  1
  P  P15  1  0.100117  0.200764  0.305497  1
  O  O16  1  0.860895  0.628487  0.616699  1
  O  O17  1  0.140403  0.128556  0.884124  1
  O  O18  1  0.139105  0.371513  0.383301  1
  O  O19  1  0.859597  0.871444  0.115876  1
  O  O20  1  0.265875  0.608535  0.640225  1
  O  O21  1  0.734780  0.109573  0.859086  1
  O  O22  1  0.734125  0.391465  0.359775  1
  O  O23  1  0.265220  0.890426  0.140914  1
  O  O24  1  0.630206  0.169622  0.582520  1
  O  O25  1  0.366585  0.669993  0.915807  1
  O  O26  1  0.369795  0.830378  0.417480  1
  O  O27  1  0.633415  0.330007  0.084193  1
  O  O28  1  0.693780  0.867570  0.675555  1
  O  O29  1  0.305961  0.367509  0.824429  1
  O  O30  1  0.306220  0.132430  0.324445  1
  O  O31  1  0.694039  0.632491  0.175570  1
  O  O32  1  0.413052  0.489362  0.186220  1
  O  O33  1  0.587122  0.987774  0.313162  1
  O  O34  1  0.586948  0.510638  0.813780  1
  O  O35  1  0.412878  0.012226  0.686838  1
  O  O36  1  0.993123  0.205088  0.135860  1
  O  O37  1  0.006572  0.707580  0.364187  1
  O  O38  1  0.980097  0.924378  0.613400  1
  O  O39  1  0.993428  0.292420  0.635813  1
  O  O40  1  0.981251  0.576496  0.114317  1
  O  O41  1  0.019903  0.075622  0.386600  1
  O  O42  1  0.018749  0.423502  0.885683  1
  O  O43  1  0.006877  0.794912  0.864140  1
