# generated using pymatgen
data_La8Ga3Si12Pt
_symmetry_space_group_name_H-M   'P 1'
_cell_length_a   8.30763100
_cell_length_b   8.30763119
_cell_length_c   8.80795700
_cell_angle_alpha   90.00000000
_cell_angle_beta   90.00000000
_cell_angle_gamma   119.99999526
_symmetry_Int_Tables_number   1
_chemical_formula_structural   La8Ga3Si12Pt
_chemical_formula_sum   'La8 Ga3 Si12 Pt1'
_cell_volume   526.45377554
_cell_formula_units_Z   1
loop_
 _symmetry_equiv_pos_site_id
 _symmetry_equiv_pos_as_xyz
  1  'x, y, z'
loop_
 _atom_site_type_symbol
 _atom_site_label
 _atom_site_symmetry_multiplicity
 _atom_site_fract_x
 _atom_site_fract_y
 _atom_site_fract_z
 _atom_site_occupancy
  La  La0  1  0.000000  0.000000  0.250192  1
  La  La1  1  0.000000  0.000000  0.750176  1
  La  La2  1  0.499950  0.500050  0.250259  1
  La  La3  1  0.499950  0.999903  0.250259  1
  La  La4  1  0.000097  0.500050  0.250259  1
  La  La5  1  0.498714  0.501286  0.749822  1
  La  La6  1  0.498714  0.997426  0.749822  1
  La  La7  1  0.002574  0.501286  0.749822  1
  Ga  Ga8  1  0.333333  0.666667  0.496307  1
  Ga  Ga9  1  0.666667  0.333333  0.503790  1
  Ga  Ga10  1  0.666667  0.333333  0.995949  1
  Si  Si11  1  0.164956  0.835044  0.500778  1
  Si  Si12  1  0.164956  0.329913  0.500778  1
  Si  Si13  1  0.670087  0.835044  0.500778  1
  Si  Si14  1  0.835462  0.164538  0.499191  1
  Si  Si15  1  0.835462  0.670923  0.499191  1
  Si  Si16  1  0.329077  0.164538  0.499191  1
  Si  Si17  1  0.836696  0.163304  0.000786  1
  Si  Si18  1  0.836696  0.673391  0.000786  1
  Si  Si19  1  0.326609  0.163304  0.000786  1
  Si  Si20  1  0.167771  0.832229  0.999531  1
  Si  Si21  1  0.167771  0.335543  0.999531  1
  Si  Si22  1  0.664457  0.832229  0.999531  1
  Pt  Pt23  1  0.333333  0.666667  0.002488  1
