# generated using pymatgen
data_Dy6Er(TmSb2)3
_symmetry_space_group_name_H-M   'P 1'
_cell_length_a   6.25030700
_cell_length_b   8.95102642
_cell_length_c   8.95124700
_cell_angle_alpha   119.99919051
_cell_angle_beta   89.99984986
_cell_angle_gamma   90.00030937
_symmetry_Int_Tables_number   1
_chemical_formula_structural   Dy6Er(TmSb2)3
_chemical_formula_sum   'Dy6 Er1 Tm3 Sb6'
_cell_volume   433.70247812
_cell_formula_units_Z   1
loop_
 _symmetry_equiv_pos_site_id
 _symmetry_equiv_pos_as_xyz
  1  'x, y, z'
loop_
 _atom_site_type_symbol
 _atom_site_label
 _atom_site_symmetry_multiplicity
 _atom_site_fract_x
 _atom_site_fract_y
 _atom_site_fract_z
 _atom_site_occupancy
  Dy  Dy0  1  0.750000  0.246751  0.000014  1
  Dy  Dy1  1  0.749990  0.753225  0.753215  1
  Dy  Dy2  1  0.749996  0.999990  0.246779  1
  Dy  Dy3  1  0.249998  0.753263  0.000014  1
  Dy  Dy4  1  0.250006  0.246789  0.246779  1
  Dy  Dy5  1  0.250012  0.999990  0.753215  1
  Er  Er6  1  0.499999  0.333327  0.666657  1
  Tm  Tm7  1  0.499999  0.666660  0.333325  1
  Tm  Tm8  1  0.999999  0.666664  0.333325  1
  Tm  Tm9  1  0.999999  0.333339  0.666674  1
  Sb  Sb10  1  0.750126  0.610358  0.000176  1
  Sb  Sb11  1  0.750128  0.389818  0.389649  1
  Sb  Sb12  1  0.750129  0.999816  0.610177  1
  Sb  Sb13  1  0.249872  0.389818  0.000176  1
  Sb  Sb14  1  0.249873  0.610360  0.610177  1
  Sb  Sb15  1  0.249874  0.999831  0.389649  1
