# generated using pymatgen
data_Sc4TcOs5Ru2
_symmetry_space_group_name_H-M   'P 1'
_cell_length_a   5.12816395
_cell_length_b   5.19498670
_cell_length_c   8.78488700
_cell_angle_alpha   90.00000000
_cell_angle_beta   90.00000000
_cell_angle_gamma   120.43200655
_symmetry_Int_Tables_number   1
_chemical_formula_structural   Sc4TcOs5Ru2
_chemical_formula_sum   'Sc4 Tc1 Os5 Ru2'
_cell_volume   201.79299230
_cell_formula_units_Z   1
loop_
 _symmetry_equiv_pos_site_id
 _symmetry_equiv_pos_as_xyz
  1  'x, y, z'
loop_
 _atom_site_type_symbol
 _atom_site_label
 _atom_site_symmetry_multiplicity
 _atom_site_fract_x
 _atom_site_fract_y
 _atom_site_fract_z
 _atom_site_occupancy
  Sc  Sc0  1  0.333649  0.666825  0.432118  1
  Sc  Sc1  1  0.664788  0.332394  0.566889  1
  Sc  Sc2  1  0.664788  0.332394  0.933111  1
  Sc  Sc3  1  0.333649  0.666825  0.067882  1
  Tc  Tc4  1  0.662526  0.831264  0.750000  1
  Os  Os5  1  0.830945  0.171388  0.250000  1
  Os  Os6  1  0.830945  0.659555  0.250000  1
  Os  Os7  1  0.342924  0.171462  0.250000  1
  Os  Os8  1  0.174199  0.829817  0.750000  1
  Os  Os9  1  0.174199  0.344384  0.750000  1
  Ru  Ru10  1  0.993693  0.996846  0.499548  1
  Ru  Ru11  1  0.993693  0.996846  0.000452  1
