# generated using pymatgen
data_Zr4Nb5TcN12
_symmetry_space_group_name_H-M   'P 1'
_cell_length_a   5.31202700
_cell_length_b   5.30101148
_cell_length_c   10.73058500
_cell_angle_alpha   90.00000000
_cell_angle_beta   90.00000000
_cell_angle_gamma   120.06876990
_symmetry_Int_Tables_number   1
_chemical_formula_structural   Zr4Nb5TcN12
_chemical_formula_sum   'Zr4 Nb5 Tc1 N12'
_cell_volume   261.49999101
_cell_formula_units_Z   1
loop_
 _symmetry_equiv_pos_site_id
 _symmetry_equiv_pos_as_xyz
  1  'x, y, z'
loop_
 _atom_site_type_symbol
 _atom_site_label
 _atom_site_symmetry_multiplicity
 _atom_site_fract_x
 _atom_site_fract_y
 _atom_site_fract_z
 _atom_site_occupancy
  Zr  Zr0  1  0.333644  0.666297  0.495604  1
  Zr  Zr1  1  0.667348  0.333703  0.004396  1
  Zr  Zr2  1  0.667348  0.333703  0.495604  1
  Zr  Zr3  1  0.333644  0.666297  0.004396  1
  Nb  Nb4  1  0.674861  0.674612  0.250000  1
  Nb  Nb5  1  0.000248  0.325388  0.250000  1
  Nb  Nb6  1  0.998843  0.673886  0.750000  1
  Nb  Nb7  1  0.324957  0.326114  0.750000  1
  Nb  Nb8  1  0.324942  0.000000  0.250000  1
  Tc  Tc9  1  0.672946  0.000000  0.750000  1
  N  N10  1  0.340387  0.339982  0.373785  1
  N  N11  1  0.659400  0.000000  0.374282  1
  N  N12  1  0.000406  0.660018  0.373785  1
  N  N13  1  0.999844  0.342858  0.869830  1
  N  N14  1  0.659400  0.000000  0.125718  1
  N  N15  1  0.656986  0.657142  0.869830  1
  N  N16  1  0.343588  0.000000  0.869601  1
  N  N17  1  0.656986  0.657142  0.630170  1
  N  N18  1  0.999844  0.342858  0.630170  1
  N  N19  1  0.000406  0.660018  0.126215  1
  N  N20  1  0.343588  0.000000  0.630399  1
  N  N21  1  0.340387  0.339982  0.126215  1
