# generated using pymatgen
data_Ba12Dy3Y(Fe4O15)2
_symmetry_space_group_name_H-M   'P 1'
_cell_length_a   6.06552017
_cell_length_b   8.15593887
_cell_length_c   18.69604428
_cell_angle_alpha   88.86921135
_cell_angle_beta   89.97595160
_cell_angle_gamma   90.01276316
_symmetry_Int_Tables_number   1
_chemical_formula_structural   Ba12Dy3Y(Fe4O15)2
_chemical_formula_sum   'Ba12 Dy3 Y1 Fe8 O30'
_cell_volume   924.71330242
_cell_formula_units_Z   1
loop_
 _symmetry_equiv_pos_site_id
 _symmetry_equiv_pos_as_xyz
  1  'x, y, z'
loop_
 _atom_site_type_symbol
 _atom_site_label
 _atom_site_symmetry_multiplicity
 _atom_site_fract_x
 _atom_site_fract_y
 _atom_site_fract_z
 _atom_site_occupancy
  Ba  Ba0  1  0.274721  0.000043  0.250061  1
  Ba  Ba1  1  0.725286  0.000116  0.749873  1
  Ba  Ba2  1  0.333323  0.500035  0.250030  1
  Ba  Ba3  1  0.666560  0.499864  0.749968  1
  Ba  Ba4  1  0.748967  0.974553  0.089320  1
  Ba  Ba5  1  0.748878  0.025470  0.410917  1
  Ba  Ba6  1  0.251120  0.025693  0.910815  1
  Ba  Ba7  1  0.251074  0.974568  0.589082  1
  Ba  Ba8  1  0.247245  0.500650  0.577175  1
  Ba  Ba9  1  0.247344  0.499216  0.922824  1
  Ba  Ba10  1  0.752694  0.499366  0.422793  1
  Ba  Ba11  1  0.752695  0.500623  0.077308  1
  Dy  Dy12  1  0.251581  0.753265  0.409270  1
  Dy  Dy13  1  0.251692  0.246769  0.090817  1
  Dy  Dy14  1  0.748377  0.246790  0.590709  1
  Y  Y15  1  0.748369  0.753319  0.909202  1
  Fe  Fe16  1  0.253656  0.754912  0.059586  1
  Fe  Fe17  1  0.254291  0.245443  0.440322  1
  Fe  Fe18  1  0.746501  0.244878  0.940505  1
  Fe  Fe19  1  0.745591  0.754574  0.559450  1
  Fe  Fe20  1  0.776747  0.768448  0.266112  1
  Fe  Fe21  1  0.776436  0.231286  0.234192  1
  Fe  Fe22  1  0.223377  0.231322  0.733951  1
  Fe  Fe23  1  0.223458  0.768805  0.765799  1
  O  O24  1  0.800710  0.999904  0.250055  1
  O  O25  1  0.199307  0.000046  0.749913  1
  O  O26  1  0.766844  0.958720  0.608761  1
  O  O27  1  0.767215  0.041599  0.890920  1
  O  O28  1  0.233097  0.041268  0.391199  1
  O  O29  1  0.232951  0.958760  0.108987  1
  O  O30  1  0.240750  0.528332  0.088790  1
  O  O31  1  0.240869  0.471853  0.411257  1
  O  O32  1  0.759588  0.471078  0.911163  1
  O  O33  1  0.759078  0.528238  0.588684  1
  O  O34  1  0.057358  0.723303  0.306105  1
  O  O35  1  0.057082  0.276667  0.194079  1
  O  O36  1  0.942776  0.276709  0.693878  1
  O  O37  1  0.942561  0.723381  0.805634  1
  O  O38  1  0.556682  0.747166  0.339179  1
  O  O39  1  0.556849  0.252860  0.160977  1
  O  O40  1  0.443322  0.252889  0.660856  1
  O  O41  1  0.442489  0.747088  0.839096  1
  O  O42  1  0.484640  0.766754  0.502665  1
  O  O43  1  0.484895  0.233118  0.997326  1
  O  O44  1  0.515192  0.233248  0.497279  1
  O  O45  1  0.515416  0.766923  0.003014  1
  O  O46  1  0.017679  0.769015  0.991093  1
  O  O47  1  0.017350  0.231253  0.508811  1
  O  O48  1  0.982851  0.230972  0.009002  1
  O  O49  1  0.982652  0.768733  0.491127  1
  O  O50  1  0.337764  0.690978  0.680696  1
  O  O51  1  0.337225  0.309137  0.819102  1
  O  O52  1  0.662282  0.309166  0.319292  1
  O  O53  1  0.662540  0.690837  0.180980  1
