# generated using pymatgen
data_Tl(OsO3)6
_symmetry_space_group_name_H-M   'P 1'
_cell_length_a   7.33287600
_cell_length_b   7.33287609
_cell_length_c   7.53682400
_cell_angle_alpha   90.00000000
_cell_angle_beta   90.00000000
_cell_angle_gamma   119.99999960
_symmetry_Int_Tables_number   1
_chemical_formula_structural   Tl(OsO3)6
_chemical_formula_sum   'Tl1 Os6 O18'
_cell_volume   350.96814033
_cell_formula_units_Z   1
loop_
 _symmetry_equiv_pos_site_id
 _symmetry_equiv_pos_as_xyz
  1  'x, y, z'
loop_
 _atom_site_type_symbol
 _atom_site_label
 _atom_site_symmetry_multiplicity
 _atom_site_fract_x
 _atom_site_fract_y
 _atom_site_fract_z
 _atom_site_occupancy
  Tl  Tl0  1  0.000000  0.000000  0.500000  1
  Os  Os1  1  0.000000  0.500000  0.750651  1
  Os  Os2  1  0.500000  0.500000  0.750651  1
  Os  Os3  1  0.500000  0.500000  0.249349  1
  Os  Os4  1  0.500000  0.000000  0.249349  1
  Os  Os5  1  0.500000  0.000000  0.750651  1
  Os  Os6  1  0.000000  0.500000  0.249349  1
  O  O7  1  0.207188  0.792812  0.251501  1
  O  O8  1  0.207188  0.792812  0.748499  1
  O  O9  1  0.207188  0.414374  0.748499  1
  O  O10  1  0.207188  0.414374  0.251501  1
  O  O11  1  0.585626  0.792812  0.251501  1
  O  O12  1  0.585626  0.792812  0.748499  1
  O  O13  1  0.500000  0.500000  0.500000  1
  O  O14  1  0.500000  0.500000  0.000000  1
  O  O15  1  0.414374  0.207188  0.251501  1
  O  O16  1  0.414374  0.207188  0.748499  1
  O  O17  1  0.500000  0.000000  0.000000  1
  O  O18  1  0.792812  0.585626  0.748499  1
  O  O19  1  0.792812  0.585626  0.251501  1
  O  O20  1  0.500000  0.000000  0.500000  1
  O  O21  1  0.792812  0.207188  0.251501  1
  O  O22  1  0.792812  0.207188  0.748499  1
  O  O23  1  0.000000  0.500000  0.500000  1
  O  O24  1  0.000000  0.500000  0.000000  1
