# generated using pymatgen
data_Be8ReTcW2
_symmetry_space_group_name_H-M   'P 1'
_cell_length_a   4.40352300
_cell_length_b   4.40352307
_cell_length_c   7.24896100
_cell_angle_alpha   90.00000000
_cell_angle_beta   90.00000000
_cell_angle_gamma   120.00002200
_symmetry_Int_Tables_number   1
_chemical_formula_structural   Be8ReTcW2
_chemical_formula_sum   'Be8 Re1 Tc1 W2'
_cell_volume   121.73258481
_cell_formula_units_Z   1
loop_
 _symmetry_equiv_pos_site_id
 _symmetry_equiv_pos_as_xyz
  1  'x, y, z'
loop_
 _atom_site_type_symbol
 _atom_site_label
 _atom_site_symmetry_multiplicity
 _atom_site_fract_x
 _atom_site_fract_y
 _atom_site_fract_z
 _atom_site_occupancy
  Be  Be0  1  0.000000  0.000000  0.000721  1
  Be  Be1  1  0.000000  0.000000  0.501269  1
  Be  Be2  1  0.830675  0.661351  0.249942  1
  Be  Be3  1  0.169692  0.830308  0.750119  1
  Be  Be4  1  0.660618  0.830308  0.750119  1
  Be  Be5  1  0.338649  0.169325  0.249942  1
  Be  Be6  1  0.830675  0.169325  0.249942  1
  Be  Be7  1  0.169692  0.339382  0.750119  1
  Re  Re8  1  0.333333  0.666667  0.438891  1
  Tc  Tc9  1  0.666667  0.333333  0.938893  1
  W  W10  1  0.333333  0.666667  0.060124  1
  W  W11  1  0.666667  0.333333  0.559921  1
