# generated using pymatgen
data_Tm2Lu10In2Fe2Os
_symmetry_space_group_name_H-M   'P 1'
_cell_length_a   8.21241527
_cell_length_b   8.21241609
_cell_length_c   8.20687803
_cell_angle_alpha   108.55564797
_cell_angle_beta   108.55563726
_cell_angle_gamma   111.34471869
_symmetry_Int_Tables_number   1
_chemical_formula_structural   Tm2Lu10In2Fe2Os
_chemical_formula_sum   'Tm2 Lu10 In2 Fe2 Os1'
_cell_volume   425.60968176
_cell_formula_units_Z   1
loop_
 _symmetry_equiv_pos_site_id
 _symmetry_equiv_pos_as_xyz
  1  'x, y, z'
loop_
 _atom_site_type_symbol
 _atom_site_label
 _atom_site_symmetry_multiplicity
 _atom_site_fract_x
 _atom_site_fract_y
 _atom_site_fract_z
 _atom_site_occupancy
  Tm  Tm0  1  0.691215  0.308785  0.000000  1
  Tm  Tm1  1  0.308785  0.691215  0.000000  1
  Lu  Lu2  1  0.191957  0.428569  0.237499  1
  Lu  Lu3  1  0.808043  0.571431  0.762501  1
  Lu  Lu4  1  0.191068  0.954459  0.762501  1
  Lu  Lu5  1  0.954459  0.191068  0.762501  1
  Lu  Lu6  1  0.808932  0.045541  0.237499  1
  Lu  Lu7  1  0.045541  0.808932  0.237499  1
  Lu  Lu8  1  0.428569  0.191957  0.237499  1
  Lu  Lu9  1  0.571431  0.808043  0.762501  1
  Lu  Lu10  1  0.308919  0.308919  0.617838  1
  Lu  Lu11  1  0.691081  0.691081  0.382162  1
  In  In12  1  0.000000  0.500000  0.500000  1
  In  In13  1  0.500000  0.000000  0.500000  1
  Fe  Fe14  1  0.382983  0.382983  0.000000  1
  Fe  Fe15  1  0.617017  0.617017  0.000000  1
  Os  Os16  1  0.000000  0.000000  0.000000  1
