# generated using pymatgen
data_NaTb7(Si4W3)4
_symmetry_space_group_name_H-M   'P 1'
_cell_length_a   6.76967690
_cell_length_b   6.94547469
_cell_length_c   12.95036313
_cell_angle_alpha   89.95121708
_cell_angle_beta   89.93119604
_cell_angle_gamma   89.90945260
_symmetry_Int_Tables_number   1
_chemical_formula_structural   NaTb7(Si4W3)4
_chemical_formula_sum   'Na1 Tb7 Si16 W12'
_cell_volume   608.90677778
_cell_formula_units_Z   1
loop_
 _symmetry_equiv_pos_site_id
 _symmetry_equiv_pos_as_xyz
  1  'x, y, z'
loop_
 _atom_site_type_symbol
 _atom_site_label
 _atom_site_symmetry_multiplicity
 _atom_site_fract_x
 _atom_site_fract_y
 _atom_site_fract_z
 _atom_site_occupancy
  Na  Na0  1  0.991685  0.833670  0.589080  1
  Tb  Tb1  1  0.497885  0.668616  0.593903  1
  Tb  Tb2  1  0.997595  0.830898  0.906610  1
  Tb  Tb3  1  0.504790  0.331956  0.093442  1
  Tb  Tb4  1  0.002963  0.164501  0.410605  1
  Tb  Tb5  1  0.502677  0.332344  0.408407  1
  Tb  Tb6  1  0.004748  0.167711  0.093732  1
  Tb  Tb7  1  0.496691  0.669272  0.904532  1
  Si  Si8  1  0.659777  0.955785  0.455023  1
  Si  Si9  1  0.162813  0.544579  0.045459  1
  Si  Si10  1  0.337896  0.044534  0.954114  1
  Si  Si11  1  0.842219  0.462440  0.547814  1
  Si  Si12  1  0.333370  0.038978  0.547380  1
  Si  Si13  1  0.838009  0.455138  0.954731  1
  Si  Si14  1  0.663276  0.955789  0.045456  1
  Si  Si15  1  0.158813  0.546539  0.454496  1
  Si  Si16  1  0.464757  0.372801  0.750633  1
  Si  Si17  1  0.966489  0.124481  0.747549  1
  Si  Si18  1  0.534941  0.628862  0.250224  1
  Si  Si19  1  0.035160  0.869225  0.251335  1
  Si  Si20  1  0.704271  0.868048  0.746102  1
  Si  Si21  1  0.191171  0.638239  0.745333  1
  Si  Si22  1  0.302380  0.132821  0.250825  1
  Si  Si23  1  0.804466  0.365806  0.251593  1
  W  W24  1  0.663857  0.166997  0.625160  1
  W  W25  1  0.168223  0.338180  0.874396  1
  W  W26  1  0.333070  0.837696  0.125880  1
  W  W27  1  0.828967  0.661600  0.373998  1
  W  W28  1  0.333798  0.837197  0.374015  1
  W  W29  1  0.831468  0.661484  0.125820  1
  W  W30  1  0.668417  0.162645  0.873118  1
  W  W31  1  0.168943  0.334607  0.627223  1
  W  W32  1  0.837233  0.491847  0.751621  1
  W  W33  1  0.337833  0.005068  0.750981  1
  W  W34  1  0.164816  0.502968  0.249857  1
  W  W35  1  0.664533  0.996673  0.249552  1
