# generated using pymatgen
data_Er2Lu6Ga3Co
_symmetry_space_group_name_H-M   'P 1'
_cell_length_a   9.81787631
_cell_length_b   9.81787619
_cell_length_c   6.80597500
_cell_angle_alpha   90.00000000
_cell_angle_beta   90.00000000
_cell_angle_gamma   119.94088928
_symmetry_Int_Tables_number   1
_chemical_formula_structural   Er2Lu6Ga3Co
_chemical_formula_sum   'Er4 Lu12 Ga6 Co2'
_cell_volume   568.47904843
_cell_formula_units_Z   2
loop_
 _symmetry_equiv_pos_site_id
 _symmetry_equiv_pos_as_xyz
  1  'x, y, z'
loop_
 _atom_site_type_symbol
 _atom_site_label
 _atom_site_symmetry_multiplicity
 _atom_site_fract_x
 _atom_site_fract_y
 _atom_site_fract_z
 _atom_site_occupancy
  Er  Er0  1  0.464902  0.929508  0.292562  1
  Er  Er1  1  0.070492  0.535098  0.292562  1
  Er  Er2  1  0.929508  0.464902  0.792562  1
  Er  Er3  1  0.535098  0.070492  0.792562  1
  Lu  Lu4  1  0.999936  0.000064  0.268643  1
  Lu  Lu5  1  0.000064  0.999936  0.768643  1
  Lu  Lu6  1  0.173124  0.826876  0.990577  1
  Lu  Lu7  1  0.826876  0.173124  0.490577  1
  Lu  Lu8  1  0.174236  0.346828  0.990696  1
  Lu  Lu9  1  0.653172  0.825764  0.990696  1
  Lu  Lu10  1  0.346828  0.174236  0.490696  1
  Lu  Lu11  1  0.825764  0.653172  0.490696  1
  Lu  Lu12  1  0.333862  0.666138  0.673014  1
  Lu  Lu13  1  0.666138  0.333862  0.173014  1
  Lu  Lu14  1  0.464622  0.535378  0.293071  1
  Lu  Lu15  1  0.535378  0.464622  0.793071  1
  Ga  Ga16  1  0.162903  0.837097  0.541447  1
  Ga  Ga17  1  0.837097  0.162903  0.041447  1
  Ga  Ga18  1  0.163350  0.326503  0.541364  1
  Ga  Ga19  1  0.673497  0.836650  0.541364  1
  Ga  Ga20  1  0.326503  0.163350  0.041364  1
  Ga  Ga21  1  0.836650  0.673497  0.041364  1
  Co  Co22  1  0.333788  0.666212  0.057063  1
  Co  Co23  1  0.666212  0.333788  0.557063  1
