# generated using pymatgen
data_Tb3Ho7Sn5Bi
_symmetry_space_group_name_H-M   'P 1'
_cell_length_a   8.98968300
_cell_length_b   8.98572543
_cell_length_c   6.50094300
_cell_angle_alpha   90.00000000
_cell_angle_beta   90.00000000
_cell_angle_gamma   120.01456663
_symmetry_Int_Tables_number   1
_chemical_formula_structural   Tb3Ho7Sn5Bi
_chemical_formula_sum   'Tb3 Ho7 Sn5 Bi1'
_cell_volume   454.71653406
_cell_formula_units_Z   1
loop_
 _symmetry_equiv_pos_site_id
 _symmetry_equiv_pos_as_xyz
  1  'x, y, z'
loop_
 _atom_site_type_symbol
 _atom_site_label
 _atom_site_symmetry_multiplicity
 _atom_site_fract_x
 _atom_site_fract_y
 _atom_site_fract_z
 _atom_site_occupancy
  Tb  Tb0  1  0.994588  0.757448  0.750000  1
  Tb  Tb1  1  0.764457  0.000000  0.750000  1
  Tb  Tb2  1  0.237140  0.242552  0.750000  1
  Ho  Ho3  1  0.000421  0.239291  0.250000  1
  Ho  Ho4  1  0.761130  0.760709  0.250000  1
  Ho  Ho5  1  0.237801  0.000000  0.250000  1
  Ho  Ho6  1  0.332613  0.662647  0.498978  1
  Ho  Ho7  1  0.669967  0.337353  0.001022  1
  Ho  Ho8  1  0.669967  0.337353  0.498978  1
  Ho  Ho9  1  0.332613  0.662647  0.001022  1
  Sn  Sn10  1  0.395382  0.394060  0.250000  1
  Sn  Sn11  1  0.001322  0.605940  0.250000  1
  Sn  Sn12  1  0.999630  0.396113  0.750000  1
  Sn  Sn13  1  0.603516  0.603887  0.750000  1
  Sn  Sn14  1  0.605254  0.000000  0.250000  1
  Bi  Bi15  1  0.394200  0.000000  0.750000  1
