# generated using pymatgen
data_Dy2Y6Ti11NbSi16
_symmetry_space_group_name_H-M   'P 1'
_cell_length_a   7.06715905
_cell_length_b   7.06717854
_cell_length_c   12.99943433
_cell_angle_alpha   90.03629978
_cell_angle_beta   89.96644139
_cell_angle_gamma   90.01401897
_symmetry_Int_Tables_number   1
_chemical_formula_structural   Dy2Y6Ti11NbSi16
_chemical_formula_sum   'Dy2 Y6 Ti11 Nb1 Si16'
_cell_volume   649.25485958
_cell_formula_units_Z   1
loop_
 _symmetry_equiv_pos_site_id
 _symmetry_equiv_pos_as_xyz
  1  'x, y, z'
loop_
 _atom_site_type_symbol
 _atom_site_label
 _atom_site_symmetry_multiplicity
 _atom_site_fract_x
 _atom_site_fract_y
 _atom_site_fract_z
 _atom_site_occupancy
  Dy  Dy0  1  0.497924  0.840687  0.716386  1
  Dy  Dy1  1  0.340931  0.001947  0.466643  1
  Y  Y2  1  0.997324  0.659846  0.033283  1
  Y  Y3  1  0.002077  0.340825  0.533356  1
  Y  Y4  1  0.659831  0.997293  0.966692  1
  Y  Y5  1  0.160042  0.502579  0.783179  1
  Y  Y6  1  0.840666  0.497878  0.283571  1
  Y  Y7  1  0.502542  0.159959  0.216806  1
  Ti  Ti8  1  0.348584  0.508909  0.374413  1
  Ti  Ti9  1  0.846695  0.990723  0.376594  1
  Ti  Ti10  1  0.008241  0.152303  0.123715  1
  Ti  Ti11  1  0.990782  0.846733  0.623362  1
  Ti  Ti12  1  0.508911  0.348490  0.625543  1
  Ti  Ti13  1  0.152350  0.008269  0.876249  1
  Ti  Ti14  1  0.826575  0.173040  0.750085  1
  Ti  Ti15  1  0.173181  0.826640  0.249964  1
  Ti  Ti16  1  0.327086  0.327130  0.000012  1
  Ti  Ti17  1  0.491354  0.651739  0.126230  1
  Ti  Ti18  1  0.651746  0.491430  0.873732  1
  Nb  Nb19  1  0.673110  0.673362  0.500045  1
  Si  Si20  1  0.048027  0.709232  0.434940  1
  Si  Si21  1  0.953085  0.290778  0.935202  1
  Si  Si22  1  0.708965  0.047827  0.565137  1
  Si  Si23  1  0.208990  0.453099  0.185017  1
  Si  Si24  1  0.791753  0.546269  0.686463  1
  Si  Si25  1  0.453089  0.208871  0.814969  1
  Si  Si26  1  0.546076  0.791904  0.313606  1
  Si  Si27  1  0.290792  0.953050  0.064783  1
  Si  Si28  1  0.797883  0.870189  0.184688  1
  Si  Si29  1  0.296966  0.630036  0.565450  1
  Si  Si30  1  0.702200  0.370149  0.065171  1
  Si  Si31  1  0.629725  0.296821  0.434582  1
  Si  Si32  1  0.370164  0.702246  0.934812  1
  Si  Si33  1  0.129925  0.202139  0.315084  1
  Si  Si34  1  0.202295  0.129664  0.684955  1
  Si  Si35  1  0.870111  0.797941  0.815284  1
