# generated using pymatgen
data_Eu6Cd23P
_symmetry_space_group_name_H-M   'P 1'
_cell_length_a   10.23248256
_cell_length_b   10.23248261
_cell_length_c   10.23248200
_cell_angle_alpha   60.00000196
_cell_angle_beta   60.00000180
_cell_angle_gamma   59.99999763
_symmetry_Int_Tables_number   1
_chemical_formula_structural   Eu6Cd23P
_chemical_formula_sum   'Eu6 Cd23 P1'
_cell_volume   757.57916869
_cell_formula_units_Z   1
loop_
 _symmetry_equiv_pos_site_id
 _symmetry_equiv_pos_as_xyz
  1  'x, y, z'
loop_
 _atom_site_type_symbol
 _atom_site_label
 _atom_site_symmetry_multiplicity
 _atom_site_fract_x
 _atom_site_fract_y
 _atom_site_fract_z
 _atom_site_occupancy
  Eu  Eu0  1  0.797868  0.797868  0.202132  1
  Eu  Eu1  1  0.202132  0.797868  0.202132  1
  Eu  Eu2  1  0.797868  0.202132  0.202132  1
  Eu  Eu3  1  0.202132  0.202132  0.797868  1
  Eu  Eu4  1  0.797868  0.202132  0.797868  1
  Eu  Eu5  1  0.202132  0.797868  0.797868  1
  Cd  Cd6  1  0.829230  0.829230  0.512311  1
  Cd  Cd7  1  0.829230  0.512311  0.829230  1
  Cd  Cd8  1  0.512311  0.829230  0.829230  1
  Cd  Cd9  1  0.829230  0.829230  0.829230  1
  Cd  Cd10  1  0.170770  0.170770  0.487689  1
  Cd  Cd11  1  0.170770  0.487689  0.170770  1
  Cd  Cd12  1  0.487689  0.170770  0.170770  1
  Cd  Cd13  1  0.170770  0.170770  0.170770  1
  Cd  Cd14  1  0.620196  0.620196  0.139413  1
  Cd  Cd15  1  0.620196  0.139413  0.620196  1
  Cd  Cd16  1  0.139413  0.620196  0.620196  1
  Cd  Cd17  1  0.620196  0.620196  0.620196  1
  Cd  Cd18  1  0.379804  0.379804  0.860587  1
  Cd  Cd19  1  0.379804  0.860587  0.379804  1
  Cd  Cd20  1  0.860587  0.379804  0.379804  1
  Cd  Cd21  1  0.379804  0.379804  0.379804  1
  Cd  Cd22  1  0.000000  0.000000  0.500000  1
  Cd  Cd23  1  0.500000  0.000000  0.500000  1
  Cd  Cd24  1  0.000000  0.500000  0.500000  1
  Cd  Cd25  1  0.500000  0.500000  0.000000  1
  Cd  Cd26  1  0.000000  0.500000  0.000000  1
  Cd  Cd27  1  0.500000  0.000000  0.000000  1
  Cd  Cd28  1  0.500000  0.500000  0.500000  1
  P  P29  1  0.000000  0.000000  0.000000  1
