# generated using pymatgen
data_Pr10Ge3S7
_symmetry_space_group_name_H-M   'P 1'
_cell_length_a   11.08986546
_cell_length_b   11.08986617
_cell_length_c   7.27204067
_cell_angle_alpha   83.67768893
_cell_angle_beta   83.67770002
_cell_angle_gamma   141.90408448
_symmetry_Int_Tables_number   1
_chemical_formula_structural   Pr10Ge3S7
_chemical_formula_sum   'Pr10 Ge3 S7'
_cell_volume   519.43635981
_cell_formula_units_Z   1
loop_
 _symmetry_equiv_pos_site_id
 _symmetry_equiv_pos_as_xyz
  1  'x, y, z'
loop_
 _atom_site_type_symbol
 _atom_site_label
 _atom_site_symmetry_multiplicity
 _atom_site_fract_x
 _atom_site_fract_y
 _atom_site_fract_z
 _atom_site_occupancy
  Pr  Pr0  1  0.249166  0.249166  0.751680  1
  Pr  Pr1  1  0.851886  0.652382  0.749395  1
  Pr  Pr2  1  0.750834  0.750834  0.248320  1
  Pr  Pr3  1  0.449456  0.050298  0.750867  1
  Pr  Pr4  1  0.347618  0.148114  0.250605  1
  Pr  Pr5  1  0.050298  0.449456  0.750867  1
  Pr  Pr6  1  0.949702  0.550544  0.249133  1
  Pr  Pr7  1  0.652382  0.851886  0.749395  1
  Pr  Pr8  1  0.550544  0.949702  0.249133  1
  Pr  Pr9  1  0.148114  0.347618  0.250605  1
  Ge  Ge10  1  0.500000  0.500000  0.000000  1
  Ge  Ge11  1  0.199937  0.800063  0.500000  1
  Ge  Ge12  1  0.800063  0.199937  0.500000  1
  S  S13  1  0.901186  0.098814  0.000000  1
  S  S14  1  0.400721  0.599279  0.500000  1
  S  S15  1  0.000000  0.000000  0.500000  1
  S  S16  1  0.599279  0.400721  0.500000  1
  S  S17  1  0.098814  0.901186  0.000000  1
  S  S18  1  0.699685  0.300315  0.000000  1
  S  S19  1  0.300315  0.699685  0.000000  1
