# generated using pymatgen
data_NdLuZn4Ru
_symmetry_space_group_name_H-M   'P 1'
_cell_length_a   6.98382100
_cell_length_b   6.98382100
_cell_length_c   5.31351800
_cell_angle_alpha   90.00000000
_cell_angle_beta   90.00000000
_cell_angle_gamma   90.00000000
_symmetry_Int_Tables_number   1
_chemical_formula_structural   NdLuZn4Ru
_chemical_formula_sum   'Nd2 Lu2 Zn8 Ru2'
_cell_volume   259.16022916
_cell_formula_units_Z   2
loop_
 _symmetry_equiv_pos_site_id
 _symmetry_equiv_pos_as_xyz
  1  'x, y, z'
loop_
 _atom_site_type_symbol
 _atom_site_label
 _atom_site_symmetry_multiplicity
 _atom_site_fract_x
 _atom_site_fract_y
 _atom_site_fract_z
 _atom_site_occupancy
  Nd  Nd0  1  0.000000  0.500000  0.773856  1
  Nd  Nd1  1  0.500000  0.000000  0.226144  1
  Lu  Lu2  1  0.000000  0.000000  0.000000  1
  Lu  Lu3  1  0.500000  0.500000  0.000000  1
  Zn  Zn4  1  0.188225  0.688225  0.290401  1
  Zn  Zn5  1  0.811775  0.688225  0.290401  1
  Zn  Zn6  1  0.811775  0.311775  0.290401  1
  Zn  Zn7  1  0.311775  0.188225  0.709599  1
  Zn  Zn8  1  0.188225  0.311775  0.290401  1
  Zn  Zn9  1  0.688225  0.188225  0.709599  1
  Zn  Zn10  1  0.688225  0.811775  0.709599  1
  Zn  Zn11  1  0.311775  0.811775  0.709599  1
  Ru  Ru12  1  0.500000  0.500000  0.500000  1
  Ru  Ru13  1  0.000000  0.000000  0.500000  1
