# generated using pymatgen
data_Ho2Er3Pt4
_symmetry_space_group_name_H-M   'P 1'
_cell_length_a   7.42766900
_cell_length_b   7.52492500
_cell_length_c   14.65567700
_cell_angle_alpha   90.00000000
_cell_angle_beta   90.00000000
_cell_angle_gamma   90.00000000
_symmetry_Int_Tables_number   1
_chemical_formula_structural   Ho2Er3Pt4
_chemical_formula_sum   'Ho8 Er12 Pt16'
_cell_volume   819.14465658
_cell_formula_units_Z   4
loop_
 _symmetry_equiv_pos_site_id
 _symmetry_equiv_pos_as_xyz
  1  'x, y, z'
loop_
 _atom_site_type_symbol
 _atom_site_label
 _atom_site_symmetry_multiplicity
 _atom_site_fract_x
 _atom_site_fract_y
 _atom_site_fract_z
 _atom_site_occupancy
  Ho  Ho0  1  0.501244  0.680063  0.592618  1
  Ho  Ho1  1  0.001244  0.819937  0.907382  1
  Ho  Ho2  1  0.498756  0.319937  0.092618  1
  Ho  Ho3  1  0.998756  0.180063  0.407382  1
  Ho  Ho4  1  0.498756  0.319937  0.407382  1
  Ho  Ho5  1  0.998756  0.180063  0.092618  1
  Ho  Ho6  1  0.501244  0.680063  0.907382  1
  Ho  Ho7  1  0.001244  0.819937  0.592618  1
  Er  Er8  1  0.657166  0.167674  0.622481  1
  Er  Er9  1  0.157166  0.332326  0.877519  1
  Er  Er10  1  0.342834  0.832326  0.122481  1
  Er  Er11  1  0.842834  0.667674  0.377519  1
  Er  Er12  1  0.342834  0.832326  0.377519  1
  Er  Er13  1  0.842834  0.667674  0.122481  1
  Er  Er14  1  0.657166  0.167674  0.877519  1
  Er  Er15  1  0.157166  0.332326  0.622481  1
  Er  Er16  1  0.818852  0.512189  0.750000  1
  Er  Er17  1  0.318852  0.987811  0.750000  1
  Er  Er18  1  0.181148  0.487811  0.250000  1
  Er  Er19  1  0.681148  0.012189  0.250000  1
  Pt  Pt20  1  0.683166  0.967326  0.458199  1
  Pt  Pt21  1  0.183166  0.532674  0.041801  1
  Pt  Pt22  1  0.316834  0.032674  0.958199  1
  Pt  Pt23  1  0.816834  0.467326  0.541801  1
  Pt  Pt24  1  0.316834  0.032674  0.541801  1
  Pt  Pt25  1  0.816834  0.467326  0.958199  1
  Pt  Pt26  1  0.683166  0.967326  0.041801  1
  Pt  Pt27  1  0.183166  0.532674  0.458199  1
  Pt  Pt28  1  0.454215  0.387035  0.750000  1
  Pt  Pt29  1  0.954215  0.112965  0.750000  1
  Pt  Pt30  1  0.545785  0.612965  0.250000  1
  Pt  Pt31  1  0.045785  0.887035  0.250000  1
  Pt  Pt32  1  0.683218  0.856916  0.750000  1
  Pt  Pt33  1  0.183218  0.643084  0.750000  1
  Pt  Pt34  1  0.316782  0.143084  0.250000  1
  Pt  Pt35  1  0.816782  0.356916  0.250000  1
