# generated using pymatgen
data_GdRuF7
_symmetry_space_group_name_H-M   'P 1'
_cell_length_a   5.62352900
_cell_length_b   9.05266991
_cell_length_c   12.08859045
_cell_angle_alpha   63.20770370
_cell_angle_beta   90.00000000
_cell_angle_gamma   90.00000000
_symmetry_Int_Tables_number   1
_chemical_formula_structural   GdRuF7
_chemical_formula_sum   'Gd4 Ru4 F28'
_cell_volume   549.33941714
_cell_formula_units_Z   4
loop_
 _symmetry_equiv_pos_site_id
 _symmetry_equiv_pos_as_xyz
  1  'x, y, z'
loop_
 _atom_site_type_symbol
 _atom_site_label
 _atom_site_symmetry_multiplicity
 _atom_site_fract_x
 _atom_site_fract_y
 _atom_site_fract_z
 _atom_site_occupancy
  Gd  Gd0  1  0.759160  0.810124  0.268543  1
  Gd  Gd1  1  0.259160  0.189876  0.231457  1
  Gd  Gd2  1  0.240840  0.189876  0.731457  1
  Gd  Gd3  1  0.740840  0.810124  0.768543  1
  Ru  Ru4  1  0.244343  0.726772  0.544673  1
  Ru  Ru5  1  0.744343  0.273228  0.955327  1
  Ru  Ru6  1  0.755657  0.273228  0.455327  1
  Ru  Ru7  1  0.255657  0.726772  0.044673  1
  F  F8  1  0.954811  0.716592  0.455295  1
  F  F9  1  0.454811  0.283408  0.044705  1
  F  F10  1  0.045189  0.283408  0.544705  1
  F  F11  1  0.545189  0.716592  0.955295  1
  F  F12  1  0.053510  0.706471  0.919580  1
  F  F13  1  0.553510  0.293529  0.580420  1
  F  F14  1  0.946490  0.293529  0.080420  1
  F  F15  1  0.446490  0.706471  0.419580  1
  F  F16  1  0.734706  0.509461  0.861077  1
  F  F17  1  0.234706  0.490539  0.638923  1
  F  F18  1  0.265294  0.490539  0.138923  1
  F  F19  1  0.765294  0.509461  0.361077  1
  F  F20  1  0.741953  0.038013  0.046867  1
  F  F21  1  0.241953  0.961987  0.453133  1
  F  F22  1  0.258047  0.961987  0.953133  1
  F  F23  1  0.758047  0.038013  0.546867  1
  F  F24  1  0.044645  0.746321  0.671963  1
  F  F25  1  0.544645  0.253679  0.828037  1
  F  F26  1  0.955355  0.253679  0.328037  1
  F  F27  1  0.455355  0.746321  0.171963  1
  F  F28  1  0.027753  0.268999  0.861164  1
  F  F29  1  0.527753  0.731001  0.638836  1
  F  F30  1  0.972247  0.731001  0.138836  1
  F  F31  1  0.472247  0.268999  0.361164  1
  F  F32  1  0.082675  0.971201  0.231692  1
  F  F33  1  0.582675  0.028799  0.268308  1
  F  F34  1  0.917325  0.028799  0.768308  1
  F  F35  1  0.417325  0.971201  0.731692  1
