# generated using pymatgen
data_TbSn6PdRu3
_symmetry_space_group_name_H-M   'P 1'
_cell_length_a   7.01214622
_cell_length_b   6.99556573
_cell_length_c   6.94395915
_cell_angle_alpha   120.00865885
_cell_angle_beta   120.08823481
_cell_angle_gamma   90.40682620
_symmetry_Int_Tables_number   1
_chemical_formula_structural   TbSn6PdRu3
_chemical_formula_sum   'Tb1 Sn6 Pd1 Ru3'
_cell_volume   239.63480121
_cell_formula_units_Z   1
loop_
 _symmetry_equiv_pos_site_id
 _symmetry_equiv_pos_as_xyz
  1  'x, y, z'
loop_
 _atom_site_type_symbol
 _atom_site_label
 _atom_site_symmetry_multiplicity
 _atom_site_fract_x
 _atom_site_fract_y
 _atom_site_fract_z
 _atom_site_occupancy
  Tb  Tb0  1  0.991217  0.015919  0.000000  1
  Sn  Sn1  1  0.869039  0.536776  0.000000  1
  Sn  Sn2  1  0.540388  0.874514  0.000000  1
  Sn  Sn3  1  0.127146  0.110725  0.650697  1
  Sn  Sn4  1  0.005365  0.504600  0.495154  1
  Sn  Sn5  1  0.476450  0.460028  0.349303  1
  Sn  Sn6  1  0.510211  0.009446  0.504846  1
  Pd  Pd7  1  0.235747  0.600557  0.000000  1
  Ru  Ru8  1  0.395199  0.398737  0.649144  1
  Ru  Ru9  1  0.603184  0.239104  0.000000  1
  Ru  Ru10  1  0.746056  0.749593  0.350856  1
