# generated using pymatgen
data_Tb3YGa2SiGe
_symmetry_space_group_name_H-M   'P 1'
_cell_length_a   3.99321300
_cell_length_b   4.34615700
_cell_length_c   10.81450400
_cell_angle_alpha   90.00000000
_cell_angle_beta   90.00000000
_cell_angle_gamma   90.00000000
_symmetry_Int_Tables_number   1
_chemical_formula_structural   Tb3YGa2SiGe
_chemical_formula_sum   'Tb3 Y1 Ga2 Si1 Ge1'
_cell_volume   187.68712965
_cell_formula_units_Z   1
loop_
 _symmetry_equiv_pos_site_id
 _symmetry_equiv_pos_as_xyz
  1  'x, y, z'
loop_
 _atom_site_type_symbol
 _atom_site_label
 _atom_site_symmetry_multiplicity
 _atom_site_fract_x
 _atom_site_fract_y
 _atom_site_fract_z
 _atom_site_occupancy
  Tb  Tb0  1  0.000000  0.000000  0.137553  1
  Tb  Tb1  1  0.500000  0.500000  0.360085  1
  Tb  Tb2  1  0.500000  0.000000  0.860692  1
  Y  Y3  1  0.000000  0.500000  0.641370  1
  Ga  Ga4  1  0.500000  0.500000  0.075569  1
  Ga  Ga5  1  0.500000  0.000000  0.579286  1
  Si  Si6  1  0.000000  0.500000  0.924611  1
  Ge  Ge7  1  0.000000  0.000000  0.420835  1
