# generated using pymatgen
data_TbDy5(Er3Co2)2
_symmetry_space_group_name_H-M   'P 1'
_cell_length_a   6.19115233
_cell_length_b   6.92385008
_cell_length_c   9.40294569
_cell_angle_alpha   90.00037063
_cell_angle_beta   89.65516588
_cell_angle_gamma   89.98263464
_symmetry_Int_Tables_number   1
_chemical_formula_structural   TbDy5(Er3Co2)2
_chemical_formula_sum   'Tb1 Dy5 Er6 Co4'
_cell_volume   403.06509267
_cell_formula_units_Z   1
loop_
 _symmetry_equiv_pos_site_id
 _symmetry_equiv_pos_as_xyz
  1  'x, y, z'
loop_
 _atom_site_type_symbol
 _atom_site_label
 _atom_site_symmetry_multiplicity
 _atom_site_fract_x
 _atom_site_fract_y
 _atom_site_fract_z
 _atom_site_occupancy
  Tb  Tb0  1  0.361131  0.957367  0.750032  1
  Dy  Dy1  1  0.322217  0.675160  0.431198  1
  Dy  Dy2  1  0.177702  0.175856  0.068813  1
  Dy  Dy3  1  0.858770  0.542177  0.249301  1
  Dy  Dy4  1  0.640883  0.042374  0.250684  1
  Dy  Dy5  1  0.138777  0.457270  0.750030  1
  Er  Er6  1  0.325940  0.674529  0.067018  1
  Er  Er7  1  0.174112  0.175124  0.433069  1
  Er  Er8  1  0.674565  0.325376  0.568564  1
  Er  Er9  1  0.825833  0.825311  0.931676  1
  Er  Er10  1  0.676376  0.324543  0.931558  1
  Er  Er11  1  0.823987  0.824415  0.568238  1
  Co  Co12  1  0.049777  0.886977  0.250203  1
  Co  Co13  1  0.450328  0.386892  0.249686  1
  Co  Co14  1  0.948466  0.113452  0.745806  1
  Co  Co15  1  0.551138  0.613180  0.754126  1
