# generated using pymatgen
data_PrDy3(Si3Ir)2
_symmetry_space_group_name_H-M   'P 1'
_cell_length_a   8.20172000
_cell_length_b   8.20172097
_cell_length_c   8.06369700
_cell_angle_alpha   90.00000000
_cell_angle_beta   90.00000000
_cell_angle_gamma   119.99999607
_symmetry_Int_Tables_number   1
_chemical_formula_structural   PrDy3(Si3Ir)2
_chemical_formula_sum   'Pr2 Dy6 Si12 Ir4'
_cell_volume   469.75864201
_cell_formula_units_Z   2
loop_
 _symmetry_equiv_pos_site_id
 _symmetry_equiv_pos_as_xyz
  1  'x, y, z'
loop_
 _atom_site_type_symbol
 _atom_site_label
 _atom_site_symmetry_multiplicity
 _atom_site_fract_x
 _atom_site_fract_y
 _atom_site_fract_z
 _atom_site_occupancy
  Pr  Pr0  1  0.000000  0.000000  0.250000  1
  Pr  Pr1  1  0.000000  0.000000  0.750000  1
  Dy  Dy2  1  0.509287  0.490713  0.250000  1
  Dy  Dy3  1  0.509287  0.018577  0.250000  1
  Dy  Dy4  1  0.981423  0.490713  0.250000  1
  Dy  Dy5  1  0.490713  0.509287  0.750000  1
  Dy  Dy6  1  0.490713  0.981423  0.750000  1
  Dy  Dy7  1  0.018577  0.509287  0.750000  1
  Si  Si8  1  0.168359  0.831641  0.499990  1
  Si  Si9  1  0.168359  0.336718  0.499990  1
  Si  Si10  1  0.663282  0.831641  0.499990  1
  Si  Si11  1  0.831641  0.168359  0.500010  1
  Si  Si12  1  0.831641  0.663282  0.500010  1
  Si  Si13  1  0.336718  0.168359  0.500010  1
  Si  Si14  1  0.831641  0.168359  0.999990  1
  Si  Si15  1  0.831641  0.663282  0.999990  1
  Si  Si16  1  0.336718  0.168359  0.999990  1
  Si  Si17  1  0.168359  0.831641  0.000010  1
  Si  Si18  1  0.168359  0.336718  0.000010  1
  Si  Si19  1  0.663282  0.831641  0.000010  1
  Ir  Ir20  1  0.333333  0.666667  0.466484  1
  Ir  Ir21  1  0.666667  0.333333  0.533516  1
  Ir  Ir22  1  0.666667  0.333333  0.966484  1
  Ir  Ir23  1  0.333333  0.666667  0.033516  1
