# generated using pymatgen
data_NaAl2InI8
_symmetry_space_group_name_H-M   'P 1'
_cell_length_a   15.54684400
_cell_length_b   8.55083200
_cell_length_c   8.60842700
_cell_angle_alpha   90.00000000
_cell_angle_beta   90.00000000
_cell_angle_gamma   90.00000000
_symmetry_Int_Tables_number   1
_chemical_formula_structural   NaAl2InI8
_chemical_formula_sum   'Na2 Al4 In2 I16'
_cell_volume   1144.39095243
_cell_formula_units_Z   2
loop_
 _symmetry_equiv_pos_site_id
 _symmetry_equiv_pos_as_xyz
  1  'x, y, z'
loop_
 _atom_site_type_symbol
 _atom_site_label
 _atom_site_symmetry_multiplicity
 _atom_site_fract_x
 _atom_site_fract_y
 _atom_site_fract_z
 _atom_site_occupancy
  Na  Na0  1  0.850299  0.750000  0.555943  1
  Na  Na1  1  0.350299  0.750000  0.944058  1
  Al  Al2  1  0.396488  0.250000  0.196016  1
  Al  Al3  1  0.896488  0.250000  0.303985  1
  Al  Al4  1  0.102851  0.750000  0.701538  1
  Al  Al5  1  0.602851  0.750000  0.798462  1
  In  In6  1  0.652143  0.250000  0.053526  1
  In  In7  1  0.152143  0.250000  0.446475  1
  I  I8  1  0.555737  0.750000  0.084024  1
  I  I9  1  0.026212  0.250000  0.122273  1
  I  I10  1  0.804927  0.004547  0.250039  1
  I  I11  1  0.804927  0.495454  0.250039  1
  I  I12  1  0.304927  0.004547  0.249960  1
  I  I13  1  0.304927  0.495454  0.249960  1
  I  I14  1  0.526212  0.250000  0.377728  1
  I  I15  1  0.055737  0.750000  0.415976  1
  I  I16  1  0.942283  0.250000  0.589822  1
  I  I17  1  0.466461  0.750000  0.632742  1
  I  I18  1  0.698836  0.512965  0.734036  1
  I  I19  1  0.698836  0.987034  0.734036  1
  I  I20  1  0.198836  0.512965  0.765963  1
  I  I21  1  0.198836  0.987034  0.765963  1
  I  I22  1  0.966462  0.750000  0.867259  1
  I  I23  1  0.442283  0.250000  0.910178  1
