# generated using pymatgen
data_Na2LiNi9As7Ru2
_symmetry_space_group_name_H-M   'P 1'
_cell_length_a   9.52496929
_cell_length_b   9.42940133
_cell_length_c   3.76389000
_cell_angle_alpha   90.00000000
_cell_angle_beta   90.00000000
_cell_angle_gamma   119.94646866
_symmetry_Int_Tables_number   1
_chemical_formula_structural   Na2LiNi9As7Ru2
_chemical_formula_sum   'Na2 Li1 Ni9 As7 Ru2'
_cell_volume   292.92016652
_cell_formula_units_Z   1
loop_
 _symmetry_equiv_pos_site_id
 _symmetry_equiv_pos_as_xyz
  1  'x, y, z'
loop_
 _atom_site_type_symbol
 _atom_site_label
 _atom_site_symmetry_multiplicity
 _atom_site_fract_x
 _atom_site_fract_y
 _atom_site_fract_z
 _atom_site_occupancy
  Na  Na0  1  0.332063  0.668187  0.000000  1
  Na  Na1  1  0.668300  0.333191  0.500000  1
  Li  Li2  1  0.217257  0.115269  0.500000  1
  Ni  Ni3  1  0.124570  0.280983  0.000000  1
  Ni  Ni4  1  0.714685  0.837577  0.000000  1
  Ni  Ni5  1  0.162225  0.882597  0.000000  1
  Ni  Ni6  1  0.431153  0.380410  0.000000  1
  Ni  Ni7  1  0.624165  0.054694  0.000000  1
  Ni  Ni8  1  0.944987  0.568604  0.000000  1
  Ni  Ni9  1  0.050048  0.434571  0.500000  1
  Ni  Ni10  1  0.565768  0.617850  0.500000  1
  Ni  Ni11  1  0.383221  0.954455  0.500000  1
  As  As12  1  0.292663  0.416003  0.500000  1
  As  As13  1  0.587467  0.881047  0.500000  1
  As  As14  1  0.119230  0.709565  0.500000  1
  As  As15  1  0.419436  0.122748  0.000000  1
  As  As16  1  0.880363  0.290230  0.000000  1
  As  As17  1  0.707346  0.585864  0.000000  1
  As  As18  1  0.995085  0.996557  0.000000  1
  Ru  Ru19  1  0.879662  0.090371  0.500000  1
  Ru  Ru20  1  0.900304  0.779230  0.500000  1
