# generated using pymatgen
data_Mn4Si(NiAs)2
_symmetry_space_group_name_H-M   'P 1'
_cell_length_a   3.46426500
_cell_length_b   6.19299688
_cell_length_c   6.24979102
_cell_angle_alpha   120.29150584
_cell_angle_beta   90.00000000
_cell_angle_gamma   90.00000000
_symmetry_Int_Tables_number   1
_chemical_formula_structural   Mn4Si(NiAs)2
_chemical_formula_sum   'Mn4 Si1 Ni2 As2'
_cell_volume   115.77769152
_cell_formula_units_Z   1
loop_
 _symmetry_equiv_pos_site_id
 _symmetry_equiv_pos_as_xyz
  1  'x, y, z'
loop_
 _atom_site_type_symbol
 _atom_site_label
 _atom_site_symmetry_multiplicity
 _atom_site_fract_x
 _atom_site_fract_y
 _atom_site_fract_z
 _atom_site_occupancy
  Mn  Mn0  1  0.000000  0.999958  0.251520  1
  Mn  Mn1  1  0.500000  0.600816  0.000882  1
  Mn  Mn2  1  0.500000  0.399028  0.399863  1
  Mn  Mn3  1  0.500000  0.000012  0.597916  1
  Si  Si4  1  0.500000  0.000045  0.996989  1
  Ni  Ni5  1  0.000000  0.248926  0.998838  1
  Ni  Ni6  1  0.000000  0.751121  0.750000  1
  As  As7  1  0.000000  0.335429  0.669705  1
  As  As8  1  0.000000  0.664566  0.334285  1
