# generated using pymatgen
data_Zr8Pd4CO
_symmetry_space_group_name_H-M   'P 1'
_cell_length_a   8.89804009
_cell_length_b   8.88388182
_cell_length_c   8.89804083
_cell_angle_alpha   60.05262574
_cell_angle_beta   60.23401011
_cell_angle_gamma   60.05262486
_symmetry_Int_Tables_number   1
_chemical_formula_structural   Zr8Pd4CO
_chemical_formula_sum   'Zr16 Pd8 C2 O2'
_cell_volume   498.63748987
_cell_formula_units_Z   2
loop_
 _symmetry_equiv_pos_site_id
 _symmetry_equiv_pos_as_xyz
  1  'x, y, z'
loop_
 _atom_site_type_symbol
 _atom_site_label
 _atom_site_symmetry_multiplicity
 _atom_site_fract_x
 _atom_site_fract_y
 _atom_site_fract_z
 _atom_site_occupancy
  Zr  Zr0  1  0.125000  0.625000  0.625000  1
  Zr  Zr1  1  0.625000  0.125000  0.625000  1
  Zr  Zr2  1  0.625000  0.625000  0.125000  1
  Zr  Zr3  1  0.625000  0.625000  0.625000  1
  Zr  Zr4  1  0.815287  0.821796  0.181498  1
  Zr  Zr5  1  0.181498  0.181419  0.815287  1
  Zr  Zr6  1  0.818414  0.181586  0.818414  1
  Zr  Zr7  1  0.181936  0.818064  0.181936  1
  Zr  Zr8  1  0.181498  0.821796  0.815287  1
  Zr  Zr9  1  0.815287  0.181419  0.181498  1
  Zr  Zr10  1  0.434713  0.428204  0.068502  1
  Zr  Zr11  1  0.068502  0.068581  0.434713  1
  Zr  Zr12  1  0.431586  0.068414  0.431586  1
  Zr  Zr13  1  0.068064  0.431936  0.068064  1
  Zr  Zr14  1  0.068502  0.428204  0.434713  1
  Zr  Zr15  1  0.434713  0.068581  0.068502  1
  Pd  Pd16  1  0.766762  0.411598  0.410045  1
  Pd  Pd17  1  0.409832  0.768529  0.409832  1
  Pd  Pd18  1  0.410045  0.411598  0.766762  1
  Pd  Pd19  1  0.409832  0.411809  0.409832  1
  Pd  Pd20  1  0.483238  0.838402  0.839955  1
  Pd  Pd21  1  0.840168  0.481471  0.840168  1
  Pd  Pd22  1  0.839955  0.838402  0.483238  1
  Pd  Pd23  1  0.840168  0.838191  0.840168  1
  C  C24  1  0.625000  0.125000  0.125000  1
  C  C25  1  0.125000  0.125000  0.625000  1
  O  O26  1  0.125000  0.625000  0.125000  1
  O  O27  1  0.125000  0.125000  0.125000  1
