# generated using pymatgen
data_Tb2Er2MnAl18Pd5
_symmetry_space_group_name_H-M   'P 1'
_cell_length_a   7.60518630
_cell_length_b   7.59904367
_cell_length_c   9.47807080
_cell_angle_alpha   89.93231703
_cell_angle_beta   90.00421247
_cell_angle_gamma   119.55073160
_symmetry_Int_Tables_number   1
_chemical_formula_structural   Tb2Er2MnAl18Pd5
_chemical_formula_sum   'Tb2 Er2 Mn1 Al18 Pd5'
_cell_volume   476.50488562
_cell_formula_units_Z   1
loop_
 _symmetry_equiv_pos_site_id
 _symmetry_equiv_pos_as_xyz
  1  'x, y, z'
loop_
 _atom_site_type_symbol
 _atom_site_label
 _atom_site_symmetry_multiplicity
 _atom_site_fract_x
 _atom_site_fract_y
 _atom_site_fract_z
 _atom_site_occupancy
  Tb  Tb0  1  0.669554  0.994971  0.248582  1
  Tb  Tb1  1  0.330446  0.005029  0.751418  1
  Er  Er2  1  0.994660  0.669819  0.248118  1
  Er  Er3  1  0.005340  0.330181  0.751882  1
  Mn  Mn4  1  0.000000  0.000000  0.000000  1
  Al  Al5  1  0.123635  0.123512  0.241621  1
  Al  Al6  1  0.876365  0.876488  0.758379  1
  Al  Al7  1  0.999003  0.324624  0.071719  1
  Al  Al8  1  0.000997  0.675376  0.928281  1
  Al  Al9  1  0.997983  0.664060  0.578021  1
  Al  Al10  1  0.334469  0.001472  0.421379  1
  Al  Al11  1  0.002017  0.335940  0.421979  1
  Al  Al12  1  0.665531  0.998528  0.578621  1
  Al  Al13  1  0.676853  0.001780  0.927590  1
  Al  Al14  1  0.323147  0.998220  0.072410  1
  Al  Al15  1  0.333639  0.334222  0.557630  1
  Al  Al16  1  0.666361  0.665778  0.442370  1
  Al  Al17  1  0.677171  0.676663  0.051085  1
  Al  Al18  1  0.322829  0.323337  0.948915  1
  Al  Al19  1  0.339610  0.545739  0.248356  1
  Al  Al20  1  0.660390  0.454261  0.751644  1
  Al  Al21  1  0.546556  0.341090  0.248298  1
  Al  Al22  1  0.453444  0.658910  0.751702  1
  Pd  Pd23  1  0.672368  0.328015  0.000064  1
  Pd  Pd24  1  0.327632  0.671985  0.999936  1
  Pd  Pd25  1  0.327335  0.672216  0.499971  1
  Pd  Pd26  1  0.672665  0.327784  0.500029  1
  Pd  Pd27  1  0.000000  0.000000  0.500000  1
