# generated using pymatgen
data_La6Pr10Cd4Co3Ir
_symmetry_space_group_name_H-M   'P 1'
_cell_length_a   9.93130979
_cell_length_b   9.96639555
_cell_length_c   9.96639495
_cell_angle_alpha   59.20253339
_cell_angle_beta   60.39892880
_cell_angle_gamma   60.39892167
_symmetry_Int_Tables_number   1
_chemical_formula_structural   La6Pr10Cd4Co3Ir
_chemical_formula_sum   'La6 Pr10 Cd4 Co3 Ir1'
_cell_volume   697.33867141
_cell_formula_units_Z   1
loop_
 _symmetry_equiv_pos_site_id
 _symmetry_equiv_pos_as_xyz
  1  'x, y, z'
loop_
 _atom_site_type_symbol
 _atom_site_label
 _atom_site_symmetry_multiplicity
 _atom_site_fract_x
 _atom_site_fract_y
 _atom_site_fract_z
 _atom_site_occupancy
  La  La0  1  0.334102  0.350703  0.350703  1
  La  La1  1  0.343714  0.345934  0.959806  1
  La  La2  1  0.343714  0.959806  0.345934  1
  La  La3  1  0.964855  0.347325  0.347325  1
  La  La4  1  0.820174  0.187007  0.187007  1
  La  La5  1  0.187197  0.813687  0.813687  1
  Pr  Pr6  1  0.192183  0.808919  0.189065  1
  Pr  Pr7  1  0.812256  0.190339  0.803508  1
  Pr  Pr8  1  0.192183  0.189065  0.808919  1
  Pr  Pr9  1  0.812256  0.803508  0.190339  1
  Pr  Pr10  1  0.933882  0.565994  0.565994  1
  Pr  Pr11  1  0.563118  0.936814  0.936814  1
  Pr  Pr12  1  0.563004  0.941367  0.557167  1
  Pr  Pr13  1  0.939016  0.560881  0.938426  1
  Pr  Pr14  1  0.563004  0.557167  0.941367  1
  Pr  Pr15  1  0.939016  0.938426  0.560881  1
  Cd  Cd16  1  0.580714  0.578634  0.578634  1
  Cd  Cd17  1  0.579406  0.580018  0.261387  1
  Cd  Cd18  1  0.579406  0.261387  0.580018  1
  Cd  Cd19  1  0.258949  0.579838  0.579838  1
  Co  Co20  1  0.129477  0.146586  0.146586  1
  Co  Co21  1  0.145973  0.132587  0.578094  1
  Co  Co22  1  0.145973  0.578094  0.132587  1
  Ir  Ir23  1  0.576435  0.145913  0.145913  1
