# generated using pymatgen
data_Nd6TiAl23Ru8
_symmetry_space_group_name_H-M   'P 1'
_cell_length_a   8.91409900
_cell_length_b   8.91409909
_cell_length_c   9.69050100
_cell_angle_alpha   90.00000000
_cell_angle_beta   90.00000000
_cell_angle_gamma   120.00000338
_symmetry_Int_Tables_number   1
_chemical_formula_structural   Nd6TiAl23Ru8
_chemical_formula_sum   'Nd6 Ti1 Al23 Ru8'
_cell_volume   666.85553165
_cell_formula_units_Z   1
loop_
 _symmetry_equiv_pos_site_id
 _symmetry_equiv_pos_as_xyz
  1  'x, y, z'
loop_
 _atom_site_type_symbol
 _atom_site_label
 _atom_site_symmetry_multiplicity
 _atom_site_fract_x
 _atom_site_fract_y
 _atom_site_fract_z
 _atom_site_occupancy
  Nd  Nd0  1  0.192585  0.385169  0.250716  1
  Nd  Nd1  1  0.807406  0.614814  0.748421  1
  Nd  Nd2  1  0.614831  0.807415  0.250716  1
  Nd  Nd3  1  0.385186  0.192594  0.748421  1
  Nd  Nd4  1  0.192585  0.807415  0.250716  1
  Nd  Nd5  1  0.807406  0.192594  0.748421  1
  Ti  Ti6  1  0.333333  0.666667  0.989375  1
  Al  Al7  1  0.666667  0.333333  0.990047  1
  Al  Al8  1  0.666667  0.333333  0.508699  1
  Al  Al9  1  0.333333  0.666667  0.489438  1
  Al  Al10  1  0.161879  0.323759  0.575973  1
  Al  Al11  1  0.837766  0.675532  0.423864  1
  Al  Al12  1  0.676241  0.838121  0.575973  1
  Al  Al13  1  0.837477  0.674953  0.076564  1
  Al  Al14  1  0.324468  0.162234  0.423864  1
  Al  Al15  1  0.158753  0.317506  0.925049  1
  Al  Al16  1  0.161879  0.838121  0.575973  1
  Al  Al17  1  0.325047  0.162523  0.076564  1
  Al  Al18  1  0.837766  0.162234  0.423864  1
  Al  Al19  1  0.682494  0.841247  0.925049  1
  Al  Al20  1  0.837477  0.162523  0.076564  1
  Al  Al21  1  0.158753  0.841247  0.925049  1
  Al  Al22  1  0.562974  0.125947  0.252208  1
  Al  Al23  1  0.438681  0.877363  0.749573  1
  Al  Al24  1  0.874053  0.437026  0.252208  1
  Al  Al25  1  0.122637  0.561319  0.749573  1
  Al  Al26  1  0.562974  0.437026  0.252208  1
  Al  Al27  1  0.438681  0.561319  0.749573  1
  Al  Al28  1  0.000000  0.000000  0.249817  1
  Al  Al29  1  0.000000  0.000000  0.749166  1
  Ru  Ru30  1  0.497647  0.995293  0.002805  1
  Ru  Ru31  1  0.004707  0.502353  0.002805  1
  Ru  Ru32  1  0.499492  0.998984  0.502813  1
  Ru  Ru33  1  0.497647  0.502353  0.002805  1
  Ru  Ru34  1  0.001016  0.500508  0.502813  1
  Ru  Ru35  1  0.499492  0.500508  0.502813  1
  Ru  Ru36  1  0.000000  0.000000  0.000384  1
  Ru  Ru37  1  0.000000  0.000000  0.499114  1
