# generated using pymatgen
data_Tb2HoIn3SnPt2
_symmetry_space_group_name_H-M   'P 1'
_cell_length_a   7.62992521
_cell_length_b   7.63455360
_cell_length_c   4.17011700
_cell_angle_alpha   90.00000000
_cell_angle_beta   90.00000000
_cell_angle_gamma   120.06715397
_symmetry_Int_Tables_number   1
_chemical_formula_structural   Tb2HoIn3SnPt2
_chemical_formula_sum   'Tb2 Ho1 In3 Sn1 Pt2'
_cell_volume   210.22701389
_cell_formula_units_Z   1
loop_
 _symmetry_equiv_pos_site_id
 _symmetry_equiv_pos_as_xyz
  1  'x, y, z'
loop_
 _atom_site_type_symbol
 _atom_site_label
 _atom_site_symmetry_multiplicity
 _atom_site_fract_x
 _atom_site_fract_y
 _atom_site_fract_z
 _atom_site_occupancy
  Tb  Tb0  1  0.606823  0.020350  0.500000  1
  Tb  Tb1  1  0.413638  0.393394  0.500000  1
  Ho  Ho2  1  0.978753  0.586540  0.500000  1
  In  In3  1  0.755952  0.744780  0.000000  1
  In  In4  1  0.989284  0.244440  0.000000  1
  In  In5  1  0.255095  0.010652  0.000000  1
  Sn  Sn6  1  0.332489  0.666393  0.000000  1
  Pt  Pt7  1  0.667905  0.334254  0.000000  1
  Pt  Pt8  1  0.000062  0.999195  0.500000  1
