# generated using pymatgen
data_Dy3Tm(LuSb)6
_symmetry_space_group_name_H-M   'P 1'
_cell_length_a   8.07280000
_cell_length_b   9.13928700
_cell_length_c   11.73825500
_cell_angle_alpha   90.00000000
_cell_angle_beta   90.00000000
_cell_angle_gamma   90.00000000
_symmetry_Int_Tables_number   1
_chemical_formula_structural   Dy3Tm(LuSb)6
_chemical_formula_sum   'Dy6 Tm2 Lu12 Sb12'
_cell_volume   866.04418227
_cell_formula_units_Z   2
loop_
 _symmetry_equiv_pos_site_id
 _symmetry_equiv_pos_as_xyz
  1  'x, y, z'
loop_
 _atom_site_type_symbol
 _atom_site_label
 _atom_site_symmetry_multiplicity
 _atom_site_fract_x
 _atom_site_fract_y
 _atom_site_fract_z
 _atom_site_occupancy
  Dy  Dy0  1  0.175715  0.750000  0.228714  1
  Dy  Dy1  1  0.675715  0.250000  0.271286  1
  Dy  Dy2  1  0.823812  0.250000  0.770969  1
  Dy  Dy3  1  0.323812  0.750000  0.729031  1
  Dy  Dy4  1  0.658791  0.750000  0.290906  1
  Dy  Dy5  1  0.158791  0.250000  0.209094  1
  Tm  Tm6  1  0.340615  0.250000  0.709256  1
  Tm  Tm7  1  0.840615  0.750000  0.790744  1
  Lu  Lu8  1  0.809607  0.938970  0.065047  1
  Lu  Lu9  1  0.309607  0.061030  0.434953  1
  Lu  Lu10  1  0.190851  0.438397  0.933980  1
  Lu  Lu11  1  0.690851  0.561603  0.566020  1
  Lu  Lu12  1  0.190851  0.061603  0.933980  1
  Lu  Lu13  1  0.690851  0.938397  0.566020  1
  Lu  Lu14  1  0.809607  0.561030  0.065047  1
  Lu  Lu15  1  0.309607  0.438970  0.434953  1
  Lu  Lu16  1  0.524650  0.250000  0.994626  1
  Lu  Lu17  1  0.024650  0.750000  0.505374  1
  Lu  Lu18  1  0.475069  0.750000  0.003960  1
  Lu  Lu19  1  0.975069  0.250000  0.496040  1
  Sb  Sb20  1  0.937332  0.991358  0.327274  1
  Sb  Sb21  1  0.437332  0.008642  0.172726  1
  Sb  Sb22  1  0.063349  0.491083  0.673349  1
  Sb  Sb23  1  0.563349  0.508917  0.826651  1
  Sb  Sb24  1  0.063349  0.008917  0.673349  1
  Sb  Sb25  1  0.563349  0.991083  0.826651  1
  Sb  Sb26  1  0.937332  0.508642  0.327274  1
  Sb  Sb27  1  0.437332  0.491358  0.172726  1
  Sb  Sb28  1  0.901803  0.250000  0.024780  1
  Sb  Sb29  1  0.401803  0.750000  0.475220  1
  Sb  Sb30  1  0.097267  0.750000  0.973831  1
  Sb  Sb31  1  0.597267  0.250000  0.526169  1
