# generated using pymatgen
data_DyLu4In4RuPt
_symmetry_space_group_name_H-M   'P 1'
_cell_length_a   3.56097100
_cell_length_b   7.97994317
_cell_length_c   18.15462978
_cell_angle_alpha   89.91678737
_cell_angle_beta   90.00000000
_cell_angle_gamma   90.00000000
_symmetry_Int_Tables_number   1
_chemical_formula_structural   DyLu4In4RuPt
_chemical_formula_sum   'Dy2 Lu8 In8 Ru2 Pt2'
_cell_volume   515.88770099
_cell_formula_units_Z   2
loop_
 _symmetry_equiv_pos_site_id
 _symmetry_equiv_pos_as_xyz
  1  'x, y, z'
loop_
 _atom_site_type_symbol
 _atom_site_label
 _atom_site_symmetry_multiplicity
 _atom_site_fract_x
 _atom_site_fract_y
 _atom_site_fract_z
 _atom_site_occupancy
  Dy  Dy0  1  0.000000  0.000000  0.000000  1
  Dy  Dy1  1  0.000000  0.500000  0.500000  1
  Lu  Lu2  1  0.000000  0.115857  0.411959  1
  Lu  Lu3  1  0.000000  0.884143  0.588041  1
  Lu  Lu4  1  0.000000  0.382177  0.913875  1
  Lu  Lu5  1  0.000000  0.617823  0.086125  1
  Lu  Lu6  1  0.000000  0.237239  0.222673  1
  Lu  Lu7  1  0.000000  0.762761  0.777327  1
  Lu  Lu8  1  0.000000  0.247914  0.720139  1
  Lu  Lu9  1  0.000000  0.752086  0.279861  1
  In  In10  1  0.500000  0.424061  0.351502  1
  In  In11  1  0.500000  0.575939  0.648498  1
  In  In12  1  0.500000  0.070091  0.849833  1
  In  In13  1  0.500000  0.929909  0.150167  1
  In  In14  1  0.500000  0.293335  0.065914  1
  In  In15  1  0.500000  0.706665  0.934086  1
  In  In16  1  0.500000  0.204879  0.567956  1
  In  In17  1  0.500000  0.795121  0.432044  1
  Ru  Ru18  1  0.500000  0.023303  0.303720  1
  Ru  Ru19  1  0.500000  0.976697  0.696280  1
  Pt  Pt20  1  0.500000  0.475144  0.803728  1
  Pt  Pt21  1  0.500000  0.524856  0.196272  1
