# generated using pymatgen
data_CaGaSbAs2O7
_symmetry_space_group_name_H-M   'P 1'
_cell_length_a   12.75874215
_cell_length_b   12.75874099
_cell_length_c   12.75874196
_cell_angle_alpha   100.54026436
_cell_angle_beta   100.54026548
_cell_angle_gamma   129.35675464
_symmetry_Int_Tables_number   1
_chemical_formula_structural   CaGaSbAs2O7
_chemical_formula_sum   'Ca8 Ga8 Sb8 As16 O56'
_cell_volume   1451.61995843
_cell_formula_units_Z   8
loop_
 _symmetry_equiv_pos_site_id
 _symmetry_equiv_pos_as_xyz
  1  'x, y, z'
loop_
 _atom_site_type_symbol
 _atom_site_label
 _atom_site_symmetry_multiplicity
 _atom_site_fract_x
 _atom_site_fract_y
 _atom_site_fract_z
 _atom_site_occupancy
  Ca  Ca0  1  0.798268  0.458395  0.960716  1
  Ca  Ca1  1  0.708395  0.247680  0.160128  1
  Ca  Ca2  1  0.162448  0.201732  0.660128  1
  Ca  Ca3  1  0.541605  0.502320  0.339872  1
  Ca  Ca4  1  0.451732  0.291605  0.539284  1
  Ca  Ca5  1  0.752320  0.912448  0.460716  1
  Ca  Ca6  1  0.087552  0.548268  0.839872  1
  Ca  Ca7  1  0.497680  0.837552  0.039284  1
  Ga  Ga8  1  0.358060  0.102906  0.727850  1
  Ga  Ga9  1  0.375056  0.630210  0.272150  1
  Ga  Ga10  1  0.369790  0.641940  0.744846  1
  Ga  Ga11  1  0.352906  0.125056  0.244846  1
  Ga  Ga12  1  0.880210  0.108060  0.755154  1
  Ga  Ga13  1  0.891940  0.647094  0.772150  1
  Ga  Ga14  1  0.897094  0.624944  0.255154  1
  Ga  Ga15  1  0.874944  0.119790  0.227850  1
  Sb  Sb16  1  0.937028  0.786721  0.501212  1
  Sb  Sb17  1  0.285509  0.435816  0.498788  1
  Sb  Sb18  1  0.312972  0.963279  0.998788  1
  Sb  Sb19  1  0.564184  0.062972  0.849693  1
  Sb  Sb20  1  0.964491  0.314184  0.001212  1
  Sb  Sb21  1  0.685816  0.687028  0.650307  1
  Sb  Sb22  1  0.213279  0.714491  0.150307  1
  Sb  Sb23  1  0.036721  0.035509  0.349693  1
  As  As24  1  0.272305  0.937845  0.431142  1
  As  As25  1  0.526810  0.357959  0.038384  1
  As  As26  1  0.930425  0.261574  0.538384  1
  As  As27  1  0.091163  0.022305  0.834461  1
  As  As28  1  0.738426  0.276810  0.668851  1
  As  As29  1  0.506703  0.841163  0.568858  1
  As  As30  1  0.062155  0.493297  0.334461  1
  As  As31  1  0.511574  0.473190  0.831149  1
  As  As32  1  0.187845  0.256703  0.165539  1
  As  As33  1  0.743297  0.908837  0.931142  1
  As  As34  1  0.723190  0.392041  0.461616  1
  As  As35  1  0.607959  0.069575  0.331149  1
  As  As36  1  0.977695  0.812155  0.068858  1
  As  As37  1  0.319575  0.488426  0.961616  1
  As  As38  1  0.642041  0.680425  0.168851  1
  As  As39  1  0.158837  0.727695  0.665539  1
  O  O40  1  0.582856  0.703431  0.278553  1
  O  O41  1  0.729371  0.093533  0.457434  1
  O  O42  1  0.300334  0.456530  0.663502  1
  O  O43  1  0.754628  0.987077  0.070743  1
  O  O44  1  0.706530  0.543029  0.656197  1
  O  O45  1  0.363168  0.699666  0.156197  1
  O  O46  1  0.075226  0.814448  0.392736  1
  O  O47  1  0.333666  0.066115  0.570743  1
  O  O48  1  0.741830  0.726026  0.515278  1
  O  O49  1  0.933885  0.504628  0.267551  1
  O  O50  1  0.273974  0.789252  0.015803  1
  O  O51  1  0.012923  0.083666  0.767551  1
  O  O52  1  0.520629  0.656467  0.042566  1
  O  O53  1  0.886832  0.050334  0.343803  1
  O  O54  1  0.554304  0.332856  0.379425  1
  O  O55  1  0.699550  0.935511  0.634300  1
  O  O56  1  0.613901  0.478063  0.957434  1
  O  O57  1  0.828288  0.067510  0.892736  1
  O  O58  1  0.695696  0.417144  0.120575  1
  O  O59  1  0.667144  0.046569  0.221447  1
  O  O60  1  0.185552  0.578288  0.260778  1
  O  O61  1  0.636099  0.271937  0.542566  1
  O  O62  1  0.495372  0.762923  0.429257  1
  O  O63  1  0.825122  0.445696  0.778553  1
  O  O64  1  0.948789  0.684750  0.134300  1
  O  O65  1  0.976026  0.960748  0.484197  1
  O  O66  1  0.210748  0.226551  0.484722  1
  O  O67  1  0.185511  0.051211  0.735961  1
  O  O68  1  0.773449  0.258170  0.984197  1
  O  O69  1  0.521937  0.479371  0.135837  1
  O  O70  1  0.508170  0.023974  0.984722  1
  O  O71  1  0.064448  0.171712  0.239222  1
  O  O72  1  0.064489  0.698789  0.764039  1
  O  O73  1  0.343533  0.386099  0.864163  1
  O  O74  1  0.237077  0.666334  0.732449  1
  O  O75  1  0.317510  0.924774  0.739222  1
  O  O76  1  0.949666  0.293470  0.836498  1
  O  O77  1  0.934750  0.300450  0.235961  1
  O  O78  1  0.315250  0.449550  0.264039  1
  O  O79  1  0.456971  0.113168  0.163502  1
  O  O80  1  0.174774  0.935552  0.107264  1
  O  O81  1  0.793029  0.636832  0.336498  1
  O  O82  1  0.476551  0.491830  0.515803  1
  O  O83  1  0.932490  0.825226  0.760778  1
  O  O84  1  0.550450  0.814489  0.865700  1
  O  O85  1  0.424878  0.304304  0.721447  1
  O  O86  1  0.301211  0.065250  0.365700  1
  O  O87  1  0.906467  0.363901  0.635837  1
  O  O88  1  0.916334  0.683885  0.929257  1
  O  O89  1  0.421712  0.682490  0.607264  1
  O  O90  1  0.953431  0.174878  0.620575  1
  O  O91  1  0.296569  0.575122  0.879425  1
  O  O92  1  0.543470  0.206971  0.843803  1
  O  O93  1  0.728063  0.270629  0.364163  1
  O  O94  1  0.039252  0.523449  0.015278  1
  O  O95  1  0.316115  0.245372  0.232449  1
