# generated using pymatgen
data_Pr5Nd(Dy2Sn3)2
_symmetry_space_group_name_H-M   'P 1'
_cell_length_a   9.23351600
_cell_length_b   9.22597185
_cell_length_c   6.73690500
_cell_angle_alpha   90.00000000
_cell_angle_beta   90.00000000
_cell_angle_gamma   120.02705325
_symmetry_Int_Tables_number   1
_chemical_formula_structural   Pr5Nd(Dy2Sn3)2
_chemical_formula_sum   'Pr5 Nd1 Dy4 Sn6'
_cell_volume   496.88035908
_cell_formula_units_Z   1
loop_
 _symmetry_equiv_pos_site_id
 _symmetry_equiv_pos_as_xyz
  1  'x, y, z'
loop_
 _atom_site_type_symbol
 _atom_site_label
 _atom_site_symmetry_multiplicity
 _atom_site_fract_x
 _atom_site_fract_y
 _atom_site_fract_z
 _atom_site_occupancy
  Pr  Pr0  1  0.241880  0.000000  0.250000  1
  Pr  Pr1  1  0.241719  0.241748  0.750000  1
  Pr  Pr2  1  0.999971  0.758252  0.750000  1
  Pr  Pr3  1  0.999925  0.241680  0.250000  1
  Pr  Pr4  1  0.758245  0.758320  0.250000  1
  Nd  Nd5  1  0.757885  0.000000  0.750000  1
  Dy  Dy6  1  0.333420  0.666736  0.999944  1
  Dy  Dy7  1  0.666685  0.333264  0.500056  1
  Dy  Dy8  1  0.666685  0.333264  0.999944  1
  Dy  Dy9  1  0.333420  0.666736  0.500056  1
  Sn  Sn10  1  0.601607  0.000000  0.250000  1
  Sn  Sn11  1  0.601816  0.602112  0.750000  1
  Sn  Sn12  1  0.999703  0.397888  0.750000  1
  Sn  Sn13  1  0.999962  0.601594  0.250000  1
  Sn  Sn14  1  0.398368  0.398406  0.250000  1
  Sn  Sn15  1  0.398707  0.000000  0.750000  1
