# generated using pymatgen
data_Sr21Al8CdSn6
_symmetry_space_group_name_H-M   'P 1'
_cell_length_a   12.24561640
_cell_length_b   12.24561748
_cell_length_c   12.24561700
_cell_angle_alpha   60.00000400
_cell_angle_beta   60.00000107
_cell_angle_gamma   59.99999896
_symmetry_Int_Tables_number   1
_chemical_formula_structural   Sr21Al8CdSn6
_chemical_formula_sum   'Sr21 Al8 Cd1 Sn6'
_cell_volume   1298.45537159
_cell_formula_units_Z   1
loop_
 _symmetry_equiv_pos_site_id
 _symmetry_equiv_pos_as_xyz
  1  'x, y, z'
loop_
 _atom_site_type_symbol
 _atom_site_label
 _atom_site_symmetry_multiplicity
 _atom_site_fract_x
 _atom_site_fract_y
 _atom_site_fract_z
 _atom_site_occupancy
  Sr  Sr0  1  0.870361  0.870361  0.388916  1
  Sr  Sr1  1  0.611084  0.129639  0.129639  1
  Sr  Sr2  1  0.870361  0.388916  0.870361  1
  Sr  Sr3  1  0.129639  0.129639  0.129639  1
  Sr  Sr4  1  0.388916  0.870361  0.870361  1
  Sr  Sr5  1  0.870361  0.870361  0.870361  1
  Sr  Sr6  1  0.174192  0.825808  0.500000  1
  Sr  Sr7  1  0.825808  0.500000  0.500000  1
  Sr  Sr8  1  0.129639  0.129639  0.611084  1
  Sr  Sr9  1  0.825808  0.174192  0.500000  1
  Sr  Sr10  1  0.174192  0.500000  0.500000  1
  Sr  Sr11  1  0.129639  0.611084  0.129639  1
  Sr  Sr12  1  0.500000  0.500000  0.174192  1
  Sr  Sr13  1  0.500000  0.174192  0.825808  1
  Sr  Sr14  1  0.500000  0.825808  0.174192  1
  Sr  Sr15  1  0.500000  0.500000  0.825808  1
  Sr  Sr16  1  0.500000  0.174192  0.500000  1
  Sr  Sr17  1  0.174192  0.500000  0.825808  1
  Sr  Sr18  1  0.000000  0.000000  0.000000  1
  Sr  Sr19  1  0.500000  0.825808  0.500000  1
  Sr  Sr20  1  0.825808  0.500000  0.174192  1
  Al  Al21  1  0.694316  0.917053  0.694316  1
  Al  Al22  1  0.694316  0.694316  0.917053  1
  Al  Al23  1  0.694316  0.694316  0.694316  1
  Al  Al24  1  0.305684  0.082947  0.305684  1
  Al  Al25  1  0.917053  0.694316  0.694316  1
  Al  Al26  1  0.305684  0.305684  0.082947  1
  Al  Al27  1  0.082947  0.305684  0.305684  1
  Al  Al28  1  0.305684  0.305684  0.305684  1
  Cd  Cd29  1  0.500000  0.500000  0.500000  1
  Sn  Sn30  1  0.784659  0.215341  0.784659  1
  Sn  Sn31  1  0.784659  0.215341  0.215341  1
  Sn  Sn32  1  0.215341  0.784659  0.215341  1
  Sn  Sn33  1  0.215341  0.784659  0.784659  1
  Sn  Sn34  1  0.784659  0.784659  0.215341  1
  Sn  Sn35  1  0.215341  0.215341  0.784659  1
