# generated using pymatgen
data_Yb6NbOsO12
_symmetry_space_group_name_H-M   'P 1'
_cell_length_a   5.84085528
_cell_length_b   5.50639216
_cell_length_c   9.61839904
_cell_angle_alpha   55.59890398
_cell_angle_beta   90.06158286
_cell_angle_gamma   90.11305018
_symmetry_Int_Tables_number   1
_chemical_formula_structural   Yb6NbOsO12
_chemical_formula_sum   'Yb6 Nb1 Os1 O12'
_cell_volume   255.24281900
_cell_formula_units_Z   1
loop_
 _symmetry_equiv_pos_site_id
 _symmetry_equiv_pos_as_xyz
  1  'x, y, z'
loop_
 _atom_site_type_symbol
 _atom_site_label
 _atom_site_symmetry_multiplicity
 _atom_site_fract_x
 _atom_site_fract_y
 _atom_site_fract_z
 _atom_site_occupancy
  Yb  Yb0  1  0.062085  0.716931  0.764408  1
  Yb  Yb1  1  0.937915  0.283069  0.235592  1
  Yb  Yb2  1  0.569014  0.277372  0.750261  1
  Yb  Yb3  1  0.430986  0.722628  0.249739  1
  Yb  Yb4  1  0.500000  0.500000  0.000000  1
  Yb  Yb5  1  0.000000  0.500000  0.500000  1
  Nb  Nb6  1  0.000000  0.000000  0.000000  1
  Os  Os7  1  0.500000  0.000000  0.500000  1
  O  O8  1  0.450319  0.899056  0.721385  1
  O  O9  1  0.549681  0.100944  0.278615  1
  O  O10  1  0.938045  0.104279  0.765355  1
  O  O11  1  0.061955  0.895721  0.234645  1
  O  O12  1  0.772899  0.758508  0.573271  1
  O  O13  1  0.227101  0.241492  0.426729  1
  O  O14  1  0.285429  0.257265  0.918675  1
  O  O15  1  0.714571  0.742735  0.081325  1
  O  O16  1  0.323675  0.664276  0.554761  1
  O  O17  1  0.676325  0.335724  0.445239  1
  O  O18  1  0.816865  0.352394  0.941914  1
  O  O19  1  0.183135  0.647606  0.058086  1
