# generated using pymatgen
data_Zr4P4Os3Ru
_symmetry_space_group_name_H-M   'P 1'
_cell_length_a   3.91610300
_cell_length_b   6.48428806
_cell_length_c   7.36559606
_cell_angle_alpha   89.98485866
_cell_angle_beta   90.00000000
_cell_angle_gamma   90.00000000
_symmetry_Int_Tables_number   1
_chemical_formula_structural   Zr4P4Os3Ru
_chemical_formula_sum   'Zr4 P4 Os3 Ru1'
_cell_volume   187.03560486
_cell_formula_units_Z   1
loop_
 _symmetry_equiv_pos_site_id
 _symmetry_equiv_pos_as_xyz
  1  'x, y, z'
loop_
 _atom_site_type_symbol
 _atom_site_label
 _atom_site_symmetry_multiplicity
 _atom_site_fract_x
 _atom_site_fract_y
 _atom_site_fract_z
 _atom_site_occupancy
  Zr  Zr0  1  0.750000  0.522000  0.319988  1
  Zr  Zr1  1  0.250000  0.978736  0.821413  1
  Zr  Zr2  1  0.750000  0.021698  0.179173  1
  Zr  Zr3  1  0.250000  0.477646  0.679599  1
  P  P4  1  0.250000  0.723249  0.122198  1
  P  P5  1  0.250000  0.222713  0.377253  1
  P  P6  1  0.750000  0.276465  0.878340  1
  P  P7  1  0.750000  0.776734  0.622421  1
  Os  Os8  1  0.250000  0.348063  0.060636  1
  Os  Os9  1  0.250000  0.848443  0.440271  1
  Os  Os10  1  0.750000  0.153220  0.559893  1
  Ru  Ru11  1  0.750000  0.651032  0.938815  1
