# generated using pymatgen
data_Tb9Y7Cd4(NiOs)2
_symmetry_space_group_name_H-M   'P 1'
_cell_length_a   9.63165221
_cell_length_b   9.63165229
_cell_length_c   9.72005300
_cell_angle_alpha   59.69591866
_cell_angle_beta   59.69591835
_cell_angle_gamma   59.60352483
_symmetry_Int_Tables_number   1
_chemical_formula_structural   Tb9Y7Cd4(NiOs)2
_chemical_formula_sum   'Tb9 Y7 Cd4 Ni2 Os2'
_cell_volume   632.75786278
_cell_formula_units_Z   1
loop_
 _symmetry_equiv_pos_site_id
 _symmetry_equiv_pos_as_xyz
  1  'x, y, z'
loop_
 _atom_site_type_symbol
 _atom_site_label
 _atom_site_symmetry_multiplicity
 _atom_site_fract_x
 _atom_site_fract_y
 _atom_site_fract_z
 _atom_site_occupancy
  Tb  Tb0  1  0.600099  0.600099  0.593252  1
  Tb  Tb1  1  0.600099  0.600099  0.206550  1
  Tb  Tb2  1  0.601253  0.206271  0.596238  1
  Tb  Tb3  1  0.206271  0.601253  0.596238  1
  Tb  Tb4  1  0.060293  0.436610  0.440992  1
  Tb  Tb5  1  0.436610  0.060293  0.062105  1
  Tb  Tb6  1  0.436610  0.060293  0.440992  1
  Tb  Tb7  1  0.060293  0.436610  0.062105  1
  Tb  Tb8  1  0.439028  0.439028  0.060972  1
  Y  Y9  1  0.058894  0.058894  0.441106  1
  Y  Y10  1  0.189145  0.806030  0.816559  1
  Y  Y11  1  0.806030  0.189145  0.188266  1
  Y  Y12  1  0.806030  0.189145  0.816559  1
  Y  Y13  1  0.189145  0.806030  0.188266  1
  Y  Y14  1  0.814985  0.814985  0.185015  1
  Y  Y15  1  0.191580  0.191580  0.808420  1
  Cd  Cd16  1  0.829513  0.829513  0.832234  1
  Cd  Cd17  1  0.829513  0.829513  0.508739  1
  Cd  Cd18  1  0.830231  0.506224  0.831772  1
  Cd  Cd19  1  0.506224  0.830231  0.831772  1
  Ni  Ni20  1  0.394203  0.826402  0.389699  1
  Ni  Ni21  1  0.826402  0.394203  0.389699  1
  Os  Os22  1  0.393776  0.393776  0.387498  1
  Os  Os23  1  0.393776  0.393776  0.824952  1
