# generated using pymatgen
data_SiNi8Ge3(Mo3C)4
_symmetry_space_group_name_H-M   'P 1'
_cell_length_a   7.90681212
_cell_length_b   7.89738710
_cell_length_c   7.89738800
_cell_angle_alpha   60.00000460
_cell_angle_beta   60.03942822
_cell_angle_gamma   60.03942540
_symmetry_Int_Tables_number   1
_chemical_formula_structural   SiNi8Ge3(Mo3C)4
_chemical_formula_sum   'Si1 Ni8 Ge3 Mo12 C4'
_cell_volume   348.90877548
_cell_formula_units_Z   1
loop_
 _symmetry_equiv_pos_site_id
 _symmetry_equiv_pos_as_xyz
  1  'x, y, z'
loop_
 _atom_site_type_symbol
 _atom_site_label
 _atom_site_symmetry_multiplicity
 _atom_site_fract_x
 _atom_site_fract_y
 _atom_site_fract_z
 _atom_site_occupancy
  Si  Si0  1  0.625000  0.125000  0.125000  1
  Ni  Ni1  1  0.912025  0.920096  0.247782  1
  Ni  Ni2  1  0.337975  0.329904  0.329904  1
  Ni  Ni3  1  0.249913  0.916696  0.916696  1
  Ni  Ni4  1  0.337975  0.002218  0.329904  1
  Ni  Ni5  1  0.000087  0.333304  0.333304  1
  Ni  Ni6  1  0.337975  0.329904  0.002218  1
  Ni  Ni7  1  0.912025  0.920096  0.920096  1
  Ni  Ni8  1  0.912025  0.247782  0.920096  1
  Ge  Ge9  1  0.125000  0.125000  0.125000  1
  Ge  Ge10  1  0.125000  0.125000  0.625000  1
  Ge  Ge11  1  0.125000  0.625000  0.125000  1
  Mo  Mo12  1  0.688759  0.309635  0.309635  1
  Mo  Mo13  1  0.938823  0.939176  0.561000  1
  Mo  Mo14  1  0.688759  0.691971  0.309635  1
  Mo  Mo15  1  0.688759  0.309635  0.691971  1
  Mo  Mo16  1  0.311177  0.689000  0.310824  1
  Mo  Mo17  1  0.561241  0.940365  0.558029  1
  Mo  Mo18  1  0.561241  0.940365  0.940365  1
  Mo  Mo19  1  0.938823  0.561000  0.561000  1
  Mo  Mo20  1  0.938823  0.561000  0.939176  1
  Mo  Mo21  1  0.311177  0.310824  0.689000  1
  Mo  Mo22  1  0.561241  0.558029  0.940365  1
  Mo  Mo23  1  0.311177  0.689000  0.689000  1
  C  C24  1  0.625000  0.625000  0.625000  1
  C  C25  1  0.625000  0.625000  0.125000  1
  C  C26  1  0.125000  0.625000  0.625000  1
  C  C27  1  0.625000  0.125000  0.625000  1
