# generated using pymatgen
data_AcZr(Zn4Rh)2
_symmetry_space_group_name_H-M   'P 1'
_cell_length_a   8.38663021
_cell_length_b   8.38717239
_cell_length_c   8.38662900
_cell_angle_alpha   100.18599850
_cell_angle_beta   100.18554650
_cell_angle_gamma   130.26067882
_symmetry_Int_Tables_number   1
_chemical_formula_structural   AcZr(Zn4Rh)2
_chemical_formula_sum   'Ac2 Zr2 Zn16 Rh4'
_cell_volume   408.43959517
_cell_formula_units_Z   2
loop_
 _symmetry_equiv_pos_site_id
 _symmetry_equiv_pos_as_xyz
  1  'x, y, z'
loop_
 _atom_site_type_symbol
 _atom_site_label
 _atom_site_symmetry_multiplicity
 _atom_site_fract_x
 _atom_site_fract_y
 _atom_site_fract_z
 _atom_site_occupancy
  Ac  Ac0  1  0.000266  0.000333  0.000067  1
  Ac  Ac1  1  0.249734  0.749667  0.499933  1
  Zr  Zr2  1  0.750439  0.250525  0.500087  1
  Zr  Zr3  1  0.499561  0.499475  0.999913  1
  Zn  Zn4  1  0.181849  0.514895  0.084255  1
  Zn  Zn5  1  0.181886  0.097617  0.666958  1
  Zn  Zn6  1  0.764917  0.931859  0.584291  1
  Zn  Zn7  1  0.764896  0.180640  0.833060  1
  Zn  Zn8  1  0.430640  0.514895  0.333046  1
  Zn  Zn9  1  0.430659  0.097617  0.915730  1
  Zn  Zn10  1  0.347568  0.931859  0.166942  1
  Zn  Zn11  1  0.347580  0.180640  0.415744  1
  Zn  Zn12  1  0.068151  0.235105  0.415745  1
  Zn  Zn13  1  0.068114  0.652383  0.833042  1
  Zn  Zn14  1  0.485083  0.818141  0.915709  1
  Zn  Zn15  1  0.485104  0.569360  0.666940  1
  Zn  Zn16  1  0.819360  0.235105  0.166954  1
  Zn  Zn17  1  0.819341  0.652383  0.584270  1
  Zn  Zn18  1  0.902432  0.818141  0.333058  1
  Zn  Zn19  1  0.902420  0.569360  0.084256  1
  Rh  Rh20  1  0.125000  0.375000  0.750000  1
  Rh  Rh21  1  0.625000  0.875000  0.250000  1
  Rh  Rh22  1  0.625000  0.375000  0.750000  1
  Rh  Rh23  1  0.625000  0.375000  0.250000  1
