# generated using pymatgen
data_Sm2Ga5Ni3
_symmetry_space_group_name_H-M   'P 1'
_cell_length_a   8.36452202
_cell_length_b   8.36452183
_cell_length_c   8.36452249
_cell_angle_alpha   140.48335195
_cell_angle_beta   107.43213936
_cell_angle_gamma   85.92766894
_symmetry_Int_Tables_number   1
_chemical_formula_structural   Sm2Ga5Ni3
_chemical_formula_sum   'Sm4 Ga10 Ni6'
_cell_volume   342.70244628
_cell_formula_units_Z   2
loop_
 _symmetry_equiv_pos_site_id
 _symmetry_equiv_pos_as_xyz
  1  'x, y, z'
loop_
 _atom_site_type_symbol
 _atom_site_label
 _atom_site_symmetry_multiplicity
 _atom_site_fract_x
 _atom_site_fract_y
 _atom_site_fract_z
 _atom_site_occupancy
  Sm  Sm0  1  0.864013  0.638058  0.225955  1
  Sm  Sm1  1  0.135987  0.361942  0.774045  1
  Sm  Sm2  1  0.412103  0.138058  0.274045  1
  Sm  Sm3  1  0.587897  0.861942  0.725955  1
  Ga  Ga4  1  0.500000  0.750000  0.250000  1
  Ga  Ga5  1  0.500000  0.250000  0.750000  1
  Ga  Ga6  1  0.216294  0.966294  0.750000  1
  Ga  Ga7  1  0.783706  0.533706  0.750000  1
  Ga  Ga8  1  0.783706  0.033706  0.250000  1
  Ga  Ga9  1  0.216294  0.466294  0.250000  1
  Ga  Ga10  1  0.070846  0.906486  0.164360  1
  Ga  Ga11  1  0.929154  0.093514  0.835640  1
  Ga  Ga12  1  0.742126  0.406486  0.335640  1
  Ga  Ga13  1  0.257874  0.593514  0.664360  1
  Ni  Ni14  1  0.000000  0.750000  0.750000  1
  Ni  Ni15  1  0.000000  0.250000  0.250000  1
  Ni  Ni16  1  0.259495  0.858626  0.400869  1
  Ni  Ni17  1  0.740505  0.141374  0.599131  1
  Ni  Ni18  1  0.457758  0.358626  0.099131  1
  Ni  Ni19  1  0.542242  0.641374  0.900869  1
