# generated using pymatgen
data_Sc2TiB2Ir4Rh
_symmetry_space_group_name_H-M   'P 1'
_cell_length_a   3.13352200
_cell_length_b   9.38962000
_cell_length_c   9.38962000
_cell_angle_alpha   90.00000000
_cell_angle_beta   90.00000000
_cell_angle_gamma   90.00000000
_symmetry_Int_Tables_number   1
_chemical_formula_structural   Sc2TiB2Ir4Rh
_chemical_formula_sum   'Sc4 Ti2 B4 Ir8 Rh2'
_cell_volume   276.26685352
_cell_formula_units_Z   2
loop_
 _symmetry_equiv_pos_site_id
 _symmetry_equiv_pos_as_xyz
  1  'x, y, z'
loop_
 _atom_site_type_symbol
 _atom_site_label
 _atom_site_symmetry_multiplicity
 _atom_site_fract_x
 _atom_site_fract_y
 _atom_site_fract_z
 _atom_site_occupancy
  Sc  Sc0  1  0.000000  0.174715  0.174715  1
  Sc  Sc1  1  0.000000  0.674715  0.325285  1
  Sc  Sc2  1  0.000000  0.325285  0.674715  1
  Sc  Sc3  1  0.000000  0.825285  0.825285  1
  Ti  Ti4  1  0.000000  0.500000  0.000000  1
  Ti  Ti5  1  0.000000  0.000000  0.500000  1
  B  B6  1  0.000000  0.877742  0.122256  1
  B  B7  1  0.000000  0.377744  0.377744  1
  B  B8  1  0.000000  0.622257  0.622257  1
  B  B9  1  0.000000  0.122256  0.877742  1
  Ir  Ir10  1  0.500000  0.717836  0.070830  1
  Ir  Ir11  1  0.500000  0.429169  0.217837  1
  Ir  Ir12  1  0.500000  0.929170  0.282163  1
  Ir  Ir13  1  0.500000  0.217837  0.429169  1
  Ir  Ir14  1  0.500000  0.782163  0.570830  1
  Ir  Ir15  1  0.500000  0.070830  0.717836  1
  Ir  Ir16  1  0.500000  0.570830  0.782163  1
  Ir  Ir17  1  0.500000  0.282163  0.929170  1
  Rh  Rh18  1  0.500000  0.000000  0.000000  1
  Rh  Rh19  1  0.500000  0.500000  0.500000  1
