# generated using pymatgen
data_CaPr2Nd(FeO3)4
_symmetry_space_group_name_H-M   'P 1'
_cell_length_a   5.49835681
_cell_length_b   5.61413664
_cell_length_c   7.82214700
_cell_angle_alpha   90.00000000
_cell_angle_beta   90.00000000
_cell_angle_gamma   89.97632983
_symmetry_Int_Tables_number   1
_chemical_formula_structural   CaPr2Nd(FeO3)4
_chemical_formula_sum   'Ca1 Pr2 Nd1 Fe4 O12'
_cell_volume   241.45813083
_cell_formula_units_Z   1
loop_
 _symmetry_equiv_pos_site_id
 _symmetry_equiv_pos_as_xyz
  1  'x, y, z'
loop_
 _atom_site_type_symbol
 _atom_site_label
 _atom_site_symmetry_multiplicity
 _atom_site_fract_x
 _atom_site_fract_y
 _atom_site_fract_z
 _atom_site_occupancy
  Ca  Ca0  1  0.010450  0.955137  0.250000  1
  Pr  Pr1  1  0.488594  0.452150  0.250000  1
  Pr  Pr2  1  0.988184  0.048172  0.750000  1
  Nd  Nd3  1  0.510718  0.550126  0.750000  1
  Fe  Fe4  1  0.498798  0.999059  0.496254  1
  Fe  Fe5  1  0.498798  0.999059  0.003746  1
  Fe  Fe6  1  0.000335  0.501946  0.003193  1
  Fe  Fe7  1  0.000335  0.501946  0.496807  1
  O  O8  1  0.208576  0.207608  0.046142  1
  O  O9  1  0.208576  0.207608  0.453858  1
  O  O10  1  0.709309  0.291381  0.954398  1
  O  O11  1  0.785450  0.786847  0.549769  1
  O  O12  1  0.295977  0.703934  0.461442  1
  O  O13  1  0.785450  0.786847  0.950231  1
  O  O14  1  0.416594  0.981596  0.750000  1
  O  O15  1  0.916635  0.530129  0.250000  1
  O  O16  1  0.083501  0.478852  0.750000  1
  O  O17  1  0.709309  0.291381  0.545602  1
  O  O18  1  0.295977  0.703934  0.038558  1
  O  O19  1  0.588438  0.022289  0.250000  1
