# generated using pymatgen
data_Dy2YSn3HgRh2
_symmetry_space_group_name_H-M   'P 1'
_cell_length_a   7.70738148
_cell_length_b   7.71662672
_cell_length_c   3.91959200
_cell_angle_alpha   90.00000000
_cell_angle_beta   90.00000000
_cell_angle_gamma   120.05231560
_symmetry_Int_Tables_number   1
_chemical_formula_structural   Dy2YSn3HgRh2
_chemical_formula_sum   'Dy2 Y1 Sn3 Hg1 Rh2'
_cell_volume   201.77932054
_cell_formula_units_Z   1
loop_
 _symmetry_equiv_pos_site_id
 _symmetry_equiv_pos_as_xyz
  1  'x, y, z'
loop_
 _atom_site_type_symbol
 _atom_site_label
 _atom_site_symmetry_multiplicity
 _atom_site_fract_x
 _atom_site_fract_y
 _atom_site_fract_z
 _atom_site_occupancy
  Dy  Dy0  1  0.587800  0.978961  0.500000  1
  Dy  Dy1  1  0.020870  0.608721  0.500000  1
  Y  Y2  1  0.391559  0.411781  0.500000  1
  Sn  Sn3  1  0.743158  0.750971  0.000000  1
  Sn  Sn4  1  0.248886  0.991923  0.000000  1
  Sn  Sn5  1  0.007773  0.256861  0.000000  1
  Hg  Hg6  1  0.667003  0.333379  0.000000  1
  Rh  Rh7  1  0.333215  0.667628  0.000000  1
  Rh  Rh8  1  0.999734  0.999774  0.500000  1
