# generated using pymatgen
data_U6Fe3Sb8Pt3
_symmetry_space_group_name_H-M   'P 1'
_cell_length_a   8.25658655
_cell_length_b   8.25136277
_cell_length_c   8.25308979
_cell_angle_alpha   109.19036715
_cell_angle_beta   109.53239348
_cell_angle_gamma   109.67206726
_symmetry_Int_Tables_number   1
_chemical_formula_structural   U6Fe3Sb8Pt3
_chemical_formula_sum   'U6 Fe3 Sb8 Pt3'
_cell_volume   432.92803794
_cell_formula_units_Z   1
loop_
 _symmetry_equiv_pos_site_id
 _symmetry_equiv_pos_as_xyz
  1  'x, y, z'
loop_
 _atom_site_type_symbol
 _atom_site_label
 _atom_site_symmetry_multiplicity
 _atom_site_fract_x
 _atom_site_fract_y
 _atom_site_fract_z
 _atom_site_occupancy
  U  U0  1  0.888930  0.265294  0.135910  1
  U  U1  1  0.611139  0.747071  0.376322  1
  U  U2  1  0.249993  0.116688  0.866675  1
  U  U3  1  0.749967  0.382729  0.632726  1
  U  U4  1  0.132723  0.874628  0.252620  1
  U  U5  1  0.367302  0.619916  0.741905  1
  Fe  Fe6  1  0.378329  0.246290  0.626303  1
  Fe  Fe7  1  0.121533  0.747983  0.868002  1
  Fe  Fe8  1  0.250089  0.618424  0.368391  1
  Sb  Sb9  1  0.662950  0.493081  0.986435  1
  Sb  Sb10  1  0.485847  0.992268  0.661752  1
  Sb  Sb11  1  0.014163  0.675896  0.506428  1
  Sb  Sb12  1  0.837021  0.823458  0.830171  1
  Sb  Sb13  1  0.484651  0.991066  0.162118  1
  Sb  Sb14  1  0.175155  0.514368  0.005079  1
  Sb  Sb15  1  0.015349  0.177400  0.506422  1
  Sb  Sb16  1  0.324925  0.329966  0.339255  1
  Pt  Pt17  1  0.750000  0.878516  0.128576  1
  Pt  Pt18  1  0.626465  0.378360  0.253162  1
  Pt  Pt19  1  0.873469  0.126598  0.751748  1
