# generated using pymatgen
data_RbTeAsO6
_symmetry_space_group_name_H-M   'P 1'
_cell_length_a   5.11200200
_cell_length_b   5.11215997
_cell_length_c   12.96269800
_cell_angle_alpha   90.00030213
_cell_angle_beta   89.99941813
_cell_angle_gamma   119.99897783
_symmetry_Int_Tables_number   1
_chemical_formula_structural   RbTeAsO6
_chemical_formula_sum   'Rb2 Te2 As2 O12'
_cell_volume   293.37692896
_cell_formula_units_Z   2
loop_
 _symmetry_equiv_pos_site_id
 _symmetry_equiv_pos_as_xyz
  1  'x, y, z'
loop_
 _atom_site_type_symbol
 _atom_site_label
 _atom_site_symmetry_multiplicity
 _atom_site_fract_x
 _atom_site_fract_y
 _atom_site_fract_z
 _atom_site_occupancy
  Rb  Rb0  1  0.000001  0.000007  0.249988  1
  Rb  Rb1  1  0.000006  0.000007  0.750011  1
  Te  Te2  1  0.666692  0.333386  0.000000  1
  Te  Te3  1  0.666708  0.333418  0.500000  1
  As  As4  1  0.333334  0.666668  0.000000  1
  As  As5  1  0.333325  0.666651  0.500000  1
  O  O6  1  0.380550  0.987701  0.084300  1
  O  O7  1  0.607157  0.619435  0.084300  1
  O  O8  1  0.012284  0.392834  0.084304  1
  O  O9  1  0.012292  0.392864  0.415705  1
  O  O10  1  0.607127  0.619412  0.415705  1
  O  O11  1  0.380568  0.987688  0.415703  1
  O  O12  1  0.607120  0.987688  0.584296  1
  O  O13  1  0.012284  0.619412  0.584295  1
  O  O14  1  0.380572  0.392864  0.584296  1
  O  O15  1  0.380548  0.392834  0.915697  1
  O  O16  1  0.012279  0.619435  0.915700  1
  O  O17  1  0.607151  0.987701  0.915700  1
