# generated using pymatgen
data_Li2DyLu3(ZnPt2)2
_symmetry_space_group_name_H-M   'P 1'
_cell_length_a   3.99095200
_cell_length_b   6.93933459
_cell_length_c   8.30246895
_cell_angle_alpha   89.77651136
_cell_angle_beta   90.00000000
_cell_angle_gamma   90.00000000
_symmetry_Int_Tables_number   1
_chemical_formula_structural   Li2DyLu3(ZnPt2)2
_chemical_formula_sum   'Li2 Dy1 Lu3 Zn2 Pt4'
_cell_volume   229.93140279
_cell_formula_units_Z   1
loop_
 _symmetry_equiv_pos_site_id
 _symmetry_equiv_pos_as_xyz
  1  'x, y, z'
loop_
 _atom_site_type_symbol
 _atom_site_label
 _atom_site_symmetry_multiplicity
 _atom_site_fract_x
 _atom_site_fract_y
 _atom_site_fract_z
 _atom_site_occupancy
  Li  Li0  1  0.250000  0.627459  0.559169  1
  Li  Li1  1  0.250000  0.125155  0.940968  1
  Dy  Dy2  1  0.250000  0.548879  0.179458  1
  Lu  Lu3  1  0.750000  0.450685  0.814978  1
  Lu  Lu4  1  0.750000  0.952052  0.684073  1
  Lu  Lu5  1  0.250000  0.049624  0.322823  1
  Zn  Zn6  1  0.750000  0.374104  0.438447  1
  Zn  Zn7  1  0.750000  0.874271  0.060898  1
  Pt  Pt8  1  0.250000  0.743629  0.872590  1
  Pt  Pt9  1  0.750000  0.250654  0.124339  1
  Pt  Pt10  1  0.750000  0.759747  0.377705  1
  Pt  Pt11  1  0.250000  0.243744  0.624551  1
