# generated using pymatgen
data_Ti6VRh5
_symmetry_space_group_name_H-M   'P 1'
_cell_length_a   5.38938398
_cell_length_b   7.61566859
_cell_length_c   4.37546900
_cell_angle_alpha   90.00001505
_cell_angle_beta   90.00000000
_cell_angle_gamma   88.92026373
_symmetry_Int_Tables_number   1
_chemical_formula_structural   Ti6VRh5
_chemical_formula_sum   'Ti6 V1 Rh5'
_cell_volume   179.55382230
_cell_formula_units_Z   1
loop_
 _symmetry_equiv_pos_site_id
 _symmetry_equiv_pos_as_xyz
  1  'x, y, z'
loop_
 _atom_site_type_symbol
 _atom_site_label
 _atom_site_symmetry_multiplicity
 _atom_site_fract_x
 _atom_site_fract_y
 _atom_site_fract_z
 _atom_site_occupancy
  Ti  Ti0  1  0.111075  0.277915  0.000000  1
  Ti  Ti1  1  0.451931  0.603552  0.000000  1
  Ti  Ti2  1  0.770707  0.952060  0.000000  1
  Ti  Ti3  1  0.447970  0.116172  0.500000  1
  Ti  Ti4  1  0.773990  0.439488  0.500000  1
  Ti  Ti5  1  0.110898  0.777402  0.500000  1
  V  V6  1  0.611194  0.277860  0.000000  1
  Rh  Rh7  1  0.946756  0.612337  0.000000  1
  Rh  Rh8  1  0.275701  0.942772  0.000000  1
  Rh  Rh9  1  0.945952  0.110397  0.500000  1
  Rh  Rh10  1  0.276140  0.445182  0.500000  1
  Rh  Rh11  1  0.610899  0.778173  0.500000  1
