# generated using pymatgen
data_Ho7Mg(Si4W3)4
_symmetry_space_group_name_H-M   'P 1'
_cell_length_a   6.72413808
_cell_length_b   6.91470476
_cell_length_c   12.88118655
_cell_angle_alpha   90.03477032
_cell_angle_beta   89.96556391
_cell_angle_gamma   90.07071703
_symmetry_Int_Tables_number   1
_chemical_formula_structural   Ho7Mg(Si4W3)4
_chemical_formula_sum   'Ho7 Mg1 Si16 W12'
_cell_volume   598.91562830
_cell_formula_units_Z   1
loop_
 _symmetry_equiv_pos_site_id
 _symmetry_equiv_pos_as_xyz
  1  'x, y, z'
loop_
 _atom_site_type_symbol
 _atom_site_label
 _atom_site_symmetry_multiplicity
 _atom_site_fract_x
 _atom_site_fract_y
 _atom_site_fract_z
 _atom_site_occupancy
  Ho  Ho0  1  0.497951  0.669098  0.593744  1
  Ho  Ho1  1  0.997527  0.831234  0.907326  1
  Ho  Ho2  1  0.505127  0.331591  0.093058  1
  Ho  Ho3  1  0.002668  0.165862  0.409920  1
  Ho  Ho4  1  0.503114  0.331450  0.408792  1
  Ho  Ho5  1  0.004711  0.168276  0.093427  1
  Ho  Ho6  1  0.495653  0.669048  0.904578  1
  Mg  Mg7  1  0.982069  0.832775  0.590189  1
  Si  Si8  1  0.660414  0.957703  0.454666  1
  Si  Si9  1  0.163413  0.542743  0.045941  1
  Si  Si10  1  0.337735  0.043415  0.953334  1
  Si  Si11  1  0.842477  0.463828  0.548232  1
  Si  Si12  1  0.330222  0.036090  0.547453  1
  Si  Si13  1  0.837757  0.457393  0.953391  1
  Si  Si14  1  0.663788  0.956554  0.045371  1
  Si  Si15  1  0.161239  0.543331  0.454646  1
  Si  Si16  1  0.466388  0.371497  0.750223  1
  Si  Si17  1  0.968263  0.125276  0.748705  1
  Si  Si18  1  0.535411  0.628564  0.250673  1
  Si  Si19  1  0.034560  0.871114  0.250858  1
  Si  Si20  1  0.703155  0.865101  0.747324  1
  Si  Si21  1  0.191113  0.640647  0.744761  1
  Si  Si22  1  0.302047  0.135385  0.250665  1
  Si  Si23  1  0.803730  0.365206  0.251680  1
  W  W24  1  0.670835  0.163498  0.623883  1
  W  W25  1  0.169704  0.338075  0.874173  1
  W  W26  1  0.331741  0.838200  0.125649  1
  W  W27  1  0.831020  0.664120  0.376004  1
  W  W28  1  0.330884  0.837835  0.374989  1
  W  W29  1  0.831358  0.662804  0.125955  1
  W  W30  1  0.670956  0.160694  0.873111  1
  W  W31  1  0.171359  0.332837  0.626385  1
  W  W32  1  0.834468  0.499713  0.750357  1
  W  W33  1  0.335425  0.000177  0.749947  1
  W  W34  1  0.167214  0.500028  0.250466  1
  W  W35  1  0.664501  0.998836  0.250121  1
