# generated using pymatgen
data_Mn5FeSi6(W6C)2
_symmetry_space_group_name_H-M   'P 1'
_cell_length_a   7.78544195
_cell_length_b   7.78100896
_cell_length_c   7.75399000
_cell_angle_alpha   60.11479205
_cell_angle_beta   60.13353864
_cell_angle_gamma   60.31134923
_symmetry_Int_Tables_number   1
_chemical_formula_structural   Mn5FeSi6(W6C)2
_chemical_formula_sum   'Mn5 Fe1 Si6 W12 C2'
_cell_volume   333.54716858
_cell_formula_units_Z   1
loop_
 _symmetry_equiv_pos_site_id
 _symmetry_equiv_pos_as_xyz
  1  'x, y, z'
loop_
 _atom_site_type_symbol
 _atom_site_label
 _atom_site_symmetry_multiplicity
 _atom_site_fract_x
 _atom_site_fract_y
 _atom_site_fract_z
 _atom_site_occupancy
  Mn  Mn0  1  0.330409  0.335940  0.003575  1
  Mn  Mn1  1  0.126281  0.126756  0.623675  1
  Mn  Mn2  1  0.919591  0.914060  0.919925  1
  Mn  Mn3  1  0.125000  0.625000  0.125226  1
  Mn  Mn4  1  0.123719  0.123244  0.126713  1
  Fe  Fe5  1  0.625000  0.125000  0.128317  1
  Si  Si6  1  0.914381  0.245644  0.918144  1
  Si  Si7  1  0.335619  0.004356  0.328169  1
  Si  Si8  1  0.336453  0.332828  0.330352  1
  Si  Si9  1  0.003428  0.333176  0.330405  1
  Si  Si10  1  0.913547  0.917172  0.249635  1
  Si  Si11  1  0.246572  0.916824  0.917010  1
  W  W12  1  0.307037  0.692044  0.693830  1
  W  W13  1  0.305703  0.308336  0.695667  1
  W  W14  1  0.552768  0.943668  0.557056  1
  W  W15  1  0.945662  0.552240  0.553837  1
  W  W16  1  0.559490  0.943565  0.943850  1
  W  W17  1  0.697232  0.306332  0.303491  1
  W  W18  1  0.942963  0.557956  0.942910  1
  W  W19  1  0.304338  0.697760  0.301740  1
  W  W20  1  0.553969  0.554308  0.946524  1
  W  W21  1  0.690510  0.306435  0.696905  1
  W  W22  1  0.696031  0.695692  0.304801  1
  W  W23  1  0.944297  0.941664  0.559706  1
  C  C24  1  0.748765  0.748574  0.750600  1
  C  C25  1  0.501235  0.501426  0.497938  1
