# generated using pymatgen
data_Na4ScUSe6
_symmetry_space_group_name_H-M   'P 1'
_cell_length_a   7.11321601
_cell_length_b   7.11321543
_cell_length_c   7.34612067
_cell_angle_alpha   80.61754215
_cell_angle_beta   80.61753562
_cell_angle_gamma   120.02995452
_symmetry_Int_Tables_number   1
_chemical_formula_structural   Na4ScUSe6
_chemical_formula_sum   'Na4 Sc1 U1 Se6'
_cell_volume   304.20068838
_cell_formula_units_Z   1
loop_
 _symmetry_equiv_pos_site_id
 _symmetry_equiv_pos_as_xyz
  1  'x, y, z'
loop_
 _atom_site_type_symbol
 _atom_site_label
 _atom_site_symmetry_multiplicity
 _atom_site_fract_x
 _atom_site_fract_y
 _atom_site_fract_z
 _atom_site_occupancy
  Na  Na0  1  0.000092  0.999908  0.000000  1
  Na  Na1  1  0.499782  0.500218  0.500000  1
  Na  Na2  1  0.840250  0.159750  0.500000  1
  Na  Na3  1  0.160139  0.839861  0.500000  1
  Sc  Sc4  1  0.667491  0.332509  0.000000  1
  U  U5  1  0.332521  0.667479  0.000000  1
  Se  Se6  1  0.283326  0.281399  0.225458  1
  Se  Se7  1  0.435038  0.077766  0.775031  1
  Se  Se8  1  0.073506  0.432980  0.776040  1
  Se  Se9  1  0.718601  0.716674  0.774542  1
  Se  Se10  1  0.567020  0.926494  0.223960  1
  Se  Se11  1  0.922234  0.564962  0.224969  1
