# generated using pymatgen
data_Sm8Ho8LuSc2Si16Ag
_symmetry_space_group_name_H-M   'P 1'
_cell_length_a   7.27382305
_cell_length_b   7.71121054
_cell_length_c   14.59942300
_cell_angle_alpha   90.00000000
_cell_angle_beta   90.00000000
_cell_angle_gamma   89.87100468
_symmetry_Int_Tables_number   1
_chemical_formula_structural   Sm8Ho8LuSc2Si16Ag
_chemical_formula_sum   'Sm8 Ho8 Lu1 Sc2 Si16 Ag1'
_cell_volume   818.87928253
_cell_formula_units_Z   1
loop_
 _symmetry_equiv_pos_site_id
 _symmetry_equiv_pos_as_xyz
  1  'x, y, z'
loop_
 _atom_site_type_symbol
 _atom_site_label
 _atom_site_symmetry_multiplicity
 _atom_site_fract_x
 _atom_site_fract_y
 _atom_site_fract_z
 _atom_site_occupancy
  Sm  Sm0  1  0.017689  0.180003  0.098567  1
  Sm  Sm1  1  0.983576  0.807991  0.899776  1
  Sm  Sm2  1  0.474683  0.676734  0.900134  1
  Sm  Sm3  1  0.983576  0.807991  0.600224  1
  Sm  Sm4  1  0.516513  0.319737  0.097543  1
  Sm  Sm5  1  0.017689  0.180003  0.401433  1
  Sm  Sm6  1  0.516513  0.319737  0.402457  1
  Sm  Sm7  1  0.474683  0.676734  0.599866  1
  Ho  Ho8  1  0.317783  0.186258  0.626919  1
  Ho  Ho9  1  0.677724  0.823896  0.374883  1
  Ho  Ho10  1  0.177245  0.681684  0.372993  1
  Ho  Ho11  1  0.677724  0.823896  0.125117  1
  Ho  Ho12  1  0.833318  0.326536  0.626590  1
  Ho  Ho13  1  0.317783  0.186258  0.873081  1
  Ho  Ho14  1  0.833318  0.326536  0.873410  1
  Ho  Ho15  1  0.177245  0.681684  0.127007  1
  Lu  Lu16  1  0.650605  0.989935  0.750000  1
  Sc  Sc17  1  0.843190  0.487092  0.250000  1
  Sc  Sc18  1  0.345514  0.013497  0.250000  1
  Si  Si19  1  0.020145  0.083543  0.750000  1
  Si  Si20  1  0.978918  0.903546  0.250000  1
  Si  Si21  1  0.479156  0.602465  0.250000  1
  Si  Si22  1  0.529855  0.397598  0.750000  1
  Si  Si23  1  0.277071  0.879025  0.750000  1
  Si  Si24  1  0.719366  0.131807  0.250000  1
  Si  Si25  1  0.219112  0.369363  0.250000  1
  Si  Si26  1  0.766454  0.627479  0.750000  1
  Si  Si27  1  0.155836  0.462629  0.529679  1
  Si  Si28  1  0.850270  0.531055  0.459739  1
  Si  Si29  1  0.350098  0.968671  0.463199  1
  Si  Si30  1  0.850270  0.531055  0.040261  1
  Si  Si31  1  0.651208  0.030167  0.540973  1
  Si  Si32  1  0.155836  0.462629  0.970321  1
  Si  Si33  1  0.651208  0.030167  0.959027  1
  Si  Si34  1  0.350098  0.968671  0.036801  1
  Ag  Ag35  1  0.158724  0.523934  0.750000  1
