# generated using pymatgen
data_Y2Al19Co6
_symmetry_space_group_name_H-M   'P 1'
_cell_length_a   10.61423232
_cell_length_b   10.61423283
_cell_length_c   8.15856300
_cell_angle_alpha   78.53480491
_cell_angle_beta   78.53480435
_cell_angle_gamma   68.88765937
_symmetry_Int_Tables_number   1
_chemical_formula_structural   Y2Al19Co6
_chemical_formula_sum   'Y4 Al38 Co12'
_cell_volume   832.18188295
_cell_formula_units_Z   2
loop_
 _symmetry_equiv_pos_site_id
 _symmetry_equiv_pos_as_xyz
  1  'x, y, z'
loop_
 _atom_site_type_symbol
 _atom_site_label
 _atom_site_symmetry_multiplicity
 _atom_site_fract_x
 _atom_site_fract_y
 _atom_site_fract_z
 _atom_site_occupancy
  Y  Y0  1  0.279639  0.279639  0.744026  1
  Y  Y1  1  0.720361  0.720361  0.255974  1
  Y  Y2  1  0.281170  0.281170  0.227322  1
  Y  Y3  1  0.718830  0.718830  0.772678  1
  Al  Al4  1  0.200148  0.853994  0.636880  1
  Al  Al5  1  0.534615  0.186871  0.945212  1
  Al  Al6  1  0.329339  0.565239  0.154721  1
  Al  Al7  1  0.815239  0.482247  0.551464  1
  Al  Al8  1  0.001818  0.503184  0.760183  1
  Al  Al9  1  0.496816  0.998182  0.239817  1
  Al  Al10  1  0.167255  0.832745  0.000000  1
  Al  Al11  1  0.910578  0.910578  0.184712  1
  Al  Al12  1  0.089422  0.089422  0.815288  1
  Al  Al13  1  0.918521  0.918521  0.644352  1
  Al  Al14  1  0.565239  0.329339  0.154721  1
  Al  Al15  1  0.813129  0.465385  0.054788  1
  Al  Al16  1  0.081479  0.081479  0.355648  1
  Al  Al17  1  0.832745  0.167255  0.000000  1
  Al  Al18  1  0.434761  0.670661  0.845279  1
  Al  Al19  1  0.701308  0.933200  0.466431  1
  Al  Al20  1  0.066800  0.298692  0.533569  1
  Al  Al21  1  0.799852  0.146006  0.363120  1
  Al  Al22  1  0.277363  0.052888  0.047572  1
  Al  Al23  1  0.947112  0.722637  0.952428  1
  Al  Al24  1  0.186871  0.534615  0.945212  1
  Al  Al25  1  0.853994  0.200148  0.636880  1
  Al  Al26  1  0.298692  0.066800  0.533569  1
  Al  Al27  1  0.328767  0.561898  0.648617  1
  Al  Al28  1  0.052888  0.277363  0.047572  1
  Al  Al29  1  0.184761  0.517753  0.448536  1
  Al  Al30  1  0.933200  0.701308  0.466431  1
  Al  Al31  1  0.561898  0.328767  0.648617  1
  Al  Al32  1  0.670661  0.434761  0.845279  1
  Al  Al33  1  0.671233  0.438102  0.351383  1
  Al  Al34  1  0.722637  0.947112  0.952428  1
  Al  Al35  1  0.146006  0.799852  0.363120  1
  Al  Al36  1  0.465385  0.813129  0.054788  1
  Al  Al37  1  0.517753  0.184761  0.448536  1
  Al  Al38  1  0.482247  0.815239  0.551464  1
  Al  Al39  1  0.503184  0.001818  0.760183  1
  Al  Al40  1  0.438102  0.671233  0.351383  1
  Al  Al41  1  0.998182  0.496816  0.239817  1
  Co  Co42  1  0.320300  0.921567  0.811588  1
  Co  Co43  1  0.082335  0.686992  0.670146  1
  Co  Co44  1  0.562146  0.562146  0.093732  1
  Co  Co45  1  0.921567  0.320300  0.811588  1
  Co  Co46  1  0.313008  0.917665  0.329854  1
  Co  Co47  1  0.437854  0.437854  0.906268  1
  Co  Co48  1  0.437833  0.437833  0.405486  1
  Co  Co49  1  0.917665  0.313008  0.329854  1
  Co  Co50  1  0.679700  0.078433  0.188412  1
  Co  Co51  1  0.686992  0.082335  0.670146  1
  Co  Co52  1  0.562167  0.562167  0.594514  1
  Co  Co53  1  0.078433  0.679700  0.188412  1
