# generated using pymatgen
data_Sc11Co6Ru6W
_symmetry_space_group_name_H-M   'P 1'
_cell_length_a   4.48254409
_cell_length_b   6.28204082
_cell_length_c   13.43810760
_cell_angle_alpha   89.91602033
_cell_angle_beta   90.00031963
_cell_angle_gamma   89.97661205
_symmetry_Int_Tables_number   1
_chemical_formula_structural   Sc11Co6Ru6W
_chemical_formula_sum   'Sc11 Co6 Ru6 W1'
_cell_volume   378.41028865
_cell_formula_units_Z   1
loop_
 _symmetry_equiv_pos_site_id
 _symmetry_equiv_pos_as_xyz
  1  'x, y, z'
loop_
 _atom_site_type_symbol
 _atom_site_label
 _atom_site_symmetry_multiplicity
 _atom_site_fract_x
 _atom_site_fract_y
 _atom_site_fract_z
 _atom_site_occupancy
  Sc  Sc0  1  0.500006  0.751419  0.999989  1
  Sc  Sc1  1  0.999927  0.249421  0.168087  1
  Sc  Sc2  1  0.999941  0.749034  0.166656  1
  Sc  Sc3  1  0.499940  0.250119  0.333710  1
  Sc  Sc4  1  0.499921  0.750459  0.333011  1
  Sc  Sc5  1  0.000001  0.250283  0.499992  1
  Sc  Sc6  1  0.000002  0.750167  0.499998  1
  Sc  Sc7  1  0.500074  0.250129  0.666299  1
  Sc  Sc8  1  0.500070  0.750402  0.667010  1
  Sc  Sc9  1  0.000063  0.249492  0.831909  1
  Sc  Sc10  1  0.000067  0.748930  0.833355  1
  Co  Co11  1  0.000003  0.017501  0.000004  1
  Co  Co12  1  0.499935  0.490610  0.156209  1
  Co  Co13  1  0.999917  0.999024  0.331512  1
  Co  Co14  1  0.500002  0.501221  0.499989  1
  Co  Co15  1  0.000082  0.999011  0.668470  1
  Co  Co16  1  0.500066  0.490625  0.843792  1
  Ru  Ru17  1  0.999997  0.481825  0.999972  1
  Ru  Ru18  1  0.499932  0.008627  0.158171  1
  Ru  Ru19  1  0.999920  0.500731  0.331936  1
  Ru  Ru20  1  0.499994  0.999882  0.499990  1
  Ru  Ru21  1  0.000080  0.500728  0.668059  1
  Ru  Ru22  1  0.500043  0.008642  0.841829  1
  W  W23  1  0.500015  0.251716  0.000049  1
