# generated using pymatgen
data_Ho16Er4CoIr11
_symmetry_space_group_name_H-M   'P 1'
_cell_length_a   10.81615800
_cell_length_b   10.81615800
_cell_length_c   6.35092800
_cell_angle_alpha   90.00000000
_cell_angle_beta   90.00000000
_cell_angle_gamma   90.00000000
_symmetry_Int_Tables_number   1
_chemical_formula_structural   Ho16Er4CoIr11
_chemical_formula_sum   'Ho16 Er4 Co1 Ir11'
_cell_volume   742.99045519
_cell_formula_units_Z   1
loop_
 _symmetry_equiv_pos_site_id
 _symmetry_equiv_pos_as_xyz
  1  'x, y, z'
loop_
 _atom_site_type_symbol
 _atom_site_label
 _atom_site_symmetry_multiplicity
 _atom_site_fract_x
 _atom_site_fract_y
 _atom_site_fract_z
 _atom_site_occupancy
  Ho  Ho0  1  0.292492  0.087050  0.376522  1
  Ho  Ho1  1  0.292794  0.912885  0.879715  1
  Ho  Ho2  1  0.707206  0.087115  0.879715  1
  Ho  Ho3  1  0.707508  0.912950  0.376522  1
  Ho  Ho4  1  0.587115  0.792794  0.879715  1
  Ho  Ho5  1  0.587050  0.207508  0.376522  1
  Ho  Ho6  1  0.412950  0.792492  0.376522  1
  Ho  Ho7  1  0.412885  0.207206  0.879715  1
  Ho  Ho8  1  0.209173  0.411890  0.622470  1
  Ho  Ho9  1  0.209104  0.588010  0.122340  1
  Ho  Ho10  1  0.790896  0.411990  0.122340  1
  Ho  Ho11  1  0.790827  0.588110  0.622470  1
  Ho  Ho12  1  0.911990  0.709104  0.122340  1
  Ho  Ho13  1  0.911890  0.290827  0.622470  1
  Ho  Ho14  1  0.088110  0.709173  0.622470  1
  Ho  Ho15  1  0.088010  0.290896  0.122340  1
  Er  Er16  1  0.000000  0.000000  0.499843  1
  Er  Er17  1  0.000000  0.000000  0.999696  1
  Er  Er18  1  0.500000  0.500000  0.999696  1
  Er  Er19  1  0.500000  0.500000  0.499843  1
  Co  Co20  1  0.500000  0.000000  0.122683  1
  Ir  Ir21  1  0.846242  0.152437  0.249708  1
  Ir  Ir22  1  0.846576  0.847145  0.749434  1
  Ir  Ir23  1  0.153424  0.152855  0.749434  1
  Ir  Ir24  1  0.153758  0.847563  0.249708  1
  Ir  Ir25  1  0.652855  0.346576  0.749434  1
  Ir  Ir26  1  0.652437  0.653758  0.249708  1
  Ir  Ir27  1  0.347563  0.346242  0.249708  1
  Ir  Ir28  1  0.347145  0.653424  0.749434  1
  Ir  Ir29  1  0.500000  0.000000  0.622974  1
  Ir  Ir30  1  0.000000  0.500000  0.877265  1
  Ir  Ir31  1  0.000000  0.500000  0.377243  1
