# generated using pymatgen
data_Tb4Ho6Sn7Sb
_symmetry_space_group_name_H-M   'P 1'
_cell_length_a   8.06241200
_cell_length_b   8.14492778
_cell_length_c   15.37115400
_cell_angle_alpha   90.21204951
_cell_angle_beta   90.00000000
_cell_angle_gamma   90.00000000
_symmetry_Int_Tables_number   1
_chemical_formula_structural   Tb4Ho6Sn7Sb
_chemical_formula_sum   'Tb8 Ho12 Sn14 Sb2'
_cell_volume   1009.38239244
_cell_formula_units_Z   2
loop_
 _symmetry_equiv_pos_site_id
 _symmetry_equiv_pos_as_xyz
  1  'x, y, z'
loop_
 _atom_site_type_symbol
 _atom_site_label
 _atom_site_symmetry_multiplicity
 _atom_site_fract_x
 _atom_site_fract_y
 _atom_site_fract_z
 _atom_site_occupancy
  Tb  Tb0  1  0.527231  0.325571  0.900554  1
  Tb  Tb1  1  0.027231  0.174429  0.599446  1
  Tb  Tb2  1  0.471866  0.678299  0.400501  1
  Tb  Tb3  1  0.971866  0.821701  0.099499  1
  Tb  Tb4  1  0.476102  0.675761  0.098338  1
  Tb  Tb5  1  0.976102  0.824239  0.401662  1
  Tb  Tb6  1  0.523138  0.320237  0.599123  1
  Tb  Tb7  1  0.023138  0.179763  0.900877  1
  Ho  Ho8  1  0.371700  0.837787  0.878600  1
  Ho  Ho9  1  0.871700  0.662213  0.621400  1
  Ho  Ho10  1  0.629612  0.161187  0.377294  1
  Ho  Ho11  1  0.129612  0.338813  0.122706  1
  Ho  Ho12  1  0.630349  0.162016  0.121812  1
  Ho  Ho13  1  0.130349  0.337984  0.378188  1
  Ho  Ho14  1  0.369915  0.838263  0.622592  1
  Ho  Ho15  1  0.869915  0.661737  0.877408  1
  Ho  Ho16  1  0.200018  0.502458  0.749375  1
  Ho  Ho17  1  0.700018  0.997542  0.750625  1
  Ho  Ho18  1  0.799860  0.498067  0.248820  1
  Ho  Ho19  1  0.299860  0.001933  0.251180  1
  Sn  Sn20  1  0.709838  0.963813  0.541862  1
  Sn  Sn21  1  0.209838  0.536187  0.958138  1
  Sn  Sn22  1  0.713214  0.964347  0.957663  1
  Sn  Sn23  1  0.213214  0.535653  0.542337  1
  Sn  Sn24  1  0.291893  0.036901  0.457921  1
  Sn  Sn25  1  0.791893  0.463099  0.042079  1
  Sn  Sn26  1  0.568013  0.621172  0.748845  1
  Sn  Sn27  1  0.068013  0.878828  0.751155  1
  Sn  Sn28  1  0.432834  0.378648  0.250083  1
  Sn  Sn29  1  0.932834  0.121352  0.249917  1
  Sn  Sn30  1  0.333564  0.146992  0.751099  1
  Sn  Sn31  1  0.833564  0.353008  0.748901  1
  Sn  Sn32  1  0.664540  0.852459  0.250025  1
  Sn  Sn33  1  0.164540  0.647541  0.249975  1
  Sb  Sb34  1  0.286313  0.033874  0.043561  1
  Sb  Sb35  1  0.786313  0.466126  0.456439  1
