# generated using pymatgen
data_Sr4CeU7N16
_symmetry_space_group_name_H-M   'P 1'
_cell_length_a   10.16025106
_cell_length_b   3.53107100
_cell_length_c   11.96115678
_cell_angle_alpha   89.99947193
_cell_angle_beta   89.69932912
_cell_angle_gamma   89.99982794
_symmetry_Int_Tables_number   1
_chemical_formula_structural   Sr4CeU7N16
_chemical_formula_sum   'Sr4 Ce1 U7 N16'
_cell_volume   429.11934470
_cell_formula_units_Z   1
loop_
 _symmetry_equiv_pos_site_id
 _symmetry_equiv_pos_as_xyz
  1  'x, y, z'
loop_
 _atom_site_type_symbol
 _atom_site_label
 _atom_site_symmetry_multiplicity
 _atom_site_fract_x
 _atom_site_fract_y
 _atom_site_fract_z
 _atom_site_occupancy
  Sr  Sr0  1  0.754228  0.499997  0.143579  1
  Sr  Sr1  1  0.249884  0.500009  0.352152  1
  Sr  Sr2  1  0.749780  0.000003  0.647382  1
  Sr  Sr3  1  0.252125  0.000007  0.852076  1
  Ce  Ce4  1  0.085766  0.499965  0.109267  1
  U  U5  1  0.424282  0.000004  0.114372  1
  U  U6  1  0.922707  0.000005  0.389649  1
  U  U7  1  0.578027  0.500009  0.385929  1
  U  U8  1  0.422529  0.000002  0.613767  1
  U  U9  1  0.076296  0.500001  0.612808  1
  U  U10  1  0.574975  0.499998  0.888505  1
  U  U11  1  0.924208  0.999989  0.886436  1
  N  N12  1  0.608247  0.999999  0.008116  1
  N  N13  1  0.928784  0.999981  0.062148  1
  N  N14  1  0.227978  0.000002  0.176947  1
  N  N15  1  0.489809  0.500006  0.214738  1
  N  N16  1  0.977614  0.499999  0.291777  1
  N  N17  1  0.709029  0.000006  0.337539  1
  N  N18  1  0.443902  0.000010  0.425517  1
  N  N19  1  0.114230  0.000001  0.495431  1
  N  N20  1  0.885488  0.500009  0.509611  1
  N  N21  1  0.557332  0.499999  0.574928  1
  N  N22  1  0.289919  0.500004  0.665415  1
  N  N23  1  0.010051  0.000008  0.711801  1
  N  N24  1  0.514656  0.000001  0.786128  1
  N  N25  1  0.788310  0.499974  0.837569  1
  N  N26  1  0.056488  0.500022  0.913450  1
  N  N27  1  0.383370  0.500004  0.992972  1
