# generated using pymatgen
data_TbPrY3(FeB3)2
_symmetry_space_group_name_H-M   'P 1'
_cell_length_a   5.44971119
_cell_length_b   5.44971019
_cell_length_c   8.30205537
_cell_angle_alpha   70.83955220
_cell_angle_beta   70.83955435
_cell_angle_gamma   59.99998755
_symmetry_Int_Tables_number   1
_chemical_formula_structural   TbPrY3(FeB3)2
_chemical_formula_sum   'Tb1 Pr1 Y3 Fe2 B6'
_cell_volume   197.60277141
_cell_formula_units_Z   1
loop_
 _symmetry_equiv_pos_site_id
 _symmetry_equiv_pos_as_xyz
  1  'x, y, z'
loop_
 _atom_site_type_symbol
 _atom_site_label
 _atom_site_symmetry_multiplicity
 _atom_site_fract_x
 _atom_site_fract_y
 _atom_site_fract_z
 _atom_site_occupancy
  Tb  Tb0  1  0.749275  0.749275  0.752175  1
  Pr  Pr1  1  0.999964  0.999964  0.000109  1
  Y  Y2  1  0.250495  0.250495  0.248514  1
  Y  Y3  1  0.582827  0.582827  0.251518  1
  Y  Y4  1  0.417204  0.417204  0.748389  1
  Fe  Fe5  1  0.882831  0.882831  0.351507  1
  Fe  Fe6  1  0.117167  0.117167  0.648499  1
  B  B7  1  0.500188  0.167242  0.499882  1
  B  B8  1  0.832688  0.500188  0.499882  1
  B  B9  1  0.167242  0.832688  0.499882  1
  B  B10  1  0.167242  0.500188  0.499882  1
  B  B11  1  0.832688  0.167242  0.499882  1
  B  B12  1  0.500188  0.832688  0.499882  1
