# generated using pymatgen
data_HfZr7Co16As11P
_symmetry_space_group_name_H-M   'P 1'
_cell_length_a   12.50419302
_cell_length_b   12.50419195
_cell_length_c   3.76731900
_cell_angle_alpha   90.00000000
_cell_angle_beta   90.00000000
_cell_angle_gamma   119.91246934
_symmetry_Int_Tables_number   1
_chemical_formula_structural   HfZr7Co16As11P
_chemical_formula_sum   'Hf1 Zr7 Co16 As11 P1'
_cell_volume   510.57166399
_cell_formula_units_Z   1
loop_
 _symmetry_equiv_pos_site_id
 _symmetry_equiv_pos_as_xyz
  1  'x, y, z'
loop_
 _atom_site_type_symbol
 _atom_site_label
 _atom_site_symmetry_multiplicity
 _atom_site_fract_x
 _atom_site_fract_y
 _atom_site_fract_z
 _atom_site_occupancy
  Hf  Hf0  1  0.440953  0.440953  0.000000  1
  Zr  Zr1  1  0.557163  0.000114  0.000000  1
  Zr  Zr2  1  0.000114  0.557163  0.000000  1
  Zr  Zr3  1  0.666824  0.333894  0.000000  1
  Zr  Zr4  1  0.333894  0.666824  0.000000  1
  Zr  Zr5  1  0.824827  0.824827  0.500000  1
  Zr  Zr6  1  0.174743  0.005989  0.500000  1
  Zr  Zr7  1  0.005989  0.174743  0.500000  1
  Co  Co8  1  0.194372  0.365472  0.000000  1
  Co  Co9  1  0.178549  0.805441  0.000000  1
  Co  Co10  1  0.821546  0.627499  0.000000  1
  Co  Co11  1  0.805441  0.178549  0.000000  1
  Co  Co12  1  0.365472  0.194372  0.000000  1
  Co  Co13  1  0.124349  0.478764  0.500000  1
  Co  Co14  1  0.356689  0.877419  0.500000  1
  Co  Co15  1  0.519119  0.641571  0.500000  1
  Co  Co16  1  0.641571  0.519119  0.500000  1
  Co  Co17  1  0.877419  0.356689  0.500000  1
  Co  Co18  1  0.478764  0.124349  0.500000  1
  Co  Co19  1  0.008318  0.008318  0.000000  1
  Co  Co20  1  0.720698  0.999529  0.500000  1
  Co  Co21  1  0.999529  0.720698  0.500000  1
  Co  Co22  1  0.627499  0.821546  0.000000  1
  Co  Co23  1  0.274250  0.274250  0.500000  1
  As  As24  1  0.652693  0.652693  0.000000  1
  As  As25  1  0.344524  0.000505  0.000000  1
  As  As26  1  0.000505  0.344524  0.000000  1
  As  As27  1  0.482838  0.309694  0.500000  1
  As  As28  1  0.690821  0.174989  0.500000  1
  As  As29  1  0.824888  0.515902  0.500000  1
  As  As30  1  0.515902  0.824888  0.500000  1
  As  As31  1  0.174989  0.690821  0.500000  1
  As  As32  1  0.826601  0.000707  0.000000  1
  As  As33  1  0.000707  0.826601  0.000000  1
  As  As34  1  0.309694  0.482838  0.500000  1
  P  P35  1  0.177749  0.177749  0.000000  1
