# generated using pymatgen
data_Ta17Nb3(AlOs4)2
_symmetry_space_group_name_H-M   'P 1'
_cell_length_a   9.90050877
_cell_length_b   9.90050877
_cell_length_c   5.18317100
_cell_angle_alpha   90.00000000
_cell_angle_beta   90.00000000
_cell_angle_gamma   90.04513981
_symmetry_Int_Tables_number   1
_chemical_formula_structural   Ta17Nb3(AlOs4)2
_chemical_formula_sum   'Ta17 Nb3 Al2 Os8'
_cell_volume   508.05464662
_cell_formula_units_Z   1
loop_
 _symmetry_equiv_pos_site_id
 _symmetry_equiv_pos_as_xyz
  1  'x, y, z'
loop_
 _atom_site_type_symbol
 _atom_site_label
 _atom_site_symmetry_multiplicity
 _atom_site_fract_x
 _atom_site_fract_y
 _atom_site_fract_z
 _atom_site_occupancy
  Ta  Ta0  1  0.395785  0.395785  0.000000  1
  Ta  Ta1  1  0.128477  0.466101  0.000000  1
  Ta  Ta2  1  0.965634  0.370742  0.500000  1
  Ta  Ta3  1  0.034210  0.629350  0.500000  1
  Ta  Ta4  1  0.870555  0.534213  0.000000  1
  Ta  Ta5  1  0.370742  0.965634  0.500000  1
  Ta  Ta6  1  0.629350  0.034210  0.500000  1
  Ta  Ta7  1  0.466101  0.128477  0.000000  1
  Ta  Ta8  1  0.534213  0.870555  0.000000  1
  Ta  Ta9  1  0.183813  0.183813  0.249683  1
  Ta  Ta10  1  0.682655  0.316829  0.750348  1
  Ta  Ta11  1  0.316829  0.682655  0.750348  1
  Ta  Ta12  1  0.816617  0.816617  0.250293  1
  Ta  Ta13  1  0.316829  0.682655  0.249652  1
  Ta  Ta14  1  0.682655  0.316829  0.249652  1
  Ta  Ta15  1  0.183813  0.183813  0.750317  1
  Ta  Ta16  1  0.816617  0.816617  0.749707  1
  Nb  Nb17  1  0.895890  0.104228  0.500000  1
  Nb  Nb18  1  0.104228  0.895890  0.500000  1
  Nb  Nb19  1  0.604185  0.604185  0.000000  1
  Al  Al20  1  0.000095  0.000095  0.000000  1
  Al  Al21  1  0.500261  0.500261  0.500000  1
  Os  Os22  1  0.256863  0.936297  0.000000  1
  Os  Os23  1  0.436572  0.243366  0.500000  1
  Os  Os24  1  0.563557  0.757231  0.500000  1
  Os  Os25  1  0.743093  0.063468  0.000000  1
  Os  Os26  1  0.243366  0.436572  0.500000  1
  Os  Os27  1  0.757231  0.563557  0.500000  1
  Os  Os28  1  0.936297  0.256863  0.000000  1
  Os  Os29  1  0.063468  0.743093  0.000000  1
