# generated using pymatgen
data_Zr2Ir3W
_symmetry_space_group_name_H-M   'P 1'
_cell_length_a   5.38623800
_cell_length_b   5.38623942
_cell_length_c   8.32613400
_cell_angle_alpha   90.00000000
_cell_angle_beta   90.00000000
_cell_angle_gamma   120.00000357
_symmetry_Int_Tables_number   1
_chemical_formula_structural   Zr2Ir3W
_chemical_formula_sum   'Zr4 Ir6 W2'
_cell_volume   209.19206435
_cell_formula_units_Z   2
loop_
 _symmetry_equiv_pos_site_id
 _symmetry_equiv_pos_as_xyz
  1  'x, y, z'
loop_
 _atom_site_type_symbol
 _atom_site_label
 _atom_site_symmetry_multiplicity
 _atom_site_fract_x
 _atom_site_fract_y
 _atom_site_fract_z
 _atom_site_occupancy
  Zr  Zr0  1  0.333333  0.666667  0.438071  1
  Zr  Zr1  1  0.666667  0.333333  0.561929  1
  Zr  Zr2  1  0.666667  0.333333  0.938071  1
  Zr  Zr3  1  0.333333  0.666667  0.061929  1
  Ir  Ir4  1  0.828554  0.171446  0.250000  1
  Ir  Ir5  1  0.828554  0.657109  0.250000  1
  Ir  Ir6  1  0.342891  0.171446  0.250000  1
  Ir  Ir7  1  0.171446  0.828554  0.750000  1
  Ir  Ir8  1  0.171446  0.342891  0.750000  1
  Ir  Ir9  1  0.657109  0.828554  0.750000  1
  W  W10  1  0.000000  0.000000  0.500000  1
  W  W11  1  0.000000  0.000000  0.000000  1
