# generated using pymatgen
data_Yb4HgSbPd10
_symmetry_space_group_name_H-M   'P 1'
_cell_length_a   4.22857300
_cell_length_b   5.76943776
_cell_length_c   11.37305700
_cell_angle_alpha   88.17024616
_cell_angle_beta   90.00000000
_cell_angle_gamma   90.00000000
_symmetry_Int_Tables_number   1
_chemical_formula_structural   Yb4HgSbPd10
_chemical_formula_sum   'Yb4 Hg1 Sb1 Pd10'
_cell_volume   277.32118247
_cell_formula_units_Z   1
loop_
 _symmetry_equiv_pos_site_id
 _symmetry_equiv_pos_as_xyz
  1  'x, y, z'
loop_
 _atom_site_type_symbol
 _atom_site_label
 _atom_site_symmetry_multiplicity
 _atom_site_fract_x
 _atom_site_fract_y
 _atom_site_fract_z
 _atom_site_occupancy
  Yb  Yb0  1  0.500000  0.186989  0.358979  1
  Yb  Yb1  1  0.500000  0.813011  0.641021  1
  Yb  Yb2  1  0.500000  0.702791  0.133385  1
  Yb  Yb3  1  0.500000  0.297209  0.866615  1
  Hg  Hg4  1  0.000000  0.000000  0.000000  1
  Sb  Sb5  1  0.000000  0.500000  0.500000  1
  Pd  Pd6  1  0.500000  0.216276  0.119557  1
  Pd  Pd7  1  0.500000  0.783724  0.880443  1
  Pd  Pd8  1  0.500000  0.697144  0.387149  1
  Pd  Pd9  1  0.500000  0.302856  0.612851  1
  Pd  Pd10  1  0.000000  0.000000  0.500000  1
  Pd  Pd11  1  0.000000  0.500000  0.000000  1
  Pd  Pd12  1  0.000000  0.943746  0.250828  1
  Pd  Pd13  1  0.000000  0.056254  0.749172  1
  Pd  Pd14  1  0.000000  0.447427  0.252977  1
  Pd  Pd15  1  0.000000  0.552573  0.747023  1
