# generated using pymatgen
data_Ce3Al12Os3Rh
_symmetry_space_group_name_H-M   'P 1'
_cell_length_a   8.89936800
_cell_length_b   8.89936870
_cell_length_c   9.52649500
_cell_angle_alpha   90.00000000
_cell_angle_beta   90.00000000
_cell_angle_gamma   120.00000482
_symmetry_Int_Tables_number   1
_chemical_formula_structural   Ce3Al12Os3Rh
_chemical_formula_sum   'Ce6 Al24 Os6 Rh2'
_cell_volume   653.40449871
_cell_formula_units_Z   2
loop_
 _symmetry_equiv_pos_site_id
 _symmetry_equiv_pos_as_xyz
  1  'x, y, z'
loop_
 _atom_site_type_symbol
 _atom_site_label
 _atom_site_symmetry_multiplicity
 _atom_site_fract_x
 _atom_site_fract_y
 _atom_site_fract_z
 _atom_site_occupancy
  Ce  Ce0  1  0.194769  0.389538  0.250000  1
  Ce  Ce1  1  0.805231  0.610462  0.750000  1
  Ce  Ce2  1  0.610462  0.805231  0.250000  1
  Ce  Ce3  1  0.389538  0.194769  0.750000  1
  Ce  Ce4  1  0.194769  0.805231  0.250000  1
  Ce  Ce5  1  0.805231  0.194769  0.750000  1
  Al  Al6  1  0.333333  0.666667  0.014405  1
  Al  Al7  1  0.666667  0.333333  0.985595  1
  Al  Al8  1  0.666667  0.333333  0.514405  1
  Al  Al9  1  0.333333  0.666667  0.485595  1
  Al  Al10  1  0.163434  0.326868  0.577493  1
  Al  Al11  1  0.836566  0.673132  0.422507  1
  Al  Al12  1  0.673132  0.836566  0.577493  1
  Al  Al13  1  0.836566  0.673132  0.077493  1
  Al  Al14  1  0.326868  0.163434  0.422507  1
  Al  Al15  1  0.163434  0.326868  0.922507  1
  Al  Al16  1  0.163434  0.836566  0.577493  1
  Al  Al17  1  0.326868  0.163434  0.077493  1
  Al  Al18  1  0.836566  0.163434  0.422507  1
  Al  Al19  1  0.673132  0.836566  0.922507  1
  Al  Al20  1  0.836566  0.163434  0.077493  1
  Al  Al21  1  0.163434  0.836566  0.922507  1
  Al  Al22  1  0.561662  0.123323  0.250000  1
  Al  Al23  1  0.438338  0.876677  0.750000  1
  Al  Al24  1  0.876677  0.438338  0.250000  1
  Al  Al25  1  0.123323  0.561662  0.750000  1
  Al  Al26  1  0.561662  0.438338  0.250000  1
  Al  Al27  1  0.438338  0.561662  0.750000  1
  Al  Al28  1  0.000000  0.000000  0.250000  1
  Al  Al29  1  0.000000  0.000000  0.750000  1
  Os  Os30  1  0.500000  0.000000  0.000000  1
  Os  Os31  1  0.000000  0.500000  0.000000  1
  Os  Os32  1  0.500000  0.000000  0.500000  1
  Os  Os33  1  0.500000  0.500000  0.000000  1
  Os  Os34  1  0.000000  0.500000  0.500000  1
  Os  Os35  1  0.500000  0.500000  0.500000  1
  Rh  Rh36  1  0.000000  0.000000  0.000000  1
  Rh  Rh37  1  0.000000  0.000000  0.500000  1
