# generated using pymatgen
data_Tb4Al15Zn3(PdPt2)2
_symmetry_space_group_name_H-M   'P 1'
_cell_length_a   7.57404997
_cell_length_b   7.58443451
_cell_length_c   9.49724500
_cell_angle_alpha   90.00000000
_cell_angle_beta   90.00000000
_cell_angle_gamma   119.21658097
_symmetry_Int_Tables_number   1
_chemical_formula_structural   Tb4Al15Zn3(PdPt2)2
_chemical_formula_sum   'Tb4 Al15 Zn3 Pd2 Pt4'
_cell_volume   476.16144280
_cell_formula_units_Z   1
loop_
 _symmetry_equiv_pos_site_id
 _symmetry_equiv_pos_as_xyz
  1  'x, y, z'
loop_
 _atom_site_type_symbol
 _atom_site_label
 _atom_site_symmetry_multiplicity
 _atom_site_fract_x
 _atom_site_fract_y
 _atom_site_fract_z
 _atom_site_occupancy
  Tb  Tb0  1  0.995826  0.672598  0.250000  1
  Tb  Tb1  1  0.005371  0.327931  0.750000  1
  Tb  Tb2  1  0.671049  0.993682  0.250000  1
  Tb  Tb3  1  0.327878  0.005277  0.750000  1
  Al  Al4  1  0.006408  0.335629  0.080873  1
  Al  Al5  1  0.996419  0.666889  0.921819  1
  Al  Al6  1  0.996419  0.666889  0.578181  1
  Al  Al7  1  0.332988  0.001961  0.421203  1
  Al  Al8  1  0.006408  0.335629  0.419127  1
  Al  Al9  1  0.667532  0.997643  0.578400  1
  Al  Al10  1  0.667532  0.997643  0.921600  1
  Al  Al11  1  0.332988  0.001961  0.078797  1
  Al  Al12  1  0.332509  0.332833  0.553787  1
  Al  Al13  1  0.663645  0.665882  0.443852  1
  Al  Al14  1  0.663645  0.665882  0.056148  1
  Al  Al15  1  0.332509  0.332833  0.946213  1
  Al  Al16  1  0.660641  0.453934  0.750000  1
  Al  Al17  1  0.544128  0.341562  0.250000  1
  Al  Al18  1  0.455420  0.659987  0.750000  1
  Zn  Zn19  1  0.141002  0.139982  0.250000  1
  Zn  Zn20  1  0.861271  0.860462  0.750000  1
  Zn  Zn21  1  0.341412  0.542076  0.250000  1
  Pd  Pd22  1  0.999210  0.999367  0.000383  1
  Pd  Pd23  1  0.999210  0.999367  0.499617  1
  Pt  Pt24  1  0.673123  0.326674  0.999941  1
  Pt  Pt25  1  0.326165  0.674378  0.994294  1
  Pt  Pt26  1  0.326165  0.674378  0.505706  1
  Pt  Pt27  1  0.673123  0.326674  0.500059  1
