# generated using pymatgen
data_LaBi9(MoO8)3
_symmetry_space_group_name_H-M   'P 1'
_cell_length_a   12.28824473
_cell_length_b   12.32346902
_cell_length_c   8.88826318
_cell_angle_alpha   84.85753896
_cell_angle_beta   85.05694381
_cell_angle_gamma   27.24704828
_symmetry_Int_Tables_number   1
_chemical_formula_structural   LaBi9(MoO8)3
_chemical_formula_sum   'La1 Bi9 Mo3 O24'
_cell_volume   613.68675863
_cell_formula_units_Z   1
loop_
 _symmetry_equiv_pos_site_id
 _symmetry_equiv_pos_as_xyz
  1  'x, y, z'
loop_
 _atom_site_type_symbol
 _atom_site_label
 _atom_site_symmetry_multiplicity
 _atom_site_fract_x
 _atom_site_fract_y
 _atom_site_fract_z
 _atom_site_occupancy
  La  La0  1  0.453238  0.474704  0.300662  1
  Bi  Bi1  1  0.597761  0.789591  0.454401  1
  Bi  Bi2  1  0.529321  0.543692  0.666857  1
  Bi  Bi3  1  0.197012  0.275669  0.192260  1
  Bi  Bi4  1  0.061183  0.086655  0.417113  1
  Bi  Bi5  1  0.208295  0.405359  0.547211  1
  Bi  Bi6  1  0.123939  0.176302  0.750617  1
  Bi  Bi7  1  0.917340  0.931819  0.580948  1
  Bi  Bi8  1  0.821170  0.877512  0.252283  1
  Bi  Bi9  1  0.728036  0.796597  0.811436  1
  Mo  Mo10  1  0.325389  0.423571  0.928034  1
  Mo  Mo11  1  0.002238  0.999933  0.000548  1
  Mo  Mo12  1  0.567891  0.682068  0.073241  1
  O  O13  1  0.893045  0.760869  0.647959  1
  O  O14  1  0.381595  0.962909  0.009606  1
  O  O15  1  0.239048  0.105328  0.354666  1
  O  O16  1  0.231078  0.892270  0.931110  1
  O  O17  1  0.713805  0.290121  0.497515  1
  O  O18  1  0.004673  0.543410  0.352451  1
  O  O19  1  0.222816  0.777761  0.498243  1
  O  O20  1  0.833543  0.197996  0.154857  1
  O  O21  1  0.731981  0.488580  0.917044  1
  O  O22  1  0.514354  0.274835  0.088531  1
  O  O23  1  0.461787  0.193925  0.833898  1
  O  O24  1  0.291732  0.562474  0.781060  1
  O  O25  1  0.658043  0.132576  0.401910  1
  O  O26  1  0.792272  0.550094  0.176888  1
  O  O27  1  0.438772  0.697616  0.215757  1
  O  O28  1  0.861947  0.349256  0.593673  1
  O  O29  1  0.139091  0.752579  0.080183  1
  O  O30  1  0.353709  0.863517  0.582006  1
  O  O31  1  0.978217  0.472896  0.690992  1
  O  O32  1  0.127868  0.649590  0.414503  1
  O  O33  1  0.522813  0.026168  0.314411  1
  O  O34  1  0.819187  0.142361  0.843620  1
  O  O35  1  0.044112  0.612585  0.992591  1
  O  O36  1  0.456275  0.992231  0.650914  1
