# generated using pymatgen
data_PrNd7(SiI6)2
_symmetry_space_group_name_H-M   'P 1'
_cell_length_a   4.35220300
_cell_length_b   14.50461198
_cell_length_c   15.27783664
_cell_angle_alpha   90.02392527
_cell_angle_beta   90.00000000
_cell_angle_gamma   90.00000000
_symmetry_Int_Tables_number   1
_chemical_formula_structural   PrNd7(SiI6)2
_chemical_formula_sum   'Pr1 Nd7 Si2 I12'
_cell_volume   964.44415051
_cell_formula_units_Z   1
loop_
 _symmetry_equiv_pos_site_id
 _symmetry_equiv_pos_as_xyz
  1  'x, y, z'
loop_
 _atom_site_type_symbol
 _atom_site_label
 _atom_site_symmetry_multiplicity
 _atom_site_fract_x
 _atom_site_fract_y
 _atom_site_fract_z
 _atom_site_occupancy
  Pr  Pr0  1  0.500000  0.385088  0.846009  1
  Nd  Nd1  1  0.500000  0.114835  0.346981  1
  Nd  Nd2  1  0.500000  0.885817  0.653420  1
  Nd  Nd3  1  0.500000  0.614934  0.153930  1
  Nd  Nd4  1  0.000000  0.113223  0.575995  1
  Nd  Nd5  1  0.000000  0.887246  0.424577  1
  Nd  Nd6  1  0.000000  0.613088  0.924005  1
  Nd  Nd7  1  0.000000  0.386421  0.075401  1
  Si  Si8  1  0.500000  0.000345  0.500211  1
  Si  Si9  1  0.500000  0.500379  0.000500  1
  I  I10  1  0.500000  0.244265  0.161258  1
  I  I11  1  0.500000  0.754916  0.837869  1
  I  I12  1  0.500000  0.744953  0.338663  1
  I  I13  1  0.500000  0.254555  0.661560  1
  I  I14  1  0.000000  0.258034  0.414859  1
  I  I15  1  0.000000  0.742695  0.585516  1
  I  I16  1  0.000000  0.757813  0.085584  1
  I  I17  1  0.000000  0.240215  0.914753  1
  I  I18  1  0.000000  0.998632  0.241697  1
  I  I19  1  0.000000  0.001563  0.758992  1
  I  I20  1  0.000000  0.498315  0.258562  1
  I  I21  1  0.000000  0.502666  0.739660  1
