# generated using pymatgen
data_Y8Sc12Ga13Sn3
_symmetry_space_group_name_H-M   'P 1'
_cell_length_a   7.32100727
_cell_length_b   7.63695767
_cell_length_c   14.65611743
_cell_angle_alpha   90.08121585
_cell_angle_beta   89.84613204
_cell_angle_gamma   90.04568167
_symmetry_Int_Tables_number   1
_chemical_formula_structural   Y8Sc12Ga13Sn3
_chemical_formula_sum   'Y8 Sc12 Ga13 Sn3'
_cell_volume   819.42275245
_cell_formula_units_Z   1
loop_
 _symmetry_equiv_pos_site_id
 _symmetry_equiv_pos_as_xyz
  1  'x, y, z'
loop_
 _atom_site_type_symbol
 _atom_site_label
 _atom_site_symmetry_multiplicity
 _atom_site_fract_x
 _atom_site_fract_y
 _atom_site_fract_z
 _atom_site_occupancy
  Y  Y0  1  0.492521  0.320426  0.904422  1
  Y  Y1  1  0.991247  0.175609  0.597640  1
  Y  Y2  1  0.508260  0.674389  0.402884  1
  Y  Y3  1  0.007537  0.827697  0.094389  1
  Y  Y4  1  0.496227  0.685295  0.096312  1
  Y  Y5  1  0.992442  0.819214  0.400025  1
  Y  Y6  1  0.507199  0.318928  0.600485  1
  Y  Y7  1  0.999472  0.174769  0.903326  1
  Sc  Sc8  1  0.338151  0.828087  0.874988  1
  Sc  Sc9  1  0.829833  0.673671  0.627518  1
  Sc  Sc10  1  0.670217  0.174471  0.373364  1
  Sc  Sc11  1  0.172664  0.324042  0.124683  1
  Sc  Sc12  1  0.654055  0.162059  0.126526  1
  Sc  Sc13  1  0.150739  0.331123  0.367861  1
  Sc  Sc14  1  0.349420  0.830566  0.632272  1
  Sc  Sc15  1  0.840710  0.680941  0.872594  1
  Sc  Sc16  1  0.174418  0.495906  0.752693  1
  Sc  Sc17  1  0.677374  0.005484  0.752974  1
  Sc  Sc18  1  0.823084  0.503265  0.250011  1
  Sc  Sc19  1  0.323130  0.995265  0.248106  1
  Ga  Ga20  1  0.336345  0.037775  0.037509  1
  Ga  Ga21  1  0.828729  0.460089  0.460777  1
  Ga  Ga22  1  0.671737  0.959640  0.540152  1
  Ga  Ga23  1  0.170544  0.538923  0.958921  1
  Ga  Ga24  1  0.664602  0.965385  0.959630  1
  Ga  Ga25  1  0.541214  0.614947  0.754488  1
  Ga  Ga26  1  0.043104  0.883035  0.747936  1
  Ga  Ga27  1  0.459056  0.381729  0.251569  1
  Ga  Ga28  1  0.957630  0.116925  0.245517  1
  Ga  Ga29  1  0.295186  0.128512  0.750199  1
  Ga  Ga30  1  0.797053  0.374045  0.752134  1
  Ga  Ga31  1  0.703577  0.871007  0.249700  1
  Ga  Ga32  1  0.203496  0.628014  0.248844  1
  Sn  Sn33  1  0.171604  0.538283  0.539331  1
  Sn  Sn34  1  0.328196  0.038451  0.461118  1
  Sn  Sn35  1  0.829228  0.462034  0.039104  1
