# generated using pymatgen
data_Mg2ScBeP2Ir3
_symmetry_space_group_name_H-M   'P 1'
_cell_length_a   6.43297600
_cell_length_b   6.42217271
_cell_length_c   3.66179200
_cell_angle_alpha   90.00000000
_cell_angle_beta   90.00000000
_cell_angle_gamma   120.05567217
_symmetry_Int_Tables_number   1
_chemical_formula_structural   Mg2ScBeP2Ir3
_chemical_formula_sum   'Mg2 Sc1 Be1 P2 Ir3'
_cell_volume   130.94059415
_cell_formula_units_Z   1
loop_
 _symmetry_equiv_pos_site_id
 _symmetry_equiv_pos_as_xyz
  1  'x, y, z'
loop_
 _atom_site_type_symbol
 _atom_site_label
 _atom_site_symmetry_multiplicity
 _atom_site_fract_x
 _atom_site_fract_y
 _atom_site_fract_z
 _atom_site_occupancy
  Mg  Mg0  1  0.999630  0.402994  0.500000  1
  Mg  Mg1  1  0.596636  0.597006  0.500000  1
  Sc  Sc2  1  0.405770  0.000000  0.500000  1
  Be  Be3  1  0.997052  0.000000  0.500000  1
  P  P4  1  0.669534  0.337455  0.000000  1
  P  P5  1  0.332078  0.662545  0.000000  1
  Ir  Ir6  1  0.999643  0.753066  0.000000  1
  Ir  Ir7  1  0.246577  0.246934  0.000000  1
  Ir  Ir8  1  0.753082  0.000000  0.000000  1
