# generated using pymatgen
data_Sm3Y5Re(B8Ru)3
_symmetry_space_group_name_H-M   'P 1'
_cell_length_a   3.69915500
_cell_length_b   9.20292720
_cell_length_c   11.60996209
_cell_angle_alpha   89.86138265
_cell_angle_beta   90.00000000
_cell_angle_gamma   90.00000000
_symmetry_Int_Tables_number   1
_chemical_formula_structural   Sm3Y5Re(B8Ru)3
_chemical_formula_sum   'Sm3 Y5 Re1 B24 Ru3'
_cell_volume   395.23741177
_cell_formula_units_Z   1
loop_
 _symmetry_equiv_pos_site_id
 _symmetry_equiv_pos_as_xyz
  1  'x, y, z'
loop_
 _atom_site_type_symbol
 _atom_site_label
 _atom_site_symmetry_multiplicity
 _atom_site_fract_x
 _atom_site_fract_y
 _atom_site_fract_z
 _atom_site_occupancy
  Sm  Sm0  1  0.000000  0.823792  0.085071  1
  Sm  Sm1  1  0.000000  0.178954  0.912005  1
  Sm  Sm2  1  0.000000  0.323378  0.416191  1
  Y  Y3  1  0.000000  0.675779  0.586578  1
  Y  Y4  1  0.000000  0.443347  0.129386  1
  Y  Y5  1  0.000000  0.556491  0.871853  1
  Y  Y6  1  0.000000  0.942322  0.371868  1
  Y  Y7  1  0.000000  0.055843  0.627323  1
  Re  Re8  1  0.000000  0.362722  0.679063  1
  B  B9  1  0.500000  0.055045  0.068051  1
  B  B10  1  0.500000  0.945144  0.931121  1
  B  B11  1  0.500000  0.554817  0.432324  1
  B  B12  1  0.500000  0.447354  0.567875  1
  B  B13  1  0.500000  0.248622  0.081789  1
  B  B14  1  0.500000  0.751801  0.918095  1
  B  B15  1  0.500000  0.747792  0.419357  1
  B  B16  1  0.500000  0.251957  0.581821  1
  B  B17  1  0.500000  0.289535  0.233778  1
  B  B18  1  0.500000  0.709209  0.766304  1
  B  B19  1  0.500000  0.789996  0.266999  1
  B  B20  1  0.500000  0.209244  0.733241  1
  B  B21  1  0.500000  0.130546  0.314475  1
  B  B22  1  0.500000  0.867652  0.685223  1
  B  B23  1  0.500000  0.631490  0.185816  1
  B  B24  1  0.500000  0.369554  0.813799  1
  B  B25  1  0.500000  0.485081  0.287504  1
  B  B26  1  0.500000  0.517762  0.712571  1
  B  B27  1  0.500000  0.984575  0.212667  1
  B  B28  1  0.500000  0.015037  0.786306  1
  B  B29  1  0.500000  0.104779  0.470214  1
  B  B30  1  0.500000  0.891271  0.529411  1
  B  B31  1  0.500000  0.605641  0.029655  1
  B  B32  1  0.500000  0.395499  0.971792  1
  Ru  Ru33  1  0.000000  0.138087  0.179418  1
  Ru  Ru34  1  0.000000  0.861525  0.820393  1
  Ru  Ru35  1  0.000000  0.638360  0.320667  1
