# generated using pymatgen
data_Dy5Lu15(SiBi2)4
_symmetry_space_group_name_H-M   'P 1'
_cell_length_a   7.93706704
_cell_length_b   9.05986509
_cell_length_c   11.88798059
_cell_angle_alpha   89.98664260
_cell_angle_beta   89.94205364
_cell_angle_gamma   90.00834297
_symmetry_Int_Tables_number   1
_chemical_formula_structural   Dy5Lu15(SiBi2)4
_chemical_formula_sum   'Dy5 Lu15 Si4 Bi8'
_cell_volume   854.84943303
_cell_formula_units_Z   1
loop_
 _symmetry_equiv_pos_site_id
 _symmetry_equiv_pos_as_xyz
  1  'x, y, z'
loop_
 _atom_site_type_symbol
 _atom_site_label
 _atom_site_symmetry_multiplicity
 _atom_site_fract_x
 _atom_site_fract_y
 _atom_site_fract_z
 _atom_site_occupancy
  Dy  Dy0  1  0.680526  0.552923  0.562910  1
  Dy  Dy1  1  0.636657  0.750390  0.294648  1
  Dy  Dy2  1  0.862631  0.750455  0.795881  1
  Dy  Dy3  1  0.362624  0.250165  0.704986  1
  Dy  Dy4  1  0.137582  0.250200  0.204717  1
  Lu  Lu5  1  0.821271  0.554891  0.062639  1
  Lu  Lu6  1  0.678961  0.945443  0.562918  1
  Lu  Lu7  1  0.178758  0.055091  0.937336  1
  Lu  Lu8  1  0.321443  0.444786  0.437056  1
  Lu  Lu9  1  0.178891  0.445122  0.937528  1
  Lu  Lu10  1  0.320750  0.055074  0.437084  1
  Lu  Lu11  1  0.821130  0.945102  0.062936  1
  Lu  Lu12  1  0.164779  0.750099  0.211404  1
  Lu  Lu13  1  0.335158  0.750711  0.711895  1
  Lu  Lu14  1  0.835614  0.249994  0.788552  1
  Lu  Lu15  1  0.664419  0.249978  0.288487  1
  Lu  Lu16  1  0.460500  0.750259  0.001633  1
  Lu  Lu17  1  0.040442  0.750277  0.501408  1
  Lu  Lu18  1  0.539514  0.249756  0.998468  1
  Lu  Lu19  1  0.960888  0.249648  0.498342  1
  Si  Si20  1  0.408334  0.751640  0.480220  1
  Si  Si21  1  0.091078  0.749970  0.980794  1
  Si  Si22  1  0.589429  0.246697  0.518467  1
  Si  Si23  1  0.909378  0.250172  0.019379  1
  Bi  Bi24  1  0.932805  0.511062  0.326077  1
  Bi  Bi25  1  0.566602  0.989329  0.826459  1
  Bi  Bi26  1  0.066811  0.011287  0.673765  1
  Bi  Bi27  1  0.433114  0.488995  0.173349  1
  Bi  Bi28  1  0.067405  0.489067  0.674036  1
  Bi  Bi29  1  0.433206  0.011145  0.173430  1
  Bi  Bi30  1  0.933259  0.989232  0.326140  1
  Bi  Bi31  1  0.566044  0.511041  0.827056  1
