# generated using pymatgen
data_SbPIr
_symmetry_space_group_name_H-M   'P 1'
_cell_length_a   6.22776700
_cell_length_b   6.28648749
_cell_length_c   6.31061142
_cell_angle_alpha   112.46128052
_cell_angle_beta   90.00000000
_cell_angle_gamma   90.00000000
_symmetry_Int_Tables_number   1
_chemical_formula_structural   SbPIr
_chemical_formula_sum   'Sb4 P4 Ir4'
_cell_volume   228.32246634
_cell_formula_units_Z   4
loop_
 _symmetry_equiv_pos_site_id
 _symmetry_equiv_pos_as_xyz
  1  'x, y, z'
loop_
 _atom_site_type_symbol
 _atom_site_label
 _atom_site_symmetry_multiplicity
 _atom_site_fract_x
 _atom_site_fract_y
 _atom_site_fract_z
 _atom_site_occupancy
  Sb  Sb0  1  0.124364  0.843147  0.136119  1
  Sb  Sb1  1  0.624364  0.156853  0.363881  1
  Sb  Sb2  1  0.875636  0.156853  0.863881  1
  Sb  Sb3  1  0.375636  0.843147  0.636119  1
  P  P4  1  0.863945  0.648536  0.324874  1
  P  P5  1  0.363945  0.351464  0.175126  1
  P  P6  1  0.136055  0.351464  0.675126  1
  P  P7  1  0.636055  0.648536  0.824874  1
  Ir  Ir8  1  0.517337  0.705976  0.201148  1
  Ir  Ir9  1  0.017337  0.294024  0.298852  1
  Ir  Ir10  1  0.482663  0.294024  0.798852  1
  Ir  Ir11  1  0.982663  0.705976  0.701148  1
