# generated using pymatgen
data_Nd18Dy2Ir7Pt5
_symmetry_space_group_name_H-M   'P 1'
_cell_length_a   11.36821778
_cell_length_b   11.36821775
_cell_length_c   6.50047986
_cell_angle_alpha   90.06762061
_cell_angle_beta   90.06762062
_cell_angle_gamma   89.90356095
_symmetry_Int_Tables_number   1
_chemical_formula_structural   Nd18Dy2Ir7Pt5
_chemical_formula_sum   'Nd18 Dy2 Ir7 Pt5'
_cell_volume   840.09609625
_cell_formula_units_Z   1
loop_
 _symmetry_equiv_pos_site_id
 _symmetry_equiv_pos_as_xyz
  1  'x, y, z'
loop_
 _atom_site_type_symbol
 _atom_site_label
 _atom_site_symmetry_multiplicity
 _atom_site_fract_x
 _atom_site_fract_y
 _atom_site_fract_z
 _atom_site_occupancy
  Nd  Nd0  1  0.295608  0.091440  0.375119  1
  Nd  Nd1  1  0.296348  0.908022  0.874008  1
  Nd  Nd2  1  0.703901  0.087218  0.873849  1
  Nd  Nd3  1  0.703573  0.907283  0.374208  1
  Nd  Nd4  1  0.586569  0.787153  0.880924  1
  Nd  Nd5  1  0.585259  0.209006  0.375972  1
  Nd  Nd6  1  0.412932  0.789125  0.380524  1
  Nd  Nd7  1  0.409924  0.209847  0.882089  1
  Nd  Nd8  1  0.212847  0.413431  0.619076  1
  Nd  Nd9  1  0.210875  0.587068  0.119476  1
  Nd  Nd10  1  0.790994  0.414741  0.124028  1
  Nd  Nd11  1  0.790153  0.590076  0.617911  1
  Nd  Nd12  1  0.908560  0.704392  0.124881  1
  Nd  Nd13  1  0.912782  0.296099  0.626151  1
  Nd  Nd14  1  0.091978  0.703652  0.625992  1
  Nd  Nd15  1  0.092717  0.296427  0.125792  1
  Nd  Nd16  1  0.999457  0.999539  0.499325  1
  Nd  Nd17  1  0.000461  0.000543  0.000675  1
  Dy  Dy18  1  0.498017  0.500878  0.000670  1
  Dy  Dy19  1  0.499122  0.501983  0.499330  1
  Ir  Ir20  1  0.647946  0.647161  0.250157  1
  Ir  Ir21  1  0.352839  0.352054  0.249843  1
  Ir  Ir22  1  0.351066  0.648934  0.750000  1
  Ir  Ir23  1  0.500116  0.000092  0.117369  1
  Ir  Ir24  1  0.499952  0.000896  0.618429  1
  Ir  Ir25  1  0.999104  0.500048  0.881571  1
  Ir  Ir26  1  0.999908  0.499884  0.382631  1
  Pt  Pt27  1  0.844683  0.155317  0.250000  1
  Pt  Pt28  1  0.845467  0.846594  0.750232  1
  Pt  Pt29  1  0.153406  0.154533  0.749768  1
  Pt  Pt30  1  0.154634  0.845366  0.250000  1
  Pt  Pt31  1  0.648798  0.351202  0.750000  1
