# generated using pymatgen
data_Y2Er3(TcO6)2
_symmetry_space_group_name_H-M   'P 1'
_cell_length_a   6.79625329
_cell_length_b   6.79625434
_cell_length_c   7.49890775
_cell_angle_alpha   73.85186404
_cell_angle_beta   73.85185993
_cell_angle_gamma   49.22248000
_symmetry_Int_Tables_number   1
_chemical_formula_structural   Y2Er3(TcO6)2
_chemical_formula_sum   'Y2 Er3 Tc2 O12'
_cell_volume   249.71314055
_cell_formula_units_Z   1
loop_
 _symmetry_equiv_pos_site_id
 _symmetry_equiv_pos_as_xyz
  1  'x, y, z'
loop_
 _atom_site_type_symbol
 _atom_site_label
 _atom_site_symmetry_multiplicity
 _atom_site_fract_x
 _atom_site_fract_y
 _atom_site_fract_z
 _atom_site_occupancy
  Y  Y0  1  0.695422  0.695422  0.642294  1
  Y  Y1  1  0.304578  0.304578  0.357706  1
  Er  Er2  1  0.684322  0.684322  0.176038  1
  Er  Er3  1  0.315678  0.315678  0.823962  1
  Er  Er4  1  0.000000  0.000000  0.500000  1
  Tc  Tc5  1  0.786157  0.213843  0.000000  1
  Tc  Tc6  1  0.213843  0.786157  0.000000  1
  O  O7  1  0.000937  0.000937  0.205674  1
  O  O8  1  0.999063  0.999063  0.794326  1
  O  O9  1  0.583762  0.085346  0.083598  1
  O  O10  1  0.416238  0.914654  0.916402  1
  O  O11  1  0.914654  0.416238  0.916402  1
  O  O12  1  0.085346  0.583762  0.083598  1
  O  O13  1  0.499938  0.499938  0.178236  1
  O  O14  1  0.500062  0.500062  0.821764  1
  O  O15  1  0.404621  0.900291  0.424753  1
  O  O16  1  0.595379  0.099709  0.575247  1
  O  O17  1  0.099709  0.595379  0.575247  1
  O  O18  1  0.900291  0.404621  0.424753  1
