# generated using pymatgen
data_DyHo2Cd3Ga2Hg
_symmetry_space_group_name_H-M   'P 1'
_cell_length_a   7.32161032
_cell_length_b   7.31190092
_cell_length_c   4.47158400
_cell_angle_alpha   90.00000000
_cell_angle_beta   90.00000000
_cell_angle_gamma   119.95615429
_symmetry_Int_Tables_number   1
_chemical_formula_structural   DyHo2Cd3Ga2Hg
_chemical_formula_sum   'Dy1 Ho2 Cd3 Ga2 Hg1'
_cell_volume   207.40567877
_cell_formula_units_Z   1
loop_
 _symmetry_equiv_pos_site_id
 _symmetry_equiv_pos_as_xyz
  1  'x, y, z'
loop_
 _atom_site_type_symbol
 _atom_site_label
 _atom_site_symmetry_multiplicity
 _atom_site_fract_x
 _atom_site_fract_y
 _atom_site_fract_z
 _atom_site_occupancy
  Dy  Dy0  1  0.000000  0.574477  0.500000  1
  Ho  Ho1  1  0.424661  0.425237  0.500000  1
  Ho  Ho2  1  0.575339  0.000574  0.500000  1
  Cd  Cd3  1  0.743997  0.744317  0.000000  1
  Cd  Cd4  1  0.256003  0.000320  0.000000  1
  Cd  Cd5  1  0.000000  0.254826  0.000000  1
  Ga  Ga6  1  0.666357  0.333598  0.000000  1
  Ga  Ga7  1  0.333643  0.667242  0.000000  1
  Hg  Hg8  1  0.000000  0.999408  0.500000  1
