# generated using pymatgen
data_Ce3NdEr4(ReB6)4
_symmetry_space_group_name_H-M   'P 1'
_cell_length_a   3.71734800
_cell_length_b   9.19341252
_cell_length_c   11.59859203
_cell_angle_alpha   90.07758163
_cell_angle_beta   90.00000000
_cell_angle_gamma   90.00000000
_symmetry_Int_Tables_number   1
_chemical_formula_structural   Ce3NdEr4(ReB6)4
_chemical_formula_sum   'Ce3 Nd1 Er4 Re4 B24'
_cell_volume   396.38283741
_cell_formula_units_Z   1
loop_
 _symmetry_equiv_pos_site_id
 _symmetry_equiv_pos_as_xyz
  1  'x, y, z'
loop_
 _atom_site_type_symbol
 _atom_site_label
 _atom_site_symmetry_multiplicity
 _atom_site_fract_x
 _atom_site_fract_y
 _atom_site_fract_z
 _atom_site_occupancy
  Ce  Ce0  1  0.000000  0.321872  0.414445  1
  Ce  Ce1  1  0.000000  0.677998  0.585866  1
  Ce  Ce2  1  0.000000  0.823343  0.085897  1
  Nd  Nd3  1  0.000000  0.177531  0.913800  1
  Er  Er4  1  0.000000  0.944228  0.372917  1
  Er  Er5  1  0.000000  0.056105  0.627953  1
  Er  Er6  1  0.000000  0.443364  0.128530  1
  Er  Er7  1  0.000000  0.556181  0.871444  1
  Re  Re8  1  0.000000  0.638822  0.320434  1
  Re  Re9  1  0.000000  0.362976  0.677651  1
  Re  Re10  1  0.000000  0.138926  0.181122  1
  Re  Re11  1  0.000000  0.859267  0.819922  1
  B  B12  1  0.500000  0.554707  0.431200  1
  B  B13  1  0.500000  0.445817  0.568213  1
  B  B14  1  0.500000  0.053776  0.069563  1
  B  B15  1  0.500000  0.943945  0.931712  1
  B  B16  1  0.500000  0.749236  0.418011  1
  B  B17  1  0.500000  0.250491  0.581720  1
  B  B18  1  0.500000  0.249438  0.083341  1
  B  B19  1  0.500000  0.750429  0.918093  1
  B  B20  1  0.500000  0.791581  0.266029  1
  B  B21  1  0.500000  0.208769  0.732750  1
  B  B22  1  0.500000  0.291642  0.234319  1
  B  B23  1  0.500000  0.708141  0.765847  1
  B  B24  1  0.500000  0.631025  0.185632  1
  B  B25  1  0.500000  0.370232  0.813488  1
  B  B26  1  0.500000  0.131086  0.314686  1
  B  B27  1  0.500000  0.868733  0.685505  1
  B  B28  1  0.500000  0.983220  0.213311  1
  B  B29  1  0.500000  0.015541  0.786136  1
  B  B30  1  0.500000  0.483528  0.286966  1
  B  B31  1  0.500000  0.517032  0.712857  1
  B  B32  1  0.500000  0.601322  0.028120  1
  B  B33  1  0.500000  0.399786  0.972028  1
  B  B34  1  0.500000  0.104556  0.471435  1
  B  B35  1  0.500000  0.895350  0.529057  1
