# generated using pymatgen
data_Ta8TiNbSi6
_symmetry_space_group_name_H-M   'P 1'
_cell_length_a   7.55066719
_cell_length_b   7.54535012
_cell_length_c   7.54771822
_cell_angle_alpha   128.56583128
_cell_angle_beta   128.58010328
_cell_angle_gamma   75.69236930
_symmetry_Int_Tables_number   1
_chemical_formula_structural   Ta8TiNbSi6
_chemical_formula_sum   'Ta8 Ti1 Nb1 Si6'
_cell_volume   255.68393164
_cell_formula_units_Z   1
loop_
 _symmetry_equiv_pos_site_id
 _symmetry_equiv_pos_as_xyz
  1  'x, y, z'
loop_
 _atom_site_type_symbol
 _atom_site_label
 _atom_site_symmetry_multiplicity
 _atom_site_fract_x
 _atom_site_fract_y
 _atom_site_fract_z
 _atom_site_occupancy
  Ta  Ta0  1  0.684269  0.515595  0.499661  1
  Ta  Ta1  1  0.515439  0.015305  0.830577  1
  Ta  Ta2  1  0.185269  0.684253  0.169400  1
  Ta  Ta3  1  0.984657  0.815006  0.499571  1
  Ta  Ta4  1  0.315196  0.484691  0.500434  1
  Ta  Ta5  1  0.483546  0.984314  0.168845  1
  Ta  Ta6  1  0.814509  0.315710  0.831184  1
  Ta  Ta7  1  0.500440  0.500436  0.000466  1
  Ti  Ti8  1  0.000025  0.999938  0.999667  1
  Nb  Nb9  1  0.016929  0.184835  0.500069  1
  Si  Si10  1  0.750708  0.750992  0.999965  1
  Si  Si11  1  0.248968  0.249271  0.000060  1
  Si  Si12  1  0.366271  0.126758  0.493273  1
  Si  Si13  1  0.634033  0.873093  0.506843  1
  Si  Si14  1  0.872889  0.366120  0.239216  1
  Si  Si15  1  0.126852  0.633685  0.760769  1
