# generated using pymatgen
data_La2Nd2Ga4IrPt3
_symmetry_space_group_name_H-M   'P 1'
_cell_length_a   4.54114900
_cell_length_b   7.13871432
_cell_length_c   7.90187300
_cell_angle_alpha   90.01535812
_cell_angle_beta   90.00000000
_cell_angle_gamma   90.00000000
_symmetry_Int_Tables_number   1
_chemical_formula_structural   La2Nd2Ga4IrPt3
_chemical_formula_sum   'La2 Nd2 Ga4 Ir1 Pt3'
_cell_volume   256.16263646
_cell_formula_units_Z   1
loop_
 _symmetry_equiv_pos_site_id
 _symmetry_equiv_pos_as_xyz
  1  'x, y, z'
loop_
 _atom_site_type_symbol
 _atom_site_label
 _atom_site_symmetry_multiplicity
 _atom_site_fract_x
 _atom_site_fract_y
 _atom_site_fract_z
 _atom_site_occupancy
  La  La0  1  0.250000  0.032065  0.682991  1
  La  La1  1  0.250000  0.528010  0.813136  1
  Nd  Nd2  1  0.750000  0.976784  0.309057  1
  Nd  Nd3  1  0.750000  0.469745  0.193666  1
  Ga  Ga4  1  0.250000  0.159045  0.074569  1
  Ga  Ga5  1  0.250000  0.651327  0.428552  1
  Ga  Ga6  1  0.750000  0.842712  0.935275  1
  Ga  Ga7  1  0.750000  0.339902  0.563005  1
  Ir  Ir8  1  0.250000  0.278316  0.390424  1
  Pt  Pt9  1  0.250000  0.781424  0.110011  1
  Pt  Pt10  1  0.750000  0.720955  0.609114  1
  Pt  Pt11  1  0.750000  0.219715  0.890199  1
