# generated using pymatgen
data_Ho3Fe2P6Ru7
_symmetry_space_group_name_H-M   'P 1'
_cell_length_a   3.85911700
_cell_length_b   10.98696700
_cell_length_c   12.58424600
_cell_angle_alpha   90.00000000
_cell_angle_beta   90.00000000
_cell_angle_gamma   90.00000000
_symmetry_Int_Tables_number   1
_chemical_formula_structural   Ho3Fe2P6Ru7
_chemical_formula_sum   'Ho6 Fe4 P12 Ru14'
_cell_volume   533.57191875
_cell_formula_units_Z   2
loop_
 _symmetry_equiv_pos_site_id
 _symmetry_equiv_pos_as_xyz
  1  'x, y, z'
loop_
 _atom_site_type_symbol
 _atom_site_label
 _atom_site_symmetry_multiplicity
 _atom_site_fract_x
 _atom_site_fract_y
 _atom_site_fract_z
 _atom_site_occupancy
  Ho  Ho0  1  0.000000  0.500000  0.525936  1
  Ho  Ho1  1  0.500000  0.000000  0.473941  1
  Ho  Ho2  1  0.500000  0.822529  0.203044  1
  Ho  Ho3  1  0.500000  0.177471  0.203044  1
  Ho  Ho4  1  0.000000  0.680029  0.797981  1
  Ho  Ho5  1  0.000000  0.319971  0.797981  1
  Fe  Fe6  1  0.000000  0.500000  0.988092  1
  Fe  Fe7  1  0.500000  0.000000  0.013920  1
  Fe  Fe8  1  0.000000  0.163601  0.007577  1
  Fe  Fe9  1  0.000000  0.836399  0.007577  1
  P  P10  1  0.500000  0.304511  0.618568  1
  P  P11  1  0.500000  0.695489  0.618568  1
  P  P12  1  0.000000  0.195919  0.381833  1
  P  P13  1  0.000000  0.804081  0.381833  1
  P  P14  1  0.500000  0.500000  0.885921  1
  P  P15  1  0.000000  0.000000  0.112784  1
  P  P16  1  0.500000  0.852814  0.898071  1
  P  P17  1  0.500000  0.147186  0.898071  1
  P  P18  1  0.000000  0.655106  0.100241  1
  P  P19  1  0.000000  0.344894  0.100241  1
  P  P20  1  0.500000  0.500000  0.335917  1
  P  P21  1  0.000000  0.000000  0.663545  1
  Ru  Ru22  1  0.500000  0.302497  0.430375  1
  Ru  Ru23  1  0.500000  0.697503  0.430375  1
  Ru  Ru24  1  0.000000  0.197659  0.569680  1
  Ru  Ru25  1  0.000000  0.802341  0.569680  1
  Ru  Ru26  1  0.500000  0.877987  0.716181  1
  Ru  Ru27  1  0.500000  0.122013  0.716181  1
  Ru  Ru28  1  0.000000  0.623050  0.282365  1
  Ru  Ru29  1  0.000000  0.376950  0.282365  1
  Ru  Ru30  1  0.500000  0.327096  0.993034  1
  Ru  Ru31  1  0.500000  0.672904  0.993034  1
  Ru  Ru32  1  0.500000  0.500000  0.150614  1
  Ru  Ru33  1  0.000000  0.000000  0.851599  1
  Ru  Ru34  1  0.500000  0.500000  0.696808  1
  Ru  Ru35  1  0.000000  0.000000  0.303022  1
