# generated using pymatgen
data_Tm6Mn9Co8TcP12
_symmetry_space_group_name_H-M   'P 1'
_cell_length_a   3.72941900
_cell_length_b   10.43251800
_cell_length_c   12.39595000
_cell_angle_alpha   90.00000000
_cell_angle_beta   90.00000000
_cell_angle_gamma   90.00000000
_symmetry_Int_Tables_number   1
_chemical_formula_structural   Tm6Mn9Co8TcP12
_chemical_formula_sum   'Tm6 Mn9 Co8 Tc1 P12'
_cell_volume   482.29208822
_cell_formula_units_Z   1
loop_
 _symmetry_equiv_pos_site_id
 _symmetry_equiv_pos_as_xyz
  1  'x, y, z'
loop_
 _atom_site_type_symbol
 _atom_site_label
 _atom_site_symmetry_multiplicity
 _atom_site_fract_x
 _atom_site_fract_y
 _atom_site_fract_z
 _atom_site_occupancy
  Tm  Tm0  1  0.000000  0.500000  0.526427  1
  Tm  Tm1  1  0.500000  0.000000  0.476216  1
  Tm  Tm2  1  0.500000  0.820957  0.209835  1
  Tm  Tm3  1  0.500000  0.179043  0.209835  1
  Tm  Tm4  1  0.000000  0.680471  0.789106  1
  Tm  Tm5  1  0.000000  0.319529  0.789106  1
  Mn  Mn6  1  0.000000  0.000000  0.837836  1
  Mn  Mn7  1  0.000000  0.500000  0.987393  1
  Mn  Mn8  1  0.500000  0.000000  0.010850  1
  Mn  Mn9  1  0.500000  0.329637  0.993573  1
  Mn  Mn10  1  0.500000  0.670363  0.993573  1
  Mn  Mn11  1  0.000000  0.168871  0.003279  1
  Mn  Mn12  1  0.000000  0.831129  0.003279  1
  Mn  Mn13  1  0.500000  0.296852  0.432966  1
  Mn  Mn14  1  0.500000  0.703148  0.432966  1
  Co  Co15  1  0.500000  0.500000  0.697490  1
  Co  Co16  1  0.000000  0.000000  0.302507  1
  Co  Co17  1  0.000000  0.200875  0.570465  1
  Co  Co18  1  0.000000  0.799125  0.570465  1
  Co  Co19  1  0.500000  0.880326  0.704637  1
  Co  Co20  1  0.500000  0.119674  0.704637  1
  Co  Co21  1  0.000000  0.621320  0.296199  1
  Co  Co22  1  0.000000  0.378680  0.296199  1
  Tc  Tc23  1  0.500000  0.500000  0.159901  1
  P  P24  1  0.500000  0.500000  0.874673  1
  P  P25  1  0.000000  0.000000  0.124091  1
  P  P26  1  0.500000  0.500000  0.351568  1
  P  P27  1  0.000000  0.000000  0.653863  1
  P  P28  1  0.500000  0.309900  0.613763  1
  P  P29  1  0.500000  0.690100  0.613763  1
  P  P30  1  0.000000  0.188855  0.386530  1
  P  P31  1  0.000000  0.811145  0.386530  1
  P  P32  1  0.500000  0.849643  0.881913  1
  P  P33  1  0.500000  0.150357  0.881913  1
  P  P34  1  0.000000  0.653123  0.116324  1
  P  P35  1  0.000000  0.346877  0.116324  1
