# generated using pymatgen
data_La12Th4MgCd3Ir4
_symmetry_space_group_name_H-M   'P 1'
_cell_length_a   10.11260740
_cell_length_b   10.11260755
_cell_length_c   10.11260838
_cell_angle_alpha   60.20113401
_cell_angle_beta   60.20113336
_cell_angle_gamma   60.20113650
_symmetry_Int_Tables_number   1
_chemical_formula_structural   La12Th4MgCd3Ir4
_chemical_formula_sum   'La12 Th4 Mg1 Cd3 Ir4'
_cell_volume   734.59497813
_cell_formula_units_Z   1
loop_
 _symmetry_equiv_pos_site_id
 _symmetry_equiv_pos_as_xyz
  1  'x, y, z'
loop_
 _atom_site_type_symbol
 _atom_site_label
 _atom_site_symmetry_multiplicity
 _atom_site_fract_x
 _atom_site_fract_y
 _atom_site_fract_z
 _atom_site_occupancy
  La  La0  1  0.056476  0.443631  0.443631  1
  La  La1  1  0.441704  0.057659  0.057659  1
  La  La2  1  0.443631  0.056476  0.443631  1
  La  La3  1  0.057659  0.441704  0.057659  1
  La  La4  1  0.443631  0.443631  0.056476  1
  La  La5  1  0.057659  0.057659  0.441704  1
  La  La6  1  0.191162  0.809600  0.809600  1
  La  La7  1  0.806965  0.190159  0.190159  1
  La  La8  1  0.809600  0.191162  0.809600  1
  La  La9  1  0.190159  0.806965  0.190159  1
  La  La10  1  0.809600  0.809600  0.191162  1
  La  La11  1  0.190159  0.190159  0.806965  1
  Th  Th12  1  0.595758  0.595758  0.595758  1
  Th  Th13  1  0.595303  0.595303  0.215486  1
  Th  Th14  1  0.595303  0.215486  0.595303  1
  Th  Th15  1  0.215486  0.595303  0.595303  1
  Mg  Mg16  1  0.824509  0.824509  0.824509  1
  Cd  Cd17  1  0.831006  0.831006  0.510479  1
  Cd  Cd18  1  0.831006  0.510479  0.831006  1
  Cd  Cd19  1  0.510479  0.831006  0.831006  1
  Ir  Ir20  1  0.396340  0.396340  0.396340  1
  Ir  Ir21  1  0.396692  0.396692  0.813019  1
  Ir  Ir22  1  0.396692  0.813019  0.396692  1
  Ir  Ir23  1  0.813019  0.396692  0.396692  1
