# generated using pymatgen
data_Hf18ZnRe6PW2
_symmetry_space_group_name_H-M   'P 1'
_cell_length_a   8.64790800
_cell_length_b   8.64790712
_cell_length_c   8.56496900
_cell_angle_alpha   90.00000000
_cell_angle_beta   90.00000000
_cell_angle_gamma   120.00000337
_symmetry_Int_Tables_number   1
_chemical_formula_structural   Hf18ZnRe6PW2
_chemical_formula_sum   'Hf18 Zn1 Re6 P1 W2'
_cell_volume   554.72595901
_cell_formula_units_Z   1
loop_
 _symmetry_equiv_pos_site_id
 _symmetry_equiv_pos_as_xyz
  1  'x, y, z'
loop_
 _atom_site_type_symbol
 _atom_site_label
 _atom_site_symmetry_multiplicity
 _atom_site_fract_x
 _atom_site_fract_y
 _atom_site_fract_z
 _atom_site_occupancy
  Hf  Hf0  1  0.195204  0.804796  0.450836  1
  Hf  Hf1  1  0.195204  0.390406  0.450836  1
  Hf  Hf2  1  0.609594  0.804796  0.450836  1
  Hf  Hf3  1  0.803355  0.196645  0.549708  1
  Hf  Hf4  1  0.803355  0.606710  0.549708  1
  Hf  Hf5  1  0.393290  0.196645  0.549708  1
  Hf  Hf6  1  0.803355  0.196645  0.950292  1
  Hf  Hf7  1  0.803355  0.606710  0.950292  1
  Hf  Hf8  1  0.393290  0.196645  0.950292  1
  Hf  Hf9  1  0.195204  0.804796  0.049164  1
  Hf  Hf10  1  0.195204  0.390406  0.049164  1
  Hf  Hf11  1  0.609594  0.804796  0.049164  1
  Hf  Hf12  1  0.540877  0.459123  0.250000  1
  Hf  Hf13  1  0.540877  0.081754  0.250000  1
  Hf  Hf14  1  0.918246  0.459123  0.250000  1
  Hf  Hf15  1  0.459291  0.540709  0.750000  1
  Hf  Hf16  1  0.459291  0.918583  0.750000  1
  Hf  Hf17  1  0.081417  0.540709  0.750000  1
  Zn  Zn18  1  0.333333  0.666667  0.250000  1
  Re  Re19  1  0.888776  0.111224  0.250000  1
  Re  Re20  1  0.888776  0.777551  0.250000  1
  Re  Re21  1  0.222449  0.111224  0.250000  1
  Re  Re22  1  0.110286  0.889714  0.750000  1
  Re  Re23  1  0.110286  0.220574  0.750000  1
  Re  Re24  1  0.779426  0.889714  0.750000  1
  P  P25  1  0.666667  0.333333  0.750000  1
  W  W26  1  0.000000  0.000000  0.498761  1
  W  W27  1  0.000000  0.000000  0.001239  1
