# generated using pymatgen
data_TbDy3(Nb3Si4)2
_symmetry_space_group_name_H-M   'P 1'
_cell_length_a   7.07154089
_cell_length_b   7.07126272
_cell_length_c   13.04870800
_cell_angle_alpha   90.00000000
_cell_angle_beta   90.00000000
_cell_angle_gamma   90.03477002
_symmetry_Int_Tables_number   1
_chemical_formula_structural   TbDy3(Nb3Si4)2
_chemical_formula_sum   'Tb2 Dy6 Nb12 Si16'
_cell_volume   652.49691470
_cell_formula_units_Z   2
loop_
 _symmetry_equiv_pos_site_id
 _symmetry_equiv_pos_as_xyz
  1  'x, y, z'
loop_
 _atom_site_type_symbol
 _atom_site_label
 _atom_site_symmetry_multiplicity
 _atom_site_fract_x
 _atom_site_fract_y
 _atom_site_fract_z
 _atom_site_occupancy
  Tb  Tb0  1  0.998431  0.340548  0.217902  1
  Tb  Tb1  1  0.001569  0.659452  0.717902  1
  Dy  Dy2  1  0.158805  0.498847  0.467740  1
  Dy  Dy3  1  0.501095  0.841144  0.032297  1
  Dy  Dy4  1  0.841195  0.501153  0.967740  1
  Dy  Dy5  1  0.498905  0.158856  0.532297  1
  Dy  Dy6  1  0.341051  0.999020  0.782116  1
  Dy  Dy7  1  0.658949  0.000980  0.282116  1
  Nb  Nb8  1  0.170840  0.170626  0.999992  1
  Nb  Nb9  1  0.829160  0.829374  0.499992  1
  Nb  Nb10  1  0.329343  0.670458  0.250022  1
  Nb  Nb11  1  0.670657  0.329542  0.750022  1
  Nb  Nb12  1  0.154026  0.992225  0.375920  1
  Nb  Nb13  1  0.845974  0.007775  0.875920  1
  Nb  Nb14  1  0.507437  0.654317  0.626319  1
  Nb  Nb15  1  0.346107  0.492607  0.873716  1
  Nb  Nb16  1  0.492563  0.345683  0.126319  1
  Nb  Nb17  1  0.653893  0.507393  0.373716  1
  Nb  Nb18  1  0.992388  0.154230  0.624039  1
  Nb  Nb19  1  0.007612  0.845770  0.124039  1
  Si  Si20  1  0.293703  0.044566  0.186508  1
  Si  Si21  1  0.706297  0.955434  0.686508  1
  Si  Si22  1  0.455050  0.793475  0.436475  1
  Si  Si23  1  0.206690  0.545031  0.063345  1
  Si  Si24  1  0.544950  0.206525  0.936475  1
  Si  Si25  1  0.793310  0.454969  0.563345  1
  Si  Si26  1  0.045256  0.293314  0.813620  1
  Si  Si27  1  0.954744  0.706686  0.313620  1
  Si  Si28  1  0.368177  0.294908  0.318096  1
  Si  Si29  1  0.631823  0.705092  0.818096  1
  Si  Si30  1  0.204847  0.868435  0.567572  1
  Si  Si31  1  0.132218  0.795726  0.932278  1
  Si  Si32  1  0.795153  0.131565  0.067572  1
  Si  Si33  1  0.867782  0.204274  0.432278  1
  Si  Si34  1  0.295496  0.367805  0.682040  1
  Si  Si35  1  0.704504  0.632195  0.182040  1
