# generated using pymatgen
data_Y16Cd4IrPd2Pt
_symmetry_space_group_name_H-M   'P 1'
_cell_length_a   9.73781629
_cell_length_b   9.70834299
_cell_length_c   9.69617400
_cell_angle_alpha   60.04145536
_cell_angle_beta   60.14135991
_cell_angle_gamma   60.22664195
_symmetry_Int_Tables_number   1
_chemical_formula_structural   Y16Cd4IrPd2Pt
_chemical_formula_sum   'Y16 Cd4 Ir1 Pd2 Pt1'
_cell_volume   650.17536083
_cell_formula_units_Z   1
loop_
 _symmetry_equiv_pos_site_id
 _symmetry_equiv_pos_as_xyz
  1  'x, y, z'
loop_
 _atom_site_type_symbol
 _atom_site_label
 _atom_site_symmetry_multiplicity
 _atom_site_fract_x
 _atom_site_fract_y
 _atom_site_fract_z
 _atom_site_occupancy
  Y  Y0  1  0.354454  0.350981  0.346751  1
  Y  Y1  1  0.354454  0.350981  0.947815  1
  Y  Y2  1  0.359931  0.939008  0.350530  1
  Y  Y3  1  0.932733  0.359841  0.353712  1
  Y  Y4  1  0.806583  0.190019  0.189586  1
  Y  Y5  1  0.191611  0.808166  0.810049  1
  Y  Y6  1  0.191611  0.808166  0.190174  1
  Y  Y7  1  0.806583  0.190019  0.813812  1
  Y  Y8  1  0.192627  0.190926  0.808223  1
  Y  Y9  1  0.808619  0.813907  0.188737  1
  Y  Y10  1  0.936758  0.564783  0.563833  1
  Y  Y11  1  0.566143  0.936932  0.935537  1
  Y  Y12  1  0.566143  0.936932  0.561389  1
  Y  Y13  1  0.936758  0.564783  0.934627  1
  Y  Y14  1  0.566524  0.563328  0.935074  1
  Y  Y15  1  0.936760  0.936348  0.563446  1
  Cd  Cd16  1  0.580939  0.580998  0.583491  1
  Cd  Cd17  1  0.580939  0.580998  0.254571  1
  Cd  Cd18  1  0.579747  0.254175  0.583039  1
  Cd  Cd19  1  0.255454  0.579541  0.582503  1
  Ir  Ir20  1  0.572283  0.140601  0.143558  1
  Pd  Pd21  1  0.141545  0.144072  0.148089  1
  Pd  Pd22  1  0.141545  0.144072  0.566292  1
  Pt  Pt23  1  0.139255  0.570419  0.145164  1
