# generated using pymatgen
data_Ta2Be3Nb4P
_symmetry_space_group_name_H-M   'P 1'
_cell_length_a   6.54031515
_cell_length_b   6.54031577
_cell_length_c   3.39414600
_cell_angle_alpha   90.00000000
_cell_angle_beta   90.00000000
_cell_angle_gamma   89.90826104
_symmetry_Int_Tables_number   1
_chemical_formula_structural   Ta2Be3Nb4P
_chemical_formula_sum   'Ta2 Be3 Nb4 P1'
_cell_volume   145.18687433
_cell_formula_units_Z   1
loop_
 _symmetry_equiv_pos_site_id
 _symmetry_equiv_pos_as_xyz
  1  'x, y, z'
loop_
 _atom_site_type_symbol
 _atom_site_label
 _atom_site_symmetry_multiplicity
 _atom_site_fract_x
 _atom_site_fract_y
 _atom_site_fract_z
 _atom_site_occupancy
  Ta  Ta0  1  0.503470  0.498145  0.000000  1
  Ta  Ta1  1  0.998145  0.003470  0.000000  1
  Be  Be2  1  0.880576  0.380576  0.000000  1
  Be  Be3  1  0.615345  0.885307  0.000000  1
  Be  Be4  1  0.385307  0.115345  0.000000  1
  Nb  Nb5  1  0.678481  0.178481  0.500000  1
  Nb  Nb6  1  0.324316  0.824316  0.500000  1
  Nb  Nb7  1  0.178245  0.320388  0.500000  1
  Nb  Nb8  1  0.820388  0.678245  0.500000  1
  P  P9  1  0.115728  0.615728  0.000000  1
