# generated using pymatgen
data_Gd6NpO12
_symmetry_space_group_name_H-M   'P 1'
_cell_length_a   6.65508384
_cell_length_b   6.65508471
_cell_length_c   6.65508383
_cell_angle_alpha   98.73080043
_cell_angle_beta   98.73080788
_cell_angle_gamma   98.73081288
_symmetry_Int_Tables_number   1
_chemical_formula_structural   Gd6NpO12
_chemical_formula_sum   'Gd6 Np1 O12'
_cell_volume   283.31463177
_cell_formula_units_Z   1
loop_
 _symmetry_equiv_pos_site_id
 _symmetry_equiv_pos_as_xyz
  1  'x, y, z'
loop_
 _atom_site_type_symbol
 _atom_site_label
 _atom_site_symmetry_multiplicity
 _atom_site_fract_x
 _atom_site_fract_y
 _atom_site_fract_z
 _atom_site_occupancy
  Gd  Gd0  1  0.855174  0.389064  0.682676  1
  Gd  Gd1  1  0.610936  0.317324  0.144826  1
  Gd  Gd2  1  0.317324  0.144826  0.610936  1
  Gd  Gd3  1  0.682676  0.855174  0.389064  1
  Gd  Gd4  1  0.389064  0.682676  0.855174  1
  Gd  Gd5  1  0.144826  0.610936  0.317324  1
  Np  Np6  1  0.000000  0.000000  0.000000  1
  O  O7  1  0.926970  0.043210  0.695011  1
  O  O8  1  0.956790  0.304989  0.073030  1
  O  O9  1  0.590370  0.177396  0.432046  1
  O  O10  1  0.822604  0.567954  0.409630  1
  O  O11  1  0.304989  0.073030  0.956790  1
  O  O12  1  0.567954  0.409630  0.822604  1
  O  O13  1  0.432046  0.590370  0.177396  1
  O  O14  1  0.695011  0.926970  0.043210  1
  O  O15  1  0.177396  0.432046  0.590370  1
  O  O16  1  0.409630  0.822604  0.567954  1
  O  O17  1  0.043210  0.695011  0.926970  1
  O  O18  1  0.073030  0.956790  0.304989  1
