# generated using pymatgen
data_TaIr3Rh3W
_symmetry_space_group_name_H-M   'P 1'
_cell_length_a   5.54698500
_cell_length_b   5.55911148
_cell_length_c   4.43392800
_cell_angle_alpha   90.00000000
_cell_angle_beta   90.00000000
_cell_angle_gamma   119.92787301
_symmetry_Int_Tables_number   1
_chemical_formula_structural   TaIr3Rh3W
_chemical_formula_sum   'Ta1 Ir3 Rh3 W1'
_cell_volume   118.49412797
_cell_formula_units_Z   1
loop_
 _symmetry_equiv_pos_site_id
 _symmetry_equiv_pos_as_xyz
  1  'x, y, z'
loop_
 _atom_site_type_symbol
 _atom_site_label
 _atom_site_symmetry_multiplicity
 _atom_site_fract_x
 _atom_site_fract_y
 _atom_site_fract_z
 _atom_site_occupancy
  Ta  Ta0  1  0.665759  0.331517  0.750000  1
  Ir  Ir1  1  0.836307  0.672613  0.250000  1
  Ir  Ir2  1  0.166307  0.833094  0.750000  1
  Ir  Ir3  1  0.666785  0.833094  0.750000  1
  Rh  Rh4  1  0.329638  0.164982  0.250000  1
  Rh  Rh5  1  0.835345  0.164982  0.250000  1
  Rh  Rh6  1  0.166796  0.333593  0.750000  1
  W  W7  1  0.333062  0.666125  0.250000  1
