# generated using pymatgen
data_K16DyPaBi8
_symmetry_space_group_name_H-M   'P 1'
_cell_length_a   12.06294901
_cell_length_b   12.06294863
_cell_length_c   12.06294900
_cell_angle_alpha   59.99999623
_cell_angle_beta   59.99999728
_cell_angle_gamma   59.99999872
_symmetry_Int_Tables_number   1
_chemical_formula_structural   K16DyPaBi8
_chemical_formula_sum   'K16 Dy1 Pa1 Bi8'
_cell_volume   1241.21049366
_cell_formula_units_Z   1
loop_
 _symmetry_equiv_pos_site_id
 _symmetry_equiv_pos_as_xyz
  1  'x, y, z'
loop_
 _atom_site_type_symbol
 _atom_site_label
 _atom_site_symmetry_multiplicity
 _atom_site_fract_x
 _atom_site_fract_y
 _atom_site_fract_z
 _atom_site_occupancy
  K  K0  1  0.622650  0.132051  0.622650  1
  K  K1  1  0.622650  0.622650  0.132051  1
  K  K2  1  0.132051  0.622650  0.622650  1
  K  K3  1  0.622650  0.622650  0.622650  1
  K  K4  1  0.035365  0.035365  0.464635  1
  K  K5  1  0.774337  0.225663  0.225663  1
  K  K6  1  0.225663  0.774337  0.774337  1
  K  K7  1  0.774337  0.774337  0.225663  1
  K  K8  1  0.774337  0.225663  0.774337  1
  K  K9  1  0.225663  0.774337  0.225663  1
  K  K10  1  0.464635  0.035365  0.464635  1
  K  K11  1  0.464635  0.035365  0.035365  1
  K  K12  1  0.035365  0.464635  0.464635  1
  K  K13  1  0.035365  0.464635  0.035365  1
  K  K14  1  0.225663  0.225663  0.774337  1
  K  K15  1  0.464635  0.464635  0.035365  1
  Dy  Dy16  1  0.500000  0.500000  0.500000  1
  Pa  Pa17  1  0.750000  0.750000  0.750000  1
  Bi  Bi18  1  0.393929  0.818214  0.393929  1
  Bi  Bi19  1  0.853259  0.853259  0.440225  1
  Bi  Bi20  1  0.440225  0.853259  0.853259  1
  Bi  Bi21  1  0.853259  0.853259  0.853259  1
  Bi  Bi22  1  0.818214  0.393929  0.393929  1
  Bi  Bi23  1  0.393929  0.393929  0.393929  1
  Bi  Bi24  1  0.393929  0.393929  0.818214  1
  Bi  Bi25  1  0.853259  0.440225  0.853259  1
