# generated using pymatgen
data_Sm8Si13Hg
_symmetry_space_group_name_H-M   'P 1'
_cell_length_a   7.49768607
_cell_length_b   7.49768577
_cell_length_c   11.62795607
_cell_angle_alpha   89.84422158
_cell_angle_beta   89.84421723
_cell_angle_gamma   134.28081474
_symmetry_Int_Tables_number   1
_chemical_formula_structural   Sm8Si13Hg
_chemical_formula_sum   'Sm8 Si13 Hg1'
_cell_volume   467.96751254
_cell_formula_units_Z   1
loop_
 _symmetry_equiv_pos_site_id
 _symmetry_equiv_pos_as_xyz
  1  'x, y, z'
loop_
 _atom_site_type_symbol
 _atom_site_label
 _atom_site_symmetry_multiplicity
 _atom_site_fract_x
 _atom_site_fract_y
 _atom_site_fract_z
 _atom_site_occupancy
  Sm  Sm0  1  0.496089  0.991211  0.376235  1
  Sm  Sm1  1  0.992809  0.493461  0.618273  1
  Sm  Sm2  1  0.506539  0.007191  0.881727  1
  Sm  Sm3  1  0.008789  0.503911  0.123765  1
  Sm  Sm4  1  0.997553  0.002447  0.250000  1
  Sm  Sm5  1  0.998044  0.001956  0.750000  1
  Sm  Sm6  1  0.494800  0.494641  0.490635  1
  Sm  Sm7  1  0.505359  0.505200  0.009365  1
  Si  Si8  1  0.919639  0.092169  0.994288  1
  Si  Si9  1  0.090273  0.919727  0.003749  1
  Si  Si10  1  0.080273  0.909727  0.496251  1
  Si  Si11  1  0.907831  0.080361  0.505712  1
  Si  Si12  1  0.581078  0.917157  0.127478  1
  Si  Si13  1  0.929598  0.584912  0.875286  1
  Si  Si14  1  0.415088  0.070402  0.624714  1
  Si  Si15  1  0.082843  0.418922  0.372522  1
  Si  Si16  1  0.434740  0.112423  0.137202  1
  Si  Si17  1  0.134696  0.446255  0.860754  1
  Si  Si18  1  0.553745  0.865304  0.639246  1
  Si  Si19  1  0.887577  0.565260  0.362798  1
  Si  Si20  1  0.424206  0.575794  0.250000  1
  Hg  Hg21  1  0.558429  0.441571  0.750000  1
