# generated using pymatgen
data_Pa3V(PO4)6
_symmetry_space_group_name_H-M   'P 1'
_cell_length_a   9.41054197
_cell_length_b   9.41054171
_cell_length_c   9.41054251
_cell_angle_alpha   58.32705763
_cell_angle_beta   58.32705967
_cell_angle_gamma   58.32705609
_symmetry_Int_Tables_number   1
_chemical_formula_structural   Pa3V(PO4)6
_chemical_formula_sum   'Pa3 V1 P6 O24'
_cell_volume   566.71593588
_cell_formula_units_Z   1
loop_
 _symmetry_equiv_pos_site_id
 _symmetry_equiv_pos_as_xyz
  1  'x, y, z'
loop_
 _atom_site_type_symbol
 _atom_site_label
 _atom_site_symmetry_multiplicity
 _atom_site_fract_x
 _atom_site_fract_y
 _atom_site_fract_z
 _atom_site_occupancy
  Pa  Pa0  1  0.141125  0.141125  0.141125  1
  Pa  Pa1  1  0.356261  0.356261  0.356261  1
  Pa  Pa2  1  0.639960  0.639960  0.639960  1
  V  V3  1  0.855671  0.855671  0.855671  1
  P  P4  1  0.746657  0.031903  0.482303  1
  P  P5  1  0.031903  0.482303  0.746657  1
  P  P6  1  0.482303  0.746657  0.031903  1
  P  P7  1  0.551059  0.227991  0.965381  1
  P  P8  1  0.965381  0.551059  0.227991  1
  P  P9  1  0.227991  0.965381  0.551059  1
  O  O10  1  0.264369  0.129851  0.511336  1
  O  O11  1  0.511336  0.264369  0.129851  1
  O  O12  1  0.907916  0.060422  0.306705  1
  O  O13  1  0.129851  0.511336  0.264369  1
  O  O14  1  0.579919  0.199455  0.450915  1
  O  O15  1  0.775356  0.002853  0.640006  1
  O  O16  1  0.060422  0.306705  0.907916  1
  O  O17  1  0.199455  0.450915  0.579919  1
  O  O18  1  0.450915  0.579919  0.199455  1
  O  O19  1  0.378470  0.210944  0.998579  1
  O  O20  1  0.713325  0.066168  0.941820  1
  O  O21  1  0.998579  0.378470  0.210944  1
  O  O22  1  0.002853  0.640006  0.775356  1
  O  O23  1  0.306705  0.907916  0.060422  1
  O  O24  1  0.640006  0.775356  0.002853  1
  O  O25  1  0.571754  0.399100  0.799683  1
  O  O26  1  0.799683  0.571754  0.399100  1
  O  O27  1  0.941820  0.713325  0.066168  1
  O  O28  1  0.210944  0.998579  0.378470  1
  O  O29  1  0.399100  0.799683  0.571754  1
  O  O30  1  0.872595  0.504745  0.715402  1
  O  O31  1  0.066168  0.941820  0.713325  1
  O  O32  1  0.504745  0.715402  0.872595  1
  O  O33  1  0.715402  0.872595  0.504745  1
