# generated using pymatgen
data_Ho4Zn3SiRh9
_symmetry_space_group_name_H-M   'P 1'
_cell_length_a   7.13528464
_cell_length_b   7.13528373
_cell_length_c   7.26277300
_cell_angle_alpha   109.83356816
_cell_angle_beta   109.83356554
_cell_angle_gamma   109.10645639
_symmetry_Int_Tables_number   1
_chemical_formula_structural   Ho4Zn3SiRh9
_chemical_formula_sum   'Ho4 Zn3 Si1 Rh9'
_cell_volume   283.36190637
_cell_formula_units_Z   1
loop_
 _symmetry_equiv_pos_site_id
 _symmetry_equiv_pos_as_xyz
  1  'x, y, z'
loop_
 _atom_site_type_symbol
 _atom_site_label
 _atom_site_symmetry_multiplicity
 _atom_site_fract_x
 _atom_site_fract_y
 _atom_site_fract_z
 _atom_site_occupancy
  Ho  Ho0  1  0.000000  0.000000  0.500000  1
  Ho  Ho1  1  0.034686  0.517343  0.017343  1
  Ho  Ho2  1  0.482657  0.965314  0.982657  1
  Ho  Ho3  1  0.482657  0.517343  0.500000  1
  Zn  Zn4  1  0.748700  0.251300  0.500000  1
  Zn  Zn5  1  0.748700  0.497399  0.248700  1
  Zn  Zn6  1  0.502601  0.251300  0.751300  1
  Si  Si7  1  0.000000  0.000000  0.000000  1
  Rh  Rh8  1  0.242590  0.485181  0.742590  1
  Rh  Rh9  1  0.242590  0.757410  0.500000  1
  Rh  Rh10  1  0.514819  0.757410  0.257410  1
  Rh  Rh11  1  0.730944  0.705536  0.999197  1
  Rh  Rh12  1  0.294464  0.025408  0.293661  1
  Rh  Rh13  1  0.974592  0.269056  0.268253  1
  Rh  Rh14  1  0.294464  0.269056  0.000803  1
  Rh  Rh15  1  0.730944  0.025408  0.731747  1
  Rh  Rh16  1  0.974592  0.705536  0.706339  1
