# generated using pymatgen
data_Tb3In3AgRuRh
_symmetry_space_group_name_H-M   'P 1'
_cell_length_a   7.77732400
_cell_length_b   7.77732300
_cell_length_c   3.86699000
_cell_angle_alpha   90.00000000
_cell_angle_beta   90.00000000
_cell_angle_gamma   120.00000426
_symmetry_Int_Tables_number   1
_chemical_formula_structural   Tb3In3AgRuRh
_chemical_formula_sum   'Tb3 In3 Ag1 Ru1 Rh1'
_cell_volume   202.56480476
_cell_formula_units_Z   1
loop_
 _symmetry_equiv_pos_site_id
 _symmetry_equiv_pos_as_xyz
  1  'x, y, z'
loop_
 _atom_site_type_symbol
 _atom_site_label
 _atom_site_symmetry_multiplicity
 _atom_site_fract_x
 _atom_site_fract_y
 _atom_site_fract_z
 _atom_site_occupancy
  Tb  Tb0  1  0.968380  0.583351  0.500000  1
  Tb  Tb1  1  0.416649  0.385029  0.500000  1
  Tb  Tb2  1  0.614971  0.031620  0.500000  1
  In  In3  1  0.742333  0.742586  0.000000  1
  In  In4  1  0.000253  0.257667  0.000000  1
  In  In5  1  0.257414  0.999747  0.000000  1
  Ag  Ag6  1  0.333333  0.666667  0.000000  1
  Ru  Ru7  1  0.666667  0.333333  0.000000  1
  Rh  Rh8  1  0.000000  0.000000  0.500000  1
