# generated using pymatgen
data_Er4Cd2IrAu3
_symmetry_space_group_name_H-M   'P 1'
_cell_length_a   3.75382100
_cell_length_b   7.79741538
_cell_length_c   7.79741485
_cell_angle_alpha   89.93714467
_cell_angle_beta   90.00000000
_cell_angle_gamma   90.00000000
_symmetry_Int_Tables_number   1
_chemical_formula_structural   Er4Cd2IrAu3
_chemical_formula_sum   'Er4 Cd2 Ir1 Au3'
_cell_volume   228.23098761
_cell_formula_units_Z   1
loop_
 _symmetry_equiv_pos_site_id
 _symmetry_equiv_pos_as_xyz
  1  'x, y, z'
loop_
 _atom_site_type_symbol
 _atom_site_label
 _atom_site_symmetry_multiplicity
 _atom_site_fract_x
 _atom_site_fract_y
 _atom_site_fract_z
 _atom_site_occupancy
  Er  Er0  1  0.500000  0.164670  0.664670  1
  Er  Er1  1  0.500000  0.815988  0.315988  1
  Er  Er2  1  0.500000  0.354045  0.175406  1
  Er  Er3  1  0.500000  0.675406  0.854045  1
  Cd  Cd4  1  0.000000  0.999772  0.001774  1
  Cd  Cd5  1  0.000000  0.501774  0.499772  1
  Ir  Ir6  1  0.000000  0.629308  0.129308  1
  Au  Au7  1  0.000000  0.366221  0.866221  1
  Au  Au8  1  0.000000  0.864106  0.628709  1
  Au  Au9  1  0.000000  0.128709  0.364106  1
