# generated using pymatgen
data_Na4NdAs12Rh19
_symmetry_space_group_name_H-M   'P 1'
_cell_length_a   13.16064886
_cell_length_b   13.13418263
_cell_length_c   3.98889200
_cell_angle_alpha   90.00000000
_cell_angle_beta   90.00000000
_cell_angle_gamma   119.93349764
_symmetry_Int_Tables_number   1
_chemical_formula_structural   Na4NdAs12Rh19
_chemical_formula_sum   'Na4 Nd1 As12 Rh19'
_cell_volume   597.52200375
_cell_formula_units_Z   1
loop_
 _symmetry_equiv_pos_site_id
 _symmetry_equiv_pos_as_xyz
  1  'x, y, z'
loop_
 _atom_site_type_symbol
 _atom_site_label
 _atom_site_symmetry_multiplicity
 _atom_site_fract_x
 _atom_site_fract_y
 _atom_site_fract_z
 _atom_site_occupancy
  Na  Na0  1  0.816989  0.815915  0.500000  1
  Na  Na1  1  0.183011  0.998926  0.500000  1
  Na  Na2  1  0.667234  0.333822  0.000000  1
  Na  Na3  1  0.332766  0.666589  0.000000  1
  Nd  Nd4  1  0.000000  0.178944  0.500000  1
  As  As5  1  0.487033  0.318756  0.500000  1
  As  As6  1  0.815596  0.994712  0.000000  1
  As  As7  1  0.184404  0.179115  0.000000  1
  As  As8  1  0.000000  0.820198  0.000000  1
  As  As9  1  0.363025  0.999881  0.000000  1
  As  As10  1  0.681082  0.167460  0.500000  1
  As  As11  1  0.832825  0.515242  0.500000  1
  As  As12  1  0.512967  0.831723  0.500000  1
  As  As13  1  0.167175  0.682418  0.500000  1
  As  As14  1  0.318918  0.486378  0.500000  1
  As  As15  1  0.000000  0.365124  0.000000  1
  As  As16  1  0.636975  0.636856  0.000000  1
  Rh  Rh17  1  0.802748  0.177761  0.000000  1
  Rh  Rh18  1  0.379192  0.198137  0.000000  1
  Rh  Rh19  1  0.644761  0.518618  0.500000  1
  Rh  Rh20  1  0.872881  0.354949  0.500000  1
  Rh  Rh21  1  0.355239  0.873857  0.500000  1
  Rh  Rh22  1  0.517506  0.644521  0.500000  1
  Rh  Rh23  1  0.127119  0.482068  0.500000  1
  Rh  Rh24  1  0.820409  0.623484  0.000000  1
  Rh  Rh25  1  0.620808  0.818943  0.000000  1
  Rh  Rh26  1  0.179591  0.803073  0.000000  1
  Rh  Rh27  1  0.197252  0.375011  0.000000  1
  Rh  Rh28  1  0.000000  0.714326  0.500000  1
  Rh  Rh29  1  0.287210  0.286917  0.500000  1
  Rh  Rh30  1  0.712790  0.999707  0.500000  1
  Rh  Rh31  1  0.000000  0.548765  0.000000  1
  Rh  Rh32  1  0.451338  0.454499  0.000000  1
  Rh  Rh33  1  0.548662  0.003161  0.000000  1
  Rh  Rh34  1  0.000000  0.003129  0.000000  1
  Rh  Rh35  1  0.482494  0.127015  0.500000  1
