# generated using pymatgen
data_K2RbBiSbAu3
_symmetry_space_group_name_H-M   'P 1'
_cell_length_a   8.24272911
_cell_length_b   8.24272851
_cell_length_c   8.24272795
_cell_angle_alpha   46.42657586
_cell_angle_beta   46.42657569
_cell_angle_gamma   46.42657400
_symmetry_Int_Tables_number   1
_chemical_formula_structural   K2RbBiSbAu3
_chemical_formula_sum   'K2 Rb1 Bi1 Sb1 Au3'
_cell_volume   268.37057819
_cell_formula_units_Z   1
loop_
 _symmetry_equiv_pos_site_id
 _symmetry_equiv_pos_as_xyz
  1  'x, y, z'
loop_
 _atom_site_type_symbol
 _atom_site_label
 _atom_site_symmetry_multiplicity
 _atom_site_fract_x
 _atom_site_fract_y
 _atom_site_fract_z
 _atom_site_occupancy
  K  K0  1  0.919696  0.919696  0.919696  1
  K  K1  1  0.078240  0.078240  0.078240  1
  Rb  Rb2  1  0.498797  0.498797  0.498797  1
  Bi  Bi3  1  0.240965  0.240965  0.240965  1
  Sb  Sb4  1  0.755857  0.755857  0.755857  1
  Au  Au5  1  0.004824  0.500810  0.500810  1
  Au  Au6  1  0.500810  0.004824  0.500810  1
  Au  Au7  1  0.500810  0.500810  0.004824  1
