# generated using pymatgen
data_Y4Lu16Bi11Ir
_symmetry_space_group_name_H-M   'P 1'
_cell_length_a   8.07423131
_cell_length_b   9.38195600
_cell_length_c   11.95600585
_cell_angle_alpha   90.00000000
_cell_angle_beta   90.36355234
_cell_angle_gamma   90.00000000
_symmetry_Int_Tables_number   1
_chemical_formula_structural   Y4Lu16Bi11Ir
_chemical_formula_sum   'Y4 Lu16 Bi11 Ir1'
_cell_volume   905.67411355
_cell_formula_units_Z   1
loop_
 _symmetry_equiv_pos_site_id
 _symmetry_equiv_pos_as_xyz
  1  'x, y, z'
loop_
 _atom_site_type_symbol
 _atom_site_label
 _atom_site_symmetry_multiplicity
 _atom_site_fract_x
 _atom_site_fract_y
 _atom_site_fract_z
 _atom_site_occupancy
  Y  Y0  1  0.809764  0.250000  0.280884  1
  Y  Y1  1  0.314250  0.250000  0.222006  1
  Y  Y2  1  0.654514  0.250000  0.783701  1
  Y  Y3  1  0.146297  0.250000  0.718207  1
  Lu  Lu4  1  0.052002  0.750000  0.993187  1
  Lu  Lu5  1  0.526630  0.750000  0.509153  1
  Lu  Lu6  1  0.984392  0.250000  0.006982  1
  Lu  Lu7  1  0.476422  0.250000  0.488488  1
  Lu  Lu8  1  0.203011  0.750000  0.724805  1
  Lu  Lu9  1  0.644327  0.750000  0.799212  1
  Lu  Lu10  1  0.315101  0.470037  0.940547  1
  Lu  Lu11  1  0.805410  0.065182  0.559298  1
  Lu  Lu12  1  0.678433  0.924967  0.054072  1
  Lu  Lu13  1  0.194360  0.566597  0.435352  1
  Lu  Lu14  1  0.678433  0.575033  0.054072  1
  Lu  Lu15  1  0.194360  0.933403  0.435352  1
  Lu  Lu16  1  0.315101  0.029963  0.940547  1
  Lu  Lu17  1  0.805410  0.434818  0.559298  1
  Lu  Lu18  1  0.356893  0.750000  0.196796  1
  Lu  Lu19  1  0.849857  0.750000  0.284665  1
  Bi  Bi20  1  0.434420  0.005753  0.669526  1
  Bi  Bi21  1  0.931990  0.503943  0.825773  1
  Bi  Bi22  1  0.565170  0.507395  0.326788  1
  Bi  Bi23  1  0.057967  0.997569  0.175646  1
  Bi  Bi24  1  0.565170  0.992605  0.326788  1
  Bi  Bi25  1  0.057967  0.502431  0.175646  1
  Bi  Bi26  1  0.434420  0.494247  0.669526  1
  Bi  Bi27  1  0.931990  0.996057  0.825773  1
  Bi  Bi28  1  0.910950  0.750000  0.546491  1
  Bi  Bi29  1  0.593434  0.250000  0.041597  1
  Bi  Bi30  1  0.094486  0.250000  0.458248  1
  Ir  Ir31  1  0.417073  0.750000  0.971571  1
