# generated using pymatgen
data_Th8Cd(Si4Tc)3
_symmetry_space_group_name_H-M   'P 1'
_cell_length_a   8.34254400
_cell_length_b   8.34254433
_cell_length_c   8.28251200
_cell_angle_alpha   90.00000000
_cell_angle_beta   90.00000000
_cell_angle_gamma   119.99999074
_symmetry_Int_Tables_number   1
_chemical_formula_structural   Th8Cd(Si4Tc)3
_chemical_formula_sum   'Th8 Cd1 Si12 Tc3'
_cell_volume   499.21747021
_cell_formula_units_Z   1
loop_
 _symmetry_equiv_pos_site_id
 _symmetry_equiv_pos_as_xyz
  1  'x, y, z'
loop_
 _atom_site_type_symbol
 _atom_site_label
 _atom_site_symmetry_multiplicity
 _atom_site_fract_x
 _atom_site_fract_y
 _atom_site_fract_z
 _atom_site_occupancy
  Th  Th0  1  0.493827  0.506173  0.758098  1
  Th  Th1  1  0.494060  0.505940  0.241870  1
  Th  Th2  1  0.012346  0.506173  0.758098  1
  Th  Th3  1  0.011881  0.505940  0.241870  1
  Th  Th4  1  0.493827  0.987654  0.758098  1
  Th  Th5  1  0.494060  0.988119  0.241870  1
  Th  Th6  1  0.000000  0.000000  0.751993  1
  Th  Th7  1  0.000000  0.000000  0.248024  1
  Cd  Cd8  1  0.666667  0.333333  0.500441  1
  Si  Si9  1  0.833641  0.166359  0.999822  1
  Si  Si10  1  0.163976  0.836024  0.000144  1
  Si  Si11  1  0.332719  0.166359  0.999822  1
  Si  Si12  1  0.167533  0.832467  0.499851  1
  Si  Si13  1  0.672047  0.836024  0.000144  1
  Si  Si14  1  0.842156  0.157844  0.500086  1
  Si  Si15  1  0.833641  0.667281  0.999822  1
  Si  Si16  1  0.664932  0.832467  0.499851  1
  Si  Si17  1  0.163976  0.327953  0.000144  1
  Si  Si18  1  0.315691  0.157844  0.500086  1
  Si  Si19  1  0.167533  0.335068  0.499851  1
  Si  Si20  1  0.842156  0.684309  0.500086  1
  Tc  Tc21  1  0.666667  0.333333  0.000033  1
  Tc  Tc22  1  0.333333  0.666667  0.000174  1
  Tc  Tc23  1  0.333333  0.666667  0.499722  1
