# generated using pymatgen
data_Ca18Yb2Ir3Pd
_symmetry_space_group_name_H-M   'P 1'
_cell_length_a   6.81487359
_cell_length_b   7.53389638
_cell_length_c   16.05819400
_cell_angle_alpha   90.00000000
_cell_angle_beta   90.00000000
_cell_angle_gamma   90.03536451
_symmetry_Int_Tables_number   1
_chemical_formula_structural   Ca18Yb2Ir3Pd
_chemical_formula_sum   'Ca18 Yb2 Ir3 Pd1'
_cell_volume   824.46849537
_cell_formula_units_Z   1
loop_
 _symmetry_equiv_pos_site_id
 _symmetry_equiv_pos_as_xyz
  1  'x, y, z'
loop_
 _atom_site_type_symbol
 _atom_site_label
 _atom_site_symmetry_multiplicity
 _atom_site_fract_x
 _atom_site_fract_y
 _atom_site_fract_z
 _atom_site_occupancy
  Ca  Ca0  1  0.853819  0.190950  0.560185  1
  Ca  Ca1  1  0.840748  0.900742  0.750000  1
  Ca  Ca2  1  0.822589  0.464490  0.146809  1
  Ca  Ca3  1  0.178129  0.543433  0.642829  1
  Ca  Ca4  1  0.356857  0.308062  0.067282  1
  Ca  Ca5  1  0.822589  0.464490  0.353191  1
  Ca  Ca6  1  0.329324  0.032152  0.857286  1
  Ca  Ca7  1  0.142421  0.808301  0.067699  1
  Ca  Ca8  1  0.646309  0.689897  0.565092  1
  Ca  Ca9  1  0.676900  0.964016  0.353224  1
  Ca  Ca10  1  0.646309  0.689897  0.934908  1
  Ca  Ca11  1  0.329324  0.032152  0.642714  1
  Ca  Ca12  1  0.142421  0.808301  0.432301  1
  Ca  Ca13  1  0.646671  0.406138  0.750000  1
  Ca  Ca14  1  0.178129  0.543433  0.857171  1
  Ca  Ca15  1  0.356857  0.308062  0.432718  1
  Ca  Ca16  1  0.676900  0.964016  0.146776  1
  Ca  Ca17  1  0.853819  0.190950  0.939815  1
  Yb  Yb18  1  0.156989  0.093416  0.250000  1
  Yb  Yb19  1  0.342673  0.592998  0.250000  1
  Ir  Ir20  1  0.459705  0.739971  0.750000  1
  Ir  Ir21  1  0.529930  0.261202  0.250000  1
  Ir  Ir22  1  0.970232  0.761240  0.250000  1
  Pd  Pd23  1  0.040356  0.241687  0.750000  1
