# generated using pymatgen
data_ScNb5(AlRu2)6
_symmetry_space_group_name_H-M   'P 1'
_cell_length_a   4.39464300
_cell_length_b   6.20841400
_cell_length_c   13.13972700
_cell_angle_alpha   90.00003590
_cell_angle_beta   90.00077921
_cell_angle_gamma   90.00008526
_symmetry_Int_Tables_number   1
_chemical_formula_structural   ScNb5(AlRu2)6
_chemical_formula_sum   'Sc1 Nb5 Al6 Ru12'
_cell_volume   358.50119899
_cell_formula_units_Z   1
loop_
 _symmetry_equiv_pos_site_id
 _symmetry_equiv_pos_as_xyz
  1  'x, y, z'
loop_
 _atom_site_type_symbol
 _atom_site_label
 _atom_site_symmetry_multiplicity
 _atom_site_fract_x
 _atom_site_fract_y
 _atom_site_fract_z
 _atom_site_occupancy
  Sc  Sc0  1  0.000000  0.499998  0.999999  1
  Nb  Nb1  1  0.499855  0.000000  0.164675  1
  Nb  Nb2  1  0.999849  0.500001  0.331949  1
  Nb  Nb3  1  0.500000  0.000000  0.500000  1
  Nb  Nb4  1  0.000151  0.500001  0.668049  1
  Nb  Nb5  1  0.500145  0.999999  0.835325  1
  Al  Al6  1  0.000000  0.000000  0.000000  1
  Al  Al7  1  0.499846  0.500003  0.165810  1
  Al  Al8  1  0.999838  0.999996  0.332836  1
  Al  Al9  1  0.500000  0.500000  0.500000  1
  Al  Al10  1  0.000162  0.000005  0.667164  1
  Al  Al11  1  0.500154  0.499996  0.834190  1
  Ru  Ru12  1  0.500000  0.245944  0.000001  1
  Ru  Ru13  1  0.500001  0.754057  0.000001  1
  Ru  Ru14  1  0.999876  0.247107  0.169379  1
  Ru  Ru15  1  0.999876  0.752893  0.169378  1
  Ru  Ru16  1  0.499867  0.250380  0.334190  1
  Ru  Ru17  1  0.499867  0.749623  0.334191  1
  Ru  Ru18  1  0.000001  0.249672  0.500000  1
  Ru  Ru19  1  0.000001  0.750328  0.500000  1
  Ru  Ru20  1  0.500132  0.250378  0.665809  1
  Ru  Ru21  1  0.500134  0.749622  0.665809  1
  Ru  Ru22  1  0.000123  0.247107  0.830621  1
  Ru  Ru23  1  0.000123  0.752893  0.830620  1
