# generated using pymatgen
data_TbY5Lu14(Cd3Ru)2
_symmetry_space_group_name_H-M   'P 1'
_cell_length_a   9.46491084
_cell_length_b   9.46637569
_cell_length_c   9.66992700
_cell_angle_alpha   90.00000000
_cell_angle_beta   90.00000000
_cell_angle_gamma   119.95588068
_symmetry_Int_Tables_number   1
_chemical_formula_structural   TbY5Lu14(Cd3Ru)2
_chemical_formula_sum   'Tb1 Y5 Lu14 Cd6 Ru2'
_cell_volume   750.66643235
_cell_formula_units_Z   1
loop_
 _symmetry_equiv_pos_site_id
 _symmetry_equiv_pos_as_xyz
  1  'x, y, z'
loop_
 _atom_site_type_symbol
 _atom_site_label
 _atom_site_symmetry_multiplicity
 _atom_site_fract_x
 _atom_site_fract_y
 _atom_site_fract_z
 _atom_site_occupancy
  Tb  Tb0  1  0.539647  0.460341  0.250000  1
  Y  Y1  1  0.540046  0.080272  0.250000  1
  Y  Y2  1  0.919646  0.459945  0.250000  1
  Y  Y3  1  0.460070  0.539979  0.750000  1
  Y  Y4  1  0.460072  0.920379  0.750000  1
  Y  Y5  1  0.079590  0.539948  0.750000  1
  Lu  Lu6  1  0.000153  0.999847  0.499903  1
  Lu  Lu7  1  0.000153  0.999847  0.000097  1
  Lu  Lu8  1  0.210197  0.789804  0.440059  1
  Lu  Lu9  1  0.210535  0.420038  0.439912  1
  Lu  Lu10  1  0.579951  0.789459  0.439886  1
  Lu  Lu11  1  0.789947  0.210024  0.559831  1
  Lu  Lu12  1  0.789361  0.579575  0.559535  1
  Lu  Lu13  1  0.420413  0.210618  0.559521  1
  Lu  Lu14  1  0.789947  0.210024  0.940169  1
  Lu  Lu15  1  0.789361  0.579575  0.940465  1
  Lu  Lu16  1  0.420413  0.210618  0.940479  1
  Lu  Lu17  1  0.210197  0.789804  0.059941  1
  Lu  Lu18  1  0.210535  0.420038  0.060088  1
  Lu  Lu19  1  0.579951  0.789459  0.060114  1
  Cd  Cd20  1  0.886303  0.113670  0.250000  1
  Cd  Cd21  1  0.885231  0.772130  0.250000  1
  Cd  Cd22  1  0.227872  0.114808  0.250000  1
  Cd  Cd23  1  0.113636  0.886391  0.750000  1
  Cd  Cd24  1  0.113929  0.227278  0.750000  1
  Cd  Cd25  1  0.772702  0.886059  0.750000  1
  Ru  Ru26  1  0.333577  0.666583  0.250000  1
  Ru  Ru27  1  0.666564  0.333487  0.750000  1
