# generated using pymatgen
data_CaNd16(DyGa4)3
_symmetry_space_group_name_H-M   'P 1'
_cell_length_a   7.81901300
_cell_length_b   7.81901300
_cell_length_c   14.67814000
_cell_angle_alpha   90.00000000
_cell_angle_beta   90.00000000
_cell_angle_gamma   90.00000000
_symmetry_Int_Tables_number   1
_chemical_formula_structural   CaNd16(DyGa4)3
_chemical_formula_sum   'Ca1 Nd16 Dy3 Ga12'
_cell_volume   897.37692108
_cell_formula_units_Z   1
loop_
 _symmetry_equiv_pos_site_id
 _symmetry_equiv_pos_as_xyz
  1  'x, y, z'
loop_
 _atom_site_type_symbol
 _atom_site_label
 _atom_site_symmetry_multiplicity
 _atom_site_fract_x
 _atom_site_fract_y
 _atom_site_fract_z
 _atom_site_occupancy
  Ca  Ca0  1  0.000000  0.500000  0.766068  1
  Nd  Nd1  1  0.680908  0.661025  0.601985  1
  Nd  Nd2  1  0.683985  0.339900  0.104052  1
  Nd  Nd3  1  0.816823  0.840120  0.396434  1
  Nd  Nd4  1  0.182899  0.837022  0.897684  1
  Nd  Nd5  1  0.319092  0.338975  0.601985  1
  Nd  Nd6  1  0.316015  0.660100  0.104052  1
  Nd  Nd7  1  0.183177  0.159880  0.396434  1
  Nd  Nd8  1  0.817101  0.162978  0.897684  1
  Nd  Nd9  1  0.659880  0.316823  0.396434  1
  Nd  Nd10  1  0.337022  0.317101  0.897684  1
  Nd  Nd11  1  0.161025  0.819092  0.601985  1
  Nd  Nd12  1  0.839900  0.816015  0.104052  1
  Nd  Nd13  1  0.340120  0.683177  0.396434  1
  Nd  Nd14  1  0.662978  0.682899  0.897684  1
  Nd  Nd15  1  0.838975  0.180908  0.601985  1
  Nd  Nd16  1  0.160100  0.183985  0.104052  1
  Dy  Dy17  1  0.000000  0.500000  0.276620  1
  Dy  Dy18  1  0.500000  0.000000  0.222399  1
  Dy  Dy19  1  0.500000  0.000000  0.724780  1
  Ga  Ga20  1  0.000000  0.500000  0.490498  1
  Ga  Ga21  1  0.000000  0.500000  0.991956  1
  Ga  Ga22  1  0.500000  0.000000  0.510682  1
  Ga  Ga23  1  0.500000  0.000000  0.011150  1
  Ga  Ga24  1  0.877011  0.884420  0.750828  1
  Ga  Ga25  1  0.879888  0.121405  0.250479  1
  Ga  Ga26  1  0.621405  0.620112  0.250479  1
  Ga  Ga27  1  0.384420  0.622989  0.750828  1
  Ga  Ga28  1  0.122989  0.115580  0.750828  1
  Ga  Ga29  1  0.120112  0.878595  0.250479  1
  Ga  Ga30  1  0.378595  0.379888  0.250479  1
  Ga  Ga31  1  0.615580  0.377011  0.750828  1
