# generated using pymatgen
data_Tb3Ho2Er3(CdPd)2
_symmetry_space_group_name_H-M   'P 1'
_cell_length_a   9.65329551
_cell_length_b   9.65329599
_cell_length_c   9.65329600
_cell_angle_alpha   59.99999997
_cell_angle_beta   59.99999832
_cell_angle_gamma   59.99999658
_symmetry_Int_Tables_number   1
_chemical_formula_structural   Tb3Ho2Er3(CdPd)2
_chemical_formula_sum   'Tb6 Ho4 Er6 Cd4 Pd4'
_cell_volume   636.08013487
_cell_formula_units_Z   2
loop_
 _symmetry_equiv_pos_site_id
 _symmetry_equiv_pos_as_xyz
  1  'x, y, z'
loop_
 _atom_site_type_symbol
 _atom_site_label
 _atom_site_symmetry_multiplicity
 _atom_site_fract_x
 _atom_site_fract_y
 _atom_site_fract_z
 _atom_site_occupancy
  Tb  Tb0  1  0.934706  0.565294  0.565294  1
  Tb  Tb1  1  0.565294  0.934706  0.934706  1
  Tb  Tb2  1  0.565294  0.934706  0.565294  1
  Tb  Tb3  1  0.934706  0.565294  0.934706  1
  Tb  Tb4  1  0.565294  0.565294  0.934706  1
  Tb  Tb5  1  0.934706  0.934706  0.565294  1
  Ho  Ho6  1  0.353638  0.353638  0.353638  1
  Ho  Ho7  1  0.353638  0.353638  0.939088  1
  Ho  Ho8  1  0.353638  0.939088  0.353638  1
  Ho  Ho9  1  0.939088  0.353638  0.353638  1
  Er  Er10  1  0.811604  0.188396  0.188396  1
  Er  Er11  1  0.188396  0.811604  0.811604  1
  Er  Er12  1  0.188396  0.811604  0.188396  1
  Er  Er13  1  0.811604  0.188396  0.811604  1
  Er  Er14  1  0.188396  0.188396  0.811604  1
  Er  Er15  1  0.811604  0.811604  0.188396  1
  Cd  Cd16  1  0.581781  0.581781  0.581781  1
  Cd  Cd17  1  0.581781  0.581781  0.254657  1
  Cd  Cd18  1  0.581781  0.254657  0.581781  1
  Cd  Cd19  1  0.254657  0.581781  0.581781  1
  Pd  Pd20  1  0.144125  0.144125  0.144125  1
  Pd  Pd21  1  0.144125  0.144125  0.567625  1
  Pd  Pd22  1  0.144125  0.567625  0.144125  1
  Pd  Pd23  1  0.567625  0.144125  0.144125  1
