# generated using pymatgen
data_TbYbTm6(B6Ru)4
_symmetry_space_group_name_H-M   'P 1'
_cell_length_a   3.62625600
_cell_length_b   9.08612242
_cell_length_c   11.47075900
_cell_angle_alpha   89.92817603
_cell_angle_beta   90.00000000
_cell_angle_gamma   90.00000000
_symmetry_Int_Tables_number   1
_chemical_formula_structural   TbYbTm6(B6Ru)4
_chemical_formula_sum   'Tb1 Yb1 Tm6 B24 Ru4'
_cell_volume   377.94522147
_cell_formula_units_Z   1
loop_
 _symmetry_equiv_pos_site_id
 _symmetry_equiv_pos_as_xyz
  1  'x, y, z'
loop_
 _atom_site_type_symbol
 _atom_site_label
 _atom_site_symmetry_multiplicity
 _atom_site_fract_x
 _atom_site_fract_y
 _atom_site_fract_z
 _atom_site_occupancy
  Tb  Tb0  1  0.000000  0.676207  0.585152  1
  Yb  Yb1  1  0.000000  0.323068  0.413608  1
  Tm  Tm2  1  0.000000  0.822148  0.086171  1
  Tm  Tm3  1  0.000000  0.178440  0.914870  1
  Tm  Tm4  1  0.000000  0.944240  0.371065  1
  Tm  Tm5  1  0.000000  0.057964  0.628009  1
  Tm  Tm6  1  0.000000  0.442960  0.129067  1
  Tm  Tm7  1  0.000000  0.556078  0.872586  1
  B  B8  1  0.500000  0.553988  0.432015  1
  B  B9  1  0.500000  0.445150  0.567539  1
  B  B10  1  0.500000  0.053196  0.066192  1
  B  B11  1  0.500000  0.946161  0.933145  1
  B  B12  1  0.500000  0.749220  0.418563  1
  B  B13  1  0.500000  0.251110  0.581021  1
  B  B14  1  0.500000  0.248025  0.080133  1
  B  B15  1  0.500000  0.751347  0.920147  1
  B  B16  1  0.500000  0.792075  0.265212  1
  B  B17  1  0.500000  0.208879  0.734904  1
  B  B18  1  0.500000  0.290328  0.233546  1
  B  B19  1  0.500000  0.709107  0.766748  1
  B  B20  1  0.500000  0.631801  0.185009  1
  B  B21  1  0.500000  0.368385  0.815986  1
  B  B22  1  0.500000  0.130835  0.314234  1
  B  B23  1  0.500000  0.869441  0.685215  1
  B  B24  1  0.500000  0.982557  0.211618  1
  B  B25  1  0.500000  0.017655  0.787607  1
  B  B26  1  0.500000  0.483302  0.287104  1
  B  B27  1  0.500000  0.516259  0.713428  1
  B  B28  1  0.500000  0.607131  0.029713  1
  B  B29  1  0.500000  0.392979  0.970945  1
  B  B30  1  0.500000  0.102923  0.471548  1
  B  B31  1  0.500000  0.896758  0.528435  1
  Ru  Ru32  1  0.000000  0.639947  0.319329  1
  Ru  Ru33  1  0.000000  0.361088  0.681138  1
  Ru  Ru34  1  0.000000  0.136681  0.177414  1
  Ru  Ru35  1  0.000000  0.862568  0.821583  1
