# generated using pymatgen
data_PuU(AlC)6
_symmetry_space_group_name_H-M   'P 1'
_cell_length_a   3.40617801
_cell_length_b   3.40634985
_cell_length_c   17.41119600
_cell_angle_alpha   90.00028604
_cell_angle_beta   89.99892604
_cell_angle_gamma   120.00462576
_symmetry_Int_Tables_number   1
_chemical_formula_structural   PuU(AlC)6
_chemical_formula_sum   'Pu1 U1 Al6 C6'
_cell_volume   174.94260168
_cell_formula_units_Z   1
loop_
 _symmetry_equiv_pos_site_id
 _symmetry_equiv_pos_as_xyz
  1  'x, y, z'
loop_
 _atom_site_type_symbol
 _atom_site_label
 _atom_site_symmetry_multiplicity
 _atom_site_fract_x
 _atom_site_fract_y
 _atom_site_fract_z
 _atom_site_occupancy
  Pu  Pu0  1  0.000036  0.000014  0.003210  1
  U  U1  1  0.999987  0.999995  0.503140  1
  Al  Al2  1  0.333373  0.666676  0.136545  1
  Al  Al3  1  0.666697  0.333347  0.247193  1
  Al  Al4  1  0.333372  0.666690  0.368927  1
  Al  Al5  1  0.666586  0.333293  0.637508  1
  Al  Al6  1  0.333299  0.666695  0.760328  1
  Al  Al7  1  0.666689  0.333351  0.869864  1
  C  C8  1  0.666707  0.333338  0.100508  1
  C  C9  1  0.333200  0.666616  0.253931  1
  C  C10  1  0.666695  0.333353  0.411941  1
  C  C11  1  0.333242  0.666629  0.593879  1
  C  C12  1  0.666767  0.333313  0.752442  1
  C  C13  1  0.333348  0.666696  0.905186  1
