# generated using pymatgen
data_NaTmPbBr6
_symmetry_space_group_name_H-M   'P 1'
_cell_length_a   7.97614226
_cell_length_b   7.97607589
_cell_length_c   7.97592582
_cell_angle_alpha   56.18169839
_cell_angle_beta   56.18088319
_cell_angle_gamma   56.18105984
_symmetry_Int_Tables_number   1
_chemical_formula_structural   NaTmPbBr6
_chemical_formula_sum   'Na1 Tm1 Pb1 Br6'
_cell_volume   327.08000170
_cell_formula_units_Z   1
loop_
 _symmetry_equiv_pos_site_id
 _symmetry_equiv_pos_as_xyz
  1  'x, y, z'
loop_
 _atom_site_type_symbol
 _atom_site_label
 _atom_site_symmetry_multiplicity
 _atom_site_fract_x
 _atom_site_fract_y
 _atom_site_fract_z
 _atom_site_occupancy
  Na  Na0  1  0.669846  0.669852  0.669861  1
  Tm  Tm1  1  0.999722  0.999689  0.999699  1
  Pb  Pb2  1  0.330731  0.330725  0.330720  1
  Br  Br3  1  0.229741  0.620577  0.912646  1
  Br  Br4  1  0.620567  0.912654  0.229736  1
  Br  Br5  1  0.912646  0.229753  0.620555  1
  Br  Br6  1  0.771415  0.381522  0.083822  1
  Br  Br7  1  0.381524  0.083813  0.771428  1
  Br  Br8  1  0.083810  0.771416  0.381532  1
