# generated using pymatgen
data_Tb16Hg4Pd3Pt
_symmetry_space_group_name_H-M   'P 1'
_cell_length_a   9.71655620
_cell_length_b   9.70875257
_cell_length_c   9.70875200
_cell_angle_alpha   59.99999512
_cell_angle_beta   60.02655881
_cell_angle_gamma   60.02656130
_symmetry_Int_Tables_number   1
_chemical_formula_structural   Tb16Hg4Pd3Pt
_chemical_formula_sum   'Tb16 Hg4 Pd3 Pt1'
_cell_volume   647.88574858
_cell_formula_units_Z   1
loop_
 _symmetry_equiv_pos_site_id
 _symmetry_equiv_pos_as_xyz
  1  'x, y, z'
loop_
 _atom_site_type_symbol
 _atom_site_label
 _atom_site_symmetry_multiplicity
 _atom_site_fract_x
 _atom_site_fract_y
 _atom_site_fract_z
 _atom_site_occupancy
  Tb  Tb0  1  0.357062  0.354446  0.354446  1
  Tb  Tb1  1  0.357062  0.354446  0.934046  1
  Tb  Tb2  1  0.357062  0.934046  0.354446  1
  Tb  Tb3  1  0.932409  0.355864  0.355864  1
  Tb  Tb4  1  0.809223  0.189465  0.189465  1
  Tb  Tb5  1  0.189899  0.810433  0.810433  1
  Tb  Tb6  1  0.189899  0.810433  0.189234  1
  Tb  Tb7  1  0.809223  0.189465  0.811847  1
  Tb  Tb8  1  0.189899  0.189234  0.810433  1
  Tb  Tb9  1  0.809223  0.811847  0.189465  1
  Tb  Tb10  1  0.934322  0.565641  0.565641  1
  Tb  Tb11  1  0.565733  0.935081  0.935081  1
  Tb  Tb12  1  0.565733  0.935081  0.564105  1
  Tb  Tb13  1  0.934322  0.565641  0.934396  1
  Tb  Tb14  1  0.565733  0.564105  0.935081  1
  Tb  Tb15  1  0.934322  0.934396  0.565641  1
  Hg  Hg16  1  0.586809  0.587221  0.587221  1
  Hg  Hg17  1  0.586809  0.587221  0.238747  1
  Hg  Hg18  1  0.586809  0.238747  0.587221  1
  Hg  Hg19  1  0.239163  0.586945  0.586945  1
  Pd  Pd20  1  0.144128  0.145006  0.145006  1
  Pd  Pd21  1  0.144128  0.145006  0.565860  1
  Pd  Pd22  1  0.144128  0.565860  0.145006  1
  Pt  Pt23  1  0.566903  0.144366  0.144366  1
