# generated using pymatgen
data_Tm5(Sn3Ru)6
_symmetry_space_group_name_H-M   'P 1'
_cell_length_a   9.84575479
_cell_length_b   9.84575461
_cell_length_c   9.84575500
_cell_angle_alpha   60.00000205
_cell_angle_beta   60.00000267
_cell_angle_gamma   59.99999922
_symmetry_Int_Tables_number   1
_chemical_formula_structural   Tm5(Sn3Ru)6
_chemical_formula_sum   'Tm5 Sn18 Ru6'
_cell_volume   674.88855432
_cell_formula_units_Z   1
loop_
 _symmetry_equiv_pos_site_id
 _symmetry_equiv_pos_as_xyz
  1  'x, y, z'
loop_
 _atom_site_type_symbol
 _atom_site_label
 _atom_site_symmetry_multiplicity
 _atom_site_fract_x
 _atom_site_fract_y
 _atom_site_fract_z
 _atom_site_occupancy
  Tm  Tm0  1  0.000000  0.000000  0.000000  1
  Tm  Tm1  1  0.372376  0.372377  0.882870  1
  Tm  Tm2  1  0.372377  0.882869  0.372376  1
  Tm  Tm3  1  0.882869  0.372377  0.372376  1
  Tm  Tm4  1  0.372377  0.372376  0.372376  1
  Sn  Sn5  1  0.591569  0.591569  0.225296  1
  Sn  Sn6  1  0.591569  0.225296  0.591569  1
  Sn  Sn7  1  0.225296  0.591569  0.591569  1
  Sn  Sn8  1  0.591569  0.591569  0.591569  1
  Sn  Sn9  1  0.750000  0.750000  0.750000  1
  Sn  Sn10  1  0.997549  0.350866  0.654038  1
  Sn  Sn11  1  0.997549  0.997549  0.654038  1
  Sn  Sn12  1  0.350866  0.997549  0.654038  1
  Sn  Sn13  1  0.997549  0.654038  0.350866  1
  Sn  Sn14  1  0.350866  0.654038  0.997549  1
  Sn  Sn15  1  0.997549  0.654038  0.997549  1
  Sn  Sn16  1  0.654038  0.997549  0.997549  1
  Sn  Sn17  1  0.654038  0.350866  0.997549  1
  Sn  Sn18  1  0.654038  0.997549  0.350866  1
  Sn  Sn19  1  0.350866  0.997549  0.997549  1
  Sn  Sn20  1  0.997549  0.997549  0.350866  1
  Sn  Sn21  1  0.997549  0.350866  0.997549  1
  Sn  Sn22  1  0.250000  0.250000  0.250000  1
  Ru  Ru23  1  0.255145  0.255145  0.744855  1
  Ru  Ru24  1  0.744855  0.255145  0.744855  1
  Ru  Ru25  1  0.255145  0.744855  0.744855  1
  Ru  Ru26  1  0.744855  0.744855  0.255145  1
  Ru  Ru27  1  0.255145  0.744855  0.255145  1
  Ru  Ru28  1  0.744855  0.255145  0.255145  1
