# generated using pymatgen
data_Pr3Al2(SnAu2)3
_symmetry_space_group_name_H-M   'P 1'
_cell_length_a   4.56729600
_cell_length_b   10.06890900
_cell_length_c   13.76840700
_cell_angle_alpha   90.00000000
_cell_angle_beta   90.00000000
_cell_angle_gamma   90.00000000
_symmetry_Int_Tables_number   1
_chemical_formula_structural   Pr3Al2(SnAu2)3
_chemical_formula_sum   'Pr6 Al4 Sn6 Au12'
_cell_volume   633.17720262
_cell_formula_units_Z   2
loop_
 _symmetry_equiv_pos_site_id
 _symmetry_equiv_pos_as_xyz
  1  'x, y, z'
loop_
 _atom_site_type_symbol
 _atom_site_label
 _atom_site_symmetry_multiplicity
 _atom_site_fract_x
 _atom_site_fract_y
 _atom_site_fract_z
 _atom_site_occupancy
  Pr  Pr0  1  0.000000  0.742309  0.809652  1
  Pr  Pr1  1  0.000000  0.742309  0.190348  1
  Pr  Pr2  1  0.500000  0.257691  0.690348  1
  Pr  Pr3  1  0.500000  0.257691  0.309652  1
  Pr  Pr4  1  0.000000  0.738993  0.500000  1
  Pr  Pr5  1  0.500000  0.261007  0.000000  1
  Al  Al6  1  0.000000  0.393196  0.831858  1
  Al  Al7  1  0.000000  0.393196  0.168142  1
  Al  Al8  1  0.500000  0.606804  0.668142  1
  Al  Al9  1  0.500000  0.606804  0.331858  1
  Sn  Sn10  1  0.000000  0.018838  0.355756  1
  Sn  Sn11  1  0.000000  0.018838  0.644244  1
  Sn  Sn12  1  0.500000  0.981162  0.144244  1
  Sn  Sn13  1  0.500000  0.981162  0.855756  1
  Sn  Sn14  1  0.000000  0.276202  0.500000  1
  Sn  Sn15  1  0.500000  0.723798  0.000000  1
  Au  Au16  1  0.000000  0.143539  0.841862  1
  Au  Au17  1  0.000000  0.143539  0.158138  1
  Au  Au18  1  0.500000  0.856461  0.658138  1
  Au  Au19  1  0.500000  0.856461  0.341862  1
  Au  Au20  1  0.000000  0.506008  0.000000  1
  Au  Au21  1  0.500000  0.493992  0.500000  1
  Au  Au22  1  0.000000  0.479575  0.350652  1
  Au  Au23  1  0.000000  0.479575  0.649348  1
  Au  Au24  1  0.500000  0.520425  0.149348  1
  Au  Au25  1  0.500000  0.520425  0.850652  1
  Au  Au26  1  0.000000  0.933949  0.000000  1
  Au  Au27  1  0.500000  0.066051  0.500000  1
