# generated using pymatgen
data_DyEr(SiTc2)4
_symmetry_space_group_name_H-M   'P 1'
_cell_length_a   7.35125515
_cell_length_b   7.35125515
_cell_length_c   4.14480300
_cell_angle_alpha   90.00000000
_cell_angle_beta   90.00000000
_cell_angle_gamma   90.60113941
_symmetry_Int_Tables_number   1
_chemical_formula_structural   DyEr(SiTc2)4
_chemical_formula_sum   'Dy1 Er1 Si4 Tc8'
_cell_volume   223.97677312
_cell_formula_units_Z   1
loop_
 _symmetry_equiv_pos_site_id
 _symmetry_equiv_pos_as_xyz
  1  'x, y, z'
loop_
 _atom_site_type_symbol
 _atom_site_label
 _atom_site_symmetry_multiplicity
 _atom_site_fract_x
 _atom_site_fract_y
 _atom_site_fract_z
 _atom_site_occupancy
  Dy  Dy0  1  0.000000  0.000000  0.000000  1
  Er  Er1  1  0.500000  0.500000  0.500000  1
  Si  Si2  1  0.790222  0.209778  0.500000  1
  Si  Si3  1  0.209778  0.790222  0.500000  1
  Si  Si4  1  0.292794  0.292794  0.000000  1
  Si  Si5  1  0.707206  0.707206  0.000000  1
  Tc  Tc6  1  0.653245  0.903417  0.500000  1
  Tc  Tc7  1  0.346755  0.096583  0.500000  1
  Tc  Tc8  1  0.158150  0.592086  0.000000  1
  Tc  Tc9  1  0.841850  0.407914  0.000000  1
  Tc  Tc10  1  0.903417  0.653245  0.500000  1
  Tc  Tc11  1  0.096583  0.346755  0.500000  1
  Tc  Tc12  1  0.592086  0.158150  0.000000  1
  Tc  Tc13  1  0.407914  0.841850  0.000000  1
