# generated using pymatgen
data_DyTm2Cr(Co4P3)2
_symmetry_space_group_name_H-M   'P 1'
_cell_length_a   3.66070800
_cell_length_b   10.46988300
_cell_length_c   12.11457000
_cell_angle_alpha   90.00000000
_cell_angle_beta   90.00000000
_cell_angle_gamma   90.00000000
_symmetry_Int_Tables_number   1
_chemical_formula_structural   DyTm2Cr(Co4P3)2
_chemical_formula_sum   'Dy2 Tm4 Cr2 Co16 P12'
_cell_volume   464.31735901
_cell_formula_units_Z   2
loop_
 _symmetry_equiv_pos_site_id
 _symmetry_equiv_pos_as_xyz
  1  'x, y, z'
loop_
 _atom_site_type_symbol
 _atom_site_label
 _atom_site_symmetry_multiplicity
 _atom_site_fract_x
 _atom_site_fract_y
 _atom_site_fract_z
 _atom_site_occupancy
  Dy  Dy0  1  0.000000  0.500000  0.523463  1
  Dy  Dy1  1  0.500000  0.000000  0.476537  1
  Tm  Tm2  1  0.500000  0.818219  0.204263  1
  Tm  Tm3  1  0.500000  0.181781  0.204263  1
  Tm  Tm4  1  0.000000  0.681781  0.795737  1
  Tm  Tm5  1  0.000000  0.318219  0.795737  1
  Cr  Cr6  1  0.500000  0.500000  0.156095  1
  Cr  Cr7  1  0.000000  0.000000  0.843905  1
  Co  Co8  1  0.500000  0.500000  0.703095  1
  Co  Co9  1  0.000000  0.000000  0.296905  1
  Co  Co10  1  0.000000  0.500000  0.987021  1
  Co  Co11  1  0.500000  0.000000  0.012979  1
  Co  Co12  1  0.500000  0.332511  0.992289  1
  Co  Co13  1  0.500000  0.667489  0.992289  1
  Co  Co14  1  0.000000  0.167489  0.007711  1
  Co  Co15  1  0.000000  0.832511  0.007711  1
  Co  Co16  1  0.500000  0.295960  0.430547  1
  Co  Co17  1  0.500000  0.704040  0.430547  1
  Co  Co18  1  0.000000  0.204040  0.569453  1
  Co  Co19  1  0.000000  0.795960  0.569453  1
  Co  Co20  1  0.500000  0.878650  0.708944  1
  Co  Co21  1  0.500000  0.121350  0.708944  1
  Co  Co22  1  0.000000  0.621350  0.291056  1
  Co  Co23  1  0.000000  0.378650  0.291056  1
  P  P24  1  0.500000  0.500000  0.881762  1
  P  P25  1  0.000000  0.000000  0.118238  1
  P  P26  1  0.500000  0.500000  0.344719  1
  P  P27  1  0.000000  0.000000  0.655281  1
  P  P28  1  0.500000  0.311558  0.617106  1
  P  P29  1  0.500000  0.688442  0.617106  1
  P  P30  1  0.000000  0.188442  0.382894  1
  P  P31  1  0.000000  0.811558  0.382894  1
  P  P32  1  0.500000  0.847046  0.891602  1
  P  P33  1  0.500000  0.152954  0.891602  1
  P  P34  1  0.000000  0.652954  0.108398  1
  P  P35  1  0.000000  0.347046  0.108398  1
