# generated using pymatgen
data_Ho4Tc3B16W
_symmetry_space_group_name_H-M   'P 1'
_cell_length_a   3.59421100
_cell_length_b   5.97450520
_cell_length_c   11.56062431
_cell_angle_alpha   90.07250867
_cell_angle_beta   90.00000000
_cell_angle_gamma   90.00000000
_symmetry_Int_Tables_number   1
_chemical_formula_structural   Ho4Tc3B16W
_chemical_formula_sum   'Ho4 Tc3 B16 W1'
_cell_volume   248.24839684
_cell_formula_units_Z   1
loop_
 _symmetry_equiv_pos_site_id
 _symmetry_equiv_pos_as_xyz
  1  'x, y, z'
loop_
 _atom_site_type_symbol
 _atom_site_label
 _atom_site_symmetry_multiplicity
 _atom_site_fract_x
 _atom_site_fract_y
 _atom_site_fract_z
 _atom_site_occupancy
  Ho  Ho0  1  0.000000  0.126196  0.152336  1
  Ho  Ho1  1  0.000000  0.871918  0.847601  1
  Ho  Ho2  1  0.000000  0.627231  0.351654  1
  Ho  Ho3  1  0.000000  0.372384  0.647555  1
  Tc  Tc4  1  0.000000  0.135606  0.411460  1
  Tc  Tc5  1  0.000000  0.865399  0.587095  1
  Tc  Tc6  1  0.000000  0.630085  0.085852  1
  B  B7  1  0.500000  0.478220  0.193954  1
  B  B8  1  0.500000  0.525086  0.805823  1
  B  B9  1  0.500000  0.975777  0.307913  1
  B  B10  1  0.500000  0.022246  0.691524  1
  B  B11  1  0.500000  0.287474  0.315009  1
  B  B12  1  0.500000  0.713834  0.684263  1
  B  B13  1  0.500000  0.787574  0.185553  1
  B  B14  1  0.500000  0.209730  0.812899  1
  B  B15  1  0.500000  0.363906  0.468689  1
  B  B16  1  0.500000  0.636253  0.530904  1
  B  B17  1  0.500000  0.864874  0.033146  1
  B  B18  1  0.500000  0.132593  0.969422  1
  B  B19  1  0.500000  0.386997  0.049434  1
  B  B20  1  0.500000  0.617154  0.953739  1
  B  B21  1  0.500000  0.886625  0.452541  1
  B  B22  1  0.500000  0.113699  0.546787  1
  W  W23  1  0.000000  0.369139  0.914846  1
