# generated using pymatgen
data_PrY4Co4(P4Ru5)3
_symmetry_space_group_name_H-M   'P 1'
_cell_length_a   12.46549900
_cell_length_b   12.47249709
_cell_length_c   3.86170300
_cell_angle_alpha   90.00000000
_cell_angle_beta   90.00000000
_cell_angle_gamma   120.01857497
_symmetry_Int_Tables_number   1
_chemical_formula_structural   PrY4Co4(P4Ru5)3
_chemical_formula_sum   'Pr1 Y4 Co4 P12 Ru15'
_cell_volume   519.86581655
_cell_formula_units_Z   1
loop_
 _symmetry_equiv_pos_site_id
 _symmetry_equiv_pos_as_xyz
  1  'x, y, z'
loop_
 _atom_site_type_symbol
 _atom_site_label
 _atom_site_symmetry_multiplicity
 _atom_site_fract_x
 _atom_site_fract_y
 _atom_site_fract_z
 _atom_site_occupancy
  Pr  Pr0  1  0.000000  0.818417  0.500000  1
  Y  Y1  1  0.666680  0.332774  0.000000  1
  Y  Y2  1  0.333320  0.666096  0.000000  1
  Y  Y3  1  0.182229  0.182704  0.500000  1
  Y  Y4  1  0.817771  0.000475  0.500000  1
  Co  Co5  1  0.717288  0.718741  0.500000  1
  Co  Co6  1  0.282712  0.001452  0.500000  1
  Co  Co7  1  0.000000  0.280499  0.500000  1
  Co  Co8  1  0.000000  0.001617  0.000000  1
  P  P9  1  0.370805  0.370828  0.000000  1
  P  P10  1  0.629195  0.000023  0.000000  1
  P  P11  1  0.000000  0.626760  0.000000  1
  P  P12  1  0.836918  0.310350  0.500000  1
  P  P13  1  0.688831  0.525843  0.500000  1
  P  P14  1  0.475073  0.163776  0.500000  1
  P  P15  1  0.311169  0.837010  0.500000  1
  P  P16  1  0.524927  0.688703  0.500000  1
  P  P17  1  0.163082  0.473432  0.500000  1
  P  P18  1  0.818533  0.821093  0.000000  1
  P  P19  1  0.181467  0.002560  0.000000  1
  P  P20  1  0.000000  0.178777  0.000000  1
  Ru  Ru21  1  0.821718  0.193610  0.000000  1
  Ru  Ru22  1  0.803395  0.625686  0.000000  1
  Ru  Ru23  1  0.373401  0.179566  0.000000  1
  Ru  Ru24  1  0.196605  0.822292  0.000000  1
  Ru  Ru25  1  0.626599  0.806166  0.000000  1
  Ru  Ru26  1  0.178282  0.371893  0.000000  1
  Ru  Ru27  1  0.555988  0.557450  0.000000  1
  Ru  Ru28  1  0.444012  0.001462  0.000000  1
  Ru  Ru29  1  0.000000  0.441802  0.000000  1
  Ru  Ru30  1  0.638794  0.126460  0.500000  1
  Ru  Ru31  1  0.873328  0.510817  0.500000  1
  Ru  Ru32  1  0.488487  0.362100  0.500000  1
  Ru  Ru33  1  0.126672  0.637487  0.500000  1
  Ru  Ru34  1  0.511513  0.873613  0.500000  1
  Ru  Ru35  1  0.361206  0.487665  0.500000  1
