# generated using pymatgen
data_TbNd7(GaBr6)2
_symmetry_space_group_name_H-M   'P 1'
_cell_length_a   4.19520500
_cell_length_b   13.84780199
_cell_length_c   14.57768102
_cell_angle_alpha   90.43983547
_cell_angle_beta   90.00000000
_cell_angle_gamma   90.00000000
_symmetry_Int_Tables_number   1
_chemical_formula_structural   TbNd7(GaBr6)2
_chemical_formula_sum   'Tb1 Nd7 Ga2 Br12'
_cell_volume   846.85621497
_cell_formula_units_Z   1
loop_
 _symmetry_equiv_pos_site_id
 _symmetry_equiv_pos_as_xyz
  1  'x, y, z'
loop_
 _atom_site_type_symbol
 _atom_site_label
 _atom_site_symmetry_multiplicity
 _atom_site_fract_x
 _atom_site_fract_y
 _atom_site_fract_z
 _atom_site_occupancy
  Tb  Tb0  1  0.500000  0.381463  0.839375  1
  Nd  Nd1  1  0.500000  0.119588  0.339051  1
  Nd  Nd2  1  0.500000  0.881472  0.661593  1
  Nd  Nd3  1  0.500000  0.618746  0.160637  1
  Nd  Nd4  1  0.000000  0.124590  0.583223  1
  Nd  Nd5  1  0.000000  0.877562  0.418541  1
  Nd  Nd6  1  0.000000  0.622300  0.917958  1
  Nd  Nd7  1  0.000000  0.376632  0.080543  1
  Ga  Ga8  1  0.500000  0.001188  0.500790  1
  Ga  Ga9  1  0.500000  0.498789  0.998243  1
  Br  Br10  1  0.500000  0.242915  0.163235  1
  Br  Br11  1  0.500000  0.755799  0.835044  1
  Br  Br12  1  0.500000  0.742925  0.335744  1
  Br  Br13  1  0.500000  0.258856  0.669688  1
  Br  Br14  1  0.000000  0.254220  0.412878  1
  Br  Br15  1  0.000000  0.746487  0.588084  1
  Br  Br16  1  0.000000  0.752946  0.088232  1
  Br  Br17  1  0.000000  0.251939  0.904729  1
  Br  Br18  1  0.000000  0.000650  0.244540  1
  Br  Br19  1  0.000000  0.999863  0.756365  1
  Br  Br20  1  0.000000  0.500870  0.254584  1
  Br  Br21  1  0.000000  0.490200  0.746925  1
