# generated using pymatgen
data_Ac3(Al5Zn)2
_symmetry_space_group_name_H-M   'P 1'
_cell_length_a   8.92448821
_cell_length_b   8.92448750
_cell_length_c   8.92448753
_cell_angle_alpha   150.64391179
_cell_angle_beta   104.48859603
_cell_angle_gamma   83.00532307
_symmetry_Int_Tables_number   1
_chemical_formula_structural   Ac3(Al5Zn)2
_chemical_formula_sum   'Ac3 Al10 Zn2'
_cell_volume   330.36525166
_cell_formula_units_Z   1
loop_
 _symmetry_equiv_pos_site_id
 _symmetry_equiv_pos_as_xyz
  1  'x, y, z'
loop_
 _atom_site_type_symbol
 _atom_site_label
 _atom_site_symmetry_multiplicity
 _atom_site_fract_x
 _atom_site_fract_y
 _atom_site_fract_z
 _atom_site_occupancy
  Ac  Ac0  1  0.000447  0.000000  0.000447  1
  Ac  Ac1  1  0.335251  0.334387  0.000864  1
  Ac  Ac2  1  0.666475  0.665613  0.000864  1
  Al  Al3  1  0.252681  0.500000  0.752681  1
  Al  Al4  1  0.748964  0.500000  0.248964  1
  Al  Al5  1  0.585210  0.836491  0.748719  1
  Al  Al6  1  0.912227  0.163509  0.748719  1
  Al  Al7  1  0.288235  0.667433  0.620801  1
  Al  Al8  1  0.953368  0.332567  0.620801  1
  Al  Al9  1  0.048129  0.667779  0.380350  1
  Al  Al10  1  0.712569  0.332221  0.380350  1
  Al  Al11  1  0.089719  0.837066  0.252654  1
  Al  Al12  1  0.415587  0.162934  0.252654  1
  Zn  Zn13  1  0.616478  0.000000  0.616478  1
  Zn  Zn14  1  0.385658  0.000000  0.385658  1
