# generated using pymatgen
data_CePr7Zn8(IrRh3)2
_symmetry_space_group_name_H-M   'P 1'
_cell_length_a   4.03586500
_cell_length_b   7.36763041
_cell_length_c   16.64567604
_cell_angle_alpha   89.86326438
_cell_angle_beta   90.00000000
_cell_angle_gamma   90.00000000
_symmetry_Int_Tables_number   1
_chemical_formula_structural   CePr7Zn8(IrRh3)2
_chemical_formula_sum   'Ce1 Pr7 Zn8 Ir2 Rh6'
_cell_volume   494.95380092
_cell_formula_units_Z   1
loop_
 _symmetry_equiv_pos_site_id
 _symmetry_equiv_pos_as_xyz
  1  'x, y, z'
loop_
 _atom_site_type_symbol
 _atom_site_label
 _atom_site_symmetry_multiplicity
 _atom_site_fract_x
 _atom_site_fract_y
 _atom_site_fract_z
 _atom_site_occupancy
  Ce  Ce0  1  0.750000  0.447758  0.216418  1
  Pr  Pr1  1  0.750000  0.952800  0.282605  1
  Pr  Pr2  1  0.750000  0.827096  0.060908  1
  Pr  Pr3  1  0.250000  0.047756  0.716615  1
  Pr  Pr4  1  0.250000  0.168778  0.940702  1
  Pr  Pr5  1  0.250000  0.547699  0.783376  1
  Pr  Pr6  1  0.750000  0.333596  0.438972  1
  Pr  Pr7  1  0.250000  0.668667  0.560479  1
  Zn  Zn8  1  0.250000  0.002504  0.439142  1
  Zn  Zn9  1  0.750000  0.501467  0.940206  1
  Zn  Zn10  1  0.750000  0.003668  0.559897  1
  Zn  Zn11  1  0.250000  0.625341  0.349939  1
  Zn  Zn12  1  0.750000  0.375433  0.650161  1
  Zn  Zn13  1  0.750000  0.876473  0.849724  1
  Zn  Zn14  1  0.250000  0.497285  0.059539  1
  Zn  Zn15  1  0.250000  0.123483  0.151432  1
  Ir  Ir16  1  0.250000  0.243913  0.565069  1
  Ir  Ir17  1  0.250000  0.257848  0.304498  1
  Rh  Rh18  1  0.750000  0.261489  0.069999  1
  Rh  Rh19  1  0.750000  0.254393  0.815393  1
  Rh  Rh20  1  0.250000  0.745926  0.935127  1
  Rh  Rh21  1  0.750000  0.754242  0.686715  1
  Rh  Rh22  1  0.750000  0.763250  0.434552  1
  Rh  Rh23  1  0.250000  0.719135  0.188532  1
