# generated using pymatgen
data_Ho19ErSnPb15
_symmetry_space_group_name_H-M   'P 1'
_cell_length_a   8.18066345
_cell_length_b   8.23589488
_cell_length_c   15.58162500
_cell_angle_alpha   90.00000000
_cell_angle_beta   90.00000000
_cell_angle_gamma   89.77990104
_symmetry_Int_Tables_number   1
_chemical_formula_structural   Ho19ErSnPb15
_chemical_formula_sum   'Ho19 Er1 Sn1 Pb15'
_cell_volume   1049.80555105
_cell_formula_units_Z   1
loop_
 _symmetry_equiv_pos_site_id
 _symmetry_equiv_pos_as_xyz
  1  'x, y, z'
loop_
 _atom_site_type_symbol
 _atom_site_label
 _atom_site_symmetry_multiplicity
 _atom_site_fract_x
 _atom_site_fract_y
 _atom_site_fract_z
 _atom_site_occupancy
  Ho  Ho0  1  0.380171  0.839196  0.877576  1
  Ho  Ho1  1  0.875943  0.658188  0.621694  1
  Ho  Ho2  1  0.621689  0.158227  0.379037  1
  Ho  Ho3  1  0.122271  0.341422  0.120978  1
  Ho  Ho4  1  0.621689  0.158227  0.120963  1
  Ho  Ho5  1  0.122271  0.341422  0.379022  1
  Ho  Ho6  1  0.380171  0.839196  0.622424  1
  Ho  Ho7  1  0.875943  0.658188  0.878306  1
  Ho  Ho8  1  0.536808  0.327092  0.898940  1
  Ho  Ho9  1  0.036519  0.175858  0.600178  1
  Ho  Ho10  1  0.462945  0.675942  0.400188  1
  Ho  Ho11  1  0.963472  0.824475  0.099760  1
  Ho  Ho12  1  0.462945  0.675942  0.099812  1
  Ho  Ho13  1  0.963472  0.824475  0.400240  1
  Ho  Ho14  1  0.536808  0.327092  0.601060  1
  Ho  Ho15  1  0.036519  0.175858  0.899822  1
  Ho  Ho16  1  0.212116  0.505363  0.750000  1
  Ho  Ho17  1  0.708856  0.993392  0.750000  1
  Ho  Ho18  1  0.790501  0.495504  0.250000  1
  Er  Er19  1  0.290537  0.004286  0.250000  1
  Sn  Sn20  1  0.574226  0.624566  0.750000  1
  Pb  Pb21  1  0.281133  0.032708  0.042239  1
  Pb  Pb22  1  0.780981  0.466370  0.457543  1
  Pb  Pb23  1  0.718750  0.966909  0.542772  1
  Pb  Pb24  1  0.218452  0.533840  0.957461  1
  Pb  Pb25  1  0.718750  0.966909  0.957228  1
  Pb  Pb26  1  0.218452  0.533840  0.542539  1
  Pb  Pb27  1  0.281133  0.032708  0.457761  1
  Pb  Pb28  1  0.780981  0.466370  0.042457  1
  Pb  Pb29  1  0.073098  0.874980  0.750000  1
  Pb  Pb30  1  0.426986  0.374116  0.250000  1
  Pb  Pb31  1  0.928115  0.125618  0.250000  1
  Pb  Pb32  1  0.348394  0.154255  0.750000  1
  Pb  Pb33  1  0.847833  0.346935  0.750000  1
  Pb  Pb34  1  0.650355  0.845839  0.250000  1
  Pb  Pb35  1  0.150718  0.654693  0.250000  1
