# generated using pymatgen
data_MgFe2(MoO4)3
_symmetry_space_group_name_H-M   'P 1'
_cell_length_a   7.12488800
_cell_length_b   8.58019405
_cell_length_c   9.92070885
_cell_angle_alpha   97.15543258
_cell_angle_beta   106.60510208
_cell_angle_gamma   101.96909159
_symmetry_Int_Tables_number   1
_chemical_formula_structural   MgFe2(MoO4)3
_chemical_formula_sum   'Mg2 Fe4 Mo6 O24'
_cell_volume   557.51671543
_cell_formula_units_Z   2
loop_
 _symmetry_equiv_pos_site_id
 _symmetry_equiv_pos_as_xyz
  1  'x, y, z'
loop_
 _atom_site_type_symbol
 _atom_site_label
 _atom_site_symmetry_multiplicity
 _atom_site_fract_x
 _atom_site_fract_y
 _atom_site_fract_z
 _atom_site_occupancy
  Mg  Mg0  1  0.253646  0.695029  0.909975  1
  Mg  Mg1  1  0.746354  0.304971  0.090025  1
  Fe  Fe2  1  0.534658  0.698381  0.485874  1
  Fe  Fe3  1  0.465342  0.301619  0.514126  1
  Fe  Fe4  1  0.968348  0.887875  0.716968  1
  Fe  Fe5  1  0.031652  0.112125  0.283032  1
  Mo  Mo6  1  0.504743  0.987179  0.757724  1
  Mo  Mo7  1  0.495257  0.012821  0.242276  1
  Mo  Mo8  1  0.699906  0.601267  0.840648  1
  Mo  Mo9  1  0.300094  0.398733  0.159352  1
  Mo  Mo10  1  0.977677  0.704726  0.373911  1
  Mo  Mo11  1  0.022323  0.295274  0.626089  1
  O  O12  1  0.268483  0.865352  0.768525  1
  O  O13  1  0.731517  0.134648  0.231475  1
  O  O14  1  0.556116  0.707639  0.919625  1
  O  O15  1  0.443884  0.292361  0.080375  1
  O  O16  1  0.557041  0.519309  0.651918  1
  O  O17  1  0.442959  0.480691  0.348082  1
  O  O18  1  0.553157  0.872749  0.353670  1
  O  O19  1  0.446843  0.127251  0.646330  1
  O  O20  1  0.660128  0.099525  0.928142  1
  O  O21  1  0.339872  0.900475  0.071858  1
  O  O22  1  0.647471  0.862391  0.681659  1
  O  O23  1  0.352529  0.137609  0.318341  1
  O  O24  1  0.023178  0.123896  0.714655  1
  O  O25  1  0.976822  0.876104  0.285345  1
  O  O26  1  0.048877  0.271823  0.143450  1
  O  O27  1  0.951123  0.728177  0.856550  1
  O  O28  1  0.147558  0.479590  0.753811  1
  O  O29  1  0.852442  0.520410  0.246189  1
  O  O30  1  0.143048  0.270182  0.486747  1
  O  O31  1  0.856952  0.729818  0.513253  1
  O  O32  1  0.257676  0.559427  0.069909  1
  O  O33  1  0.742324  0.440573  0.930091  1
  O  O34  1  0.233160  0.705925  0.460198  1
  O  O35  1  0.766840  0.294075  0.539802  1
