# generated using pymatgen
data_Y2Pa3S10
_symmetry_space_group_name_H-M   'P 1'
_cell_length_a   10.19849200
_cell_length_b   10.19849200
_cell_length_c   6.27701800
_cell_angle_alpha   90.00000000
_cell_angle_beta   90.00000000
_cell_angle_gamma   90.00000000
_symmetry_Int_Tables_number   1
_chemical_formula_structural   Y2Pa3S10
_chemical_formula_sum   'Y4 Pa6 S20'
_cell_volume   652.86786583
_cell_formula_units_Z   2
loop_
 _symmetry_equiv_pos_site_id
 _symmetry_equiv_pos_as_xyz
  1  'x, y, z'
loop_
 _atom_site_type_symbol
 _atom_site_label
 _atom_site_symmetry_multiplicity
 _atom_site_fract_x
 _atom_site_fract_y
 _atom_site_fract_z
 _atom_site_occupancy
  Y  Y0  1  0.341117  0.651236  0.750420  1
  Y  Y1  1  0.151236  0.158883  0.750420  1
  Y  Y2  1  0.848764  0.841117  0.750420  1
  Y  Y3  1  0.658883  0.348764  0.750420  1
  Pa  Pa4  1  0.841368  0.152331  0.251452  1
  Pa  Pa5  1  0.652331  0.658632  0.251452  1
  Pa  Pa6  1  0.347669  0.341368  0.251452  1
  Pa  Pa7  1  0.158632  0.847669  0.251452  1
  Pa  Pa8  1  0.500000  0.000000  0.859465  1
  Pa  Pa9  1  0.000000  0.500000  0.136811  1
  S  S10  1  0.707268  0.088840  0.617383  1
  S  S11  1  0.588840  0.792732  0.617383  1
  S  S12  1  0.411160  0.207268  0.617383  1
  S  S13  1  0.292732  0.911160  0.617383  1
  S  S14  1  0.706261  0.911634  0.114976  1
  S  S15  1  0.588366  0.206261  0.114976  1
  S  S16  1  0.411634  0.793739  0.114976  1
  S  S17  1  0.293739  0.088366  0.114976  1
  S  S18  1  0.500000  0.500000  0.004825  1
  S  S19  1  0.000000  0.000000  0.004825  1
  S  S20  1  0.209776  0.410782  0.897138  1
  S  S21  1  0.089218  0.709776  0.897138  1
  S  S22  1  0.910782  0.290224  0.897138  1
  S  S23  1  0.790224  0.589218  0.897138  1
  S  S24  1  0.500000  0.500000  0.496265  1
  S  S25  1  0.000000  0.000000  0.496265  1
  S  S26  1  0.210544  0.588043  0.369018  1
  S  S27  1  0.088043  0.289456  0.369018  1
  S  S28  1  0.911957  0.710544  0.369018  1
  S  S29  1  0.789456  0.411957  0.369018  1
