# generated using pymatgen
data_La4Dy4Te(WO8)3
_symmetry_space_group_name_H-M   'P 1'
_cell_length_a   5.44579750
_cell_length_b   9.36050937
_cell_length_c   10.22123438
_cell_angle_alpha   89.96524482
_cell_angle_beta   89.95166003
_cell_angle_gamma   89.81654573
_symmetry_Int_Tables_number   1
_chemical_formula_structural   La4Dy4Te(WO8)3
_chemical_formula_sum   'La4 Dy4 Te1 W3 O24'
_cell_volume   521.02895282
_cell_formula_units_Z   1
loop_
 _symmetry_equiv_pos_site_id
 _symmetry_equiv_pos_as_xyz
  1  'x, y, z'
loop_
 _atom_site_type_symbol
 _atom_site_label
 _atom_site_symmetry_multiplicity
 _atom_site_fract_x
 _atom_site_fract_y
 _atom_site_fract_z
 _atom_site_occupancy
  La  La0  1  0.532089  0.220774  0.359406  1
  La  La1  1  0.031450  0.278322  0.639774  1
  La  La2  1  0.471175  0.719471  0.141867  1
  La  La3  1  0.967545  0.777193  0.858590  1
  Dy  Dy4  1  0.516438  0.104499  0.956274  1
  Dy  Dy5  1  0.018900  0.396313  0.043686  1
  Dy  Dy6  1  0.482193  0.603040  0.542476  1
  Dy  Dy7  1  0.981040  0.897903  0.457757  1
  Te  Te8  1  0.033677  0.009764  0.141864  1
  W  W9  1  0.465563  0.990345  0.642995  1
  W  W10  1  0.966671  0.509030  0.357229  1
  W  W11  1  0.534310  0.490687  0.856878  1
  O  O12  1  0.306131  0.141838  0.168565  1
  O  O13  1  0.807312  0.358567  0.834107  1
  O  O14  1  0.691430  0.639680  0.334114  1
  O  O15  1  0.192767  0.859639  0.667519  1
  O  O16  1  0.726384  0.105815  0.560825  1
  O  O17  1  0.224870  0.392808  0.440121  1
  O  O18  1  0.276654  0.608658  0.939266  1
  O  O19  1  0.772448  0.892839  0.063884  1
  O  O20  1  0.678983  0.631782  0.740782  1
  O  O21  1  0.173038  0.865679  0.256752  1
  O  O22  1  0.323145  0.133846  0.757727  1
  O  O23  1  0.820992  0.368469  0.241156  1
  O  O24  1  0.664508  0.951406  0.793705  1
  O  O25  1  0.168522  0.545331  0.207241  1
  O  O26  1  0.332256  0.453276  0.707639  1
  O  O27  1  0.834074  0.050232  0.293808  1
  O  O28  1  0.253982  0.078525  0.504012  1
  O  O29  1  0.754708  0.421768  0.496928  1
  O  O30  1  0.747512  0.578353  0.995800  1
  O  O31  1  0.243356  0.925264  0.002624  1
  O  O32  1  0.109586  0.663971  0.461976  1
  O  O33  1  0.607861  0.836592  0.536386  1
  O  O34  1  0.895641  0.160382  0.031809  1
  O  O35  1  0.392788  0.337939  0.964457  1
