# generated using pymatgen
data_Tb2Ho5Lu13Sn16
_symmetry_space_group_name_H-M   'P 1'
_cell_length_a   7.94064858
_cell_length_b   8.06806247
_cell_length_c   15.24080100
_cell_angle_alpha   90.01558081
_cell_angle_beta   90.22565103
_cell_angle_gamma   89.90459387
_symmetry_Int_Tables_number   1
_chemical_formula_structural   Tb2Ho5Lu13Sn16
_chemical_formula_sum   'Tb2 Ho5 Lu13 Sn16'
_cell_volume   976.40284402
_cell_formula_units_Z   1
loop_
 _symmetry_equiv_pos_site_id
 _symmetry_equiv_pos_as_xyz
  1  'x, y, z'
loop_
 _atom_site_type_symbol
 _atom_site_label
 _atom_site_symmetry_multiplicity
 _atom_site_fract_x
 _atom_site_fract_y
 _atom_site_fract_z
 _atom_site_occupancy
  Tb  Tb0  1  0.019371  0.179197  0.596388  1
  Tb  Tb1  1  0.480818  0.678918  0.404414  1
  Ho  Ho2  1  0.979362  0.821124  0.095983  1
  Ho  Ho3  1  0.479180  0.678045  0.096104  1
  Ho  Ho4  1  0.980553  0.821405  0.404249  1
  Ho  Ho5  1  0.518573  0.321818  0.595505  1
  Ho  Ho6  1  0.020487  0.179173  0.903818  1
  Lu  Lu7  1  0.364991  0.838368  0.876528  1
  Lu  Lu8  1  0.863389  0.662239  0.623980  1
  Lu  Lu9  1  0.635861  0.162225  0.375848  1
  Lu  Lu10  1  0.134175  0.338441  0.123211  1
  Lu  Lu11  1  0.634191  0.161845  0.123224  1
  Lu  Lu12  1  0.136098  0.338098  0.376109  1
  Lu  Lu13  1  0.364217  0.838462  0.624501  1
  Lu  Lu14  1  0.865994  0.661309  0.876747  1
  Lu  Lu15  1  0.522830  0.321398  0.903306  1
  Lu  Lu16  1  0.195822  0.504955  0.750574  1
  Lu  Lu17  1  0.695271  0.995127  0.750634  1
  Lu  Lu18  1  0.804498  0.494955  0.249621  1
  Lu  Lu19  1  0.304439  0.005005  0.249727  1
  Sn  Sn20  1  0.295799  0.038777  0.041770  1
  Sn  Sn21  1  0.798450  0.459470  0.458658  1
  Sn  Sn22  1  0.701608  0.959961  0.541186  1
  Sn  Sn23  1  0.207039  0.537089  0.958233  1
  Sn  Sn24  1  0.703589  0.961238  0.958416  1
  Sn  Sn25  1  0.201568  0.540899  0.541312  1
  Sn  Sn26  1  0.298017  0.039827  0.458310  1
  Sn  Sn27  1  0.794598  0.459478  0.040766  1
  Sn  Sn28  1  0.561108  0.618982  0.750272  1
  Sn  Sn29  1  0.061205  0.880406  0.750352  1
  Sn  Sn30  1  0.438448  0.379271  0.249521  1
  Sn  Sn31  1  0.939028  0.120536  0.249644  1
  Sn  Sn32  1  0.331876  0.150970  0.750662  1
  Sn  Sn33  1  0.828489  0.350519  0.750670  1
  Sn  Sn34  1  0.670032  0.850006  0.249592  1
  Sn  Sn35  1  0.169022  0.650464  0.250168  1
