# generated using pymatgen
data_Na3PSe3S
_symmetry_space_group_name_H-M   'P 1'
_cell_length_a   6.37642025
_cell_length_b   6.17002117
_cell_length_c   6.37641989
_cell_angle_alpha   108.81682717
_cell_angle_beta   110.11761291
_cell_angle_gamma   108.81682615
_symmetry_Int_Tables_number   1
_chemical_formula_structural   Na3PSe3S
_chemical_formula_sum   'Na3 P1 Se3 S1'
_cell_volume   194.65360049
_cell_formula_units_Z   1
loop_
 _symmetry_equiv_pos_site_id
 _symmetry_equiv_pos_as_xyz
  1  'x, y, z'
loop_
 _atom_site_type_symbol
 _atom_site_label
 _atom_site_symmetry_multiplicity
 _atom_site_fract_x
 _atom_site_fract_y
 _atom_site_fract_z
 _atom_site_occupancy
  Na  Na0  1  0.000000  0.508878  0.474553  1
  Na  Na1  1  0.474553  0.508878  0.000000  1
  Na  Na2  1  0.525447  0.034326  0.525447  1
  P  P3  1  0.000000  0.996147  0.000000  1
  Se  Se4  1  0.351387  0.991283  0.000000  1
  Se  Se5  1  0.648613  0.639896  0.648613  1
  Se  Se6  1  0.000000  0.991283  0.351387  1
  S  S7  1  0.000000  0.329308  0.000000  1
