# generated using pymatgen
data_YbPr2Er4FeI12
_symmetry_space_group_name_H-M   'P 1'
_cell_length_a   9.84358165
_cell_length_b   9.71837012
_cell_length_c   9.86967879
_cell_angle_alpha   106.41073369
_cell_angle_beta   106.82226295
_cell_angle_gamma   107.52476722
_symmetry_Int_Tables_number   1
_chemical_formula_structural   YbPr2Er4FeI12
_chemical_formula_sum   'Yb1 Pr2 Er4 Fe1 I12'
_cell_volume   787.97921234
_cell_formula_units_Z   1
loop_
 _symmetry_equiv_pos_site_id
 _symmetry_equiv_pos_as_xyz
  1  'x, y, z'
loop_
 _atom_site_type_symbol
 _atom_site_label
 _atom_site_symmetry_multiplicity
 _atom_site_fract_x
 _atom_site_fract_y
 _atom_site_fract_z
 _atom_site_occupancy
  Yb  Yb0  1  0.000000  0.000000  0.000000  1
  Pr  Pr1  1  0.590443  0.776920  0.523138  1
  Pr  Pr2  1  0.409557  0.223080  0.476862  1
  Er  Er3  1  0.800100  0.526784  0.597636  1
  Er  Er4  1  0.525652  0.596601  0.798110  1
  Er  Er5  1  0.199900  0.473216  0.402364  1
  Er  Er6  1  0.474348  0.403399  0.201890  1
  Fe  Fe7  1  0.500000  0.500000  0.500000  1
  I  I8  1  0.735406  0.192729  0.578601  1
  I  I9  1  0.964670  0.878077  0.656612  1
  I  I10  1  0.572089  0.719495  0.174413  1
  I  I11  1  0.123521  0.352007  0.046313  1
  I  I12  1  0.652383  0.955062  0.885312  1
  I  I13  1  0.876479  0.647993  0.953687  1
  I  I14  1  0.035330  0.121923  0.343388  1
  I  I15  1  0.817861  0.428583  0.279275  1
  I  I16  1  0.347617  0.044938  0.114688  1
  I  I17  1  0.264594  0.807271  0.421399  1
  I  I18  1  0.182139  0.571417  0.720725  1
  I  I19  1  0.427911  0.280505  0.825587  1
