# generated using pymatgen
data_PrCoF7
_symmetry_space_group_name_H-M   'P 1'
_cell_length_a   5.50327300
_cell_length_b   8.99612678
_cell_length_c   11.99647451
_cell_angle_alpha   62.08590609
_cell_angle_beta   90.00000000
_cell_angle_gamma   90.00000000
_symmetry_Int_Tables_number   1
_chemical_formula_structural   PrCoF7
_chemical_formula_sum   'Pr4 Co4 F28'
_cell_volume   524.82049643
_cell_formula_units_Z   4
loop_
 _symmetry_equiv_pos_site_id
 _symmetry_equiv_pos_as_xyz
  1  'x, y, z'
loop_
 _atom_site_type_symbol
 _atom_site_label
 _atom_site_symmetry_multiplicity
 _atom_site_fract_x
 _atom_site_fract_y
 _atom_site_fract_z
 _atom_site_occupancy
  Pr  Pr0  1  0.760801  0.804897  0.765837  1
  Pr  Pr1  1  0.260801  0.195103  0.734163  1
  Pr  Pr2  1  0.239199  0.195103  0.234163  1
  Pr  Pr3  1  0.739199  0.804897  0.265837  1
  Co  Co4  1  0.756589  0.273647  0.957035  1
  Co  Co5  1  0.256589  0.726353  0.542965  1
  Co  Co6  1  0.243411  0.726353  0.042965  1
  Co  Co7  1  0.743411  0.273647  0.457035  1
  F  F8  1  0.418569  0.708142  0.922431  1
  F  F9  1  0.918569  0.291858  0.577569  1
  F  F10  1  0.581431  0.291858  0.077569  1
  F  F11  1  0.081431  0.708142  0.422431  1
  F  F12  1  0.463692  0.282369  0.534692  1
  F  F13  1  0.963692  0.717631  0.965308  1
  F  F14  1  0.536308  0.717631  0.465308  1
  F  F15  1  0.036308  0.282369  0.034692  1
  F  F16  1  0.767425  0.500222  0.866374  1
  F  F17  1  0.267425  0.499778  0.633626  1
  F  F18  1  0.232575  0.499778  0.133626  1
  F  F19  1  0.732575  0.500222  0.366374  1
  F  F20  1  0.757221  0.048193  0.042517  1
  F  F21  1  0.257221  0.951807  0.457483  1
  F  F22  1  0.242779  0.951807  0.957483  1
  F  F23  1  0.742779  0.048193  0.542517  1
  F  F24  1  0.979719  0.728451  0.624148  1
  F  F25  1  0.479719  0.271549  0.875852  1
  F  F26  1  0.020281  0.271549  0.375852  1
  F  F27  1  0.520281  0.728451  0.124148  1
  F  F28  1  0.069984  0.738810  0.167677  1
  F  F29  1  0.569984  0.261190  0.332323  1
  F  F30  1  0.930016  0.261190  0.832323  1
  F  F31  1  0.430016  0.738810  0.667677  1
  F  F32  1  0.396484  0.965923  0.226696  1
  F  F33  1  0.896484  0.034077  0.273304  1
  F  F34  1  0.603516  0.034077  0.773304  1
  F  F35  1  0.103516  0.965923  0.726696  1
