# generated using pymatgen
data_YbDy2Ho(Al8Pt3)3
_symmetry_space_group_name_H-M   'P 1'
_cell_length_a   7.53013212
_cell_length_b   7.54887353
_cell_length_c   13.19676181
_cell_angle_alpha   84.60492035
_cell_angle_beta   79.11884040
_cell_angle_gamma   59.91985876
_symmetry_Int_Tables_number   1
_chemical_formula_structural   YbDy2Ho(Al8Pt3)3
_chemical_formula_sum   'Yb1 Dy2 Ho1 Al24 Pt9'
_cell_volume   637.45872594
_cell_formula_units_Z   1
loop_
 _symmetry_equiv_pos_site_id
 _symmetry_equiv_pos_as_xyz
  1  'x, y, z'
loop_
 _atom_site_type_symbol
 _atom_site_label
 _atom_site_symmetry_multiplicity
 _atom_site_fract_x
 _atom_site_fract_y
 _atom_site_fract_z
 _atom_site_occupancy
  Yb  Yb0  1  0.393890  0.168335  0.807409  1
  Dy  Dy1  1  0.733781  0.498640  0.807833  1
  Dy  Dy2  1  0.266490  0.500828  0.192133  1
  Ho  Ho3  1  0.605396  0.832326  0.192178  1
  Al  Al4  1  0.684137  0.833889  0.944815  1
  Al  Al5  1  0.315646  0.166143  0.055045  1
  Al  Al6  1  0.146876  0.832282  0.561014  1
  Al  Al7  1  0.853207  0.167824  0.438291  1
  Al  Al8  1  0.479886  0.166660  0.558812  1
  Al  Al9  1  0.520292  0.833561  0.440892  1
  Al  Al10  1  0.217626  0.165156  0.329281  1
  Al  Al11  1  0.782217  0.835494  0.670267  1
  Al  Al12  1  0.437190  0.505931  0.670021  1
  Al  Al13  1  0.562972  0.493336  0.329471  1
  Al  Al14  1  0.110315  0.160041  0.668862  1
  Al  Al15  1  0.890389  0.839914  0.330702  1
  Al  Al16  1  0.352686  0.499155  0.944847  1
  Al  Al17  1  0.646745  0.501001  0.056051  1
  Al  Al18  1  0.015369  0.167904  0.954050  1
  Al  Al19  1  0.984199  0.831880  0.047040  1
  Al  Al20  1  0.186753  0.499103  0.440934  1
  Al  Al21  1  0.813622  0.500513  0.558499  1
  Al  Al22  1  0.734342  0.164102  0.183517  1
  Al  Al23  1  0.266597  0.833592  0.816814  1
  Al  Al24  1  0.059442  0.632475  0.815792  1
  Al  Al25  1  0.938208  0.369228  0.184676  1
  Al  Al26  1  0.856219  0.042541  0.816405  1
  Al  Al27  1  0.145518  0.958278  0.184008  1
  Pt  Pt28  1  0.120097  0.492525  0.638112  1
  Pt  Pt29  1  0.879826  0.508296  0.361303  1
  Pt  Pt30  1  0.657139  0.171193  0.000565  1
  Pt  Pt31  1  0.342278  0.828486  0.000857  1
  Pt  Pt32  1  0.538106  0.166545  0.361260  1
  Pt  Pt33  1  0.461978  0.832904  0.638100  1
  Pt  Pt34  1  0.779672  0.174632  0.636733  1
  Pt  Pt35  1  0.221311  0.824940  0.362594  1
  Pt  Pt36  1  0.999582  0.500345  0.000819  1
