# generated using pymatgen
data_Yb4Sc4B24Ir3Ru
_symmetry_space_group_name_H-M   'P 1'
_cell_length_a   3.53777700
_cell_length_b   8.98057628
_cell_length_c   11.36822836
_cell_angle_alpha   90.02874174
_cell_angle_beta   90.00000000
_cell_angle_gamma   90.00000000
_symmetry_Int_Tables_number   1
_chemical_formula_structural   Yb4Sc4B24Ir3Ru
_chemical_formula_sum   'Yb4 Sc4 B24 Ir3 Ru1'
_cell_volume   361.18307782
_cell_formula_units_Z   1
loop_
 _symmetry_equiv_pos_site_id
 _symmetry_equiv_pos_as_xyz
  1  'x, y, z'
loop_
 _atom_site_type_symbol
 _atom_site_label
 _atom_site_symmetry_multiplicity
 _atom_site_fract_x
 _atom_site_fract_y
 _atom_site_fract_z
 _atom_site_occupancy
  Yb  Yb0  1  0.500000  0.320615  0.412123  1
  Yb  Yb1  1  0.500000  0.678024  0.584780  1
  Yb  Yb2  1  0.500000  0.177554  0.916948  1
  Yb  Yb3  1  0.500000  0.824240  0.086797  1
  Sc  Sc4  1  0.500000  0.441899  0.126151  1
  Sc  Sc5  1  0.500000  0.554797  0.874665  1
  Sc  Sc6  1  0.500000  0.054563  0.625775  1
  Sc  Sc7  1  0.500000  0.948152  0.371934  1
  B  B8  1  0.000000  0.098506  0.473768  1
  B  B9  1  0.000000  0.901450  0.526320  1
  B  B10  1  0.000000  0.401554  0.973335  1
  B  B11  1  0.000000  0.598829  0.026691  1
  B  B12  1  0.000000  0.130245  0.316829  1
  B  B13  1  0.000000  0.869559  0.681671  1
  B  B14  1  0.000000  0.369837  0.818386  1
  B  B15  1  0.000000  0.630261  0.182210  1
  B  B16  1  0.000000  0.055263  0.067908  1
  B  B17  1  0.000000  0.944833  0.933191  1
  B  B18  1  0.000000  0.444358  0.566793  1
  B  B19  1  0.000000  0.555218  0.432880  1
  B  B20  1  0.000000  0.482483  0.285884  1
  B  B21  1  0.000000  0.517212  0.714215  1
  B  B22  1  0.000000  0.017193  0.785717  1
  B  B23  1  0.000000  0.983067  0.214145  1
  B  B24  1  0.000000  0.251880  0.081822  1
  B  B25  1  0.000000  0.747918  0.919344  1
  B  B26  1  0.000000  0.247453  0.580730  1
  B  B27  1  0.000000  0.752675  0.419123  1
  B  B28  1  0.000000  0.293894  0.234835  1
  B  B29  1  0.000000  0.705861  0.764442  1
  B  B30  1  0.000000  0.206148  0.735796  1
  B  B31  1  0.000000  0.794151  0.264647  1
  Ir  Ir32  1  0.500000  0.858985  0.817683  1
  Ir  Ir33  1  0.500000  0.359538  0.681690  1
  Ir  Ir34  1  0.500000  0.640797  0.318746  1
  Ru  Ru35  1  0.500000  0.140989  0.182029  1
