# generated using pymatgen
data_Y4In2Hg3Ir
_symmetry_space_group_name_H-M   'P 1'
_cell_length_a   8.16011214
_cell_length_b   8.16011287
_cell_length_c   3.76333300
_cell_angle_alpha   90.00000000
_cell_angle_beta   90.00000000
_cell_angle_gamma   89.06858675
_symmetry_Int_Tables_number   1
_chemical_formula_structural   Y4In2Hg3Ir
_chemical_formula_sum   'Y4 In2 Hg3 Ir1'
_cell_volume   250.55758533
_cell_formula_units_Z   1
loop_
 _symmetry_equiv_pos_site_id
 _symmetry_equiv_pos_as_xyz
  1  'x, y, z'
loop_
 _atom_site_type_symbol
 _atom_site_label
 _atom_site_symmetry_multiplicity
 _atom_site_fract_x
 _atom_site_fract_y
 _atom_site_fract_z
 _atom_site_occupancy
  Y  Y0  1  0.665122  0.165122  0.500000  1
  Y  Y1  1  0.307491  0.807491  0.500000  1
  Y  Y2  1  0.183553  0.366364  0.500000  1
  Y  Y3  1  0.866364  0.683553  0.500000  1
  In  In4  1  0.497074  0.501347  0.000000  1
  In  In5  1  0.001347  0.997074  0.000000  1
  Hg  Hg6  1  0.872179  0.372179  0.000000  1
  Hg  Hg7  1  0.620500  0.859775  0.000000  1
  Hg  Hg8  1  0.359775  0.120500  0.000000  1
  Ir  Ir9  1  0.126596  0.626596  0.000000  1
