# generated using pymatgen
data_SrEr6CoSn23Ir5
_symmetry_space_group_name_H-M   'P 1'
_cell_length_a   9.87574100
_cell_length_b   9.86125708
_cell_length_c   10.05518917
_cell_angle_alpha   90.13531923
_cell_angle_beta   90.00000000
_cell_angle_gamma   120.04860179
_symmetry_Int_Tables_number   1
_chemical_formula_structural   SrEr6CoSn23Ir5
_chemical_formula_sum   'Sr1 Er6 Co1 Sn23 Ir5'
_cell_volume   847.63392793
_cell_formula_units_Z   1
loop_
 _symmetry_equiv_pos_site_id
 _symmetry_equiv_pos_as_xyz
  1  'x, y, z'
loop_
 _atom_site_type_symbol
 _atom_site_label
 _atom_site_symmetry_multiplicity
 _atom_site_fract_x
 _atom_site_fract_y
 _atom_site_fract_z
 _atom_site_occupancy
  Sr  Sr0  1  0.002535  0.005070  0.997074  1
  Er  Er1  1  0.035343  0.517290  0.306599  1
  Er  Er2  1  0.481858  0.963716  0.305890  1
  Er  Er3  1  0.481946  0.517290  0.306599  1
  Er  Er4  1  0.964543  0.482635  0.694141  1
  Er  Er5  1  0.517371  0.034743  0.694450  1
  Er  Er6  1  0.518092  0.482635  0.694141  1
  Co  Co7  1  0.828912  0.657823  0.201079  1
  Sn  Sn8  1  0.999738  0.999476  0.499095  1
  Sn  Sn9  1  0.112044  0.875684  0.278369  1
  Sn  Sn10  1  0.763639  0.875684  0.278369  1
  Sn  Sn11  1  0.118433  0.236866  0.285663  1
  Sn  Sn12  1  0.880142  0.117658  0.715304  1
  Sn  Sn13  1  0.237518  0.117658  0.715304  1
  Sn  Sn14  1  0.880235  0.760470  0.714974  1
  Sn  Sn15  1  0.352669  0.999997  0.000255  1
  Sn  Sn16  1  0.655017  0.648777  0.004542  1
  Sn  Sn17  1  0.000511  0.355447  0.000923  1
  Sn  Sn18  1  0.354938  0.355447  0.000923  1
  Sn  Sn19  1  0.993760  0.648777  0.004542  1
  Sn  Sn20  1  0.647327  0.999997  0.000255  1
  Sn  Sn21  1  0.780208  0.560415  0.452136  1
  Sn  Sn22  1  0.776989  0.222258  0.460088  1
  Sn  Sn23  1  0.445269  0.222258  0.460088  1
  Sn  Sn24  1  0.223023  0.446045  0.540455  1
  Sn  Sn25  1  0.222303  0.778371  0.540074  1
  Sn  Sn26  1  0.556068  0.778371  0.540074  1
  Sn  Sn27  1  0.669382  0.338762  0.177485  1
  Sn  Sn28  1  0.333138  0.666276  0.826674  1
  Sn  Sn29  1  0.666594  0.333187  0.876302  1
  Sn  Sn30  1  0.332627  0.665255  0.125647  1
  Ir  Ir31  1  0.169181  0.826494  0.799484  1
  Ir  Ir32  1  0.657313  0.826494  0.799484  1
  Ir  Ir33  1  0.170942  0.341884  0.798182  1
  Ir  Ir34  1  0.828662  0.170396  0.202669  1
  Ir  Ir35  1  0.341733  0.170396  0.202669  1
