# generated using pymatgen
data_UPa3Tc7Sn5Ge
_symmetry_space_group_name_H-M   'P 1'
_cell_length_a   7.58184425
_cell_length_b   7.55016222
_cell_length_c   7.55273663
_cell_angle_alpha   109.58086033
_cell_angle_beta   109.75033928
_cell_angle_gamma   109.15476436
_symmetry_Int_Tables_number   1
_chemical_formula_structural   UPa3Tc7Sn5Ge
_chemical_formula_sum   'U1 Pa3 Tc7 Sn5 Ge1'
_cell_volume   332.51874402
_cell_formula_units_Z   1
loop_
 _symmetry_equiv_pos_site_id
 _symmetry_equiv_pos_as_xyz
  1  'x, y, z'
loop_
 _atom_site_type_symbol
 _atom_site_label
 _atom_site_symmetry_multiplicity
 _atom_site_fract_x
 _atom_site_fract_y
 _atom_site_fract_z
 _atom_site_occupancy
  U  U0  1  0.512821  0.985162  0.000000  1
  Pa  Pa1  1  0.513335  0.513346  0.524361  1
  Pa  Pa2  1  0.988974  0.988985  0.475639  1
  Pa  Pa3  1  0.989122  0.513164  0.000000  1
  Tc  Tc4  1  0.754037  0.253836  0.493951  1
  Tc  Tc5  1  0.501734  0.255125  0.756473  1
  Tc  Tc6  1  0.502914  0.750955  0.241526  1
  Tc  Tc7  1  0.261388  0.509430  0.758474  1
  Tc  Tc8  1  0.745260  0.498650  0.243527  1
  Tc  Tc9  1  0.260085  0.759884  0.506049  1
  Tc  Tc10  1  0.968647  0.970081  0.000000  1
  Sn  Sn11  1  0.293495  0.291603  0.000000  1
  Sn  Sn12  1  0.007053  0.317604  0.308819  1
  Sn  Sn13  1  0.008416  0.699500  0.691483  1
  Sn  Sn14  1  0.698235  0.008785  0.691181  1
  Sn  Sn15  1  0.316933  0.008017  0.308517  1
  Ge  Ge16  1  0.677551  0.675869  0.000000  1
