# generated using pymatgen
data_Hf8AlFe5(Si7Ni)2
_symmetry_space_group_name_H-M   'P 1'
_cell_length_a   9.50804908
_cell_length_b   9.50740554
_cell_length_c   9.47024941
_cell_angle_alpha   94.01872657
_cell_angle_beta   94.03777917
_cell_angle_gamma   148.90242983
_symmetry_Int_Tables_number   1
_chemical_formula_structural   Hf8AlFe5(Si7Ni)2
_chemical_formula_sum   'Hf8 Al1 Fe5 Si14 Ni2'
_cell_volume   426.70996299
_cell_formula_units_Z   1
loop_
 _symmetry_equiv_pos_site_id
 _symmetry_equiv_pos_as_xyz
  1  'x, y, z'
loop_
 _atom_site_type_symbol
 _atom_site_label
 _atom_site_symmetry_multiplicity
 _atom_site_fract_x
 _atom_site_fract_y
 _atom_site_fract_z
 _atom_site_occupancy
  Hf  Hf0  1  0.131483  0.131701  0.276149  1
  Hf  Hf1  1  0.868463  0.868562  0.723754  1
  Hf  Hf2  1  0.863193  0.136678  0.999950  1
  Hf  Hf3  1  0.138791  0.861099  0.000003  1
  Hf  Hf4  1  0.508737  0.310541  0.804858  1
  Hf  Hf5  1  0.505752  0.701175  0.194961  1
  Hf  Hf6  1  0.689525  0.491363  0.195030  1
  Hf  Hf7  1  0.298880  0.494208  0.804994  1
  Al  Al8  1  0.899122  0.100790  0.499915  1
  Fe  Fe9  1  0.399858  0.907029  0.803784  1
  Fe  Fe10  1  0.092757  0.599962  0.196168  1
  Fe  Fe11  1  0.094658  0.905363  0.500072  1
  Fe  Fe12  1  0.397753  0.601950  0.499864  1
  Fe  Fe13  1  0.610351  0.390172  0.500179  1
  Si  Si14  1  0.471673  0.067221  0.588499  1
  Si  Si15  1  0.440358  0.856946  0.402625  1
  Si  Si16  1  0.933200  0.528902  0.411625  1
  Si  Si17  1  0.142792  0.559326  0.597337  1
  Si  Si18  1  0.750116  0.748543  0.999846  1
  Si  Si19  1  0.251524  0.249956  0.000086  1
  Si  Si20  1  0.324026  0.315572  0.583597  1
  Si  Si21  1  0.684524  0.676031  0.416325  1
  Si  Si22  1  0.710295  0.289424  0.999947  1
  Si  Si23  1  0.290702  0.709650  0.000086  1
  Si  Si24  1  0.020101  0.320683  0.289634  1
  Si  Si25  1  0.010991  0.714071  0.698345  1
  Si  Si26  1  0.679000  0.979334  0.710239  1
  Si  Si27  1  0.285732  0.989095  0.301702  1
  Ni  Ni28  1  0.897150  0.391202  0.785729  1
  Ni  Ni29  1  0.608497  0.103453  0.214696  1
