# generated using pymatgen
data_Ba3ErTl(ReO6)2
_symmetry_space_group_name_H-M   'P 1'
_cell_length_a   10.12216090
_cell_length_b   10.12216079
_cell_length_c   10.12216120
_cell_angle_alpha   33.71642150
_cell_angle_beta   33.71642293
_cell_angle_gamma   33.71641971
_symmetry_Int_Tables_number   1
_chemical_formula_structural   Ba3ErTl(ReO6)2
_chemical_formula_sum   'Ba3 Er1 Tl1 Re2 O12'
_cell_volume   284.70306881
_cell_formula_units_Z   1
loop_
 _symmetry_equiv_pos_site_id
 _symmetry_equiv_pos_as_xyz
  1  'x, y, z'
loop_
 _atom_site_type_symbol
 _atom_site_label
 _atom_site_symmetry_multiplicity
 _atom_site_fract_x
 _atom_site_fract_y
 _atom_site_fract_z
 _atom_site_occupancy
  Ba  Ba0  1  0.291287  0.291287  0.291287  1
  Ba  Ba1  1  0.865685  0.865685  0.865685  1
  Ba  Ba2  1  0.131218  0.131218  0.131218  1
  Er  Er3  1  0.002062  0.002062  0.002062  1
  Tl  Tl4  1  0.712105  0.712105  0.712105  1
  Re  Re5  1  0.579092  0.579092  0.579092  1
  Re  Re6  1  0.421137  0.421137  0.421137  1
  O  O7  1  0.225149  0.685408  0.225149  1
  O  O8  1  0.225149  0.225149  0.685408  1
  O  O9  1  0.685408  0.225149  0.225149  1
  O  O10  1  0.776430  0.307631  0.776430  1
  O  O11  1  0.776430  0.776430  0.307631  1
  O  O12  1  0.307631  0.776430  0.776430  1
  O  O13  1  0.389889  0.856000  0.389889  1
  O  O14  1  0.389889  0.389889  0.856000  1
  O  O15  1  0.856000  0.389889  0.389889  1
  O  O16  1  0.609587  0.146264  0.609587  1
  O  O17  1  0.609587  0.609587  0.146264  1
  O  O18  1  0.146264  0.609587  0.609587  1
