# generated using pymatgen
data_Dy5Y4Lu11Bi12
_symmetry_space_group_name_H-M   'P 1'
_cell_length_a   8.17408022
_cell_length_b   9.40860018
_cell_length_c   11.95669489
_cell_angle_alpha   89.98075539
_cell_angle_beta   90.06149620
_cell_angle_gamma   90.01207096
_symmetry_Int_Tables_number   1
_chemical_formula_structural   Dy5Y4Lu11Bi12
_chemical_formula_sum   'Dy5 Y4 Lu11 Bi12'
_cell_volume   919.54877938
_cell_formula_units_Z   1
loop_
 _symmetry_equiv_pos_site_id
 _symmetry_equiv_pos_as_xyz
  1  'x, y, z'
loop_
 _atom_site_type_symbol
 _atom_site_label
 _atom_site_symmetry_multiplicity
 _atom_site_fract_x
 _atom_site_fract_y
 _atom_site_fract_z
 _atom_site_occupancy
  Dy  Dy0  1  0.186618  0.749968  0.718860  1
  Dy  Dy1  1  0.686923  0.749927  0.781147  1
  Dy  Dy2  1  0.813042  0.249480  0.280846  1
  Dy  Dy3  1  0.313096  0.249857  0.218605  1
  Dy  Dy4  1  0.807942  0.436721  0.558799  1
  Y  Y5  1  0.353481  0.749741  0.216260  1
  Y  Y6  1  0.853150  0.749341  0.283684  1
  Y  Y7  1  0.645542  0.249110  0.784158  1
  Y  Y8  1  0.147076  0.249386  0.716489  1
  Lu  Lu9  1  0.023950  0.749709  0.989348  1
  Lu  Lu10  1  0.523653  0.749874  0.510782  1
  Lu  Lu11  1  0.975977  0.249834  0.010895  1
  Lu  Lu12  1  0.475216  0.249448  0.489051  1
  Lu  Lu13  1  0.306948  0.433345  0.941519  1
  Lu  Lu14  1  0.806902  0.067058  0.558940  1
  Lu  Lu15  1  0.693094  0.933431  0.058545  1
  Lu  Lu16  1  0.192254  0.566696  0.441461  1
  Lu  Lu17  1  0.692891  0.566614  0.058758  1
  Lu  Lu18  1  0.193906  0.933609  0.440829  1
  Lu  Lu19  1  0.306925  0.066508  0.941546  1
  Bi  Bi20  1  0.433858  0.003321  0.672055  1
  Bi  Bi21  1  0.934232  0.495721  0.828425  1
  Bi  Bi22  1  0.566117  0.503430  0.327779  1
  Bi  Bi23  1  0.066163  0.995735  0.171800  1
  Bi  Bi24  1  0.565833  0.995744  0.327997  1
  Bi  Bi25  1  0.066416  0.503741  0.171625  1
  Bi  Bi26  1  0.433281  0.495886  0.672117  1
  Bi  Bi27  1  0.934040  0.003655  0.828500  1
  Bi  Bi28  1  0.404514  0.749942  0.957142  1
  Bi  Bi29  1  0.905846  0.754098  0.542190  1
  Bi  Bi30  1  0.595399  0.250089  0.043026  1
  Bi  Bi31  1  0.095716  0.248983  0.456821  1
