# generated using pymatgen
data_Ac3Ga5MoO14
_symmetry_space_group_name_H-M   'P 1'
_cell_length_a   8.31926887
_cell_length_b   8.32782212
_cell_length_c   5.22697300
_cell_angle_alpha   89.45242963
_cell_angle_beta   90.58583528
_cell_angle_gamma   119.82364174
_symmetry_Int_Tables_number   1
_chemical_formula_structural   Ac3Ga5MoO14
_chemical_formula_sum   'Ac3 Ga5 Mo1 O14'
_cell_volume   314.15072280
_cell_formula_units_Z   1
loop_
 _symmetry_equiv_pos_site_id
 _symmetry_equiv_pos_as_xyz
  1  'x, y, z'
loop_
 _atom_site_type_symbol
 _atom_site_label
 _atom_site_symmetry_multiplicity
 _atom_site_fract_x
 _atom_site_fract_y
 _atom_site_fract_z
 _atom_site_occupancy
  Ac  Ac0  1  0.427076  0.998303  0.994331  1
  Ac  Ac1  1  0.998346  0.426743  0.005610  1
  Ac  Ac2  1  0.571733  0.571645  0.999815  1
  Ga  Ga3  1  0.331408  0.665644  0.473635  1
  Ga  Ga4  1  0.665243  0.331342  0.526273  1
  Ga  Ga5  1  0.756160  0.997156  0.499505  1
  Ga  Ga6  1  0.996726  0.755689  0.500951  1
  Ga  Ga7  1  0.239124  0.239745  0.499463  1
  Mo  Mo8  1  0.005960  0.005678  0.000084  1
  O  O9  1  0.226321  0.088855  0.232791  1
  O  O10  1  0.921309  0.144291  0.255001  1
  O  O11  1  0.859635  0.777514  0.236857  1
  O  O12  1  0.144238  0.920467  0.745702  1
  O  O13  1  0.777289  0.859522  0.763116  1
  O  O14  1  0.088392  0.225559  0.767166  1
  O  O15  1  0.455539  0.302934  0.689683  1
  O  O16  1  0.697025  0.150686  0.692804  1
  O  O17  1  0.845474  0.542277  0.691374  1
  O  O18  1  0.150249  0.696798  0.307154  1
  O  O19  1  0.542354  0.845901  0.308963  1
  O  O20  1  0.302687  0.455991  0.309800  1
  O  O21  1  0.332049  0.665187  0.820441  1
  O  O22  1  0.665460  0.332077  0.179486  1
