# generated using pymatgen
data_NaLiNi12GeP6
_symmetry_space_group_name_H-M   'P 1'
_cell_length_a   9.08968700
_cell_length_b   9.08968514
_cell_length_c   3.55746600
_cell_angle_alpha   90.00000000
_cell_angle_beta   90.00000000
_cell_angle_gamma   120.00000312
_symmetry_Int_Tables_number   1
_chemical_formula_structural   NaLiNi12GeP6
_chemical_formula_sum   'Na1 Li1 Ni12 Ge1 P6'
_cell_volume   254.54768101
_cell_formula_units_Z   1
loop_
 _symmetry_equiv_pos_site_id
 _symmetry_equiv_pos_as_xyz
  1  'x, y, z'
loop_
 _atom_site_type_symbol
 _atom_site_label
 _atom_site_symmetry_multiplicity
 _atom_site_fract_x
 _atom_site_fract_y
 _atom_site_fract_z
 _atom_site_occupancy
  Na  Na0  1  0.000000  0.000000  0.000000  1
  Li  Li1  1  0.333333  0.666667  0.500000  1
  Ni  Ni2  1  0.103350  0.396213  0.000000  1
  Ni  Ni3  1  0.292862  0.896650  0.000000  1
  Ni  Ni4  1  0.603787  0.707138  0.000000  1
  Ni  Ni5  1  0.833035  0.623138  0.000000  1
  Ni  Ni6  1  0.790105  0.166965  0.000000  1
  Ni  Ni7  1  0.376862  0.209895  0.000000  1
  Ni  Ni8  1  0.054532  0.767751  0.500000  1
  Ni  Ni9  1  0.713219  0.945468  0.500000  1
  Ni  Ni10  1  0.232249  0.286781  0.500000  1
  Ni  Ni11  1  0.901424  0.434705  0.500000  1
  Ni  Ni12  1  0.533282  0.098576  0.500000  1
  Ni  Ni13  1  0.565295  0.466718  0.500000  1
  Ge  Ge14  1  0.666667  0.333333  0.000000  1
  P  P15  1  0.084385  0.627606  0.000000  1
  P  P16  1  0.543221  0.915615  0.000000  1
  P  P17  1  0.372394  0.456779  0.000000  1
  P  P18  1  0.781573  0.741480  0.500000  1
  P  P19  1  0.959907  0.218427  0.500000  1
  P  P20  1  0.258520  0.040093  0.500000  1
