# generated using pymatgen
data_YbInNiSn
_symmetry_space_group_name_H-M   'P 1'
_cell_length_a   5.72978301
_cell_length_b   5.72978320
_cell_length_c   7.44474461
_cell_angle_alpha   89.10584268
_cell_angle_beta   90.89415922
_cell_angle_gamma   135.90260894
_symmetry_Int_Tables_number   1
_chemical_formula_structural   YbInNiSn
_chemical_formula_sum   'Yb2 In2 Ni2 Sn2'
_cell_volume   170.05876453
_cell_formula_units_Z   2
loop_
 _symmetry_equiv_pos_site_id
 _symmetry_equiv_pos_as_xyz
  1  'x, y, z'
loop_
 _atom_site_type_symbol
 _atom_site_label
 _atom_site_symmetry_multiplicity
 _atom_site_fract_x
 _atom_site_fract_y
 _atom_site_fract_z
 _atom_site_occupancy
  Yb  Yb0  1  0.063646  0.936354  0.250895  1
  Yb  Yb1  1  0.936354  0.063646  0.749105  1
  In  In2  1  0.648165  0.351835  0.953809  1
  In  In3  1  0.351835  0.648165  0.046191  1
  Ni  Ni4  1  0.213688  0.786312  0.737164  1
  Ni  Ni5  1  0.786312  0.213688  0.262836  1
  Sn  Sn6  1  0.643579  0.356421  0.551788  1
  Sn  Sn7  1  0.356421  0.643579  0.448212  1
