# generated using pymatgen
data_La9Ho(IrOs)2
_symmetry_space_group_name_H-M   'P 1'
_cell_length_a   6.74689055
_cell_length_b   7.38978008
_cell_length_c   9.08039363
_cell_angle_alpha   95.01646264
_cell_angle_beta   111.80869426
_cell_angle_gamma   90.00000357
_symmetry_Int_Tables_number   1
_chemical_formula_structural   La9Ho(IrOs)2
_chemical_formula_sum   'La9 Ho1 Ir2 Os2'
_cell_volume   418.46004388
_cell_formula_units_Z   1
loop_
 _symmetry_equiv_pos_site_id
 _symmetry_equiv_pos_as_xyz
  1  'x, y, z'
loop_
 _atom_site_type_symbol
 _atom_site_label
 _atom_site_symmetry_multiplicity
 _atom_site_fract_x
 _atom_site_fract_y
 _atom_site_fract_z
 _atom_site_occupancy
  La  La0  1  0.975198  0.913486  0.180791  1
  La  La1  1  0.794409  0.586514  0.819209  1
  La  La2  1  0.014323  0.086920  0.819363  1
  La  La3  1  0.194958  0.413080  0.180637  1
  La  La4  1  0.652084  0.819329  0.435548  1
  La  La5  1  0.216536  0.680671  0.564452  1
  La  La6  1  0.358977  0.178685  0.574809  1
  La  La7  1  0.784168  0.321315  0.425191  1
  La  La8  1  0.430390  0.750000  0.000000  1
  Ho  Ho9  1  0.564779  0.250000  0.000000  1
  Ir  Ir10  1  0.182100  0.420888  0.781008  1
  Ir  Ir11  1  0.401091  0.079112  0.218992  1
  Os  Os12  1  0.823135  0.570609  0.215282  1
  Os  Os13  1  0.607853  0.929391  0.784718  1
