# generated using pymatgen
data_Fe4Si2Mo5WC
_symmetry_space_group_name_H-M   'P 1'
_cell_length_a   7.76878478
_cell_length_b   7.76878464
_cell_length_c   7.77311000
_cell_angle_alpha   59.98158076
_cell_angle_beta   59.98158136
_cell_angle_gamma   60.03683896
_symmetry_Int_Tables_number   1
_chemical_formula_structural   Fe4Si2Mo5WC
_chemical_formula_sum   'Fe8 Si4 Mo10 W2 C2'
_cell_volume   331.73074377
_cell_formula_units_Z   2
loop_
 _symmetry_equiv_pos_site_id
 _symmetry_equiv_pos_as_xyz
  1  'x, y, z'
loop_
 _atom_site_type_symbol
 _atom_site_label
 _atom_site_symmetry_multiplicity
 _atom_site_fract_x
 _atom_site_fract_y
 _atom_site_fract_z
 _atom_site_occupancy
  Fe  Fe0  1  0.917817  0.246725  0.917730  1
  Fe  Fe1  1  0.332130  0.003299  0.332285  1
  Fe  Fe2  1  0.332270  0.332270  0.332183  1
  Fe  Fe3  1  0.003299  0.332130  0.332285  1
  Fe  Fe4  1  0.917715  0.917715  0.246701  1
  Fe  Fe5  1  0.246725  0.917817  0.917730  1
  Fe  Fe6  1  0.332270  0.332270  0.003275  1
  Fe  Fe7  1  0.917715  0.917715  0.917870  1
  Si  Si8  1  0.125130  0.125130  0.625070  1
  Si  Si9  1  0.125330  0.624930  0.124870  1
  Si  Si10  1  0.125130  0.125130  0.124670  1
  Si  Si11  1  0.624930  0.125330  0.124870  1
  Mo  Mo12  1  0.303947  0.695623  0.695865  1
  Mo  Mo13  1  0.305059  0.305059  0.694941  1
  Mo  Mo14  1  0.554135  0.945435  0.554377  1
  Mo  Mo15  1  0.945435  0.554135  0.554377  1
  Mo  Mo16  1  0.554135  0.945435  0.946053  1
  Mo  Mo17  1  0.695623  0.303947  0.304565  1
  Mo  Mo18  1  0.945435  0.554135  0.946053  1
  Mo  Mo19  1  0.303947  0.695623  0.304565  1
  Mo  Mo20  1  0.555059  0.555059  0.944941  1
  Mo  Mo21  1  0.695623  0.303947  0.695865  1
  W  W22  1  0.695177  0.695177  0.304823  1
  W  W23  1  0.945177  0.945177  0.554823  1
  C  C24  1  0.750394  0.750394  0.749606  1
  C  C25  1  0.500394  0.500394  0.499606  1
