# generated using pymatgen
data_Li12Gd11Tm(WO6)8
_symmetry_space_group_name_H-M   'P 1'
_cell_length_a   10.77179333
_cell_length_b   10.75939212
_cell_length_c   10.77179304
_cell_angle_alpha   109.49977242
_cell_angle_beta   109.46082359
_cell_angle_gamma   109.49977462
_symmetry_Int_Tables_number   1
_chemical_formula_structural   Li12Gd11Tm(WO6)8
_chemical_formula_sum   'Li12 Gd11 Tm1 W8 O48'
_cell_volume   960.48637102
_cell_formula_units_Z   1
loop_
 _symmetry_equiv_pos_site_id
 _symmetry_equiv_pos_as_xyz
  1  'x, y, z'
loop_
 _atom_site_type_symbol
 _atom_site_label
 _atom_site_symmetry_multiplicity
 _atom_site_fract_x
 _atom_site_fract_y
 _atom_site_fract_z
 _atom_site_occupancy
  Li  Li0  1  0.749199  0.374907  0.124873  1
  Li  Li1  1  0.875033  0.750000  0.125033  1
  Li  Li2  1  0.125708  0.374907  0.250034  1
  Li  Li3  1  0.624903  0.874913  0.249949  1
  Li  Li4  1  0.249966  0.125093  0.374292  1
  Li  Li5  1  0.624111  0.250000  0.374110  1
  Li  Li6  1  0.374967  0.750000  0.624967  1
  Li  Li7  1  0.750010  0.874913  0.624965  1
  Li  Li8  1  0.375127  0.125093  0.750801  1
  Li  Li9  1  0.875036  0.625088  0.749990  1
  Li  Li10  1  0.125890  0.249999  0.875890  1
  Li  Li11  1  0.250051  0.625087  0.875097  1
  Gd  Gd12  1  0.250678  0.876306  0.125355  1
  Gd  Gd13  1  0.875070  0.125112  0.250129  1
  Gd  Gd14  1  0.374645  0.623695  0.249321  1
  Gd  Gd15  1  0.125000  0.750000  0.375000  1
  Gd  Gd16  1  0.749049  0.623694  0.374373  1
  Gd  Gd17  1  0.875000  0.250000  0.625000  1
  Gd  Gd18  1  0.249870  0.374888  0.624931  1
  Gd  Gd19  1  0.625019  0.374888  0.749958  1
  Gd  Gd20  1  0.125627  0.876306  0.750951  1
  Gd  Gd21  1  0.750042  0.125112  0.874981  1
  Gd  Gd22  1  0.625001  0.750000  0.875000  1
  Tm  Tm23  1  0.375000  0.250000  0.125000  1
  W  W24  1  0.002004  0.001851  0.001196  1
  W  W25  1  0.499847  0.001851  0.000655  1
  W  W26  1  0.000226  0.500172  0.000160  1
  W  W27  1  0.499345  0.498149  0.000153  1
  W  W28  1  0.499840  0.999828  0.499774  1
  W  W29  1  0.999946  0.500172  0.500012  1
  W  W30  1  0.999988  0.999828  0.500054  1
  W  W31  1  0.498804  0.498149  0.497996  1
  O  O32  1  0.199286  0.617370  0.025826  1
  O  O33  1  0.327713  0.404909  0.027982  1
  O  O34  1  0.699622  0.173819  0.081782  1
  O  O35  1  0.883669  0.908784  0.081868  1
  O  O36  1  0.974198  0.173819  0.092037  1
  O  O37  1  0.616819  0.919533  0.092316  1
  O  O38  1  0.026000  0.699380  0.117627  1
  O  O39  1  0.589187  0.415397  0.117787  1
  O  O40  1  0.202390  0.084603  0.173788  1
  O  O41  1  0.472018  0.095092  0.172287  1
  O  O42  1  0.117686  0.525740  0.199107  1
  O  O43  1  0.581248  0.672718  0.198727  1
  O  O44  1  0.326210  0.415396  0.297610  1
  O  O45  1  0.474174  0.882630  0.300714  1
  O  O46  1  0.918247  0.800620  0.326619  1
  O  O47  1  0.908055  0.525741  0.326634  1
  O  O48  1  0.577196  0.404908  0.376927  1
  O  O49  1  0.300894  0.974260  0.382315  1
  O  O50  1  0.826805  0.025767  0.408254  1
  O  O51  1  0.081548  0.382434  0.408149  1
  O  O52  1  0.826429  0.300634  0.418279  1
  O  O53  1  0.091852  0.117566  0.418451  1
  O  O54  1  0.382373  0.800620  0.474000  1
  O  O55  1  0.591471  0.672718  0.473991  1
  O  O56  1  0.407963  0.326180  0.525802  1
  O  O57  1  0.617645  0.199366  0.525795  1
  O  O58  1  0.173379  0.699380  0.581753  1
  O  O59  1  0.908455  0.882630  0.581915  1
  O  O60  1  0.918085  0.617370  0.591545  1
  O  O61  1  0.173366  0.974260  0.591945  1
  O  O62  1  0.418131  0.591216  0.616330  1
  O  O63  1  0.698962  0.025767  0.617514  1
  O  O64  1  0.081720  0.199366  0.673571  1
  O  O65  1  0.091746  0.474233  0.673195  1
  O  O66  1  0.672783  0.580467  0.697286  1
  O  O67  1  0.525713  0.117566  0.699114  1
  O  O68  1  0.418218  0.326181  0.800378  1
  O  O69  1  0.882487  0.474233  0.801038  1
  O  O70  1  0.525113  0.908784  0.826915  1
  O  O71  1  0.802714  0.919533  0.827217  1
  O  O72  1  0.974205  0.300634  0.882354  1
  O  O73  1  0.407685  0.580468  0.883182  1
  O  O74  1  0.026009  0.827282  0.908529  1
  O  O75  1  0.382214  0.084603  0.910813  1
  O  O76  1  0.123073  0.095092  0.922804  1
  O  O77  1  0.301273  0.827282  0.918753  1
  O  O78  1  0.800886  0.382434  0.974288  1
  O  O79  1  0.673085  0.591216  0.974887  1
