# generated using pymatgen
data_DyY2Zr(NiP)4
_symmetry_space_group_name_H-M   'P 1'
_cell_length_a   3.88480000
_cell_length_b   3.88479958
_cell_length_c   15.13734900
_cell_angle_alpha   90.00000000
_cell_angle_beta   90.00000000
_cell_angle_gamma   120.00000360
_symmetry_Int_Tables_number   1
_chemical_formula_structural   DyY2Zr(NiP)4
_chemical_formula_sum   'Dy1 Y2 Zr1 Ni4 P4'
_cell_volume   197.84164877
_cell_formula_units_Z   1
loop_
 _symmetry_equiv_pos_site_id
 _symmetry_equiv_pos_as_xyz
  1  'x, y, z'
loop_
 _atom_site_type_symbol
 _atom_site_label
 _atom_site_symmetry_multiplicity
 _atom_site_fract_x
 _atom_site_fract_y
 _atom_site_fract_z
 _atom_site_occupancy
  Dy  Dy0  1  0.000000  0.000000  0.750000  1
  Y  Y1  1  0.000000  0.000000  0.493883  1
  Y  Y2  1  0.000000  0.000000  0.006117  1
  Zr  Zr3  1  0.000000  0.000000  0.250000  1
  Ni  Ni4  1  0.333333  0.666667  0.348896  1
  Ni  Ni5  1  0.666667  0.333333  0.624923  1
  Ni  Ni6  1  0.666667  0.333333  0.875077  1
  Ni  Ni7  1  0.333333  0.666667  0.151104  1
  P  P8  1  0.333333  0.666667  0.879826  1
  P  P9  1  0.666667  0.333333  0.127739  1
  P  P10  1  0.666667  0.333333  0.372261  1
  P  P11  1  0.333333  0.666667  0.620174  1
