# generated using pymatgen
data_TbDyGa9NiIr2
_symmetry_space_group_name_H-M   'P 1'
_cell_length_a   7.56095752
_cell_length_b   7.56025452
_cell_length_c   9.45326200
_cell_angle_alpha   90.00000000
_cell_angle_beta   90.00000000
_cell_angle_gamma   120.06562092
_symmetry_Int_Tables_number   1
_chemical_formula_structural   TbDyGa9NiIr2
_chemical_formula_sum   'Tb2 Dy2 Ga18 Ni2 Ir4'
_cell_volume   467.66835951
_cell_formula_units_Z   2
loop_
 _symmetry_equiv_pos_site_id
 _symmetry_equiv_pos_as_xyz
  1  'x, y, z'
loop_
 _atom_site_type_symbol
 _atom_site_label
 _atom_site_symmetry_multiplicity
 _atom_site_fract_x
 _atom_site_fract_y
 _atom_site_fract_z
 _atom_site_occupancy
  Tb  Tb0  1  0.996786  0.660936  0.250000  1
  Tb  Tb1  1  0.003214  0.339064  0.750000  1
  Dy  Dy2  1  0.660829  0.996795  0.250000  1
  Dy  Dy3  1  0.339171  0.003205  0.750000  1
  Ga  Ga4  1  0.110289  0.110371  0.250000  1
  Ga  Ga5  1  0.889711  0.889629  0.750000  1
  Ga  Ga6  1  0.999320  0.327527  0.078534  1
  Ga  Ga7  1  0.000680  0.672473  0.921466  1
  Ga  Ga8  1  0.000680  0.672473  0.578534  1
  Ga  Ga9  1  0.327832  0.999460  0.421571  1
  Ga  Ga10  1  0.999320  0.327527  0.421466  1
  Ga  Ga11  1  0.672168  0.000540  0.578429  1
  Ga  Ga12  1  0.672168  0.000540  0.921571  1
  Ga  Ga13  1  0.327832  0.999460  0.078429  1
  Ga  Ga14  1  0.327008  0.326893  0.564879  1
  Ga  Ga15  1  0.672992  0.673107  0.435121  1
  Ga  Ga16  1  0.672992  0.673107  0.064879  1
  Ga  Ga17  1  0.327008  0.326893  0.935121  1
  Ga  Ga18  1  0.338139  0.540873  0.250000  1
  Ga  Ga19  1  0.661861  0.459127  0.750000  1
  Ga  Ga20  1  0.540799  0.337991  0.250000  1
  Ga  Ga21  1  0.459201  0.662009  0.750000  1
  Ni  Ni22  1  0.000000  0.000000  0.000000  1
  Ni  Ni23  1  0.000000  0.000000  0.500000  1
  Ir  Ir24  1  0.671484  0.328362  0.999993  1
  Ir  Ir25  1  0.328516  0.671638  0.000007  1
  Ir  Ir26  1  0.328516  0.671638  0.499993  1
  Ir  Ir27  1  0.671484  0.328362  0.500007  1
