# generated using pymatgen
data_Dy3Ho2Tm3(P3Ir4)4
_symmetry_space_group_name_H-M   'P 1'
_cell_length_a   12.94810000
_cell_length_b   12.94901148
_cell_length_c   3.99288500
_cell_angle_alpha   90.00000000
_cell_angle_beta   90.00000000
_cell_angle_gamma   119.99767156
_symmetry_Int_Tables_number   1
_chemical_formula_structural   Dy3Ho2Tm3(P3Ir4)4
_chemical_formula_sum   'Dy3 Ho2 Tm3 P12 Ir16'
_cell_volume   579.78941697
_cell_formula_units_Z   1
loop_
 _symmetry_equiv_pos_site_id
 _symmetry_equiv_pos_as_xyz
  1  'x, y, z'
loop_
 _atom_site_type_symbol
 _atom_site_label
 _atom_site_symmetry_multiplicity
 _atom_site_fract_x
 _atom_site_fract_y
 _atom_site_fract_z
 _atom_site_occupancy
  Dy  Dy0  1  0.333331  0.666667  0.500000  1
  Dy  Dy1  1  0.666665  0.333333  0.500000  1
  Dy  Dy2  1  0.814322  0.000000  0.000000  1
  Ho  Ho3  1  0.000000  0.814282  0.000000  1
  Ho  Ho4  1  0.185717  0.185718  0.000000  1
  Tm  Tm5  1  0.999999  0.446154  0.500000  1
  Tm  Tm6  1  0.553845  0.553846  0.500000  1
  Tm  Tm7  1  0.446093  0.000000  0.500000  1
  P  P8  1  0.000000  0.652106  0.500000  1
  P  P9  1  0.347894  0.347894  0.500000  1
  P  P10  1  0.651950  0.000000  0.500000  1
  P  P11  1  0.516817  0.688301  0.000000  1
  P  P12  1  0.311675  0.828482  0.000000  1
  P  P13  1  0.171499  0.483210  0.000000  1
  P  P14  1  0.483193  0.171518  0.000000  1
  P  P15  1  0.688289  0.516790  0.000000  1
  P  P16  1  0.828517  0.311699  0.000000  1
  P  P17  1  0.000073  0.176491  0.500000  1
  P  P18  1  0.823582  0.823509  0.500000  1
  P  P19  1  0.176416  0.000000  0.500000  1
  Ir  Ir20  1  0.509358  0.866097  0.000000  1
  Ir  Ir21  1  0.133903  0.643275  0.000000  1
  Ir  Ir22  1  0.356730  0.490631  0.000000  1
  Ir  Ir23  1  0.490628  0.356725  0.000000  1
  Ir  Ir24  1  0.866099  0.509369  0.000000  1
  Ir  Ir25  1  0.643261  0.133903  0.000000  1
  Ir  Ir26  1  0.000113  0.275151  0.000000  1
  Ir  Ir27  1  0.724962  0.724849  0.000000  1
  Ir  Ir28  1  0.274991  0.000000  0.000000  1
  Ir  Ir29  1  0.630017  0.808843  0.500000  1
  Ir  Ir30  1  0.190926  0.821148  0.500000  1
  Ir  Ir31  1  0.178875  0.369780  0.500000  1
  Ir  Ir32  1  0.369779  0.178852  0.500000  1
  Ir  Ir33  1  0.809094  0.630220  0.500000  1
  Ir  Ir34  1  0.821174  0.191157  0.500000  1
  Ir  Ir35  1  0.000213  0.000000  0.500000  1
