# generated using pymatgen
data_Tb3Y3(GaC3)2
_symmetry_space_group_name_H-M   'P 1'
_cell_length_a   3.59202100
_cell_length_b   7.09885255
_cell_length_c   9.90445506
_cell_angle_alpha   89.91018719
_cell_angle_beta   90.00000000
_cell_angle_gamma   90.00000000
_symmetry_Int_Tables_number   1
_chemical_formula_structural   Tb3Y3(GaC3)2
_chemical_formula_sum   'Tb3 Y3 Ga2 C6'
_cell_volume   252.55564173
_cell_formula_units_Z   1
loop_
 _symmetry_equiv_pos_site_id
 _symmetry_equiv_pos_as_xyz
  1  'x, y, z'
loop_
 _atom_site_type_symbol
 _atom_site_label
 _atom_site_symmetry_multiplicity
 _atom_site_fract_x
 _atom_site_fract_y
 _atom_site_fract_z
 _atom_site_occupancy
  Tb  Tb0  1  0.500000  0.511160  0.196164  1
  Tb  Tb1  1  0.000000  0.750240  0.458725  1
  Tb  Tb2  1  0.000000  0.250375  0.541693  1
  Y  Y3  1  0.500000  0.488178  0.803981  1
  Y  Y4  1  0.500000  0.988985  0.196188  1
  Y  Y5  1  0.500000  0.010986  0.803481  1
  Ga  Ga6  1  0.000000  0.751160  0.000573  1
  Ga  Ga7  1  0.000000  0.248194  0.998814  1
  C  C8  1  0.500000  0.509354  0.567121  1
  C  C9  1  0.500000  0.491576  0.433929  1
  C  C10  1  0.500000  0.991334  0.566359  1
  C  C11  1  0.500000  0.009262  0.433298  1
  C  C12  1  0.000000  0.749624  0.208319  1
  C  C13  1  0.000000  0.249572  0.791355  1
