# generated using pymatgen
data_HfZr3Nb4Si3P
_symmetry_space_group_name_H-M   'P 1'
_cell_length_a   3.62725500
_cell_length_b   7.00435696
_cell_length_c   8.45578144
_cell_angle_alpha   89.82780299
_cell_angle_beta   90.00000000
_cell_angle_gamma   90.00000000
_symmetry_Int_Tables_number   1
_chemical_formula_structural   HfZr3Nb4Si3P
_chemical_formula_sum   'Hf1 Zr3 Nb4 Si3 P1'
_cell_volume   214.83159190
_cell_formula_units_Z   1
loop_
 _symmetry_equiv_pos_site_id
 _symmetry_equiv_pos_as_xyz
  1  'x, y, z'
loop_
 _atom_site_type_symbol
 _atom_site_label
 _atom_site_symmetry_multiplicity
 _atom_site_fract_x
 _atom_site_fract_y
 _atom_site_fract_z
 _atom_site_occupancy
  Hf  Hf0  1  0.750000  0.956613  0.334597  1
  Zr  Zr1  1  0.250000  0.043193  0.668003  1
  Zr  Zr2  1  0.250000  0.538522  0.833765  1
  Zr  Zr3  1  0.750000  0.459452  0.167701  1
  Nb  Nb4  1  0.750000  0.868834  0.940634  1
  Nb  Nb5  1  0.250000  0.631765  0.440313  1
  Nb  Nb6  1  0.750000  0.365121  0.560926  1
  Nb  Nb7  1  0.250000  0.136494  0.055747  1
  Si  Si8  1  0.250000  0.253509  0.358446  1
  Si  Si9  1  0.250000  0.759416  0.141422  1
  Si  Si10  1  0.750000  0.743874  0.640558  1
  P  P11  1  0.750000  0.243208  0.857886  1
