# generated using pymatgen
data_Zr3ScGe6Ir7
_symmetry_space_group_name_H-M   'P 1'
_cell_length_a   7.12744461
_cell_length_b   7.12744454
_cell_length_c   7.12744400
_cell_angle_alpha   109.41861728
_cell_angle_beta   109.41862168
_cell_angle_gamma   109.41862238
_symmetry_Int_Tables_number   1
_chemical_formula_structural   Zr3ScGe6Ir7
_chemical_formula_sum   'Zr3 Sc1 Ge6 Ir7'
_cell_volume   279.26886684
_cell_formula_units_Z   1
loop_
 _symmetry_equiv_pos_site_id
 _symmetry_equiv_pos_as_xyz
  1  'x, y, z'
loop_
 _atom_site_type_symbol
 _atom_site_label
 _atom_site_symmetry_multiplicity
 _atom_site_fract_x
 _atom_site_fract_y
 _atom_site_fract_z
 _atom_site_occupancy
  Zr  Zr0  1  0.000000  0.000000  0.500000  1
  Zr  Zr1  1  0.000000  0.500000  0.000000  1
  Zr  Zr2  1  0.500000  0.000000  0.000000  1
  Sc  Sc3  1  0.500000  0.500000  0.500000  1
  Ge  Ge4  1  0.002041  0.315295  0.315295  1
  Ge  Ge5  1  0.997959  0.684705  0.684705  1
  Ge  Ge6  1  0.315295  0.002041  0.315295  1
  Ge  Ge7  1  0.684705  0.997959  0.684705  1
  Ge  Ge8  1  0.315295  0.315295  0.002041  1
  Ge  Ge9  1  0.684705  0.684705  0.997959  1
  Ir  Ir10  1  0.500000  0.750291  0.249709  1
  Ir  Ir11  1  0.500000  0.249709  0.750291  1
  Ir  Ir12  1  0.249709  0.500000  0.750291  1
  Ir  Ir13  1  0.750291  0.500000  0.249709  1
  Ir  Ir14  1  0.750291  0.249709  0.500000  1
  Ir  Ir15  1  0.249709  0.750291  0.500000  1
  Ir  Ir16  1  0.000000  0.000000  0.000000  1
