# generated using pymatgen
data_Na16CrFe7P8(O4F)8
_symmetry_space_group_name_H-M   'P 1'
_cell_length_a   5.28099600
_cell_length_b   11.95417000
_cell_length_c   14.04166800
_cell_angle_alpha   90.00000000
_cell_angle_beta   90.00000000
_cell_angle_gamma   90.00000000
_symmetry_Int_Tables_number   1
_chemical_formula_structural   Na16CrFe7P8(O4F)8
_chemical_formula_sum   'Na16 Cr1 Fe7 P8 O32 F8'
_cell_volume   886.44943302
_cell_formula_units_Z   1
loop_
 _symmetry_equiv_pos_site_id
 _symmetry_equiv_pos_as_xyz
  1  'x, y, z'
loop_
 _atom_site_type_symbol
 _atom_site_label
 _atom_site_symmetry_multiplicity
 _atom_site_fract_x
 _atom_site_fract_y
 _atom_site_fract_z
 _atom_site_occupancy
  Na  Na0  1  0.268856  0.327762  0.754261  1
  Na  Na1  1  0.235295  0.828541  0.744926  1
  Na  Na2  1  0.765820  0.672095  0.744303  1
  Na  Na3  1  0.735582  0.171536  0.754967  1
  Na  Na4  1  0.734932  0.671312  0.245450  1
  Na  Na5  1  0.764971  0.172015  0.255414  1
  Na  Na6  1  0.232799  0.328373  0.255527  1
  Na  Na7  1  0.264711  0.828156  0.245248  1
  Na  Na8  1  0.240313  0.083675  0.875219  1
  Na  Na9  1  0.262735  0.583742  0.624540  1
  Na  Na10  1  0.738300  0.916478  0.624743  1
  Na  Na11  1  0.758519  0.416237  0.874889  1
  Na  Na12  1  0.761546  0.916331  0.124909  1
  Na  Na13  1  0.737135  0.416146  0.375157  1
  Na  Na14  1  0.262030  0.083382  0.375660  1
  Na  Na15  1  0.236474  0.583589  0.125277  1
  Cr  Cr16  1  0.228588  0.327203  0.989515  1
  Fe  Fe17  1  0.270656  0.826113  0.509600  1
  Fe  Fe18  1  0.727552  0.674060  0.509400  1
  Fe  Fe19  1  0.769114  0.173759  0.989841  1
  Fe  Fe20  1  0.772722  0.674193  0.010093  1
  Fe  Fe21  1  0.729272  0.173585  0.490574  1
  Fe  Fe22  1  0.271177  0.326253  0.490535  1
  Fe  Fe23  1  0.227152  0.826027  0.009597  1
  P  P24  1  0.203595  0.086950  0.619169  1
  P  P25  1  0.298908  0.587970  0.880895  1
  P  P26  1  0.705502  0.912641  0.880534  1
  P  P27  1  0.796763  0.413041  0.619078  1
  P  P28  1  0.795576  0.912732  0.380572  1
  P  P29  1  0.693972  0.413014  0.119635  1
  P  P30  1  0.296767  0.087296  0.120304  1
  P  P31  1  0.203545  0.587090  0.380871  1
  O  O32  1  0.269193  0.960399  0.613259  1
  O  O33  1  0.240367  0.460431  0.888267  1
  O  O34  1  0.773863  0.038815  0.886900  1
  O  O35  1  0.731791  0.539654  0.612775  1
  O  O36  1  0.732392  0.039443  0.386832  1
  O  O37  1  0.764291  0.539297  0.112981  1
  O  O38  1  0.229035  0.961074  0.112858  1
  O  O39  1  0.268407  0.460549  0.387150  1
  O  O40  1  0.282351  0.134505  0.716328  1
  O  O41  1  0.214184  0.633410  0.783694  1
  O  O42  1  0.785522  0.865154  0.783395  1
  O  O43  1  0.717448  0.365875  0.716400  1
  O  O44  1  0.713567  0.865409  0.283599  1
  O  O45  1  0.779189  0.365518  0.216260  1
  O  O46  1  0.215876  0.133962  0.217527  1
  O  O47  1  0.284061  0.634508  0.283794  1
  O  O48  1  0.908327  0.101539  0.604938  1
  O  O49  1  0.593340  0.604720  0.893591  1
  O  O50  1  0.410186  0.897934  0.894374  1
  O  O51  1  0.092004  0.398363  0.605022  1
  O  O52  1  0.090642  0.897090  0.394092  1
  O  O53  1  0.397373  0.400118  0.108214  1
  O  O54  1  0.591711  0.101321  0.106303  1
  O  O55  1  0.908242  0.601728  0.394926  1
  O  O56  1  0.338123  0.150916  0.536132  1
  O  O57  1  0.161943  0.650787  0.963867  1
  O  O58  1  0.839640  0.848595  0.963753  1
  O  O59  1  0.662161  0.348864  0.536239  1
  O  O60  1  0.660655  0.849175  0.463920  1
  O  O61  1  0.816155  0.348056  0.035080  1
  O  O62  1  0.163357  0.153540  0.037686  1
  O  O63  1  0.337572  0.651148  0.464008  1
  F  F64  1  0.017322  0.253935  0.879655  1
  F  F65  1  0.500284  0.750250  0.622819  1
  F  F66  1  0.999468  0.749713  0.123756  1
  F  F67  1  0.500048  0.249765  0.378289  1
  F  F68  1  0.519455  0.242181  0.890542  1
  F  F69  1  0.000533  0.750561  0.601039  1
  F  F70  1  0.499085  0.750433  0.100419  1
  F  F71  1  0.999957  0.249970  0.398614  1
