# generated using pymatgen
data_Dy4ReOs7
_symmetry_space_group_name_H-M   'P 1'
_cell_length_a   5.28781286
_cell_length_b   5.28781362
_cell_length_c   8.85060600
_cell_angle_alpha   90.00000000
_cell_angle_beta   90.00000000
_cell_angle_gamma   118.23974979
_symmetry_Int_Tables_number   1
_chemical_formula_structural   Dy4ReOs7
_chemical_formula_sum   'Dy4 Re1 Os7'
_cell_volume   218.01632074
_cell_formula_units_Z   1
loop_
 _symmetry_equiv_pos_site_id
 _symmetry_equiv_pos_as_xyz
  1  'x, y, z'
loop_
 _atom_site_type_symbol
 _atom_site_label
 _atom_site_symmetry_multiplicity
 _atom_site_fract_x
 _atom_site_fract_y
 _atom_site_fract_z
 _atom_site_occupancy
  Dy  Dy0  1  0.331283  0.668717  0.435688  1
  Dy  Dy1  1  0.666523  0.333477  0.565957  1
  Dy  Dy2  1  0.666523  0.333477  0.934043  1
  Dy  Dy3  1  0.331283  0.668717  0.064312  1
  Re  Re4  1  0.833245  0.166755  0.250000  1
  Os  Os5  1  0.993866  0.006134  0.499883  1
  Os  Os6  1  0.993866  0.006134  0.000117  1
  Os  Os7  1  0.828528  0.650756  0.250000  1
  Os  Os8  1  0.349244  0.171472  0.250000  1
  Os  Os9  1  0.174731  0.825269  0.750000  1
  Os  Os10  1  0.171878  0.340970  0.750000  1
  Os  Os11  1  0.659030  0.828122  0.750000  1
