# generated using pymatgen
data_Zr3Zn3CuPt2
_symmetry_space_group_name_H-M   'P 1'
_cell_length_a   7.19495300
_cell_length_b   7.19495182
_cell_length_c   3.49236100
_cell_angle_alpha   90.00000000
_cell_angle_beta   90.00000000
_cell_angle_gamma   120.00000084
_symmetry_Int_Tables_number   1
_chemical_formula_structural   Zr3Zn3CuPt2
_chemical_formula_sum   'Zr3 Zn3 Cu1 Pt2'
_cell_volume   156.56893915
_cell_formula_units_Z   1
loop_
 _symmetry_equiv_pos_site_id
 _symmetry_equiv_pos_as_xyz
  1  'x, y, z'
loop_
 _atom_site_type_symbol
 _atom_site_label
 _atom_site_symmetry_multiplicity
 _atom_site_fract_x
 _atom_site_fract_y
 _atom_site_fract_z
 _atom_site_occupancy
  Zr  Zr0  1  0.405575  0.000000  0.500000  1
  Zr  Zr1  1  0.000000  0.405575  0.500000  1
  Zr  Zr2  1  0.594424  0.594424  0.500000  1
  Zn  Zn3  1  0.747419  0.000000  0.000000  1
  Zn  Zn4  1  0.252580  0.252580  0.000000  1
  Zn  Zn5  1  0.000000  0.747420  0.000000  1
  Cu  Cu6  1  0.000000  0.000000  0.500000  1
  Pt  Pt7  1  0.666666  0.333333  0.000000  1
  Pt  Pt8  1  0.333333  0.666666  0.000000  1
