# generated using pymatgen
data_Y2Si4Tc5Mo3
_symmetry_space_group_name_H-M   'P 1'
_cell_length_a   7.85917738
_cell_length_b   6.93142016
_cell_length_c   4.24224400
_cell_angle_alpha   90.00000000
_cell_angle_beta   90.00000000
_cell_angle_gamma   89.93281499
_symmetry_Int_Tables_number   1
_chemical_formula_structural   Y2Si4Tc5Mo3
_chemical_formula_sum   'Y2 Si4 Tc5 Mo3'
_cell_volume   231.09718846
_cell_formula_units_Z   1
loop_
 _symmetry_equiv_pos_site_id
 _symmetry_equiv_pos_as_xyz
  1  'x, y, z'
loop_
 _atom_site_type_symbol
 _atom_site_label
 _atom_site_symmetry_multiplicity
 _atom_site_fract_x
 _atom_site_fract_y
 _atom_site_fract_z
 _atom_site_occupancy
  Y  Y0  1  0.501387  0.499888  0.000000  1
  Y  Y1  1  0.000008  0.001394  0.500000  1
  Si  Si2  1  0.689114  0.730573  0.500000  1
  Si  Si3  1  0.313092  0.269249  0.500000  1
  Si  Si4  1  0.185085  0.766724  0.000000  1
  Si  Si5  1  0.812265  0.232163  0.000000  1
  Tc  Tc6  1  0.886436  0.652792  0.000000  1
  Tc  Tc7  1  0.155888  0.579036  0.500000  1
  Tc  Tc8  1  0.839950  0.421075  0.500000  1
  Tc  Tc9  1  0.338948  0.078085  0.000000  1
  Tc  Tc10  1  0.662911  0.919713  0.000000  1
  Mo  Mo11  1  0.615794  0.148714  0.500000  1
  Mo  Mo12  1  0.385189  0.849547  0.500000  1
  Mo  Mo13  1  0.113934  0.351048  0.000000  1
