# generated using pymatgen
data_Lu3PaAl18PtRh5
_symmetry_space_group_name_H-M   'P 1'
_cell_length_a   7.56253097
_cell_length_b   7.55702005
_cell_length_c   9.36646205
_cell_angle_alpha   90.00503599
_cell_angle_beta   89.98812218
_cell_angle_gamma   119.49028758
_symmetry_Int_Tables_number   1
_chemical_formula_structural   Lu3PaAl18PtRh5
_chemical_formula_sum   'Lu3 Pa1 Al18 Pt1 Rh5'
_cell_volume   465.94185931
_cell_formula_units_Z   1
loop_
 _symmetry_equiv_pos_site_id
 _symmetry_equiv_pos_as_xyz
  1  'x, y, z'
loop_
 _atom_site_type_symbol
 _atom_site_label
 _atom_site_symmetry_multiplicity
 _atom_site_fract_x
 _atom_site_fract_y
 _atom_site_fract_z
 _atom_site_occupancy
  Lu  Lu0  1  0.004954  0.327094  0.749717  1
  Lu  Lu1  1  0.673991  0.993342  0.250188  1
  Lu  Lu2  1  0.328020  0.005117  0.749589  1
  Pa  Pa3  1  0.996697  0.673973  0.250960  1
  Al  Al4  1  0.133457  0.131689  0.250101  1
  Al  Al5  1  0.873479  0.875060  0.749657  1
  Al  Al6  1  0.002894  0.333001  0.075677  1
  Al  Al7  1  0.003608  0.667361  0.918927  1
  Al  Al8  1  0.000414  0.663566  0.580499  1
  Al  Al9  1  0.340274  0.003129  0.425287  1
  Al  Al10  1  0.999531  0.332626  0.425365  1
  Al  Al11  1  0.664455  0.000987  0.577148  1
  Al  Al12  1  0.664418  0.997421  0.921885  1
  Al  Al13  1  0.336234  0.999908  0.075605  1
  Al  Al14  1  0.330657  0.330991  0.556604  1
  Al  Al15  1  0.663749  0.666224  0.450800  1
  Al  Al16  1  0.663453  0.669059  0.050782  1
  Al  Al17  1  0.327970  0.331607  0.942010  1
  Al  Al18  1  0.340686  0.549755  0.250118  1
  Al  Al19  1  0.658166  0.448639  0.746783  1
  Al  Al20  1  0.548560  0.343080  0.252969  1
  Al  Al21  1  0.447331  0.660385  0.749609  1
  Pt  Pt22  1  0.673320  0.328267  0.000638  1
  Rh  Rh23  1  0.325926  0.672387  0.001495  1
  Rh  Rh24  1  0.326004  0.672188  0.498463  1
  Rh  Rh25  1  0.672945  0.328451  0.499146  1
  Rh  Rh26  1  0.999377  0.997330  0.002312  1
  Rh  Rh27  1  0.999433  0.997362  0.497667  1
