# generated using pymatgen
data_Tm2PaIn3IrRh2
_symmetry_space_group_name_H-M   'P 1'
_cell_length_a   7.51531732
_cell_length_b   7.79868112
_cell_length_c   3.79875900
_cell_angle_alpha   90.00000000
_cell_angle_beta   90.00000000
_cell_angle_gamma   120.88421530
_symmetry_Int_Tables_number   1
_chemical_formula_structural   Tm2PaIn3IrRh2
_chemical_formula_sum   'Tm2 Pa1 In3 Ir1 Rh2'
_cell_volume   191.07415675
_cell_formula_units_Z   1
loop_
 _symmetry_equiv_pos_site_id
 _symmetry_equiv_pos_as_xyz
  1  'x, y, z'
loop_
 _atom_site_type_symbol
 _atom_site_label
 _atom_site_symmetry_multiplicity
 _atom_site_fract_x
 _atom_site_fract_y
 _atom_site_fract_z
 _atom_site_occupancy
  Tm  Tm0  1  0.594126  0.598775  0.500000  1
  Tm  Tm1  1  0.399876  0.991287  0.500000  1
  Pa  Pa2  1  0.999705  0.418087  0.500000  1
  In  In3  1  0.274468  0.259039  0.000000  1
  In  In4  1  0.996529  0.755212  0.000000  1
  In  In5  1  0.729092  0.988322  0.000000  1
  Ir  Ir6  1  0.302969  0.639523  0.000000  1
  Rh  Rh7  1  0.001670  0.012627  0.500000  1
  Rh  Rh8  1  0.701564  0.337126  0.000000  1
