# generated using pymatgen
data_Yb4Th4GaPd24
_symmetry_space_group_name_H-M   'P 1'
_cell_length_a   8.40045700
_cell_length_b   8.40045700
_cell_length_c   8.40045700
_cell_angle_alpha   90.00000000
_cell_angle_beta   90.00000000
_cell_angle_gamma   90.00000000
_symmetry_Int_Tables_number   1
_chemical_formula_structural   Yb4Th4GaPd24
_chemical_formula_sum   'Yb4 Th4 Ga1 Pd24'
_cell_volume   592.80074302
_cell_formula_units_Z   1
loop_
 _symmetry_equiv_pos_site_id
 _symmetry_equiv_pos_as_xyz
  1  'x, y, z'
loop_
 _atom_site_type_symbol
 _atom_site_label
 _atom_site_symmetry_multiplicity
 _atom_site_fract_x
 _atom_site_fract_y
 _atom_site_fract_z
 _atom_site_occupancy
  Yb  Yb0  1  0.748386  0.748386  0.251614  1
  Yb  Yb1  1  0.748386  0.251614  0.748386  1
  Yb  Yb2  1  0.251614  0.748386  0.748386  1
  Yb  Yb3  1  0.251614  0.251614  0.251614  1
  Th  Th4  1  0.252852  0.252852  0.747148  1
  Th  Th5  1  0.252852  0.747148  0.252852  1
  Th  Th6  1  0.747148  0.252852  0.252852  1
  Th  Th7  1  0.747148  0.747148  0.747148  1
  Ga  Ga8  1  0.000000  0.000000  0.000000  1
  Pd  Pd9  1  0.500000  0.500000  0.746354  1
  Pd  Pd10  1  0.500000  0.253646  0.500000  1
  Pd  Pd11  1  0.253646  0.500000  0.500000  1
  Pd  Pd12  1  0.500000  0.500000  0.253646  1
  Pd  Pd13  1  0.500000  0.746354  0.500000  1
  Pd  Pd14  1  0.746354  0.500000  0.500000  1
  Pd  Pd15  1  0.000000  0.000000  0.707202  1
  Pd  Pd16  1  0.000000  0.292798  0.000000  1
  Pd  Pd17  1  0.292798  0.000000  0.000000  1
  Pd  Pd18  1  0.000000  0.000000  0.292798  1
  Pd  Pd19  1  0.000000  0.707202  0.000000  1
  Pd  Pd20  1  0.707202  0.000000  0.000000  1
  Pd  Pd21  1  0.000000  0.500000  0.739177  1
  Pd  Pd22  1  0.500000  0.260823  0.000000  1
  Pd  Pd23  1  0.260823  0.000000  0.500000  1
  Pd  Pd24  1  0.000000  0.260823  0.500000  1
  Pd  Pd25  1  0.500000  0.000000  0.739177  1
  Pd  Pd26  1  0.260823  0.500000  0.000000  1
  Pd  Pd27  1  0.000000  0.500000  0.260823  1
  Pd  Pd28  1  0.500000  0.739177  0.000000  1
  Pd  Pd29  1  0.000000  0.739177  0.500000  1
  Pd  Pd30  1  0.500000  0.000000  0.260823  1
  Pd  Pd31  1  0.739177  0.000000  0.500000  1
  Pd  Pd32  1  0.739177  0.500000  0.000000  1
