# generated using pymatgen
data_Sc4AlFe3B16
_symmetry_space_group_name_H-M   'P 1'
_cell_length_a   5.77850529
_cell_length_b   11.14937441
_cell_length_c   3.26560300
_cell_angle_alpha   90.00000000
_cell_angle_beta   90.00000000
_cell_angle_gamma   90.10194292
_symmetry_Int_Tables_number   1
_chemical_formula_structural   Sc4AlFe3B16
_chemical_formula_sum   'Sc4 Al1 Fe3 B16'
_cell_volume   210.39175377
_cell_formula_units_Z   1
loop_
 _symmetry_equiv_pos_site_id
 _symmetry_equiv_pos_as_xyz
  1  'x, y, z'
loop_
 _atom_site_type_symbol
 _atom_site_label
 _atom_site_symmetry_multiplicity
 _atom_site_fract_x
 _atom_site_fract_y
 _atom_site_fract_z
 _atom_site_occupancy
  Sc  Sc0  1  0.630840  0.350862  0.000000  1
  Sc  Sc1  1  0.371182  0.649184  0.000000  1
  Sc  Sc2  1  0.125164  0.151615  0.000000  1
  Sc  Sc3  1  0.875757  0.848145  0.000000  1
  Al  Al4  1  0.633321  0.087362  0.000000  1
  Fe  Fe5  1  0.371509  0.911822  0.000000  1
  Fe  Fe6  1  0.135637  0.416306  0.000000  1
  Fe  Fe7  1  0.862969  0.589155  0.000000  1
  B  B8  1  0.792953  0.188871  0.500000  1
  B  B9  1  0.211636  0.814425  0.500000  1
  B  B10  1  0.285164  0.314753  0.500000  1
  B  B11  1  0.712364  0.685094  0.500000  1
  B  B12  1  0.869263  0.029939  0.500000  1
  B  B13  1  0.134785  0.966741  0.500000  1
  B  B14  1  0.365033  0.468546  0.500000  1
  B  B15  1  0.634737  0.531183  0.500000  1
  B  B16  1  0.886082  0.452232  0.500000  1
  B  B17  1  0.113545  0.548246  0.500000  1
  B  B18  1  0.380002  0.045913  0.500000  1
  B  B19  1  0.612257  0.948601  0.500000  1
  B  B20  1  0.979775  0.307308  0.500000  1
  B  B21  1  0.022722  0.693169  0.500000  1
  B  B22  1  0.473316  0.195288  0.500000  1
  B  B23  1  0.519988  0.805239  0.500000  1
