# generated using pymatgen
data_Dy3Y(In2Cl5)4
_symmetry_space_group_name_H-M   'P 1'
_cell_length_a   8.32174436
_cell_length_b   8.58995000
_cell_length_c   13.04247400
_cell_angle_alpha   90.00000000
_cell_angle_beta   90.04311430
_cell_angle_gamma   90.00000000
_symmetry_Int_Tables_number   1
_chemical_formula_structural   Dy3Y(In2Cl5)4
_chemical_formula_sum   'Dy3 Y1 In8 Cl20'
_cell_volume   932.31970372
_cell_formula_units_Z   1
loop_
 _symmetry_equiv_pos_site_id
 _symmetry_equiv_pos_as_xyz
  1  'x, y, z'
loop_
 _atom_site_type_symbol
 _atom_site_label
 _atom_site_symmetry_multiplicity
 _atom_site_fract_x
 _atom_site_fract_y
 _atom_site_fract_z
 _atom_site_occupancy
  Dy  Dy0  1  0.927240  0.750000  0.504647  1
  Dy  Dy1  1  0.572144  0.750000  0.004181  1
  Dy  Dy2  1  0.073224  0.250000  0.495381  1
  Y  Y3  1  0.427479  0.250000  0.995903  1
  In  In4  1  0.939091  0.007592  0.829213  1
  In  In5  1  0.060815  0.993262  0.171152  1
  In  In6  1  0.560759  0.493959  0.327810  1
  In  In7  1  0.060815  0.506738  0.171152  1
  In  In8  1  0.939091  0.492408  0.829213  1
  In  In9  1  0.439354  0.506124  0.671751  1
  In  In10  1  0.560759  0.006041  0.327810  1
  In  In11  1  0.439354  0.993876  0.671751  1
  Cl  Cl12  1  0.596699  0.750000  0.508348  1
  Cl  Cl13  1  0.161190  0.954389  0.433460  1
  Cl  Cl14  1  0.839301  0.045596  0.566498  1
  Cl  Cl15  1  0.338577  0.545867  0.933334  1
  Cl  Cl16  1  0.161190  0.545611  0.433460  1
  Cl  Cl17  1  0.348146  0.250000  0.195930  1
  Cl  Cl18  1  0.338577  0.954133  0.933334  1
  Cl  Cl19  1  0.839301  0.454404  0.566498  1
  Cl  Cl20  1  0.404414  0.750000  0.180766  1
  Cl  Cl21  1  0.661467  0.045059  0.066734  1
  Cl  Cl22  1  0.151840  0.250000  0.695813  1
  Cl  Cl23  1  0.594626  0.250000  0.819639  1
  Cl  Cl24  1  0.403611  0.250000  0.491410  1
  Cl  Cl25  1  0.095033  0.750000  0.681367  1
  Cl  Cl26  1  0.661467  0.454941  0.066734  1
  Cl  Cl27  1  0.096932  0.250000  0.990951  1
  Cl  Cl28  1  0.902487  0.750000  0.008642  1
  Cl  Cl29  1  0.848168  0.750000  0.304138  1
  Cl  Cl30  1  0.651422  0.750000  0.804280  1
  Cl  Cl31  1  0.905422  0.250000  0.318694  1
