# generated using pymatgen
data_Ba4NiRh3I2
_symmetry_space_group_name_H-M   'P 1'
_cell_length_a   4.43312300
_cell_length_b   4.43312263
_cell_length_c   19.05450100
_cell_angle_alpha   90.00000000
_cell_angle_beta   90.00000000
_cell_angle_gamma   119.99999528
_symmetry_Int_Tables_number   1
_chemical_formula_structural   Ba4NiRh3I2
_chemical_formula_sum   'Ba4 Ni1 Rh3 I2'
_cell_volume   324.30060491
_cell_formula_units_Z   1
loop_
 _symmetry_equiv_pos_site_id
 _symmetry_equiv_pos_as_xyz
  1  'x, y, z'
loop_
 _atom_site_type_symbol
 _atom_site_label
 _atom_site_symmetry_multiplicity
 _atom_site_fract_x
 _atom_site_fract_y
 _atom_site_fract_z
 _atom_site_occupancy
  Ba  Ba0  1  0.000000  0.000000  0.112775  1
  Ba  Ba1  1  0.000000  0.000000  0.392148  1
  Ba  Ba2  1  0.000000  0.000000  0.887320  1
  Ba  Ba3  1  0.000000  0.000000  0.607675  1
  Ni  Ni4  1  0.666667  0.333333  0.500016  1
  Rh  Rh5  1  0.333333  0.666667  0.000742  1
  Rh  Rh6  1  0.666667  0.333333  0.999411  1
  Rh  Rh7  1  0.333333  0.666667  0.499648  1
  I  I8  1  0.333333  0.666667  0.748484  1
  I  I9  1  0.666667  0.333333  0.251780  1
