# generated using pymatgen
data_Tm2Lu10Co5Bi
_symmetry_space_group_name_H-M   'P 1'
_cell_length_a   8.13122931
_cell_length_b   8.13028028
_cell_length_c   8.13122857
_cell_angle_alpha   111.03390695
_cell_angle_beta   111.03687911
_cell_angle_gamma   106.39069172
_symmetry_Int_Tables_number   1
_chemical_formula_structural   Tm2Lu10Co5Bi
_chemical_formula_sum   'Tm2 Lu10 Co5 Bi1'
_cell_volume   412.89017801
_cell_formula_units_Z   1
loop_
 _symmetry_equiv_pos_site_id
 _symmetry_equiv_pos_as_xyz
  1  'x, y, z'
loop_
 _atom_site_type_symbol
 _atom_site_label
 _atom_site_symmetry_multiplicity
 _atom_site_fract_x
 _atom_site_fract_y
 _atom_site_fract_z
 _atom_site_occupancy
  Tm  Tm0  1  0.211320  0.015009  0.803689  1
  Tm  Tm1  1  0.788680  0.984991  0.196311  1
  Lu  Lu2  1  0.284952  0.182846  0.467313  1
  Lu  Lu3  1  0.715048  0.817154  0.532687  1
  Lu  Lu4  1  0.284466  0.817154  0.102105  1
  Lu  Lu5  1  0.715534  0.182846  0.897895  1
  Lu  Lu6  1  0.619681  0.311646  0.308706  1
  Lu  Lu7  1  0.380319  0.688354  0.691294  1
  Lu  Lu8  1  0.002940  0.311646  0.691965  1
  Lu  Lu9  1  0.997060  0.688354  0.308035  1
  Lu  Lu10  1  0.211128  0.407749  0.196622  1
  Lu  Lu11  1  0.788872  0.592251  0.803378  1
  Co  Co12  1  0.000319  0.375266  0.374947  1
  Co  Co13  1  0.999681  0.624734  0.625053  1
  Co  Co14  1  0.387428  0.887278  0.499851  1
  Co  Co15  1  0.612572  0.112722  0.500149  1
  Co  Co16  1  0.000000  0.000000  0.000000  1
  Bi  Bi17  1  0.500000  0.500000  0.000000  1
