# generated using pymatgen
data_Th2Al2(SiNi)3
_symmetry_space_group_name_H-M   'P 1'
_cell_length_a   8.15102558
_cell_length_b   8.15102579
_cell_length_c   8.15005610
_cell_angle_alpha   138.12787801
_cell_angle_beta   105.03856527
_cell_angle_gamma   89.77161774
_symmetry_Int_Tables_number   1
_chemical_formula_structural   Th2Al2(SiNi)3
_chemical_formula_sum   'Th4 Al4 Si6 Ni6'
_cell_volume   333.66835270
_cell_formula_units_Z   2
loop_
 _symmetry_equiv_pos_site_id
 _symmetry_equiv_pos_as_xyz
  1  'x, y, z'
loop_
 _atom_site_type_symbol
 _atom_site_label
 _atom_site_symmetry_multiplicity
 _atom_site_fract_x
 _atom_site_fract_y
 _atom_site_fract_z
 _atom_site_occupancy
  Th  Th0  1  0.632770  0.873146  0.759294  1
  Th  Th1  1  0.367230  0.126854  0.240706  1
  Th  Th2  1  0.113853  0.373477  0.740706  1
  Th  Th3  1  0.886147  0.626523  0.259294  1
  Al  Al4  1  0.255984  0.005984  0.750000  1
  Al  Al5  1  0.744016  0.994016  0.250000  1
  Al  Al6  1  0.743800  0.493800  0.750000  1
  Al  Al7  1  0.256200  0.506200  0.250000  1
  Si  Si8  1  0.468172  0.611989  0.856774  1
  Si  Si9  1  0.531828  0.388011  0.143226  1
  Si  Si10  1  0.755213  0.111397  0.643226  1
  Si  Si11  1  0.244787  0.888603  0.356774  1
  Si  Si12  1  0.000088  0.750088  0.750000  1
  Si  Si13  1  0.999912  0.249912  0.250000  1
  Ni  Ni14  1  0.244195  0.623099  0.621100  1
  Ni  Ni15  1  0.755805  0.376901  0.378900  1
  Ni  Ni16  1  0.001999  0.123096  0.878900  1
  Ni  Ni17  1  0.998001  0.876904  0.121100  1
  Ni  Ni18  1  0.499550  0.749550  0.250000  1
  Ni  Ni19  1  0.500450  0.250450  0.750000  1
