# generated using pymatgen
data_HoEr3Tm2FeSb2
_symmetry_space_group_name_H-M   'P 1'
_cell_length_a   8.13511736
_cell_length_b   8.14236590
_cell_length_c   4.13046500
_cell_angle_alpha   90.00000000
_cell_angle_beta   90.00000000
_cell_angle_gamma   120.00445591
_symmetry_Int_Tables_number   1
_chemical_formula_structural   HoEr3Tm2FeSb2
_chemical_formula_sum   'Ho1 Er3 Tm2 Fe1 Sb2'
_cell_volume   236.93243248
_cell_formula_units_Z   1
loop_
 _symmetry_equiv_pos_site_id
 _symmetry_equiv_pos_as_xyz
  1  'x, y, z'
loop_
 _atom_site_type_symbol
 _atom_site_label
 _atom_site_symmetry_multiplicity
 _atom_site_fract_x
 _atom_site_fract_y
 _atom_site_fract_z
 _atom_site_occupancy
  Ho  Ho0  1  0.999931  0.605207  0.500000  1
  Er  Er1  1  0.234549  0.000244  0.000000  1
  Er  Er2  1  0.394163  0.394403  0.500000  1
  Er  Er3  1  0.605873  0.000060  0.500000  1
  Tm  Tm4  1  0.765648  0.765808  0.000000  1
  Tm  Tm5  1  0.999862  0.234408  0.000000  1
  Fe  Fe6  1  0.999532  0.000104  0.500000  1
  Sb  Sb7  1  0.333746  0.666344  0.000000  1
  Sb  Sb8  1  0.666695  0.333423  0.000000  1
