# generated using pymatgen
data_HoZr2(Ni3P2)3
_symmetry_space_group_name_H-M   'P 1'
_cell_length_a   3.68972800
_cell_length_b   10.39731400
_cell_length_c   12.14002200
_cell_angle_alpha   90.00000000
_cell_angle_beta   90.00000000
_cell_angle_gamma   90.00000000
_symmetry_Int_Tables_number   1
_chemical_formula_structural   HoZr2(Ni3P2)3
_chemical_formula_sum   'Ho2 Zr4 Ni18 P12'
_cell_volume   465.73082756
_cell_formula_units_Z   2
loop_
 _symmetry_equiv_pos_site_id
 _symmetry_equiv_pos_as_xyz
  1  'x, y, z'
loop_
 _atom_site_type_symbol
 _atom_site_label
 _atom_site_symmetry_multiplicity
 _atom_site_fract_x
 _atom_site_fract_y
 _atom_site_fract_z
 _atom_site_occupancy
  Ho  Ho0  1  0.751508  0.000000  0.474854  1
  Ho  Ho1  1  0.251508  0.500000  0.525146  1
  Zr  Zr2  1  0.251861  0.679417  0.795363  1
  Zr  Zr3  1  0.251861  0.320583  0.795363  1
  Zr  Zr4  1  0.751861  0.820583  0.204637  1
  Zr  Zr5  1  0.751861  0.179417  0.204637  1
  Ni  Ni6  1  0.752431  0.000000  0.013583  1
  Ni  Ni7  1  0.252431  0.500000  0.986417  1
  Ni  Ni8  1  0.251029  0.198514  0.571738  1
  Ni  Ni9  1  0.251029  0.801486  0.571738  1
  Ni  Ni10  1  0.751029  0.301486  0.428262  1
  Ni  Ni11  1  0.751029  0.698514  0.428262  1
  Ni  Ni12  1  0.251829  0.623549  0.289032  1
  Ni  Ni13  1  0.251829  0.376451  0.289032  1
  Ni  Ni14  1  0.751829  0.876451  0.710968  1
  Ni  Ni15  1  0.751829  0.123549  0.710968  1
  Ni  Ni16  1  0.252528  0.168819  0.003741  1
  Ni  Ni17  1  0.252528  0.831181  0.003741  1
  Ni  Ni18  1  0.752528  0.331181  0.996259  1
  Ni  Ni19  1  0.752528  0.668819  0.996259  1
  Ni  Ni20  1  0.251657  0.000000  0.839004  1
  Ni  Ni21  1  0.751657  0.500000  0.160996  1
  Ni  Ni22  1  0.251625  0.000000  0.297422  1
  Ni  Ni23  1  0.751625  0.500000  0.702578  1
  P  P24  1  0.251255  0.185608  0.382648  1
  P  P25  1  0.251255  0.814392  0.382648  1
  P  P26  1  0.751255  0.314392  0.617352  1
  P  P27  1  0.751255  0.685608  0.617352  1
  P  P28  1  0.252287  0.000000  0.121832  1
  P  P29  1  0.752287  0.500000  0.878168  1
  P  P30  1  0.252196  0.655783  0.110694  1
  P  P31  1  0.252196  0.344217  0.110694  1
  P  P32  1  0.752196  0.844217  0.889306  1
  P  P33  1  0.752196  0.155783  0.889306  1
  P  P34  1  0.251895  0.000000  0.654082  1
  P  P35  1  0.751895  0.500000  0.345918  1
