# generated using pymatgen
data_Tb2NdCo9(CuB2)2
_symmetry_space_group_name_H-M   'P 1'
_cell_length_a   5.05863700
_cell_length_b   5.06487292
_cell_length_c   9.80431900
_cell_angle_alpha   90.00002338
_cell_angle_beta   89.99996452
_cell_angle_gamma   119.95928683
_symmetry_Int_Tables_number   1
_chemical_formula_structural   Tb2NdCo9(CuB2)2
_chemical_formula_sum   'Tb2 Nd1 Co9 Cu2 B4'
_cell_volume   217.63470869
_cell_formula_units_Z   1
loop_
 _symmetry_equiv_pos_site_id
 _symmetry_equiv_pos_as_xyz
  1  'x, y, z'
loop_
 _atom_site_type_symbol
 _atom_site_label
 _atom_site_symmetry_multiplicity
 _atom_site_fract_x
 _atom_site_fract_y
 _atom_site_fract_z
 _atom_site_occupancy
  Tb  Tb0  1  0.000000  0.000000  0.343720  1
  Tb  Tb1  1  0.000001  0.000000  0.656338  1
  Nd  Nd2  1  0.999966  0.000000  0.000071  1
  Co  Co3  1  0.500003  0.000000  0.499965  1
  Co  Co4  1  0.500002  0.500000  0.500001  1
  Co  Co5  1  0.000001  0.500000  0.500001  1
  Co  Co6  1  0.499994  0.000000  0.210333  1
  Co  Co7  1  0.499996  0.499999  0.210396  1
  Co  Co8  1  0.999997  0.500001  0.210396  1
  Co  Co9  1  0.499996  0.000000  0.789674  1
  Co  Co10  1  0.499996  0.499999  0.789567  1
  Co  Co11  1  0.999997  0.500001  0.789567  1
  Cu  Cu12  1  0.333254  0.666554  0.999995  1
  Cu  Cu13  1  0.666700  0.333446  0.999995  1
  B  B14  1  0.333278  0.666556  0.351111  1
  B  B15  1  0.666721  0.333444  0.351111  1
  B  B16  1  0.666714  0.333428  0.648880  1
  B  B17  1  0.333285  0.666572  0.648880  1
