# generated using pymatgen
data_Tm3SbP6N13
_symmetry_space_group_name_H-M   'P 1'
_cell_length_a   7.29608293
_cell_length_b   7.29608382
_cell_length_c   7.29608500
_cell_angle_alpha   108.94634266
_cell_angle_beta   108.94635337
_cell_angle_gamma   108.94634937
_symmetry_Int_Tables_number   1
_chemical_formula_structural   Tm3SbP6N13
_chemical_formula_sum   'Tm3 Sb1 P6 N13'
_cell_volume   304.65532427
_cell_formula_units_Z   1
loop_
 _symmetry_equiv_pos_site_id
 _symmetry_equiv_pos_as_xyz
  1  'x, y, z'
loop_
 _atom_site_type_symbol
 _atom_site_label
 _atom_site_symmetry_multiplicity
 _atom_site_fract_x
 _atom_site_fract_y
 _atom_site_fract_z
 _atom_site_occupancy
  Tm  Tm0  1  0.665348  0.986046  0.986046  1
  Tm  Tm1  1  0.986046  0.986046  0.665348  1
  Tm  Tm2  1  0.986046  0.665348  0.986046  1
  Sb  Sb3  1  0.174963  0.174963  0.174963  1
  P  P4  1  0.268171  0.760021  0.511305  1
  P  P5  1  0.760021  0.268171  0.511305  1
  P  P6  1  0.760021  0.511305  0.268171  1
  P  P7  1  0.268171  0.511305  0.760021  1
  P  P8  1  0.511305  0.760021  0.268171  1
  P  P9  1  0.511305  0.268171  0.760021  1
  N  N10  1  0.881811  0.881811  0.881811  1
  N  N11  1  0.723442  0.290263  0.290263  1
  N  N12  1  0.290263  0.723442  0.290263  1
  N  N13  1  0.342668  0.621754  0.621754  1
  N  N14  1  0.621754  0.621754  0.342668  1
  N  N15  1  0.435302  0.717820  0.015204  1
  N  N16  1  0.015204  0.717820  0.435302  1
  N  N17  1  0.621754  0.342668  0.621754  1
  N  N18  1  0.717820  0.015204  0.435302  1
  N  N19  1  0.435302  0.015204  0.717820  1
  N  N20  1  0.717820  0.435302  0.015204  1
  N  N21  1  0.290263  0.290263  0.723442  1
  N  N22  1  0.015204  0.435302  0.717820  1
