# generated using pymatgen
data_Er16Al4Co3Ru
_symmetry_space_group_name_H-M   'P 1'
_cell_length_a   9.34233214
_cell_length_b   9.34531480
_cell_length_c   9.34233300
_cell_angle_alpha   60.01055771
_cell_angle_beta   60.00000048
_cell_angle_gamma   60.01055755
_symmetry_Int_Tables_number   1
_chemical_formula_structural   Er16Al4Co3Ru
_chemical_formula_sum   'Er16 Al4 Co3 Ru1'
_cell_volume   576.84465303
_cell_formula_units_Z   1
loop_
 _symmetry_equiv_pos_site_id
 _symmetry_equiv_pos_as_xyz
  1  'x, y, z'
loop_
 _atom_site_type_symbol
 _atom_site_label
 _atom_site_symmetry_multiplicity
 _atom_site_fract_x
 _atom_site_fract_y
 _atom_site_fract_z
 _atom_site_occupancy
  Er  Er0  1  0.062441  0.062259  0.437650  1
  Er  Er1  1  0.650663  0.048011  0.650663  1
  Er  Er2  1  0.192203  0.807443  0.192203  1
  Er  Er3  1  0.437650  0.062259  0.437650  1
  Er  Er4  1  0.196208  0.189829  0.806982  1
  Er  Er5  1  0.647846  0.653267  0.647846  1
  Er  Er6  1  0.051042  0.653267  0.647846  1
  Er  Er7  1  0.437650  0.062259  0.062441  1
  Er  Er8  1  0.647846  0.653267  0.051042  1
  Er  Er9  1  0.192203  0.807443  0.808151  1
  Er  Er10  1  0.806982  0.189829  0.806982  1
  Er  Er11  1  0.806982  0.189829  0.196208  1
  Er  Er12  1  0.808151  0.807443  0.192203  1
  Er  Er13  1  0.061068  0.437621  0.440243  1
  Er  Er14  1  0.440243  0.437621  0.061068  1
  Er  Er15  1  0.061068  0.437621  0.061068  1
  Al  Al16  1  0.733388  0.421966  0.422323  1
  Al  Al17  1  0.422323  0.421966  0.733388  1
  Al  Al18  1  0.422175  0.733476  0.422175  1
  Al  Al19  1  0.422323  0.421966  0.422323  1
  Co  Co20  1  0.859323  0.859477  0.859323  1
  Co  Co21  1  0.421878  0.859477  0.859323  1
  Co  Co22  1  0.859323  0.859477  0.421878  1
  Ru  Ru23  1  0.859022  0.422934  0.859022  1
