# generated using pymatgen
data_Ca3Y(Ga5Ir3)2
_symmetry_space_group_name_H-M   'P 1'
_cell_length_a   8.65468014
_cell_length_b   8.59661149
_cell_length_c   8.59661281
_cell_angle_alpha   140.62510355
_cell_angle_beta   110.41987676
_cell_angle_gamma   82.90980244
_symmetry_Int_Tables_number   1
_chemical_formula_structural   Ca3Y(Ga5Ir3)2
_chemical_formula_sum   'Ca3 Y1 Ga10 Ir6'
_cell_volume   368.56927264
_cell_formula_units_Z   1
loop_
 _symmetry_equiv_pos_site_id
 _symmetry_equiv_pos_as_xyz
  1  'x, y, z'
loop_
 _atom_site_type_symbol
 _atom_site_label
 _atom_site_symmetry_multiplicity
 _atom_site_fract_x
 _atom_site_fract_y
 _atom_site_fract_z
 _atom_site_occupancy
  Ca  Ca0  1  0.627402  0.354584  0.272817  1
  Ca  Ca1  1  0.372555  0.645339  0.727218  1
  Ca  Ca2  1  0.916693  0.144414  0.772279  1
  Y  Y3  1  0.083670  0.856586  0.227084  1
  Ga  Ga4  1  0.401897  0.083346  0.318550  1
  Ga  Ga5  1  0.598941  0.916659  0.682283  1
  Ga  Ga6  1  0.234765  0.416272  0.818493  1
  Ga  Ga7  1  0.764110  0.582993  0.181117  1
  Ga  Ga8  1  0.297117  0.546112  0.248812  1
  Ga  Ga9  1  0.702324  0.952825  0.251279  1
  Ga  Ga10  1  0.702324  0.451046  0.749499  1
  Ga  Ga11  1  0.297117  0.048305  0.751005  1
  Ga  Ga12  1  0.999793  0.253319  0.251738  1
  Ga  Ga13  1  0.999793  0.748056  0.746474  1
  Ir  Ir14  1  0.233103  0.149076  0.084028  1
  Ir  Ir15  1  0.769507  0.850342  0.919164  1
  Ir  Ir16  1  0.935942  0.348983  0.586959  1
  Ir  Ir17  1  0.065272  0.652666  0.412605  1
  Ir  Ir18  1  0.498837  0.251000  0.750758  1
  Ir  Ir19  1  0.498837  0.748079  0.247837  1
