# generated using pymatgen
data_DyLuGa2NiIr
_symmetry_space_group_name_H-M   'P 1'
_cell_length_a   4.24185800
_cell_length_b   6.71050700
_cell_length_c   7.65628400
_cell_angle_alpha   90.00000000
_cell_angle_beta   90.00000000
_cell_angle_gamma   90.00000000
_symmetry_Int_Tables_number   1
_chemical_formula_structural   DyLuGa2NiIr
_chemical_formula_sum   'Dy2 Lu2 Ga4 Ni2 Ir2'
_cell_volume   217.93626036
_cell_formula_units_Z   2
loop_
 _symmetry_equiv_pos_site_id
 _symmetry_equiv_pos_as_xyz
  1  'x, y, z'
loop_
 _atom_site_type_symbol
 _atom_site_label
 _atom_site_symmetry_multiplicity
 _atom_site_fract_x
 _atom_site_fract_y
 _atom_site_fract_z
 _atom_site_occupancy
  Dy  Dy0  1  0.250000  0.023810  0.815769  1
  Dy  Dy1  1  0.250000  0.523810  0.684231  1
  Lu  Lu2  1  0.750000  0.976943  0.188358  1
  Lu  Lu3  1  0.750000  0.476943  0.311642  1
  Ga  Ga4  1  0.250000  0.157957  0.442415  1
  Ga  Ga5  1  0.250000  0.657957  0.057585  1
  Ga  Ga6  1  0.750000  0.847374  0.573381  1
  Ga  Ga7  1  0.750000  0.347374  0.926619  1
  Ni  Ni8  1  0.750000  0.225504  0.615443  1
  Ni  Ni9  1  0.750000  0.725504  0.884557  1
  Ir  Ir10  1  0.250000  0.768412  0.382186  1
  Ir  Ir11  1  0.250000  0.268412  0.117814  1
