# generated using pymatgen
data_DyTm7(AlRu)8
_symmetry_space_group_name_H-M   'P 1'
_cell_length_a   4.06208300
_cell_length_b   6.94586378
_cell_length_c   15.85100963
_cell_angle_alpha   89.98035338
_cell_angle_beta   90.00000000
_cell_angle_gamma   90.00000000
_symmetry_Int_Tables_number   1
_chemical_formula_structural   DyTm7(AlRu)8
_chemical_formula_sum   'Dy1 Tm7 Al8 Ru8'
_cell_volume   447.23106177
_cell_formula_units_Z   1
loop_
 _symmetry_equiv_pos_site_id
 _symmetry_equiv_pos_as_xyz
  1  'x, y, z'
loop_
 _atom_site_type_symbol
 _atom_site_label
 _atom_site_symmetry_multiplicity
 _atom_site_fract_x
 _atom_site_fract_y
 _atom_site_fract_z
 _atom_site_occupancy
  Dy  Dy0  1  0.250000  0.537244  0.719349  1
  Tm  Tm1  1  0.750000  0.962585  0.219190  1
  Tm  Tm2  1  0.250000  0.158488  0.562916  1
  Tm  Tm3  1  0.750000  0.843546  0.435791  1
  Tm  Tm4  1  0.750000  0.462492  0.281061  1
  Tm  Tm5  1  0.750000  0.342008  0.064119  1
  Tm  Tm6  1  0.250000  0.656198  0.936808  1
  Tm  Tm7  1  0.250000  0.037659  0.781378  1
  Al  Al8  1  0.750000  0.503380  0.564994  1
  Al  Al9  1  0.750000  0.364231  0.849697  1
  Al  Al10  1  0.750000  0.999907  0.934531  1
  Al  Al11  1  0.750000  0.868837  0.650840  1
  Al  Al12  1  0.250000  0.499154  0.433557  1
  Al  Al13  1  0.250000  0.996909  0.066635  1
  Al  Al14  1  0.250000  0.633131  0.151808  1
  Al  Al15  1  0.250000  0.133797  0.348231  1
  Ru  Ru16  1  0.750000  0.748344  0.812729  1
  Ru  Ru17  1  0.250000  0.235539  0.938122  1
  Ru  Ru18  1  0.750000  0.263278  0.437135  1
  Ru  Ru19  1  0.250000  0.752954  0.312356  1
  Ru  Ru20  1  0.750000  0.761618  0.063070  1
  Ru  Ru21  1  0.750000  0.246344  0.686703  1
  Ru  Ru22  1  0.250000  0.252557  0.187345  1
  Ru  Ru23  1  0.250000  0.739803  0.561635  1
