# generated using pymatgen
data_La20Ir5Os4Pt3
_symmetry_space_group_name_H-M   'P 1'
_cell_length_a   11.45368473
_cell_length_b   11.45368473
_cell_length_c   6.70429086
_cell_angle_alpha   90.06034102
_cell_angle_beta   90.06034102
_cell_angle_gamma   90.01818280
_symmetry_Int_Tables_number   1
_chemical_formula_structural   La20Ir5Os4Pt3
_chemical_formula_sum   'La20 Ir5 Os4 Pt3'
_cell_volume   879.51407391
_cell_formula_units_Z   1
loop_
 _symmetry_equiv_pos_site_id
 _symmetry_equiv_pos_as_xyz
  1  'x, y, z'
loop_
 _atom_site_type_symbol
 _atom_site_label
 _atom_site_symmetry_multiplicity
 _atom_site_fract_x
 _atom_site_fract_y
 _atom_site_fract_z
 _atom_site_occupancy
  La  La0  1  0.297864  0.088550  0.379221  1
  La  La1  1  0.296759  0.907665  0.886480  1
  La  La2  1  0.701573  0.090844  0.881045  1
  La  La3  1  0.700090  0.908234  0.380561  1
  La  La4  1  0.586812  0.794343  0.888459  1
  La  La5  1  0.586378  0.206066  0.388639  1
  La  La6  1  0.409155  0.794173  0.389332  1
  La  La7  1  0.412641  0.205801  0.888355  1
  La  La8  1  0.205657  0.413188  0.611541  1
  La  La9  1  0.205827  0.590845  0.110668  1
  La  La10  1  0.793934  0.413622  0.111361  1
  La  La11  1  0.794199  0.587359  0.611645  1
  La  La12  1  0.911450  0.702136  0.120779  1
  La  La13  1  0.909156  0.298427  0.618955  1
  La  La14  1  0.092335  0.703241  0.613520  1
  La  La15  1  0.091766  0.299910  0.119439  1
  La  La16  1  0.002442  0.997056  0.498400  1
  La  La17  1  0.002944  0.997558  0.001600  1
  La  La18  1  0.499826  0.500128  0.000310  1
  La  La19  1  0.499872  0.500174  0.499690  1
  Ir  Ir20  1  0.150434  0.849566  0.250000  1
  Ir  Ir21  1  0.652496  0.347504  0.750000  1
  Ir  Ir22  1  0.652586  0.652671  0.250162  1
  Ir  Ir23  1  0.347329  0.347414  0.249838  1
  Ir  Ir24  1  0.348172  0.651828  0.750000  1
  Os  Os25  1  0.500677  0.000189  0.124555  1
  Os  Os26  1  0.500410  0.000279  0.625115  1
  Os  Os27  1  0.999721  0.499590  0.874885  1
  Os  Os28  1  0.999811  0.499323  0.375445  1
  Pt  Pt29  1  0.847825  0.152175  0.250000  1
  Pt  Pt30  1  0.846961  0.847102  0.750036  1
  Pt  Pt31  1  0.152898  0.153039  0.749964  1
