# generated using pymatgen
data_Tl3InPd3RuO14
_symmetry_space_group_name_H-M   'P 1'
_cell_length_a   7.28352143
_cell_length_b   7.28352168
_cell_length_c   7.28352221
_cell_angle_alpha   59.50612844
_cell_angle_beta   59.50612342
_cell_angle_gamma   59.50611717
_symmetry_Int_Tables_number   1
_chemical_formula_structural   Tl3InPd3RuO14
_chemical_formula_sum   'Tl3 In1 Pd3 Ru1 O14'
_cell_volume   270.14928241
_cell_formula_units_Z   1
loop_
 _symmetry_equiv_pos_site_id
 _symmetry_equiv_pos_as_xyz
  1  'x, y, z'
loop_
 _atom_site_type_symbol
 _atom_site_label
 _atom_site_symmetry_multiplicity
 _atom_site_fract_x
 _atom_site_fract_y
 _atom_site_fract_z
 _atom_site_occupancy
  Tl  Tl0  1  0.625000  0.625000  0.125000  1
  Tl  Tl1  1  0.625000  0.125000  0.625000  1
  Tl  Tl2  1  0.125000  0.625000  0.625000  1
  In  In3  1  0.625000  0.625000  0.625000  1
  Pd  Pd4  1  0.125000  0.125000  0.625000  1
  Pd  Pd5  1  0.125000  0.625000  0.125000  1
  Pd  Pd6  1  0.625000  0.125000  0.125000  1
  Ru  Ru7  1  0.125000  0.125000  0.125000  1
  O  O8  1  0.464171  0.033369  0.464171  1
  O  O9  1  0.216631  0.785829  0.785829  1
  O  O10  1  0.798403  0.204570  0.204570  1
  O  O11  1  0.204570  0.798403  0.204570  1
  O  O12  1  0.785829  0.785829  0.216631  1
  O  O13  1  0.204570  0.204570  0.798403  1
  O  O14  1  0.464171  0.464171  0.033369  1
  O  O15  1  0.033369  0.464171  0.464171  1
  O  O16  1  0.451597  0.045430  0.045430  1
  O  O17  1  0.045430  0.045430  0.451597  1
  O  O18  1  0.785829  0.216631  0.785829  1
  O  O19  1  0.045430  0.451597  0.045430  1
  O  O20  1  0.504076  0.504076  0.504076  1
  O  O21  1  0.745924  0.745924  0.745924  1
