# generated using pymatgen
data_Pa6Al24Co3Re5
_symmetry_space_group_name_H-M   'P 1'
_cell_length_a   8.84250222
_cell_length_b   8.87622678
_cell_length_c   9.35018000
_cell_angle_alpha   90.00000000
_cell_angle_beta   90.34383497
_cell_angle_gamma   120.12624220
_symmetry_Int_Tables_number   1
_chemical_formula_structural   Pa6Al24Co3Re5
_chemical_formula_sum   'Pa6 Al24 Co3 Re5'
_cell_volume   634.73119674
_cell_formula_units_Z   1
loop_
 _symmetry_equiv_pos_site_id
 _symmetry_equiv_pos_as_xyz
  1  'x, y, z'
loop_
 _atom_site_type_symbol
 _atom_site_label
 _atom_site_symmetry_multiplicity
 _atom_site_fract_x
 _atom_site_fract_y
 _atom_site_fract_z
 _atom_site_occupancy
  Pa  Pa0  1  0.793561  0.193146  0.754733  1
  Pa  Pa1  1  0.206439  0.806854  0.245267  1
  Pa  Pa2  1  0.402142  0.201070  0.747829  1
  Pa  Pa3  1  0.597858  0.798930  0.252171  1
  Pa  Pa4  1  0.793561  0.600414  0.754733  1
  Pa  Pa5  1  0.206439  0.399586  0.245267  1
  Al  Al6  1  0.667073  0.333536  0.992046  1
  Al  Al7  1  0.332927  0.666464  0.007954  1
  Al  Al8  1  0.323612  0.661806  0.487876  1
  Al  Al9  1  0.676388  0.338194  0.512124  1
  Al  Al10  1  0.844250  0.161195  0.421652  1
  Al  Al11  1  0.155750  0.838805  0.578348  1
  Al  Al12  1  0.318999  0.159499  0.418727  1
  Al  Al13  1  0.156829  0.840450  0.916785  1
  Al  Al14  1  0.681001  0.840501  0.581273  1
  Al  Al15  1  0.843171  0.159550  0.083215  1
  Al  Al16  1  0.844250  0.683054  0.421652  1
  Al  Al17  1  0.682605  0.841304  0.920905  1
  Al  Al18  1  0.155750  0.316946  0.578348  1
  Al  Al19  1  0.317395  0.158696  0.079095  1
  Al  Al20  1  0.156829  0.316379  0.916785  1
  Al  Al21  1  0.843171  0.683621  0.083215  1
  Al  Al22  1  0.432252  0.561927  0.748890  1
  Al  Al23  1  0.567748  0.438073  0.251110  1
  Al  Al24  1  0.114561  0.557281  0.742633  1
  Al  Al25  1  0.885439  0.442719  0.257367  1
  Al  Al26  1  0.432252  0.870325  0.748890  1
  Al  Al27  1  0.567748  0.129675  0.251110  1
  Al  Al28  1  0.998602  0.999301  0.750034  1
  Al  Al29  1  0.001398  0.000699  0.249966  1
  Co  Co30  1  0.000000  0.500000  0.500000  1
  Co  Co31  1  0.000000  0.000000  0.000000  1
  Co  Co32  1  0.000000  0.000000  0.500000  1
  Re  Re33  1  0.500000  0.500000  0.000000  1
  Re  Re34  1  0.000000  0.500000  0.000000  1
  Re  Re35  1  0.500000  0.500000  0.500000  1
  Re  Re36  1  0.500000  0.000000  0.000000  1
  Re  Re37  1  0.500000  0.000000  0.500000  1
