# generated using pymatgen
data_Li2TbHo(SiO4)2
_symmetry_space_group_name_H-M   'P 1'
_cell_length_a   6.23294350
_cell_length_b   5.44731696
_cell_length_c   10.93711328
_cell_angle_alpha   66.37366404
_cell_angle_beta   90.16131250
_cell_angle_gamma   90.09800702
_symmetry_Int_Tables_number   1
_chemical_formula_structural   Li2TbHo(SiO4)2
_chemical_formula_sum   'Li4 Tb2 Ho2 Si4 O16'
_cell_volume   340.21768631
_cell_formula_units_Z   2
loop_
 _symmetry_equiv_pos_site_id
 _symmetry_equiv_pos_as_xyz
  1  'x, y, z'
loop_
 _atom_site_type_symbol
 _atom_site_label
 _atom_site_symmetry_multiplicity
 _atom_site_fract_x
 _atom_site_fract_y
 _atom_site_fract_z
 _atom_site_occupancy
  Li  Li0  1  0.134222  0.919074  0.430249  1
  Li  Li1  1  0.633736  0.080210  0.070006  1
  Li  Li2  1  0.865778  0.080926  0.569751  1
  Li  Li3  1  0.366264  0.919790  0.929994  1
  Tb  Tb4  1  0.116811  0.445837  0.847118  1
  Tb  Tb5  1  0.883189  0.554163  0.152882  1
  Ho  Ho6  1  0.616102  0.554347  0.651736  1
  Ho  Ho7  1  0.383898  0.445653  0.348264  1
  Si  Si8  1  0.650536  0.903681  0.359965  1
  Si  Si9  1  0.349464  0.096319  0.640035  1
  Si  Si10  1  0.153091  0.094999  0.141523  1
  Si  Si11  1  0.846909  0.905001  0.858477  1
  O  O12  1  0.856657  0.232187  0.775139  1
  O  O13  1  0.639119  0.230577  0.277397  1
  O  O14  1  0.164118  0.186287  0.523477  1
  O  O15  1  0.835656  0.759000  0.751801  1
  O  O16  1  0.143343  0.767813  0.224861  1
  O  O17  1  0.571724  0.229008  0.554139  1
  O  O18  1  0.660460  0.758607  0.252988  1
  O  O19  1  0.428276  0.770992  0.445861  1
  O  O20  1  0.070811  0.775780  0.943832  1
  O  O21  1  0.662746  0.815353  0.975180  1
  O  O22  1  0.164344  0.241000  0.248199  1
  O  O23  1  0.929189  0.224220  0.056168  1
  O  O24  1  0.337254  0.184647  0.024820  1
  O  O25  1  0.339540  0.241393  0.747012  1
  O  O26  1  0.360881  0.769423  0.722603  1
  O  O27  1  0.835882  0.813713  0.476523  1
