# generated using pymatgen
data_La5Hf3(Ni4As3)4
_symmetry_space_group_name_H-M   'P 1'
_cell_length_a   12.88416400
_cell_length_b   12.88416371
_cell_length_c   4.05251100
_cell_angle_alpha   90.00000000
_cell_angle_beta   90.00000000
_cell_angle_gamma   120.00000073
_symmetry_Int_Tables_number   1
_chemical_formula_structural   La5Hf3(Ni4As3)4
_chemical_formula_sum   'La5 Hf3 Ni16 As12'
_cell_volume   582.59574665
_cell_formula_units_Z   1
loop_
 _symmetry_equiv_pos_site_id
 _symmetry_equiv_pos_as_xyz
  1  'x, y, z'
loop_
 _atom_site_type_symbol
 _atom_site_label
 _atom_site_symmetry_multiplicity
 _atom_site_fract_x
 _atom_site_fract_y
 _atom_site_fract_z
 _atom_site_occupancy
  La  La0  1  0.191332  0.191332  0.500000  1
  La  La1  1  0.808668  0.000000  0.500000  1
  La  La2  1  0.000000  0.808668  0.500000  1
  La  La3  1  0.333333  0.666667  0.000000  1
  La  La4  1  0.666667  0.333333  0.000000  1
  Hf  Hf5  1  0.575599  0.575599  0.000000  1
  Hf  Hf6  1  0.424401  0.000000  0.000000  1
  Hf  Hf7  1  0.000000  0.424401  0.000000  1
  Ni  Ni8  1  0.722724  0.722724  0.500000  1
  Ni  Ni9  1  0.277276  0.000000  0.500000  1
  Ni  Ni10  1  0.000000  0.277276  0.500000  1
  Ni  Ni11  1  0.187236  0.379672  0.000000  1
  Ni  Ni12  1  0.620328  0.807564  0.000000  1
  Ni  Ni13  1  0.192436  0.812764  0.000000  1
  Ni  Ni14  1  0.807564  0.620328  0.000000  1
  Ni  Ni15  1  0.812764  0.192436  0.000000  1
  Ni  Ni16  1  0.379672  0.187236  0.000000  1
  Ni  Ni17  1  0.371363  0.489015  0.500000  1
  Ni  Ni18  1  0.510985  0.882349  0.500000  1
  Ni  Ni19  1  0.117651  0.628637  0.500000  1
  Ni  Ni20  1  0.882349  0.510985  0.500000  1
  Ni  Ni21  1  0.628637  0.117651  0.500000  1
  Ni  Ni22  1  0.489015  0.371363  0.500000  1
  Ni  Ni23  1  0.000000  0.000000  0.000000  1
  As  As24  1  0.819333  0.819333  0.000000  1
  As  As25  1  0.180667  0.000000  0.000000  1
  As  As26  1  0.000000  0.180667  0.000000  1
  As  As27  1  0.172350  0.472859  0.500000  1
  As  As28  1  0.527141  0.699491  0.500000  1
  As  As29  1  0.300509  0.827650  0.500000  1
  As  As30  1  0.699491  0.527141  0.500000  1
  As  As31  1  0.827650  0.300509  0.500000  1
  As  As32  1  0.472859  0.172350  0.500000  1
  As  As33  1  0.369171  0.369171  0.000000  1
  As  As34  1  0.630829  0.000000  0.000000  1
  As  As35  1  0.000000  0.630829  0.000000  1
