# generated using pymatgen
data_Zr2MnSi2Pt
_symmetry_space_group_name_H-M   'P 1'
_cell_length_a   3.89594900
_cell_length_b   6.58022400
_cell_length_c   7.64286300
_cell_angle_alpha   90.00000000
_cell_angle_beta   90.00000000
_cell_angle_gamma   90.00000000
_symmetry_Int_Tables_number   1
_chemical_formula_structural   Zr2MnSi2Pt
_chemical_formula_sum   'Zr4 Mn2 Si4 Pt2'
_cell_volume   195.93409523
_cell_formula_units_Z   2
loop_
 _symmetry_equiv_pos_site_id
 _symmetry_equiv_pos_as_xyz
  1  'x, y, z'
loop_
 _atom_site_type_symbol
 _atom_site_label
 _atom_site_symmetry_multiplicity
 _atom_site_fract_x
 _atom_site_fract_y
 _atom_site_fract_z
 _atom_site_occupancy
  Zr  Zr0  1  0.250000  0.973949  0.179817  1
  Zr  Zr1  1  0.250000  0.473949  0.320183  1
  Zr  Zr2  1  0.750000  0.521921  0.676957  1
  Zr  Zr3  1  0.750000  0.021921  0.823043  1
  Mn  Mn4  1  0.750000  0.648620  0.062521  1
  Mn  Mn5  1  0.750000  0.148620  0.437479  1
  Si  Si6  1  0.750000  0.266460  0.125590  1
  Si  Si7  1  0.750000  0.766460  0.374410  1
  Si  Si8  1  0.250000  0.231083  0.622215  1
  Si  Si9  1  0.250000  0.731083  0.877785  1
  Pt  Pt10  1  0.250000  0.857968  0.560506  1
  Pt  Pt11  1  0.250000  0.357968  0.939494  1
