# generated using pymatgen
data_CeHo3(AlAu)4
_symmetry_space_group_name_H-M   'P 1'
_cell_length_a   4.50406600
_cell_length_b   7.27670236
_cell_length_c   7.78016355
_cell_angle_alpha   89.93876897
_cell_angle_beta   90.00000000
_cell_angle_gamma   90.00000000
_symmetry_Int_Tables_number   1
_chemical_formula_structural   CeHo3(AlAu)4
_chemical_formula_sum   'Ce1 Ho3 Al4 Au4'
_cell_volume   254.99275158
_cell_formula_units_Z   1
loop_
 _symmetry_equiv_pos_site_id
 _symmetry_equiv_pos_as_xyz
  1  'x, y, z'
loop_
 _atom_site_type_symbol
 _atom_site_label
 _atom_site_symmetry_multiplicity
 _atom_site_fract_x
 _atom_site_fract_y
 _atom_site_fract_z
 _atom_site_occupancy
  Ce  Ce0  1  0.250000  0.006395  0.304105  1
  Ho  Ho1  1  0.250000  0.508001  0.195685  1
  Ho  Ho2  1  0.750000  0.991875  0.701755  1
  Ho  Ho3  1  0.750000  0.493191  0.801326  1
  Al  Al4  1  0.250000  0.176438  0.919086  1
  Al  Al5  1  0.250000  0.671323  0.578223  1
  Al  Al6  1  0.750000  0.825909  0.077943  1
  Al  Al7  1  0.750000  0.325745  0.420718  1
  Au  Au8  1  0.250000  0.291420  0.597735  1
  Au  Au9  1  0.250000  0.785583  0.904020  1
  Au  Au10  1  0.750000  0.707762  0.409309  1
  Au  Au11  1  0.750000  0.216360  0.090095  1
