# generated using pymatgen
data_TbY3ErIr3
_symmetry_space_group_name_H-M   'P 1'
_cell_length_a   10.90997400
_cell_length_b   10.90988500
_cell_length_c   6.37268900
_cell_angle_alpha   90.00000000
_cell_angle_beta   90.00000000
_cell_angle_gamma   90.00000000
_symmetry_Int_Tables_number   1
_chemical_formula_structural   TbY3ErIr3
_chemical_formula_sum   'Tb4 Y12 Er4 Ir12'
_cell_volume   758.51926041
_cell_formula_units_Z   4
loop_
 _symmetry_equiv_pos_site_id
 _symmetry_equiv_pos_as_xyz
  1  'x, y, z'
loop_
 _atom_site_type_symbol
 _atom_site_label
 _atom_site_symmetry_multiplicity
 _atom_site_fract_x
 _atom_site_fract_y
 _atom_site_fract_z
 _atom_site_occupancy
  Tb  Tb0  1  0.290802  0.087827  0.377781  1
  Tb  Tb1  1  0.290802  0.912173  0.877781  1
  Tb  Tb2  1  0.709198  0.087827  0.877781  1
  Tb  Tb3  1  0.709198  0.912173  0.377781  1
  Y  Y4  1  0.587822  0.790586  0.877723  1
  Y  Y5  1  0.587822  0.209414  0.377723  1
  Y  Y6  1  0.412178  0.790586  0.377723  1
  Y  Y7  1  0.412178  0.209414  0.877723  1
  Y  Y8  1  0.209233  0.412283  0.622298  1
  Y  Y9  1  0.209233  0.587717  0.122298  1
  Y  Y10  1  0.790767  0.412283  0.122298  1
  Y  Y11  1  0.790767  0.587717  0.622298  1
  Y  Y12  1  0.912312  0.709274  0.122113  1
  Y  Y13  1  0.912312  0.290726  0.622113  1
  Y  Y14  1  0.087688  0.709274  0.622113  1
  Y  Y15  1  0.087688  0.290726  0.122113  1
  Er  Er16  1  0.000000  0.000000  0.500113  1
  Er  Er17  1  0.000000  0.000000  0.000113  1
  Er  Er18  1  0.500000  0.500000  0.000220  1
  Er  Er19  1  0.500000  0.500000  0.500220  1
  Ir  Ir20  1  0.847694  0.152040  0.249785  1
  Ir  Ir21  1  0.847694  0.847960  0.749785  1
  Ir  Ir22  1  0.152306  0.152040  0.749785  1
  Ir  Ir23  1  0.152306  0.847960  0.249785  1
  Ir  Ir24  1  0.652063  0.347720  0.750070  1
  Ir  Ir25  1  0.652063  0.652280  0.250070  1
  Ir  Ir26  1  0.347937  0.347720  0.250070  1
  Ir  Ir27  1  0.347937  0.652280  0.750070  1
  Ir  Ir28  1  0.500000  0.000000  0.121766  1
  Ir  Ir29  1  0.500000  0.000000  0.621766  1
  Ir  Ir30  1  0.000000  0.500000  0.878363  1
  Ir  Ir31  1  0.000000  0.500000  0.378363  1
