# generated using pymatgen
data_Hf2Zr3UCo16Si7
_symmetry_space_group_name_H-M   'P 1'
_cell_length_a   8.05555676
_cell_length_b   8.06485414
_cell_length_c   8.06361299
_cell_angle_alpha   59.92882932
_cell_angle_beta   60.07267949
_cell_angle_gamma   60.02794461
_symmetry_Int_Tables_number   1
_chemical_formula_structural   Hf2Zr3UCo16Si7
_chemical_formula_sum   'Hf2 Zr3 U1 Co16 Si7'
_cell_volume   370.51174481
_cell_formula_units_Z   1
loop_
 _symmetry_equiv_pos_site_id
 _symmetry_equiv_pos_as_xyz
  1  'x, y, z'
loop_
 _atom_site_type_symbol
 _atom_site_label
 _atom_site_symmetry_multiplicity
 _atom_site_fract_x
 _atom_site_fract_y
 _atom_site_fract_z
 _atom_site_occupancy
  Hf  Hf0  1  0.289461  0.295586  0.710539  1
  Hf  Hf1  1  0.294819  0.704290  0.705181  1
  Zr  Zr2  1  0.703350  0.709734  0.296650  1
  Zr  Zr3  1  0.290774  0.708696  0.297438  1
  Zr  Zr4  1  0.702562  0.296908  0.709226  1
  U  U5  1  0.713866  0.285815  0.286134  1
  Co  Co6  1  0.120906  0.120766  0.639098  1
  Co  Co7  1  0.669204  0.000782  0.659592  1
  Co  Co8  1  0.360902  0.880769  0.879094  1
  Co  Co9  1  0.000550  0.329510  0.329515  1
  Co  Co10  1  0.986141  0.669203  0.670386  1
  Co  Co11  1  0.329614  0.325731  0.013859  1
  Co  Co12  1  0.670485  0.659575  0.999450  1
  Co  Co13  1  0.640312  0.120836  0.120219  1
  Co  Co14  1  0.673780  0.670446  0.670504  1
  Co  Co15  1  0.879781  0.881364  0.359688  1
  Co  Co16  1  0.119597  0.120931  0.119043  1
  Co  Co17  1  0.880957  0.359569  0.880403  1
  Co  Co18  1  0.880017  0.879772  0.879365  1
  Co  Co19  1  0.340408  0.329578  0.330796  1
  Co  Co20  1  0.120635  0.639155  0.119983  1
  Co  Co21  1  0.329496  0.014731  0.326220  1
  Si  Si22  1  0.006789  0.509392  0.993211  1
  Si  Si23  1  0.006400  0.993490  0.510085  1
  Si  Si24  1  0.002078  0.997899  0.997922  1
  Si  Si25  1  0.489915  0.509974  0.993600  1
  Si  Si26  1  0.489602  0.993756  0.510398  1
  Si  Si27  1  0.503419  0.996251  0.995818  1
  Si  Si28  1  0.004182  0.495488  0.496581  1
