# generated using pymatgen
data_NaNd6CoI12
_symmetry_space_group_name_H-M   'P 1'
_cell_length_a   10.03030571
_cell_length_b   10.03030571
_cell_length_c   10.03030573
_cell_angle_alpha   107.14412878
_cell_angle_beta   107.14412981
_cell_angle_gamma   107.14412984
_symmetry_Int_Tables_number   1
_chemical_formula_structural   NaNd6CoI12
_chemical_formula_sum   'Na1 Nd6 Co1 I12'
_cell_volume   837.07801971
_cell_formula_units_Z   1
loop_
 _symmetry_equiv_pos_site_id
 _symmetry_equiv_pos_as_xyz
  1  'x, y, z'
loop_
 _atom_site_type_symbol
 _atom_site_label
 _atom_site_symmetry_multiplicity
 _atom_site_fract_x
 _atom_site_fract_y
 _atom_site_fract_z
 _atom_site_occupancy
  Na  Na0  1  0.500000  0.500000  0.500000  1
  Nd  Nd1  1  0.971422  0.898882  0.696809  1
  Nd  Nd2  1  0.028578  0.101118  0.303191  1
  Nd  Nd3  1  0.101118  0.303191  0.028578  1
  Nd  Nd4  1  0.303191  0.028578  0.101118  1
  Nd  Nd5  1  0.898882  0.696809  0.971422  1
  Nd  Nd6  1  0.696809  0.971422  0.898882  1
  Co  Co7  1  0.000000  0.000000  0.000000  1
  I  I8  1  0.545573  0.624775  0.851663  1
  I  I9  1  0.454427  0.375225  0.148337  1
  I  I10  1  0.317243  0.926691  0.775760  1
  I  I11  1  0.375225  0.148337  0.454427  1
  I  I12  1  0.926691  0.775760  0.317243  1
  I  I13  1  0.682757  0.073309  0.224240  1
  I  I14  1  0.073309  0.224240  0.682757  1
  I  I15  1  0.775760  0.317243  0.926691  1
  I  I16  1  0.224240  0.682757  0.073309  1
  I  I17  1  0.851663  0.545573  0.624775  1
  I  I18  1  0.148337  0.454427  0.375225  1
  I  I19  1  0.624775  0.851663  0.545573  1
