# generated using pymatgen
data_La16Ho3ErIr12
_symmetry_space_group_name_H-M   'P 1'
_cell_length_a   11.36960500
_cell_length_b   11.36960500
_cell_length_c   6.54715400
_cell_angle_alpha   90.00000000
_cell_angle_beta   90.00000000
_cell_angle_gamma   90.00000000
_symmetry_Int_Tables_number   1
_chemical_formula_structural   La16Ho3ErIr12
_chemical_formula_sum   'La16 Ho3 Er1 Ir12'
_cell_volume   846.33696546
_cell_formula_units_Z   1
loop_
 _symmetry_equiv_pos_site_id
 _symmetry_equiv_pos_as_xyz
  1  'x, y, z'
loop_
 _atom_site_type_symbol
 _atom_site_label
 _atom_site_symmetry_multiplicity
 _atom_site_fract_x
 _atom_site_fract_y
 _atom_site_fract_z
 _atom_site_occupancy
  La  La0  1  0.287905  0.088580  0.386503  1
  La  La1  1  0.287892  0.911439  0.886530  1
  La  La2  1  0.712108  0.088561  0.886530  1
  La  La3  1  0.712095  0.911420  0.386503  1
  La  La4  1  0.588551  0.787813  0.886478  1
  La  La5  1  0.588544  0.212255  0.386569  1
  La  La6  1  0.411456  0.787745  0.386569  1
  La  La7  1  0.411449  0.212187  0.886478  1
  La  La8  1  0.212255  0.411456  0.613431  1
  La  La9  1  0.212187  0.588551  0.113522  1
  La  La10  1  0.787813  0.411449  0.113522  1
  La  La11  1  0.787745  0.588544  0.613431  1
  La  La12  1  0.911439  0.712108  0.113470  1
  La  La13  1  0.911420  0.287905  0.613497  1
  La  La14  1  0.088580  0.712095  0.613497  1
  La  La15  1  0.088561  0.287892  0.113470  1
  Ho  Ho16  1  0.000000  0.000000  0.500000  1
  Ho  Ho17  1  0.000000  0.000000  0.000000  1
  Ho  Ho18  1  0.500000  0.500000  0.000000  1
  Er  Er19  1  0.500000  0.500000  0.500000  1
  Ir  Ir20  1  0.852045  0.147954  0.250005  1
  Ir  Ir21  1  0.852046  0.852045  0.749995  1
  Ir  Ir22  1  0.147954  0.147955  0.749995  1
  Ir  Ir23  1  0.147955  0.852046  0.250005  1
  Ir  Ir24  1  0.647778  0.352206  0.749764  1
  Ir  Ir25  1  0.647794  0.647778  0.250236  1
  Ir  Ir26  1  0.352206  0.352222  0.250236  1
  Ir  Ir27  1  0.352222  0.647794  0.749764  1
  Ir  Ir28  1  0.500000  0.000000  0.117046  1
  Ir  Ir29  1  0.500000  0.000000  0.617074  1
  Ir  Ir30  1  0.000000  0.500000  0.882954  1
  Ir  Ir31  1  0.000000  0.500000  0.382926  1
