# generated using pymatgen
data_Tb4HfPt3F28
_symmetry_space_group_name_H-M   'P 1'
_cell_length_a   5.59859035
_cell_length_b   8.96737997
_cell_length_c   12.07755598
_cell_angle_alpha   62.33058946
_cell_angle_beta   90.04147980
_cell_angle_gamma   90.08010365
_symmetry_Int_Tables_number   1
_chemical_formula_structural   Tb4HfPt3F28
_chemical_formula_sum   'Tb4 Hf1 Pt3 F28'
_cell_volume   537.00822802
_cell_formula_units_Z   1
loop_
 _symmetry_equiv_pos_site_id
 _symmetry_equiv_pos_as_xyz
  1  'x, y, z'
loop_
 _atom_site_type_symbol
 _atom_site_label
 _atom_site_symmetry_multiplicity
 _atom_site_fract_x
 _atom_site_fract_y
 _atom_site_fract_z
 _atom_site_occupancy
  Tb  Tb0  1  0.258209  0.812911  0.268066  1
  Tb  Tb1  1  0.740282  0.186767  0.735796  1
  Tb  Tb2  1  0.760848  0.182913  0.237769  1
  Tb  Tb3  1  0.240442  0.814379  0.761995  1
  Hf  Hf4  1  0.755503  0.725005  0.043166  1
  Pt  Pt5  1  0.240781  0.272777  0.957206  1
  Pt  Pt6  1  0.259217  0.272422  0.457445  1
  Pt  Pt7  1  0.741366  0.726064  0.543573  1
  F  F8  1  0.935297  0.704130  0.415957  1
  F  F9  1  0.063236  0.294779  0.584163  1
  F  F10  1  0.436683  0.294673  0.084722  1
  F  F11  1  0.544982  0.711105  0.914927  1
  F  F12  1  0.472897  0.731436  0.142619  1
  F  F13  1  0.529785  0.274018  0.864272  1
  F  F14  1  0.969229  0.271962  0.365076  1
  F  F15  1  0.032446  0.726907  0.634463  1
  F  F16  1  0.958447  0.748135  0.172306  1
  F  F17  1  0.051080  0.257287  0.825338  1
  F  F18  1  0.451683  0.256878  0.326193  1
  F  F19  1  0.552311  0.742480  0.674798  1
  F  F20  1  0.774152  0.473843  0.140655  1
  F  F21  1  0.226646  0.519700  0.858169  1
  F  F22  1  0.268807  0.519573  0.359906  1
  F  F23  1  0.731108  0.479113  0.641397  1
  F  F24  1  0.943939  0.277864  0.044228  1
  F  F25  1  0.055428  0.722647  0.951578  1
  F  F26  1  0.443410  0.717847  0.459044  1
  F  F27  1  0.555856  0.280832  0.542891  1
  F  F28  1  0.741567  0.973264  0.450120  1
  F  F29  1  0.258976  0.025208  0.549649  1
  F  F30  1  0.242664  0.025519  0.051736  1
  F  F31  1  0.760653  0.976036  0.941930  1
  F  F32  1  0.585286  0.968411  0.232941  1
  F  F33  1  0.415224  0.031351  0.765939  1
  F  F34  1  0.086259  0.030624  0.269765  1
  F  F35  1  0.915302  0.971139  0.730199  1
