# generated using pymatgen
data_Nd5In2Sn
_symmetry_space_group_name_H-M   'P 1'
_cell_length_a   9.57102458
_cell_length_b   9.57102447
_cell_length_c   9.47101200
_cell_angle_alpha   96.16616285
_cell_angle_beta   96.16616880
_cell_angle_gamma   141.89673195
_symmetry_Int_Tables_number   1
_chemical_formula_structural   Nd5In2Sn
_chemical_formula_sum   'Nd10 In4 Sn2'
_cell_volume   505.55586705
_cell_formula_units_Z   2
loop_
 _symmetry_equiv_pos_site_id
 _symmetry_equiv_pos_as_xyz
  1  'x, y, z'
loop_
 _atom_site_type_symbol
 _atom_site_label
 _atom_site_symmetry_multiplicity
 _atom_site_fract_x
 _atom_site_fract_y
 _atom_site_fract_z
 _atom_site_occupancy
  Nd  Nd0  1  0.585643  0.284324  0.866638  1
  Nd  Nd1  1  0.417257  0.718681  0.133021  1
  Nd  Nd2  1  0.283914  0.416972  0.697137  1
  Nd  Nd3  1  0.913639  0.780594  0.697394  1
  Nd  Nd4  1  0.781319  0.082743  0.866979  1
  Nd  Nd5  1  0.252170  0.751294  0.500117  1
  Nd  Nd6  1  0.748706  0.247830  0.499883  1
  Nd  Nd7  1  0.083028  0.216086  0.302863  1
  Nd  Nd8  1  0.719406  0.586361  0.302606  1
  Nd  Nd9  1  0.215676  0.914357  0.133362  1
  In  In10  1  0.339405  0.160595  0.500000  1
  In  In11  1  0.160726  0.660659  0.821350  1
  In  In12  1  0.749745  0.750255  0.000000  1
  In  In13  1  0.839341  0.339274  0.178650  1
  Sn  Sn14  1  0.660255  0.839745  0.500000  1
  Sn  Sn15  1  0.249767  0.250233  0.000000  1
