# generated using pymatgen
data_La4Ni4SnHg
_symmetry_space_group_name_H-M   'P 1'
_cell_length_a   7.59653500
_cell_length_b   7.59653500
_cell_length_c   7.80813100
_cell_angle_alpha   90.00000000
_cell_angle_beta   90.00000000
_cell_angle_gamma   90.00000000
_symmetry_Int_Tables_number   1
_chemical_formula_structural   La4Ni4SnHg
_chemical_formula_sum   'La8 Ni8 Sn2 Hg2'
_cell_volume   450.58650166
_cell_formula_units_Z   2
loop_
 _symmetry_equiv_pos_site_id
 _symmetry_equiv_pos_as_xyz
  1  'x, y, z'
loop_
 _atom_site_type_symbol
 _atom_site_label
 _atom_site_symmetry_multiplicity
 _atom_site_fract_x
 _atom_site_fract_y
 _atom_site_fract_z
 _atom_site_occupancy
  La  La0  1  0.181411  0.179754  0.000000  1
  La  La1  1  0.679754  0.318589  0.500000  1
  La  La2  1  0.320246  0.681411  0.500000  1
  La  La3  1  0.818589  0.820246  0.000000  1
  La  La4  1  0.675839  0.321867  0.000000  1
  La  La5  1  0.821867  0.824161  0.500000  1
  La  La6  1  0.178133  0.175839  0.500000  1
  La  La7  1  0.324161  0.678133  0.000000  1
  Ni  Ni8  1  0.372844  0.393888  0.255744  1
  Ni  Ni9  1  0.893888  0.127156  0.755744  1
  Ni  Ni10  1  0.106112  0.872844  0.755744  1
  Ni  Ni11  1  0.627156  0.606112  0.255744  1
  Ni  Ni12  1  0.106112  0.872844  0.244256  1
  Ni  Ni13  1  0.893888  0.127156  0.244256  1
  Ni  Ni14  1  0.372844  0.393888  0.744256  1
  Ni  Ni15  1  0.627156  0.606112  0.744256  1
  Sn  Sn16  1  0.000000  0.500000  0.250000  1
  Sn  Sn17  1  0.000000  0.500000  0.750000  1
  Hg  Hg18  1  0.500000  0.000000  0.250000  1
  Hg  Hg19  1  0.500000  0.000000  0.750000  1
