# generated using pymatgen
data_Mn3Fe3SiAsP
_symmetry_space_group_name_H-M   'P 1'
_cell_length_a   6.29126100
_cell_length_b   6.29126275
_cell_length_c   3.19603500
_cell_angle_alpha   90.00000000
_cell_angle_beta   90.00000000
_cell_angle_gamma   120.00000658
_symmetry_Int_Tables_number   1
_chemical_formula_structural   Mn3Fe3SiAsP
_chemical_formula_sum   'Mn3 Fe3 Si1 As1 P1'
_cell_volume   109.55133031
_cell_formula_units_Z   1
loop_
 _symmetry_equiv_pos_site_id
 _symmetry_equiv_pos_as_xyz
  1  'x, y, z'
loop_
 _atom_site_type_symbol
 _atom_site_label
 _atom_site_symmetry_multiplicity
 _atom_site_fract_x
 _atom_site_fract_y
 _atom_site_fract_z
 _atom_site_occupancy
  Mn  Mn0  1  0.598979  0.988259  0.500000  1
  Mn  Mn1  1  0.389278  0.401021  0.500000  1
  Mn  Mn2  1  0.011741  0.610722  0.500000  1
  Fe  Fe3  1  0.251276  0.998328  0.000000  1
  Fe  Fe4  1  0.747052  0.748724  0.000000  1
  Fe  Fe5  1  0.001672  0.252948  0.000000  1
  Si  Si6  1  0.333333  0.666667  0.000000  1
  As  As7  1  0.666667  0.333333  0.000000  1
  P  P8  1  0.000000  0.000000  0.500000  1
