# generated using pymatgen
data_Sr8Tl2In2Cu3N5
_symmetry_space_group_name_H-M   'P 1'
_cell_length_a   11.53870071
_cell_length_b   11.53870201
_cell_length_c   11.53870165
_cell_angle_alpha   160.67824772
_cell_angle_beta   114.99741432
_cell_angle_gamma   68.51529909
_symmetry_Int_Tables_number   1
_chemical_formula_structural   Sr8Tl2In2Cu3N5
_chemical_formula_sum   'Sr8 Tl2 In2 Cu3 N5'
_cell_volume   457.98081143
_cell_formula_units_Z   1
loop_
 _symmetry_equiv_pos_site_id
 _symmetry_equiv_pos_as_xyz
  1  'x, y, z'
loop_
 _atom_site_type_symbol
 _atom_site_label
 _atom_site_symmetry_multiplicity
 _atom_site_fract_x
 _atom_site_fract_y
 _atom_site_fract_z
 _atom_site_occupancy
  Sr  Sr0  1  0.563479  0.710833  0.852645  1
  Sr  Sr1  1  0.747744  0.901203  0.846541  1
  Sr  Sr2  1  0.436521  0.289167  0.147355  1
  Sr  Sr3  1  0.858189  0.710833  0.147355  1
  Sr  Sr4  1  0.141811  0.289167  0.852645  1
  Sr  Sr5  1  0.252256  0.098797  0.153459  1
  Sr  Sr6  1  0.054662  0.901203  0.153459  1
  Sr  Sr7  1  0.945338  0.098797  0.846541  1
  Tl  Tl8  1  0.651717  0.500000  0.151717  1
  Tl  Tl9  1  0.348283  0.500000  0.848283  1
  In  In10  1  0.414486  0.914486  0.500000  1
  In  In11  1  0.585514  0.085514  0.500000  1
  Cu  Cu12  1  0.191259  0.691259  0.500000  1
  Cu  Cu13  1  0.808741  0.308741  0.500000  1
  Cu  Cu14  1  0.000000  0.500000  0.500000  1
  N  N15  1  0.345313  0.693572  0.651741  1
  N  N16  1  0.958168  0.306428  0.651741  1
  N  N17  1  0.041832  0.693572  0.348259  1
  N  N18  1  0.000000  0.000000  0.000000  1
  N  N19  1  0.654687  0.306428  0.348259  1
