# generated using pymatgen
data_Tb3Y5CdHgIr2
_symmetry_space_group_name_H-M   'P 1'
_cell_length_a   9.65938847
_cell_length_b   9.66726294
_cell_length_c   9.66502954
_cell_angle_alpha   59.95027652
_cell_angle_beta   60.03641122
_cell_angle_gamma   60.04838710
_symmetry_Int_Tables_number   1
_chemical_formula_structural   Tb3Y5CdHgIr2
_chemical_formula_sum   'Tb6 Y10 Cd2 Hg2 Ir4'
_cell_volume   638.34533994
_cell_formula_units_Z   2
loop_
 _symmetry_equiv_pos_site_id
 _symmetry_equiv_pos_as_xyz
  1  'x, y, z'
loop_
 _atom_site_type_symbol
 _atom_site_label
 _atom_site_symmetry_multiplicity
 _atom_site_fract_x
 _atom_site_fract_y
 _atom_site_fract_z
 _atom_site_occupancy
  Tb  Tb0  1  0.349274  0.350029  0.348250  1
  Tb  Tb1  1  0.350022  0.349286  0.952454  1
  Tb  Tb2  1  0.351619  0.949116  0.349208  1
  Tb  Tb3  1  0.949071  0.351618  0.350085  1
  Tb  Tb4  1  0.809385  0.188686  0.191130  1
  Tb  Tb5  1  0.188672  0.809356  0.810798  1
  Y  Y6  1  0.188884  0.809084  0.191569  1
  Y  Y7  1  0.809099  0.188889  0.810457  1
  Y  Y8  1  0.189616  0.189568  0.810407  1
  Y  Y9  1  0.808833  0.808865  0.191168  1
  Y  Y10  1  0.937586  0.561525  0.562472  1
  Y  Y11  1  0.561490  0.937576  0.938428  1
  Y  Y12  1  0.561171  0.937845  0.562340  1
  Y  Y13  1  0.937858  0.561201  0.938643  1
  Y  Y14  1  0.561444  0.561456  0.938538  1
  Y  Y15  1  0.938015  0.937999  0.562004  1
  Cd  Cd16  1  0.579931  0.258219  0.581116  1
  Cd  Cd17  1  0.258233  0.579919  0.580727  1
  Hg  Hg18  1  0.583965  0.583678  0.585853  1
  Hg  Hg19  1  0.583699  0.583955  0.246497  1
  Ir  Ir20  1  0.141388  0.142851  0.141503  1
  Ir  Ir21  1  0.142844  0.141395  0.574270  1
  Ir  Ir22  1  0.143160  0.574739  0.140346  1
  Ir  Ir23  1  0.574742  0.143145  0.141737  1
