# generated using pymatgen
data_NaFe2CoP12Pt
_symmetry_space_group_name_H-M   'P 1'
_cell_length_a   6.79984930
_cell_length_b   6.82358291
_cell_length_c   6.82840453
_cell_angle_alpha   109.51709131
_cell_angle_beta   109.33105173
_cell_angle_gamma   109.35120149
_symmetry_Int_Tables_number   1
_chemical_formula_structural   NaFe2CoP12Pt
_chemical_formula_sum   'Na1 Fe2 Co1 P12 Pt1'
_cell_volume   244.54088227
_cell_formula_units_Z   1
loop_
 _symmetry_equiv_pos_site_id
 _symmetry_equiv_pos_as_xyz
  1  'x, y, z'
loop_
 _atom_site_type_symbol
 _atom_site_label
 _atom_site_symmetry_multiplicity
 _atom_site_fract_x
 _atom_site_fract_y
 _atom_site_fract_z
 _atom_site_occupancy
  Na  Na0  1  0.000000  0.000000  0.000000  1
  Fe  Fe1  1  0.000000  0.000000  0.500000  1
  Fe  Fe2  1  0.000000  0.500000  0.000000  1
  Co  Co3  1  0.500000  0.500000  0.500000  1
  P  P4  1  0.501101  0.846224  0.631056  1
  P  P5  1  0.198653  0.851586  0.347583  1
  P  P6  1  0.801347  0.148414  0.652417  1
  P  P7  1  0.145746  0.346750  0.496353  1
  P  P8  1  0.345953  0.496480  0.144915  1
  P  P9  1  0.498899  0.153776  0.368944  1
  P  P10  1  0.128938  0.630378  0.786621  1
  P  P11  1  0.342010  0.213405  0.843354  1
  P  P12  1  0.854254  0.653250  0.503647  1
  P  P13  1  0.657990  0.786595  0.156646  1
  P  P14  1  0.871062  0.369622  0.213379  1
  P  P15  1  0.654047  0.503520  0.855085  1
  Pt  Pt16  1  0.500000  0.000000  0.000000  1
