# generated using pymatgen
data_Dy7Y3NiHg3
_symmetry_space_group_name_H-M   'P 1'
_cell_length_a   9.65653900
_cell_length_b   9.65653954
_cell_length_c   9.59129800
_cell_angle_alpha   90.00000000
_cell_angle_beta   90.00000000
_cell_angle_gamma   119.99999472
_symmetry_Int_Tables_number   1
_chemical_formula_structural   Dy7Y3NiHg3
_chemical_formula_sum   'Dy14 Y6 Ni2 Hg6'
_cell_volume   774.55285918
_cell_formula_units_Z   2
loop_
 _symmetry_equiv_pos_site_id
 _symmetry_equiv_pos_as_xyz
  1  'x, y, z'
loop_
 _atom_site_type_symbol
 _atom_site_label
 _atom_site_symmetry_multiplicity
 _atom_site_fract_x
 _atom_site_fract_y
 _atom_site_fract_z
 _atom_site_occupancy
  Dy  Dy0  1  0.000000  0.000000  0.500000  1
  Dy  Dy1  1  0.000000  0.000000  0.000000  1
  Dy  Dy2  1  0.209575  0.790425  0.435807  1
  Dy  Dy3  1  0.209575  0.419150  0.435807  1
  Dy  Dy4  1  0.580850  0.790425  0.435807  1
  Dy  Dy5  1  0.790425  0.209575  0.564193  1
  Dy  Dy6  1  0.790425  0.580850  0.564193  1
  Dy  Dy7  1  0.419150  0.209575  0.564193  1
  Dy  Dy8  1  0.790425  0.209575  0.935807  1
  Dy  Dy9  1  0.790425  0.580850  0.935807  1
  Dy  Dy10  1  0.419150  0.209575  0.935807  1
  Dy  Dy11  1  0.209575  0.790425  0.064193  1
  Dy  Dy12  1  0.209575  0.419150  0.064193  1
  Dy  Dy13  1  0.580850  0.790425  0.064193  1
  Y  Y14  1  0.543250  0.456750  0.250000  1
  Y  Y15  1  0.543250  0.086501  0.250000  1
  Y  Y16  1  0.913499  0.456750  0.250000  1
  Y  Y17  1  0.456750  0.543250  0.750000  1
  Y  Y18  1  0.456750  0.913499  0.750000  1
  Y  Y19  1  0.086501  0.543250  0.750000  1
  Ni  Ni20  1  0.333333  0.666667  0.250000  1
  Ni  Ni21  1  0.666667  0.333333  0.750000  1
  Hg  Hg22  1  0.879752  0.120248  0.250000  1
  Hg  Hg23  1  0.879752  0.759505  0.250000  1
  Hg  Hg24  1  0.240495  0.120248  0.250000  1
  Hg  Hg25  1  0.120248  0.879752  0.750000  1
  Hg  Hg26  1  0.120248  0.240495  0.750000  1
  Hg  Hg27  1  0.759505  0.879752  0.750000  1
