# generated using pymatgen
data_Ho10In8CoPt3
_symmetry_space_group_name_H-M   'P 1'
_cell_length_a   3.62451600
_cell_length_b   8.08306002
_cell_length_c   18.14720305
_cell_angle_alpha   90.00873051
_cell_angle_beta   90.00000000
_cell_angle_gamma   90.00000000
_symmetry_Int_Tables_number   1
_chemical_formula_structural   Ho10In8CoPt3
_chemical_formula_sum   'Ho10 In8 Co1 Pt3'
_cell_volume   531.66187513
_cell_formula_units_Z   1
loop_
 _symmetry_equiv_pos_site_id
 _symmetry_equiv_pos_as_xyz
  1  'x, y, z'
loop_
 _atom_site_type_symbol
 _atom_site_label
 _atom_site_symmetry_multiplicity
 _atom_site_fract_x
 _atom_site_fract_y
 _atom_site_fract_z
 _atom_site_occupancy
  Ho  Ho0  1  0.000000  0.112402  0.408646  1
  Ho  Ho1  1  0.000000  0.883615  0.584518  1
  Ho  Ho2  1  0.000000  0.383135  0.914997  1
  Ho  Ho3  1  0.000000  0.617350  0.087171  1
  Ho  Ho4  1  0.000000  0.234704  0.223590  1
  Ho  Ho5  1  0.000000  0.757303  0.779206  1
  Ho  Ho6  1  0.000000  0.256302  0.720779  1
  Ho  Ho7  1  0.000000  0.756199  0.279853  1
  Ho  Ho8  1  0.000000  0.999858  0.000873  1
  Ho  Ho9  1  0.000000  0.500624  0.498935  1
  In  In10  1  0.500000  0.422817  0.351250  1
  In  In11  1  0.500000  0.574946  0.647731  1
  In  In12  1  0.500000  0.074754  0.852103  1
  In  In13  1  0.500000  0.929671  0.152089  1
  In  In14  1  0.500000  0.291722  0.068158  1
  In  In15  1  0.500000  0.708474  0.933692  1
  In  In16  1  0.500000  0.207747  0.564877  1
  In  In17  1  0.500000  0.795497  0.429615  1
  Co  Co18  1  0.500000  0.019628  0.305103  1
  Pt  Pt19  1  0.500000  0.975451  0.695587  1
  Pt  Pt20  1  0.500000  0.475810  0.804158  1
  Pt  Pt21  1  0.500000  0.521990  0.197069  1
