# generated using pymatgen
data_Tb3TmCo4(P3Rh4)4
_symmetry_space_group_name_H-M   'P 1'
_cell_length_a   3.85328100
_cell_length_b   10.76191461
_cell_length_c   12.41645351
_cell_angle_alpha   90.11718673
_cell_angle_beta   90.00000000
_cell_angle_gamma   90.00000000
_symmetry_Int_Tables_number   1
_chemical_formula_structural   Tb3TmCo4(P3Rh4)4
_chemical_formula_sum   'Tb3 Tm1 Co4 P12 Rh16'
_cell_volume   514.89287403
_cell_formula_units_Z   1
loop_
 _symmetry_equiv_pos_site_id
 _symmetry_equiv_pos_as_xyz
  1  'x, y, z'
loop_
 _atom_site_type_symbol
 _atom_site_label
 _atom_site_symmetry_multiplicity
 _atom_site_fract_x
 _atom_site_fract_y
 _atom_site_fract_z
 _atom_site_occupancy
  Tb  Tb0  1  0.250000  0.914833  0.208019  1
  Tb  Tb1  1  0.750000  0.415074  0.291998  1
  Tb  Tb2  1  0.750000  0.085010  0.792032  1
  Tm  Tm3  1  0.250000  0.584939  0.707861  1
  Co  Co4  1  0.250000  0.464661  0.933148  1
  Co  Co5  1  0.250000  0.035840  0.434198  1
  Co  Co6  1  0.750000  0.535964  0.065217  1
  Co  Co7  1  0.750000  0.963322  0.566212  1
  P  P8  1  0.250000  0.424106  0.105237  1
  P  P9  1  0.250000  0.075820  0.605986  1
  P  P10  1  0.750000  0.576118  0.893340  1
  P  P11  1  0.750000  0.923910  0.394212  1
  P  P12  1  0.250000  0.272451  0.872833  1
  P  P13  1  0.250000  0.227809  0.372874  1
  P  P14  1  0.750000  0.727581  0.127173  1
  P  P15  1  0.750000  0.771093  0.628215  1
  P  P16  1  0.250000  0.599593  0.387781  1
  P  P17  1  0.250000  0.900550  0.888057  1
  P  P18  1  0.750000  0.401268  0.612543  1
  P  P19  1  0.750000  0.099684  0.111973  1
  Rh  Rh20  1  0.250000  0.716186  0.987020  1
  Rh  Rh21  1  0.250000  0.783914  0.487330  1
  Rh  Rh22  1  0.750000  0.283956  0.012257  1
  Rh  Rh23  1  0.750000  0.216273  0.513231  1
  Rh  Rh24  1  0.250000  0.408489  0.480398  1
  Rh  Rh25  1  0.250000  0.092012  0.980460  1
  Rh  Rh26  1  0.750000  0.591979  0.521997  1
  Rh  Rh27  1  0.750000  0.908173  0.019393  1
  Rh  Rh28  1  0.250000  0.227107  0.177930  1
  Rh  Rh29  1  0.250000  0.273033  0.678451  1
  Rh  Rh30  1  0.750000  0.771479  0.821020  1
  Rh  Rh31  1  0.750000  0.726352  0.322369  1
  Rh  Rh32  1  0.250000  0.885869  0.698465  1
  Rh  Rh33  1  0.250000  0.613829  0.198121  1
  Rh  Rh34  1  0.750000  0.113785  0.301846  1
  Rh  Rh35  1  0.750000  0.387941  0.800802  1
