# generated using pymatgen
data_La8YbPt6
_symmetry_space_group_name_H-M   'P 1'
_cell_length_a   7.80229950
_cell_length_b   7.80229976
_cell_length_c   7.80229913
_cell_angle_alpha   71.55687246
_cell_angle_beta   71.55687162
_cell_angle_gamma   71.55687192
_symmetry_Int_Tables_number   1
_chemical_formula_structural   La8YbPt6
_chemical_formula_sum   'La8 Yb1 Pt6'
_cell_volume   414.90626179
_cell_formula_units_Z   1
loop_
 _symmetry_equiv_pos_site_id
 _symmetry_equiv_pos_as_xyz
  1  'x, y, z'
loop_
 _atom_site_type_symbol
 _atom_site_label
 _atom_site_symmetry_multiplicity
 _atom_site_fract_x
 _atom_site_fract_y
 _atom_site_fract_z
 _atom_site_occupancy
  La  La0  1  0.799763  0.799763  0.799763  1
  La  La1  1  0.200237  0.200237  0.200237  1
  La  La2  1  0.328308  0.610679  0.838225  1
  La  La3  1  0.838225  0.328308  0.610679  1
  La  La4  1  0.610679  0.838225  0.328308  1
  La  La5  1  0.671692  0.389321  0.161775  1
  La  La6  1  0.161775  0.671692  0.389321  1
  La  La7  1  0.389321  0.161775  0.671692  1
  Yb  Yb8  1  0.000000  0.000000  0.000000  1
  Pt  Pt9  1  0.165155  0.958945  0.589691  1
  Pt  Pt10  1  0.589691  0.165155  0.958945  1
  Pt  Pt11  1  0.958945  0.589691  0.165155  1
  Pt  Pt12  1  0.834845  0.041055  0.410309  1
  Pt  Pt13  1  0.410309  0.834845  0.041055  1
  Pt  Pt14  1  0.041055  0.410309  0.834845  1
