# generated using pymatgen
data_DyFe4ReP3
_symmetry_space_group_name_H-M   'P 1'
_cell_length_a   3.72128000
_cell_length_b   10.37950400
_cell_length_c   11.80252900
_cell_angle_alpha   90.00000000
_cell_angle_beta   90.00000000
_cell_angle_gamma   90.00000000
_symmetry_Int_Tables_number   1
_chemical_formula_structural   DyFe4ReP3
_chemical_formula_sum   'Dy4 Fe16 Re4 P12'
_cell_volume   455.87316234
_cell_formula_units_Z   4
loop_
 _symmetry_equiv_pos_site_id
 _symmetry_equiv_pos_as_xyz
  1  'x, y, z'
loop_
 _atom_site_type_symbol
 _atom_site_label
 _atom_site_symmetry_multiplicity
 _atom_site_fract_x
 _atom_site_fract_y
 _atom_site_fract_z
 _atom_site_occupancy
  Dy  Dy0  1  0.250000  0.582110  0.704228  1
  Dy  Dy1  1  0.250000  0.917890  0.204228  1
  Dy  Dy2  1  0.750000  0.417890  0.295772  1
  Dy  Dy3  1  0.750000  0.082110  0.795772  1
  Fe  Fe4  1  0.250000  0.404926  0.489983  1
  Fe  Fe5  1  0.250000  0.095074  0.989983  1
  Fe  Fe6  1  0.750000  0.595074  0.510017  1
  Fe  Fe7  1  0.750000  0.904926  0.010017  1
  Fe  Fe8  1  0.250000  0.216975  0.177647  1
  Fe  Fe9  1  0.250000  0.283025  0.677647  1
  Fe  Fe10  1  0.750000  0.783025  0.822353  1
  Fe  Fe11  1  0.750000  0.716975  0.322353  1
  Fe  Fe12  1  0.250000  0.877532  0.701839  1
  Fe  Fe13  1  0.250000  0.622468  0.201839  1
  Fe  Fe14  1  0.750000  0.122468  0.298161  1
  Fe  Fe15  1  0.750000  0.377532  0.798161  1
  Fe  Fe16  1  0.250000  0.463088  0.933644  1
  Fe  Fe17  1  0.250000  0.036912  0.433644  1
  Fe  Fe18  1  0.750000  0.536912  0.066356  1
  Fe  Fe19  1  0.750000  0.963088  0.566356  1
  Re  Re20  1  0.250000  0.704977  0.987042  1
  Re  Re21  1  0.250000  0.795023  0.487042  1
  Re  Re22  1  0.750000  0.295023  0.012958  1
  Re  Re23  1  0.750000  0.204977  0.512958  1
  P  P24  1  0.250000  0.422853  0.114673  1
  P  P25  1  0.250000  0.077147  0.614673  1
  P  P26  1  0.750000  0.577147  0.885327  1
  P  P27  1  0.750000  0.922853  0.385327  1
  P  P28  1  0.250000  0.265583  0.870060  1
  P  P29  1  0.250000  0.234417  0.370060  1
  P  P30  1  0.750000  0.734417  0.129940  1
  P  P31  1  0.750000  0.765583  0.629940  1
  P  P32  1  0.250000  0.594591  0.394751  1
  P  P33  1  0.250000  0.905409  0.894751  1
  P  P34  1  0.750000  0.405409  0.605249  1
  P  P35  1  0.750000  0.094591  0.105249  1
