# generated using pymatgen
data_CePrPPt8
_symmetry_space_group_name_H-M   'P 1'
_cell_length_a   9.18373111
_cell_length_b   9.18692995
_cell_length_c   4.31420700
_cell_angle_alpha   90.00000000
_cell_angle_beta   90.00000000
_cell_angle_gamma   145.51854291
_symmetry_Int_Tables_number   1
_chemical_formula_structural   CePrPPt8
_chemical_formula_sum   'Ce1 Pr1 P1 Pt8'
_cell_volume   206.06963122
_cell_formula_units_Z   1
loop_
 _symmetry_equiv_pos_site_id
 _symmetry_equiv_pos_as_xyz
  1  'x, y, z'
loop_
 _atom_site_type_symbol
 _atom_site_label
 _atom_site_symmetry_multiplicity
 _atom_site_fract_x
 _atom_site_fract_y
 _atom_site_fract_z
 _atom_site_occupancy
  Ce  Ce0  1  0.370852  0.622230  0.500000  1
  Pr  Pr1  1  0.620119  0.374268  0.500000  1
  P  P2  1  0.224545  0.223304  0.000000  1
  Pt  Pt3  1  0.107278  0.887215  0.000000  1
  Pt  Pt4  1  0.893337  0.112242  0.000000  1
  Pt  Pt5  1  0.489994  0.981182  0.000000  1
  Pt  Pt6  1  0.986648  0.489307  0.000000  1
  Pt  Pt7  1  0.196362  0.792788  0.500000  1
  Pt  Pt8  1  0.793014  0.193098  0.500000  1
  Pt  Pt9  1  0.001104  0.002756  0.500000  1
  Pt  Pt10  1  0.630345  0.635211  0.000000  1
