# generated using pymatgen
data_La3Tb9(AlAu5)4
_symmetry_space_group_name_H-M   'P 1'
_cell_length_a   8.58277843
_cell_length_b   8.58277986
_cell_length_c   13.66679900
_cell_angle_alpha   90.00000000
_cell_angle_beta   90.00000000
_cell_angle_gamma   128.39531826
_symmetry_Int_Tables_number   1
_chemical_formula_structural   La3Tb9(AlAu5)4
_chemical_formula_sum   'La3 Tb9 Al4 Au20'
_cell_volume   789.03637899
_cell_formula_units_Z   1
loop_
 _symmetry_equiv_pos_site_id
 _symmetry_equiv_pos_as_xyz
  1  'x, y, z'
loop_
 _atom_site_type_symbol
 _atom_site_label
 _atom_site_symmetry_multiplicity
 _atom_site_fract_x
 _atom_site_fract_y
 _atom_site_fract_z
 _atom_site_occupancy
  La  La0  1  0.930974  0.069026  0.250000  1
  La  La1  1  0.069956  0.930044  0.750000  1
  La  La2  1  0.318755  0.681245  0.250000  1
  Tb  Tb3  1  0.681638  0.318362  0.750000  1
  Tb  Tb4  1  0.631210  0.368790  0.465480  1
  Tb  Tb5  1  0.368538  0.631462  0.536395  1
  Tb  Tb6  1  0.631210  0.368790  0.034520  1
  Tb  Tb7  1  0.368538  0.631462  0.963605  1
  Tb  Tb8  1  0.881187  0.118813  0.949558  1
  Tb  Tb9  1  0.119053  0.880947  0.048685  1
  Tb  Tb10  1  0.881187  0.118813  0.550442  1
  Tb  Tb11  1  0.119053  0.880947  0.451315  1
  Al  Al12  1  0.718638  0.281362  0.250000  1
  Al  Al13  1  0.281415  0.718585  0.750000  1
  Al  Al14  1  0.534181  0.465819  0.250000  1
  Al  Al15  1  0.467249  0.532751  0.750000  1
  Au  Au16  1  0.323589  0.070755  0.250000  1
  Au  Au17  1  0.068507  0.325045  0.750000  1
  Au  Au18  1  0.674955  0.931493  0.750000  1
  Au  Au19  1  0.929245  0.676411  0.250000  1
  Au  Au20  1  0.572907  0.008107  0.400019  1
  Au  Au21  1  0.004225  0.569799  0.602877  1
  Au  Au22  1  0.572907  0.008107  0.099981  1
  Au  Au23  1  0.004225  0.569799  0.897123  1
  Au  Au24  1  0.430201  0.995775  0.602877  1
  Au  Au25  1  0.991893  0.427093  0.400019  1
  Au  Au26  1  0.430201  0.995775  0.897123  1
  Au  Au27  1  0.991893  0.427093  0.099981  1
  Au  Au28  1  0.683750  0.736312  0.397578  1
  Au  Au29  1  0.736128  0.682330  0.603775  1
  Au  Au30  1  0.683750  0.736312  0.102422  1
  Au  Au31  1  0.736128  0.682330  0.896225  1
  Au  Au32  1  0.317670  0.263872  0.603775  1
  Au  Au33  1  0.263688  0.316250  0.397578  1
  Au  Au34  1  0.317670  0.263872  0.896225  1
  Au  Au35  1  0.263688  0.316250  0.102422  1
