# generated using pymatgen
data_Tm2HfB2Ir5
_symmetry_space_group_name_H-M   'P 1'
_cell_length_a   9.65897900
_cell_length_b   9.65897900
_cell_length_c   3.24451200
_cell_angle_alpha   90.00000000
_cell_angle_beta   90.00000000
_cell_angle_gamma   90.00000000
_symmetry_Int_Tables_number   1
_chemical_formula_structural   Tm2HfB2Ir5
_chemical_formula_sum   'Tm4 Hf2 B4 Ir10'
_cell_volume   302.69958703
_cell_formula_units_Z   2
loop_
 _symmetry_equiv_pos_site_id
 _symmetry_equiv_pos_as_xyz
  1  'x, y, z'
loop_
 _atom_site_type_symbol
 _atom_site_label
 _atom_site_symmetry_multiplicity
 _atom_site_fract_x
 _atom_site_fract_y
 _atom_site_fract_z
 _atom_site_occupancy
  Tm  Tm0  1  0.175777  0.675777  0.000000  1
  Tm  Tm1  1  0.324223  0.175777  0.000000  1
  Tm  Tm2  1  0.824223  0.324223  0.000000  1
  Tm  Tm3  1  0.675777  0.824223  0.000000  1
  Hf  Hf4  1  0.500000  0.500000  0.000000  1
  Hf  Hf5  1  0.000000  0.000000  0.000000  1
  B  B6  1  0.380590  0.880590  0.000000  1
  B  B7  1  0.119410  0.380590  0.000000  1
  B  B8  1  0.880590  0.619410  0.000000  1
  B  B9  1  0.619410  0.119410  0.000000  1
  Ir  Ir10  1  0.223878  0.929671  0.500000  1
  Ir  Ir11  1  0.929671  0.776122  0.500000  1
  Ir  Ir12  1  0.429671  0.723878  0.500000  1
  Ir  Ir13  1  0.570329  0.276122  0.500000  1
  Ir  Ir14  1  0.723878  0.570329  0.500000  1
  Ir  Ir15  1  0.276122  0.429671  0.500000  1
  Ir  Ir16  1  0.070329  0.223878  0.500000  1
  Ir  Ir17  1  0.000000  0.500000  0.500000  1
  Ir  Ir18  1  0.500000  0.000000  0.500000  1
  Ir  Ir19  1  0.776122  0.070329  0.500000  1
