# generated using pymatgen
data_Lu2TaRu3
_symmetry_space_group_name_H-M   'P 1'
_cell_length_a   13.92561900
_cell_length_b   3.25334600
_cell_length_c   4.66961400
_cell_angle_alpha   90.00000000
_cell_angle_beta   90.00000000
_cell_angle_gamma   90.00000000
_symmetry_Int_Tables_number   1
_chemical_formula_structural   Lu2TaRu3
_chemical_formula_sum   'Lu4 Ta2 Ru6'
_cell_volume   211.55619391
_cell_formula_units_Z   2
loop_
 _symmetry_equiv_pos_site_id
 _symmetry_equiv_pos_as_xyz
  1  'x, y, z'
loop_
 _atom_site_type_symbol
 _atom_site_label
 _atom_site_symmetry_multiplicity
 _atom_site_fract_x
 _atom_site_fract_y
 _atom_site_fract_z
 _atom_site_occupancy
  Lu  Lu0  1  0.083454  0.000000  0.256097  1
  Lu  Lu1  1  0.416547  0.000000  0.256097  1
  Lu  Lu2  1  0.583453  0.000000  0.743904  1
  Lu  Lu3  1  0.916546  0.000000  0.743904  1
  Ta  Ta4  1  0.750000  0.000000  0.239198  1
  Ta  Ta5  1  0.250000  0.000000  0.760803  1
  Ru  Ru6  1  0.596055  0.500001  0.240823  1
  Ru  Ru7  1  0.903946  0.500001  0.240823  1
  Ru  Ru8  1  0.250000  0.500001  0.263545  1
  Ru  Ru9  1  0.750000  0.500001  0.736455  1
  Ru  Ru10  1  0.096054  0.500001  0.759177  1
  Ru  Ru11  1  0.403945  0.500001  0.759177  1
