# generated using pymatgen
data_Zn6GaSiIr4
_symmetry_space_group_name_H-M   'P 1'
_cell_length_a   8.02512741
_cell_length_b   8.02512719
_cell_length_c   8.01947300
_cell_angle_alpha   60.02330808
_cell_angle_beta   60.02330899
_cell_angle_gamma   60.02246805
_symmetry_Int_Tables_number   1
_chemical_formula_structural   Zn6GaSiIr4
_chemical_formula_sum   'Zn12 Ga2 Si2 Ir8'
_cell_volume   365.39394813
_cell_formula_units_Z   2
loop_
 _symmetry_equiv_pos_site_id
 _symmetry_equiv_pos_as_xyz
  1  'x, y, z'
loop_
 _atom_site_type_symbol
 _atom_site_label
 _atom_site_symmetry_multiplicity
 _atom_site_fract_x
 _atom_site_fract_y
 _atom_site_fract_z
 _atom_site_occupancy
  Zn  Zn0  1  0.812483  0.812483  0.187517  1
  Zn  Zn1  1  0.187367  0.187367  0.812633  1
  Zn  Zn2  1  0.810930  0.184066  0.812122  1
  Zn  Zn3  1  0.184066  0.810930  0.192882  1
  Zn  Zn4  1  0.184066  0.810930  0.812122  1
  Zn  Zn5  1  0.810930  0.184066  0.192882  1
  Zn  Zn6  1  0.437517  0.437517  0.062483  1
  Zn  Zn7  1  0.062633  0.062633  0.437367  1
  Zn  Zn8  1  0.439070  0.065934  0.437878  1
  Zn  Zn9  1  0.065934  0.439070  0.057118  1
  Zn  Zn10  1  0.065934  0.439070  0.437878  1
  Zn  Zn11  1  0.439070  0.065934  0.057118  1
  Ga  Ga12  1  0.125000  0.625000  0.625000  1
  Ga  Ga13  1  0.625000  0.125000  0.625000  1
  Si  Si14  1  0.625000  0.625000  0.125000  1
  Si  Si15  1  0.625000  0.625000  0.625000  1
  Ir  Ir16  1  0.776829  0.419080  0.402046  1
  Ir  Ir17  1  0.419080  0.776829  0.402046  1
  Ir  Ir18  1  0.415854  0.415854  0.770258  1
  Ir  Ir19  1  0.415854  0.415854  0.398034  1
  Ir  Ir20  1  0.473171  0.830920  0.847954  1
  Ir  Ir21  1  0.830920  0.473171  0.847954  1
  Ir  Ir22  1  0.834146  0.834146  0.479742  1
  Ir  Ir23  1  0.834146  0.834146  0.851966  1
