# generated using pymatgen
data_Yb3Th(Ga12Cu)2
_symmetry_space_group_name_H-M   'P 1'
_cell_length_a   6.11992219
_cell_length_b   6.11992219
_cell_length_c   15.35451100
_cell_angle_alpha   90.00000000
_cell_angle_beta   90.00000000
_cell_angle_gamma   90.24680583
_symmetry_Int_Tables_number   1
_chemical_formula_structural   Yb3Th(Ga12Cu)2
_chemical_formula_sum   'Yb3 Th1 Ga24 Cu2'
_cell_volume   575.07403885
_cell_formula_units_Z   1
loop_
 _symmetry_equiv_pos_site_id
 _symmetry_equiv_pos_as_xyz
  1  'x, y, z'
loop_
 _atom_site_type_symbol
 _atom_site_label
 _atom_site_symmetry_multiplicity
 _atom_site_fract_x
 _atom_site_fract_y
 _atom_site_fract_z
 _atom_site_occupancy
  Yb  Yb0  1  0.500000  0.000000  0.755897  1
  Yb  Yb1  1  0.000000  0.500000  0.243481  1
  Yb  Yb2  1  0.500000  0.000000  0.243110  1
  Th  Th3  1  0.000000  0.500000  0.756501  1
  Ga  Ga4  1  0.671292  0.171292  0.430045  1
  Ga  Ga5  1  0.668011  0.831989  0.570551  1
  Ga  Ga6  1  0.169483  0.669483  0.569787  1
  Ga  Ga7  1  0.830517  0.330517  0.569787  1
  Ga  Ga8  1  0.500000  0.500000  0.181887  1
  Ga  Ga9  1  0.500000  0.500000  0.818092  1
  Ga  Ga10  1  0.000000  0.000000  0.818092  1
  Ga  Ga11  1  0.000000  0.000000  0.181887  1
  Ga  Ga12  1  0.500000  0.500000  0.341910  1
  Ga  Ga13  1  0.500000  0.500000  0.657615  1
  Ga  Ga14  1  0.000000  0.000000  0.657615  1
  Ga  Ga15  1  0.000000  0.000000  0.341910  1
  Ga  Ga16  1  0.252827  0.752827  0.914751  1
  Ga  Ga17  1  0.252344  0.247656  0.914440  1
  Ga  Ga18  1  0.747656  0.752344  0.914440  1
  Ga  Ga19  1  0.249354  0.250646  0.086020  1
  Ga  Ga20  1  0.750646  0.749354  0.086020  1
  Ga  Ga21  1  0.747173  0.247173  0.914751  1
  Ga  Ga22  1  0.750514  0.250514  0.086184  1
  Ga  Ga23  1  0.249486  0.749486  0.086184  1
  Ga  Ga24  1  0.328708  0.828708  0.430045  1
  Ga  Ga25  1  0.172532  0.327468  0.429620  1
  Ga  Ga26  1  0.827468  0.672532  0.429620  1
  Ga  Ga27  1  0.331989  0.168011  0.570551  1
  Cu  Cu28  1  0.500000  0.000000  0.000336  1
  Cu  Cu29  1  0.000000  0.500000  0.998872  1
