# generated using pymatgen
data_CaSmMgRuO6
_symmetry_space_group_name_H-M   'P 1'
_cell_length_a   5.67390000
_cell_length_b   5.43779526
_cell_length_c   9.49525848
_cell_angle_alpha   55.00840076
_cell_angle_beta   90.00000000
_cell_angle_gamma   90.00000000
_symmetry_Int_Tables_number   1
_chemical_formula_structural   CaSmMgRuO6
_chemical_formula_sum   'Ca2 Sm2 Mg2 Ru2 O12'
_cell_volume   240.00507230
_cell_formula_units_Z   2
loop_
 _symmetry_equiv_pos_site_id
 _symmetry_equiv_pos_as_xyz
  1  'x, y, z'
loop_
 _atom_site_type_symbol
 _atom_site_label
 _atom_site_symmetry_multiplicity
 _atom_site_fract_x
 _atom_site_fract_y
 _atom_site_fract_z
 _atom_site_occupancy
  Ca  Ca0  1  0.193003  0.735876  0.750928  1
  Ca  Ca1  1  0.806997  0.735876  0.250928  1
  Sm  Sm2  1  0.313721  0.268451  0.247842  1
  Sm  Sm3  1  0.686279  0.268451  0.747842  1
  Mg  Mg4  1  0.244692  0.501175  0.499826  1
  Mg  Mg5  1  0.755308  0.501175  0.999826  1
  Ru  Ru6  1  0.753468  0.000772  0.499523  1
  Ru  Ru7  1  0.246532  0.000772  0.999523  1
  O  O8  1  0.955166  0.241381  0.945746  1
  O  O9  1  0.044834  0.241381  0.445746  1
  O  O10  1  0.535779  0.751723  0.053527  1
  O  O11  1  0.464221  0.751723  0.553527  1
  O  O12  1  0.943055  0.653648  0.549980  1
  O  O13  1  0.056945  0.653648  0.049980  1
  O  O14  1  0.552973  0.339328  0.452481  1
  O  O15  1  0.447027  0.339328  0.952481  1
  O  O16  1  0.784309  0.858560  0.743957  1
  O  O17  1  0.215691  0.858560  0.243957  1
  O  O18  1  0.717098  0.149087  0.256191  1
  O  O19  1  0.282902  0.149087  0.756191  1
