# generated using pymatgen
data_Yb10SnSb5
_symmetry_space_group_name_H-M   'P 1'
_cell_length_a   9.11103400
_cell_length_b   9.12279724
_cell_length_c   6.89223500
_cell_angle_alpha   90.00000000
_cell_angle_beta   90.00000000
_cell_angle_gamma   119.95735504
_symmetry_Int_Tables_number   1
_chemical_formula_structural   Yb10SnSb5
_chemical_formula_sum   'Yb10 Sn1 Sb5'
_cell_volume   496.33266993
_cell_formula_units_Z   1
loop_
 _symmetry_equiv_pos_site_id
 _symmetry_equiv_pos_as_xyz
  1  'x, y, z'
loop_
 _atom_site_type_symbol
 _atom_site_label
 _atom_site_symmetry_multiplicity
 _atom_site_fract_x
 _atom_site_fract_y
 _atom_site_fract_z
 _atom_site_occupancy
  Yb  Yb0  1  0.004397  0.737047  0.750000  1
  Yb  Yb1  1  0.000368  0.263111  0.250000  1
  Yb  Yb2  1  0.737257  0.736889  0.250000  1
  Yb  Yb3  1  0.732601  0.000000  0.750000  1
  Yb  Yb4  1  0.267350  0.262953  0.750000  1
  Yb  Yb5  1  0.261051  0.000000  0.250000  1
  Yb  Yb6  1  0.332969  0.669022  0.501815  1
  Yb  Yb7  1  0.663948  0.330978  0.998185  1
  Yb  Yb8  1  0.663948  0.330978  0.501815  1
  Yb  Yb9  1  0.332969  0.669022  0.998185  1
  Sn  Sn10  1  0.384067  0.000000  0.750000  1
  Sb  Sb11  1  0.385288  0.387781  0.250000  1
  Sb  Sb12  1  0.997507  0.612219  0.250000  1
  Sb  Sb13  1  0.000747  0.381113  0.750000  1
  Sb  Sb14  1  0.619634  0.618887  0.750000  1
  Sb  Sb15  1  0.615899  0.000000  0.250000  1
