# generated using pymatgen
data_RbUS6
_symmetry_space_group_name_H-M   'P 1'
_cell_length_a   8.33908643
_cell_length_b   8.06264338
_cell_length_c   7.77908400
_cell_angle_alpha   84.97638545
_cell_angle_beta   86.98585469
_cell_angle_gamma   119.31599288
_symmetry_Int_Tables_number   1
_chemical_formula_structural   RbUS6
_chemical_formula_sum   'Rb2 U2 S12'
_cell_volume   451.54098963
_cell_formula_units_Z   2
loop_
 _symmetry_equiv_pos_site_id
 _symmetry_equiv_pos_as_xyz
  1  'x, y, z'
loop_
 _atom_site_type_symbol
 _atom_site_label
 _atom_site_symmetry_multiplicity
 _atom_site_fract_x
 _atom_site_fract_y
 _atom_site_fract_z
 _atom_site_occupancy
  Rb  Rb0  1  0.656667  0.329259  0.003601  1
  Rb  Rb1  1  0.336885  0.681359  0.502215  1
  U  U2  1  0.994212  0.011813  0.741772  1
  U  U3  1  0.012539  0.991361  0.242763  1
  S  S4  1  0.943812  0.216736  0.475507  1
  S  S5  1  0.208070  0.935859  0.986235  1
  S  S6  1  0.295466  0.333716  0.794468  1
  S  S7  1  0.324345  0.306779  0.291907  1
  S  S8  1  0.074741  0.275813  0.971552  1
  S  S9  1  0.270035  0.080960  0.477849  1
  S  S10  1  0.716768  0.070298  0.661410  1
  S  S11  1  0.063925  0.699840  0.173877  1
  S  S12  1  0.967766  0.675274  0.711449  1
  S  S13  1  0.686692  0.961784  0.201108  1
  S  S14  1  0.813145  0.720078  0.532677  1
  S  S15  1  0.732409  0.806546  0.026369  1
