# generated using pymatgen
data_Li6FeAs5Rh12
_symmetry_space_group_name_H-M   'P 1'
_cell_length_a   4.19511400
_cell_length_b   5.92364800
_cell_length_c   12.61800901
_cell_angle_alpha   90.00000000
_cell_angle_beta   90.00514686
_cell_angle_gamma   90.00000000
_symmetry_Int_Tables_number   1
_chemical_formula_structural   Li6FeAs5Rh12
_chemical_formula_sum   'Li6 Fe1 As5 Rh12'
_cell_volume   313.56230090
_cell_formula_units_Z   1
loop_
 _symmetry_equiv_pos_site_id
 _symmetry_equiv_pos_as_xyz
  1  'x, y, z'
loop_
 _atom_site_type_symbol
 _atom_site_label
 _atom_site_symmetry_multiplicity
 _atom_site_fract_x
 _atom_site_fract_y
 _atom_site_fract_z
 _atom_site_occupancy
  Li  Li0  1  0.000013  0.000000  0.998151  1
  Li  Li1  1  0.499843  0.500000  0.166693  1
  Li  Li2  1  0.999857  0.000000  0.333347  1
  Li  Li3  1  0.499991  0.500000  0.499957  1
  Li  Li4  1  0.000152  0.000000  0.668500  1
  Li  Li5  1  0.500086  0.500000  0.833349  1
  Fe  Fe6  1  0.500426  0.000000  0.833336  1
  As  As7  1  0.999982  0.500000  0.996182  1
  As  As8  1  0.499753  0.000000  0.164178  1
  As  As9  1  0.999580  0.500000  0.333329  1
  As  As10  1  0.499987  0.000000  0.502494  1
  As  As11  1  0.000308  0.500000  0.670481  1
  Rh  Rh12  1  0.499987  0.251776  0.003078  1
  Rh  Rh13  1  0.499987  0.748223  0.003078  1
  Rh  Rh14  1  0.999782  0.250378  0.168101  1
  Rh  Rh15  1  0.999782  0.749623  0.168101  1
  Rh  Rh16  1  0.499751  0.249505  0.333328  1
  Rh  Rh17  1  0.499751  0.750495  0.333328  1
  Rh  Rh18  1  0.999996  0.250394  0.498565  1
  Rh  Rh19  1  0.999996  0.749605  0.498565  1
  Rh  Rh20  1  0.500241  0.251797  0.663596  1
  Rh  Rh21  1  0.500241  0.748203  0.663596  1
  Rh  Rh22  1  0.000253  0.253143  0.833335  1
  Rh  Rh23  1  0.000253  0.746858  0.833335  1
