# generated using pymatgen
data_Hf5NiAs3
_symmetry_space_group_name_H-M   'P 1'
_cell_length_a   3.68491800
_cell_length_b   10.39657400
_cell_length_c   17.49352700
_cell_angle_alpha   90.00000000
_cell_angle_beta   90.00000000
_cell_angle_gamma   90.00000000
_symmetry_Int_Tables_number   1
_chemical_formula_structural   Hf5NiAs3
_chemical_formula_sum   'Hf20 Ni4 As12'
_cell_volume   670.18616273
_cell_formula_units_Z   4
loop_
 _symmetry_equiv_pos_site_id
 _symmetry_equiv_pos_as_xyz
  1  'x, y, z'
loop_
 _atom_site_type_symbol
 _atom_site_label
 _atom_site_symmetry_multiplicity
 _atom_site_fract_x
 _atom_site_fract_y
 _atom_site_fract_z
 _atom_site_occupancy
  Hf  Hf0  1  0.250000  0.119608  0.478113  1
  Hf  Hf1  1  0.750000  0.880392  0.521887  1
  Hf  Hf2  1  0.750000  0.619608  0.021887  1
  Hf  Hf3  1  0.250000  0.380392  0.978113  1
  Hf  Hf4  1  0.250000  0.061215  0.079422  1
  Hf  Hf5  1  0.750000  0.938785  0.920578  1
  Hf  Hf6  1  0.750000  0.561215  0.420578  1
  Hf  Hf7  1  0.250000  0.438785  0.579422  1
  Hf  Hf8  1  0.250000  0.486373  0.274701  1
  Hf  Hf9  1  0.750000  0.513627  0.725299  1
  Hf  Hf10  1  0.750000  0.986373  0.225299  1
  Hf  Hf11  1  0.250000  0.013627  0.774701  1
  Hf  Hf12  1  0.250000  0.814973  0.368647  1
  Hf  Hf13  1  0.750000  0.185027  0.631353  1
  Hf  Hf14  1  0.750000  0.314973  0.131353  1
  Hf  Hf15  1  0.250000  0.685027  0.868647  1
  Hf  Hf16  1  0.250000  0.758555  0.168197  1
  Hf  Hf17  1  0.750000  0.241445  0.831803  1
  Hf  Hf18  1  0.750000  0.258555  0.331803  1
  Hf  Hf19  1  0.250000  0.741445  0.668197  1
  Ni  Ni20  1  0.250000  0.370080  0.411422  1
  Ni  Ni21  1  0.750000  0.629920  0.588578  1
  Ni  Ni22  1  0.750000  0.870080  0.088578  1
  Ni  Ni23  1  0.250000  0.129920  0.911422  1
  As  As24  1  0.250000  0.811750  0.007765  1
  As  As25  1  0.750000  0.188250  0.992235  1
  As  As26  1  0.750000  0.311750  0.492235  1
  As  As27  1  0.250000  0.688250  0.507765  1
  As  As28  1  0.250000  0.509515  0.118607  1
  As  As29  1  0.750000  0.490485  0.881393  1
  As  As30  1  0.750000  0.009515  0.381393  1
  As  As31  1  0.250000  0.990485  0.618607  1
  As  As32  1  0.250000  0.188041  0.220396  1
  As  As33  1  0.750000  0.811959  0.779604  1
  As  As34  1  0.750000  0.688041  0.279604  1
  As  As35  1  0.250000  0.311959  0.720396  1
