# generated using pymatgen
data_Zr6Al16SiNi7
_symmetry_space_group_name_H-M   'P 1'
_cell_length_a   8.64402318
_cell_length_b   8.64402271
_cell_length_c   8.64402200
_cell_angle_alpha   60.00000272
_cell_angle_beta   60.00000450
_cell_angle_gamma   59.99999901
_symmetry_Int_Tables_number   1
_chemical_formula_structural   Zr6Al16SiNi7
_chemical_formula_sum   'Zr6 Al16 Si1 Ni7'
_cell_volume   456.70178383
_cell_formula_units_Z   1
loop_
 _symmetry_equiv_pos_site_id
 _symmetry_equiv_pos_as_xyz
  1  'x, y, z'
loop_
 _atom_site_type_symbol
 _atom_site_label
 _atom_site_symmetry_multiplicity
 _atom_site_fract_x
 _atom_site_fract_y
 _atom_site_fract_z
 _atom_site_occupancy
  Zr  Zr0  1  0.708546  0.291454  0.291454  1
  Zr  Zr1  1  0.291454  0.708546  0.708546  1
  Zr  Zr2  1  0.291454  0.708546  0.291454  1
  Zr  Zr3  1  0.708546  0.291454  0.708546  1
  Zr  Zr4  1  0.291454  0.291454  0.708546  1
  Zr  Zr5  1  0.708546  0.708546  0.291454  1
  Al  Al6  1  0.120414  0.120414  0.120414  1
  Al  Al7  1  0.879586  0.879586  0.879586  1
  Al  Al8  1  0.120414  0.120414  0.638759  1
  Al  Al9  1  0.120414  0.638759  0.120414  1
  Al  Al10  1  0.879586  0.879586  0.361241  1
  Al  Al11  1  0.879586  0.361241  0.879586  1
  Al  Al12  1  0.638759  0.120414  0.120414  1
  Al  Al13  1  0.361241  0.879586  0.879586  1
  Al  Al14  1  0.334267  0.334267  0.334267  1
  Al  Al15  1  0.665733  0.665733  0.665733  1
  Al  Al16  1  0.334267  0.334267  0.997201  1
  Al  Al17  1  0.334267  0.997201  0.334267  1
  Al  Al18  1  0.665733  0.665733  0.002799  1
  Al  Al19  1  0.665733  0.002799  0.665733  1
  Al  Al20  1  0.997201  0.334267  0.334267  1
  Al  Al21  1  0.002799  0.665733  0.665733  1
  Si  Si22  1  0.500000  0.500000  0.500000  1
  Ni  Ni23  1  0.500000  0.000000  0.000000  1
  Ni  Ni24  1  0.000000  0.500000  0.500000  1
  Ni  Ni25  1  0.000000  0.500000  0.000000  1
  Ni  Ni26  1  0.500000  0.000000  0.500000  1
  Ni  Ni27  1  0.000000  0.000000  0.500000  1
  Ni  Ni28  1  0.500000  0.500000  0.000000  1
  Ni  Ni29  1  0.000000  0.000000  0.000000  1
