# generated using pymatgen
data_CaDySi7Pd12
_symmetry_space_group_name_H-M   'P 1'
_cell_length_a   10.06718700
_cell_length_b   10.06718616
_cell_length_c   3.86870200
_cell_angle_alpha   90.00000000
_cell_angle_beta   90.00000000
_cell_angle_gamma   119.99999949
_symmetry_Int_Tables_number   1
_chemical_formula_structural   CaDySi7Pd12
_chemical_formula_sum   'Ca1 Dy1 Si7 Pd12'
_cell_volume   339.55657713
_cell_formula_units_Z   1
loop_
 _symmetry_equiv_pos_site_id
 _symmetry_equiv_pos_as_xyz
  1  'x, y, z'
loop_
 _atom_site_type_symbol
 _atom_site_label
 _atom_site_symmetry_multiplicity
 _atom_site_fract_x
 _atom_site_fract_y
 _atom_site_fract_z
 _atom_site_occupancy
  Ca  Ca0  1  0.000000  0.000000  0.749793  1
  Dy  Dy1  1  0.666667  0.333333  0.247556  1
  Si  Si2  1  0.333333  0.666667  0.470972  1
  Si  Si3  1  0.739011  0.783866  0.249124  1
  Si  Si4  1  0.044855  0.260989  0.249124  1
  Si  Si5  1  0.216134  0.955145  0.249124  1
  Si  Si6  1  0.925420  0.550534  0.749037  1
  Si  Si7  1  0.625115  0.074580  0.749037  1
  Si  Si8  1  0.449466  0.374885  0.749037  1
  Pd  Pd9  1  0.773561  0.048590  0.248421  1
  Pd  Pd10  1  0.275028  0.226439  0.248421  1
  Pd  Pd11  1  0.951410  0.724972  0.248421  1
  Pd  Pd12  1  0.891412  0.289448  0.750471  1
  Pd  Pd13  1  0.398035  0.108588  0.750471  1
  Pd  Pd14  1  0.710552  0.601965  0.750471  1
  Pd  Pd15  1  0.479852  0.554512  0.249499  1
  Pd  Pd16  1  0.074658  0.520148  0.249499  1
  Pd  Pd17  1  0.445488  0.925342  0.249499  1
  Pd  Pd18  1  0.188643  0.777102  0.747848  1
  Pd  Pd19  1  0.588459  0.811357  0.747848  1
  Pd  Pd20  1  0.222898  0.411541  0.747848  1
