# generated using pymatgen
data_Er2Ti2Mn10P7
_symmetry_space_group_name_H-M   'P 1'
_cell_length_a   9.44089053
_cell_length_b   9.44642399
_cell_length_c   3.56277700
_cell_angle_alpha   90.00000000
_cell_angle_beta   90.00000000
_cell_angle_gamma   119.97083565
_symmetry_Int_Tables_number   1
_chemical_formula_structural   Er2Ti2Mn10P7
_chemical_formula_sum   'Er2 Ti2 Mn10 P7'
_cell_volume   275.24993369
_cell_formula_units_Z   1
loop_
 _symmetry_equiv_pos_site_id
 _symmetry_equiv_pos_as_xyz
  1  'x, y, z'
loop_
 _atom_site_type_symbol
 _atom_site_label
 _atom_site_symmetry_multiplicity
 _atom_site_fract_x
 _atom_site_fract_y
 _atom_site_fract_z
 _atom_site_occupancy
  Er  Er0  1  0.331970  0.664883  0.000000  1
  Er  Er1  1  0.001002  0.000211  0.500000  1
  Ti  Ti2  1  0.766794  0.553119  0.500000  1
  Ti  Ti3  1  0.445484  0.209385  0.500000  1
  Mn  Mn4  1  0.039553  0.285145  0.000000  1
  Mn  Mn5  1  0.717415  0.763683  0.000000  1
  Mn  Mn6  1  0.239496  0.955694  0.000000  1
  Mn  Mn7  1  0.549718  0.051832  0.000000  1
  Mn  Mn8  1  0.948062  0.490351  0.000000  1
  Mn  Mn9  1  0.503480  0.451959  0.000000  1
  Mn  Mn10  1  0.621311  0.900883  0.500000  1
  Mn  Mn11  1  0.102128  0.719062  0.500000  1
  Mn  Mn12  1  0.275369  0.381090  0.500000  1
  Mn  Mn13  1  0.790691  0.238408  0.500000  1
  P  P14  1  0.790813  0.044281  0.000000  1
  P  P15  1  0.961981  0.747568  0.000000  1
  P  P16  1  0.248228  0.211735  0.000000  1
  P  P17  1  0.377912  0.913360  0.500000  1
  P  P18  1  0.079502  0.461154  0.500000  1
  P  P19  1  0.538796  0.624267  0.500000  1
  P  P20  1  0.670293  0.331932  0.000000  1
