# generated using pymatgen
data_CuCl15
_symmetry_space_group_name_H-M   'P 1'
_cell_length_a   10.30449686
_cell_length_b   10.85169529
_cell_length_c   14.49020100
_cell_angle_alpha   65.60701154
_cell_angle_beta   125.58533776
_cell_angle_gamma   106.13225915
_symmetry_Int_Tables_number   1
_chemical_formula_structural   CuCl15
_chemical_formula_sum   'Cu2 Cl30'
_cell_volume   1198.54991856
_cell_formula_units_Z   2
loop_
 _symmetry_equiv_pos_site_id
 _symmetry_equiv_pos_as_xyz
  1  'x, y, z'
loop_
 _atom_site_type_symbol
 _atom_site_label
 _atom_site_symmetry_multiplicity
 _atom_site_fract_x
 _atom_site_fract_y
 _atom_site_fract_z
 _atom_site_occupancy
  Cu  Cu0  1  0.308466  0.161646  0.023923  1
  Cu  Cu1  1  0.691534  0.838354  0.976077  1
  Cl  Cl2  1  0.152104  0.315002  0.954231  1
  Cl  Cl3  1  0.847896  0.684998  0.045769  1
  Cl  Cl4  1  0.197595  0.963058  0.035335  1
  Cl  Cl5  1  0.802405  0.036942  0.964665  1
  Cl  Cl6  1  0.156575  0.708861  0.308590  1
  Cl  Cl7  1  0.843425  0.291139  0.691410  1
  Cl  Cl8  1  0.365006  0.672206  0.466987  1
  Cl  Cl9  1  0.634994  0.327794  0.533013  1
  Cl  Cl10  1  0.199236  0.593666  0.690691  1
  Cl  Cl11  1  0.800764  0.406334  0.309309  1
  Cl  Cl12  1  0.010959  0.344327  0.461273  1
  Cl  Cl13  1  0.989041  0.655673  0.538727  1
  Cl  Cl14  1  0.429634  0.244499  0.828870  1
  Cl  Cl15  1  0.570366  0.755501  0.171130  1
  Cl  Cl16  1  0.304860  0.983740  0.530332  1
  Cl  Cl17  1  0.695140  0.016260  0.469668  1
  Cl  Cl18  1  0.309331  0.431279  0.294890  1
  Cl  Cl19  1  0.690669  0.568721  0.705110  1
  Cl  Cl20  1  0.012412  0.903510  0.668556  1
  Cl  Cl21  1  0.987588  0.096490  0.331444  1
  Cl  Cl22  1  0.756710  0.620527  0.846923  1
  Cl  Cl23  1  0.243290  0.379473  0.153077  1
  Cl  Cl24  1  0.660722  0.753277  0.339898  1
  Cl  Cl25  1  0.339278  0.246723  0.660102  1
  Cl  Cl26  1  0.522442  0.913489  0.664095  1
  Cl  Cl27  1  0.477558  0.086511  0.335905  1
  Cl  Cl28  1  0.088999  0.936190  0.822298  1
  Cl  Cl29  1  0.911001  0.063810  0.177702  1
  Cl  Cl30  1  0.458884  0.770624  0.943938  1
  Cl  Cl31  1  0.541116  0.229376  0.056062  1
