# generated using pymatgen
data_TbSbPtO6
_symmetry_space_group_name_H-M   'P 1'
_cell_length_a   5.24809330
_cell_length_b   5.24808307
_cell_length_c   4.95424700
_cell_angle_alpha   90.01961869
_cell_angle_beta   90.01947673
_cell_angle_gamma   119.96907752
_symmetry_Int_Tables_number   1
_chemical_formula_structural   TbSbPtO6
_chemical_formula_sum   'Tb1 Sb1 Pt1 O6'
_cell_volume   118.20767469
_cell_formula_units_Z   1
loop_
 _symmetry_equiv_pos_site_id
 _symmetry_equiv_pos_as_xyz
  1  'x, y, z'
loop_
 _atom_site_type_symbol
 _atom_site_label
 _atom_site_symmetry_multiplicity
 _atom_site_fract_x
 _atom_site_fract_y
 _atom_site_fract_z
 _atom_site_occupancy
  Tb  Tb0  1  0.517462  0.482541  0.500004  1
  Sb  Sb1  1  0.184127  0.815874  0.000004  1
  Pt  Pt2  1  0.850628  0.149382  0.000004  1
  O  O3  1  0.162903  0.125550  0.223633  1
  O  O4  1  0.515121  0.837716  0.223946  1
  O  O5  1  0.875117  0.485384  0.223933  1
  O  O6  1  0.514618  0.124884  0.776073  1
  O  O7  1  0.162284  0.484881  0.776060  1
  O  O8  1  0.874453  0.837098  0.776373  1
