# generated using pymatgen
data_Cs6ScIr(RhBr9)2
_symmetry_space_group_name_H-M   'P 1'
_cell_length_a   7.82181300
_cell_length_b   7.82181246
_cell_length_c   19.53479000
_cell_angle_alpha   90.00000000
_cell_angle_beta   90.00000000
_cell_angle_gamma   119.99998961
_symmetry_Int_Tables_number   1
_chemical_formula_structural   Cs6ScIr(RhBr9)2
_chemical_formula_sum   'Cs6 Sc1 Ir1 Rh2 Br18'
_cell_volume   1035.03313089
_cell_formula_units_Z   1
loop_
 _symmetry_equiv_pos_site_id
 _symmetry_equiv_pos_as_xyz
  1  'x, y, z'
loop_
 _atom_site_type_symbol
 _atom_site_label
 _atom_site_symmetry_multiplicity
 _atom_site_fract_x
 _atom_site_fract_y
 _atom_site_fract_z
 _atom_site_occupancy
  Cs  Cs0  1  0.333333  0.666667  0.071558  1
  Cs  Cs1  1  0.666667  0.333333  0.932520  1
  Cs  Cs2  1  0.666667  0.333333  0.570926  1
  Cs  Cs3  1  0.333333  0.666667  0.431520  1
  Cs  Cs4  1  0.000000  0.000000  0.250564  1
  Cs  Cs5  1  0.000000  0.000000  0.746098  1
  Sc  Sc6  1  0.333333  0.666667  0.839112  1
  Ir  Ir7  1  0.333333  0.666667  0.667761  1
  Rh  Rh8  1  0.666667  0.333333  0.333717  1
  Rh  Rh9  1  0.666667  0.333333  0.166325  1
  Br  Br10  1  0.182249  0.364499  0.593942  1
  Br  Br11  1  0.818403  0.636808  0.405634  1
  Br  Br12  1  0.635501  0.817751  0.593942  1
  Br  Br13  1  0.818376  0.636751  0.094211  1
  Br  Br14  1  0.363192  0.181597  0.405634  1
  Br  Br15  1  0.171345  0.342690  0.908584  1
  Br  Br16  1  0.182249  0.817751  0.593942  1
  Br  Br17  1  0.363249  0.181624  0.094211  1
  Br  Br18  1  0.818403  0.181597  0.405634  1
  Br  Br19  1  0.657310  0.828655  0.908584  1
  Br  Br20  1  0.818376  0.181624  0.094211  1
  Br  Br21  1  0.171345  0.828655  0.908584  1
  Br  Br22  1  0.521015  0.042031  0.249891  1
  Br  Br23  1  0.486098  0.972197  0.744371  1
  Br  Br24  1  0.957969  0.478985  0.249891  1
  Br  Br25  1  0.027803  0.513902  0.744371  1
  Br  Br26  1  0.521015  0.478985  0.249891  1
  Br  Br27  1  0.486098  0.513902  0.744371  1
