# generated using pymatgen
data_Zr10SnHgSb4
_symmetry_space_group_name_H-M   'P 1'
_cell_length_a   5.66656835
_cell_length_b   8.44368309
_cell_length_c   8.44368257
_cell_angle_alpha   96.46488848
_cell_angle_beta   109.60603488
_cell_angle_gamma   70.39396110
_symmetry_Int_Tables_number   1
_chemical_formula_structural   Zr10SnHgSb4
_chemical_formula_sum   'Zr10 Sn1 Hg1 Sb4'
_cell_volume   358.51401698
_cell_formula_units_Z   1
loop_
 _symmetry_equiv_pos_site_id
 _symmetry_equiv_pos_as_xyz
  1  'x, y, z'
loop_
 _atom_site_type_symbol
 _atom_site_label
 _atom_site_symmetry_multiplicity
 _atom_site_fract_x
 _atom_site_fract_y
 _atom_site_fract_z
 _atom_site_occupancy
  Zr  Zr0  1  0.421274  0.854863  0.699664  1
  Zr  Zr1  1  0.576472  0.145137  0.300336  1
  Zr  Zr2  1  0.923528  0.300336  0.145137  1
  Zr  Zr3  1  0.078726  0.699664  0.854863  1
  Zr  Zr4  1  0.721608  0.699664  0.145137  1
  Zr  Zr5  1  0.276136  0.300336  0.854863  1
  Zr  Zr6  1  0.778392  0.145137  0.699664  1
  Zr  Zr7  1  0.223864  0.854863  0.300336  1
  Zr  Zr8  1  0.250000  0.500000  0.500000  1
  Zr  Zr9  1  0.750000  0.500000  0.500000  1
  Sn  Sn10  1  0.250000  0.000000  0.000000  1
  Hg  Hg11  1  0.750000  0.000000  0.000000  1
  Sb  Sb12  1  0.336695  0.500000  0.173391  1
  Sb  Sb13  1  0.663305  0.500000  0.826609  1
  Sb  Sb14  1  0.836695  0.826609  0.500000  1
  Sb  Sb15  1  0.163305  0.173391  0.500000  1
