# generated using pymatgen
data_Ca4AcRh2
_symmetry_space_group_name_H-M   'P 1'
_cell_length_a   8.92354216
_cell_length_b   8.92354350
_cell_length_c   7.67467102
_cell_angle_alpha   82.93018266
_cell_angle_beta   82.93018185
_cell_angle_gamma   44.18660876
_symmetry_Int_Tables_number   1
_chemical_formula_structural   Ca4AcRh2
_chemical_formula_sum   'Ca8 Ac2 Rh4'
_cell_volume   422.18227037
_cell_formula_units_Z   2
loop_
 _symmetry_equiv_pos_site_id
 _symmetry_equiv_pos_as_xyz
  1  'x, y, z'
loop_
 _atom_site_type_symbol
 _atom_site_label
 _atom_site_symmetry_multiplicity
 _atom_site_fract_x
 _atom_site_fract_y
 _atom_site_fract_z
 _atom_site_occupancy
  Ca  Ca0  1  0.006433  0.808913  0.911535  1
  Ca  Ca1  1  0.191087  0.993567  0.588465  1
  Ca  Ca2  1  0.993567  0.191087  0.088465  1
  Ca  Ca3  1  0.808913  0.006433  0.411535  1
  Ca  Ca4  1  0.360630  0.200931  0.821998  1
  Ca  Ca5  1  0.799069  0.639370  0.678002  1
  Ca  Ca6  1  0.639370  0.799069  0.178002  1
  Ca  Ca7  1  0.200931  0.360630  0.321998  1
  Ac  Ac8  1  0.574101  0.425899  0.750000  1
  Ac  Ac9  1  0.425899  0.574101  0.250000  1
  Rh  Rh10  1  0.187543  0.595710  0.576940  1
  Rh  Rh11  1  0.404290  0.812457  0.923060  1
  Rh  Rh12  1  0.812457  0.404290  0.423060  1
  Rh  Rh13  1  0.595710  0.187543  0.076940  1
