# generated using pymatgen
data_TbCeTm2(B6Os)2
_symmetry_space_group_name_H-M   'P 1'
_cell_length_a   3.66544800
_cell_length_b   9.15409531
_cell_length_c   11.53967017
_cell_angle_alpha   89.90253586
_cell_angle_beta   90.00000000
_cell_angle_gamma   90.00000000
_symmetry_Int_Tables_number   1
_chemical_formula_structural   TbCeTm2(B6Os)2
_chemical_formula_sum   'Tb2 Ce2 Tm4 B24 Os4'
_cell_volume   387.19992129
_cell_formula_units_Z   2
loop_
 _symmetry_equiv_pos_site_id
 _symmetry_equiv_pos_as_xyz
  1  'x, y, z'
loop_
 _atom_site_type_symbol
 _atom_site_label
 _atom_site_symmetry_multiplicity
 _atom_site_fract_x
 _atom_site_fract_y
 _atom_site_fract_z
 _atom_site_occupancy
  Tb  Tb0  1  0.000000  0.321540  0.414322  1
  Tb  Tb1  1  0.000000  0.678460  0.585678  1
  Ce  Ce2  1  0.000000  0.822006  0.086674  1
  Ce  Ce3  1  0.000000  0.177994  0.913326  1
  Tm  Tm4  1  0.000000  0.944357  0.374427  1
  Tm  Tm5  1  0.000000  0.055643  0.625574  1
  Tm  Tm6  1  0.000000  0.444963  0.126661  1
  Tm  Tm7  1  0.000000  0.555037  0.873338  1
  B  B8  1  0.500000  0.554528  0.432617  1
  B  B9  1  0.500000  0.445472  0.567383  1
  B  B10  1  0.500000  0.054802  0.068381  1
  B  B11  1  0.500000  0.945198  0.931619  1
  B  B12  1  0.500000  0.749106  0.419969  1
  B  B13  1  0.500000  0.250894  0.580031  1
  B  B14  1  0.500000  0.250186  0.081484  1
  B  B15  1  0.500000  0.749814  0.918516  1
  B  B16  1  0.500000  0.791924  0.267364  1
  B  B17  1  0.500000  0.208076  0.732636  1
  B  B18  1  0.500000  0.292489  0.234570  1
  B  B19  1  0.500000  0.707510  0.765430  1
  B  B20  1  0.500000  0.631468  0.185314  1
  B  B21  1  0.500000  0.368532  0.814686  1
  B  B22  1  0.500000  0.132096  0.316116  1
  B  B23  1  0.500000  0.867904  0.683884  1
  B  B24  1  0.500000  0.984613  0.215048  1
  B  B25  1  0.500000  0.015387  0.784952  1
  B  B26  1  0.500000  0.483217  0.286866  1
  B  B27  1  0.500000  0.516783  0.713134  1
  B  B28  1  0.500000  0.605186  0.028747  1
  B  B29  1  0.500000  0.394814  0.971253  1
  B  B30  1  0.500000  0.106854  0.470707  1
  B  B31  1  0.500000  0.893146  0.529293  1
  Os  Os32  1  0.000000  0.638810  0.319721  1
  Os  Os33  1  0.000000  0.361190  0.680279  1
  Os  Os34  1  0.000000  0.139334  0.179102  1
  Os  Os35  1  0.000000  0.860666  0.820898  1
