# generated using pymatgen
data_Sc8Al3NiB24
_symmetry_space_group_name_H-M   'P 1'
_cell_length_a   3.41118600
_cell_length_b   8.92219927
_cell_length_c   11.22646724
_cell_angle_alpha   89.80270073
_cell_angle_beta   90.00000000
_cell_angle_gamma   90.00000000
_symmetry_Int_Tables_number   1
_chemical_formula_structural   Sc8Al3NiB24
_chemical_formula_sum   'Sc8 Al3 Ni1 B24'
_cell_volume   341.67866213
_cell_formula_units_Z   1
loop_
 _symmetry_equiv_pos_site_id
 _symmetry_equiv_pos_as_xyz
  1  'x, y, z'
loop_
 _atom_site_type_symbol
 _atom_site_label
 _atom_site_symmetry_multiplicity
 _atom_site_fract_x
 _atom_site_fract_y
 _atom_site_fract_z
 _atom_site_occupancy
  Sc  Sc0  1  0.000000  0.823269  0.086839  1
  Sc  Sc1  1  0.000000  0.178507  0.915702  1
  Sc  Sc2  1  0.000000  0.318693  0.412215  1
  Sc  Sc3  1  0.000000  0.681563  0.586362  1
  Sc  Sc4  1  0.000000  0.440464  0.129455  1
  Sc  Sc5  1  0.000000  0.554652  0.872935  1
  Sc  Sc6  1  0.000000  0.946170  0.369122  1
  Sc  Sc7  1  0.000000  0.056134  0.626610  1
  Al  Al8  1  0.000000  0.859967  0.821148  1
  Al  Al9  1  0.000000  0.641050  0.318809  1
  Al  Al10  1  0.000000  0.358878  0.680311  1
  Ni  Ni11  1  0.000000  0.143300  0.180833  1
  B  B12  1  0.500000  0.052132  0.064416  1
  B  B13  1  0.500000  0.948420  0.936388  1
  B  B14  1  0.500000  0.551572  0.436525  1
  B  B15  1  0.500000  0.448558  0.563441  1
  B  B16  1  0.500000  0.248960  0.080570  1
  B  B17  1  0.500000  0.746005  0.922394  1
  B  B18  1  0.500000  0.753688  0.421693  1
  B  B19  1  0.500000  0.247233  0.577682  1
  B  B20  1  0.500000  0.294143  0.238608  1
  B  B21  1  0.500000  0.702343  0.762094  1
  B  B22  1  0.500000  0.799467  0.261015  1
  B  B23  1  0.500000  0.201983  0.738203  1
  B  B24  1  0.500000  0.133012  0.318373  1
  B  B25  1  0.500000  0.868780  0.680460  1
  B  B26  1  0.500000  0.631377  0.179837  1
  B  B27  1  0.500000  0.368089  0.819823  1
  B  B28  1  0.500000  0.477783  0.288136  1
  B  B29  1  0.500000  0.521475  0.711946  1
  B  B30  1  0.500000  0.983423  0.209934  1
  B  B31  1  0.500000  0.021642  0.787870  1
  B  B32  1  0.500000  0.100206  0.471739  1
  B  B33  1  0.500000  0.899380  0.526975  1
  B  B34  1  0.500000  0.599685  0.027933  1
  B  B35  1  0.500000  0.397994  0.973603  1
