# generated using pymatgen
data_Tm8Hf12Si15P
_symmetry_space_group_name_H-M   'P 1'
_cell_length_a   7.22480775
_cell_length_b   7.22883914
_cell_length_c   13.27918725
_cell_angle_alpha   89.83200324
_cell_angle_beta   89.93116768
_cell_angle_gamma   90.02592051
_symmetry_Int_Tables_number   1
_chemical_formula_structural   Tm8Hf12Si15P
_chemical_formula_sum   'Tm8 Hf12 Si15 P1'
_cell_volume   693.52820091
_cell_formula_units_Z   1
loop_
 _symmetry_equiv_pos_site_id
 _symmetry_equiv_pos_as_xyz
  1  'x, y, z'
loop_
 _atom_site_type_symbol
 _atom_site_label
 _atom_site_symmetry_multiplicity
 _atom_site_fract_x
 _atom_site_fract_y
 _atom_site_fract_z
 _atom_site_occupancy
  Tm  Tm0  1  0.998457  0.345141  0.216155  1
  Tm  Tm1  1  0.004914  0.655813  0.714990  1
  Tm  Tm2  1  0.155242  0.495933  0.464682  1
  Tm  Tm3  1  0.506544  0.842945  0.034148  1
  Tm  Tm4  1  0.844426  0.503428  0.965297  1
  Tm  Tm5  1  0.495793  0.154951  0.534737  1
  Tm  Tm6  1  0.345555  0.996080  0.785029  1
  Tm  Tm7  1  0.652104  0.006322  0.284605  1
  Hf  Hf8  1  0.174863  0.174924  0.000430  1
  Hf  Hf9  1  0.826082  0.826083  0.499664  1
  Hf  Hf10  1  0.324382  0.674838  0.250514  1
  Hf  Hf11  1  0.674924  0.325520  0.750048  1
  Hf  Hf12  1  0.151267  0.000535  0.373226  1
  Hf  Hf13  1  0.851861  0.002833  0.875354  1
  Hf  Hf14  1  0.502459  0.648814  0.624849  1
  Hf  Hf15  1  0.352525  0.497390  0.875107  1
  Hf  Hf16  1  0.494919  0.348587  0.128098  1
  Hf  Hf17  1  0.646792  0.501524  0.375237  1
  Hf  Hf18  1  0.997972  0.149116  0.624838  1
  Hf  Hf19  1  0.000088  0.849570  0.124337  1
  Si  Si20  1  0.639846  0.705248  0.817440  1
  Si  Si21  1  0.204059  0.861174  0.566594  1
  Si  Si22  1  0.139553  0.794422  0.931633  1
  Si  Si23  1  0.794719  0.140656  0.068531  1
  Si  Si24  1  0.860651  0.204763  0.431820  1
  Si  Si25  1  0.295731  0.360083  0.682066  1
  Si  Si26  1  0.703559  0.637929  0.183115  1
  Si  Si27  1  0.295511  0.040308  0.181387  1
  Si  Si28  1  0.703704  0.951857  0.685520  1
  Si  Si29  1  0.451967  0.797398  0.435763  1
  Si  Si30  1  0.203228  0.547373  0.064427  1
  Si  Si31  1  0.548723  0.203299  0.936555  1
  Si  Si32  1  0.796795  0.452154  0.564370  1
  Si  Si33  1  0.048844  0.297032  0.814152  1
  Si  Si34  1  0.951448  0.704138  0.314988  1
  P  P35  1  0.360491  0.301816  0.320292  1
