# generated using pymatgen
data_Dy2ScBe2Ir5
_symmetry_space_group_name_H-M   'P 1'
_cell_length_a   3.29236000
_cell_length_b   9.70411500
_cell_length_c   9.70411500
_cell_angle_alpha   90.00000000
_cell_angle_beta   90.00000000
_cell_angle_gamma   90.00000000
_symmetry_Int_Tables_number   1
_chemical_formula_structural   Dy2ScBe2Ir5
_chemical_formula_sum   'Dy4 Sc2 Be4 Ir10'
_cell_volume   310.04104054
_cell_formula_units_Z   2
loop_
 _symmetry_equiv_pos_site_id
 _symmetry_equiv_pos_as_xyz
  1  'x, y, z'
loop_
 _atom_site_type_symbol
 _atom_site_label
 _atom_site_symmetry_multiplicity
 _atom_site_fract_x
 _atom_site_fract_y
 _atom_site_fract_z
 _atom_site_occupancy
  Dy  Dy0  1  0.000000  0.177096  0.677096  1
  Dy  Dy1  1  0.000000  0.822904  0.322904  1
  Dy  Dy2  1  0.000000  0.322904  0.177096  1
  Dy  Dy3  1  0.000000  0.677096  0.822904  1
  Sc  Sc4  1  0.000000  0.000000  0.000000  1
  Sc  Sc5  1  0.000000  0.500000  0.500000  1
  Be  Be6  1  0.000000  0.620836  0.120836  1
  Be  Be7  1  0.000000  0.379164  0.879164  1
  Be  Be8  1  0.000000  0.879164  0.620836  1
  Be  Be9  1  0.000000  0.120836  0.379164  1
  Ir  Ir10  1  0.500000  0.068020  0.217771  1
  Ir  Ir11  1  0.500000  0.931980  0.782229  1
  Ir  Ir12  1  0.500000  0.782229  0.068020  1
  Ir  Ir13  1  0.500000  0.431980  0.717771  1
  Ir  Ir14  1  0.500000  0.217771  0.931980  1
  Ir  Ir15  1  0.500000  0.568020  0.282229  1
  Ir  Ir16  1  0.500000  0.717771  0.568020  1
  Ir  Ir17  1  0.500000  0.282229  0.431980  1
  Ir  Ir18  1  0.500000  0.000000  0.500000  1
  Ir  Ir19  1  0.500000  0.500000  0.000000  1
