# generated using pymatgen
data_Eu10Tl2Cu3Rh
_symmetry_space_group_name_H-M   'P 1'
_cell_length_a   9.34649492
_cell_length_b   9.34927412
_cell_length_c   9.32193800
_cell_angle_alpha   128.86289846
_cell_angle_beta   128.87577047
_cell_angle_gamma   75.42500682
_symmetry_Int_Tables_number   1
_chemical_formula_structural   Eu10Tl2Cu3Rh
_chemical_formula_sum   'Eu10 Tl2 Cu3 Rh1'
_cell_volume   480.01355248
_cell_formula_units_Z   1
loop_
 _symmetry_equiv_pos_site_id
 _symmetry_equiv_pos_as_xyz
  1  'x, y, z'
loop_
 _atom_site_type_symbol
 _atom_site_label
 _atom_site_symmetry_multiplicity
 _atom_site_fract_x
 _atom_site_fract_y
 _atom_site_fract_z
 _atom_site_occupancy
  Eu  Eu0  1  0.495492  0.501341  0.996792  1
  Eu  Eu1  1  0.001303  0.995442  0.996726  1
  Eu  Eu2  1  0.529213  0.029225  0.835010  1
  Eu  Eu3  1  0.189623  0.689612  0.151359  1
  Eu  Eu4  1  0.030565  0.201518  0.506885  1
  Eu  Eu5  1  0.701516  0.530593  0.506884  1
  Eu  Eu6  1  0.461708  0.961694  0.151341  1
  Eu  Eu7  1  0.805784  0.305798  0.835035  1
  Eu  Eu8  1  0.976327  0.805344  0.506893  1
  Eu  Eu9  1  0.305361  0.476342  0.506885  1
  Tl  Tl10  1  0.251570  0.251526  0.003134  1
  Tl  Tl11  1  0.751551  0.751572  0.003116  1
  Cu  Cu12  1  0.881551  0.381450  0.262982  1
  Cu  Cu13  1  0.615043  0.884475  0.499475  1
  Cu  Cu14  1  0.384384  0.115021  0.499461  1
  Rh  Rh15  1  0.119010  0.619047  0.738024  1
