# generated using pymatgen
data_Ho4Al3ZnPt4
_symmetry_space_group_name_H-M   'P 1'
_cell_length_a   4.42152700
_cell_length_b   6.80823110
_cell_length_c   7.81099379
_cell_angle_alpha   89.82567749
_cell_angle_beta   90.00000000
_cell_angle_gamma   90.00000000
_symmetry_Int_Tables_number   1
_chemical_formula_structural   Ho4Al3ZnPt4
_chemical_formula_sum   'Ho4 Al3 Zn1 Pt4'
_cell_volume   235.13152075
_cell_formula_units_Z   1
loop_
 _symmetry_equiv_pos_site_id
 _symmetry_equiv_pos_as_xyz
  1  'x, y, z'
loop_
 _atom_site_type_symbol
 _atom_site_label
 _atom_site_symmetry_multiplicity
 _atom_site_fract_x
 _atom_site_fract_y
 _atom_site_fract_z
 _atom_site_occupancy
  Ho  Ho0  1  0.250000  0.029364  0.684157  1
  Ho  Ho1  1  0.250000  0.529189  0.819554  1
  Ho  Ho2  1  0.750000  0.970575  0.317304  1
  Ho  Ho3  1  0.750000  0.467046  0.179246  1
  Al  Al4  1  0.250000  0.647502  0.438362  1
  Al  Al5  1  0.750000  0.855414  0.937231  1
  Al  Al6  1  0.750000  0.356128  0.560225  1
  Zn  Zn7  1  0.250000  0.149057  0.064987  1
  Pt  Pt8  1  0.250000  0.273158  0.389653  1
  Pt  Pt9  1  0.250000  0.763280  0.117808  1
  Pt  Pt10  1  0.750000  0.728813  0.617811  1
  Pt  Pt11  1  0.750000  0.230474  0.873662  1
