# generated using pymatgen
data_Sr12TaNb3(P3O)4
_symmetry_space_group_name_H-M   'P 1'
_cell_length_a   6.32025900
_cell_length_b   10.55215500
_cell_length_c   12.79708300
_cell_angle_alpha   90.00000000
_cell_angle_beta   89.99784220
_cell_angle_gamma   90.00000000
_symmetry_Int_Tables_number   1
_chemical_formula_structural   Sr12TaNb3(P3O)4
_chemical_formula_sum   'Sr12 Ta1 Nb3 P12 O4'
_cell_volume   853.46757149
_cell_formula_units_Z   1
loop_
 _symmetry_equiv_pos_site_id
 _symmetry_equiv_pos_as_xyz
  1  'x, y, z'
loop_
 _atom_site_type_symbol
 _atom_site_label
 _atom_site_symmetry_multiplicity
 _atom_site_fract_x
 _atom_site_fract_y
 _atom_site_fract_z
 _atom_site_occupancy
  Sr  Sr0  1  0.248059  0.041342  0.629557  1
  Sr  Sr1  1  0.748283  0.459168  0.870346  1
  Sr  Sr2  1  0.752008  0.541341  0.370540  1
  Sr  Sr3  1  0.252079  0.958733  0.129449  1
  Sr  Sr4  1  0.248059  0.458658  0.629557  1
  Sr  Sr5  1  0.752008  0.958659  0.370540  1
  Sr  Sr6  1  0.768810  0.250000  0.130804  1
  Sr  Sr7  1  0.268358  0.250000  0.369481  1
  Sr  Sr8  1  0.231847  0.750000  0.869605  1
  Sr  Sr9  1  0.731641  0.750000  0.630331  1
  Sr  Sr10  1  0.252079  0.541267  0.129449  1
  Sr  Sr11  1  0.748283  0.040832  0.870346  1
  Ta  Ta12  1  0.336630  0.250000  0.950893  1
  Nb  Nb13  1  0.836585  0.250000  0.549228  1
  Nb  Nb14  1  0.663537  0.750000  0.049239  1
  Nb  Nb15  1  0.163498  0.750000  0.450775  1
  P  P16  1  0.236360  0.750000  0.633273  1
  P  P17  1  0.736649  0.750000  0.866744  1
  P  P18  1  0.763715  0.250000  0.366764  1
  P  P19  1  0.264116  0.250000  0.133243  1
  P  P20  1  0.237426  0.449482  0.877379  1
  P  P21  1  0.737209  0.050200  0.622599  1
  P  P22  1  0.237426  0.050518  0.877379  1
  P  P23  1  0.737209  0.449800  0.622599  1
  P  P24  1  0.762900  0.550177  0.122565  1
  P  P25  1  0.262905  0.550219  0.377410  1
  P  P26  1  0.262905  0.949781  0.377410  1
  P  P27  1  0.762900  0.949823  0.122565  1
  O  O28  1  0.636346  0.250000  0.944853  1
  O  O29  1  0.139973  0.250000  0.555124  1
  O  O30  1  0.360141  0.750000  0.055091  1
  O  O31  1  0.860058  0.750000  0.444861  1
