# generated using pymatgen
data_LiYb(CuS)4
_symmetry_space_group_name_H-M   'P 1'
_cell_length_a   7.51821358
_cell_length_b   7.51821351
_cell_length_c   6.61172700
_cell_angle_alpha   63.60971342
_cell_angle_beta   63.60971363
_cell_angle_gamma   29.70586513
_symmetry_Int_Tables_number   1
_chemical_formula_structural   LiYb(CuS)4
_chemical_formula_sum   'Li1 Yb1 Cu4 S4'
_cell_volume   164.45282733
_cell_formula_units_Z   1
loop_
 _symmetry_equiv_pos_site_id
 _symmetry_equiv_pos_as_xyz
  1  'x, y, z'
loop_
 _atom_site_type_symbol
 _atom_site_label
 _atom_site_symmetry_multiplicity
 _atom_site_fract_x
 _atom_site_fract_y
 _atom_site_fract_z
 _atom_site_occupancy
  Li  Li0  1  0.000000  0.000000  0.000000  1
  Yb  Yb1  1  0.500000  0.500000  0.500000  1
  Cu  Cu2  1  0.183480  0.183480  0.146067  1
  Cu  Cu3  1  0.682461  0.682461  0.648727  1
  Cu  Cu4  1  0.816520  0.816520  0.853933  1
  Cu  Cu5  1  0.317539  0.317539  0.351273  1
  S  S6  1  0.871957  0.871957  0.458182  1
  S  S7  1  0.372236  0.372236  0.964214  1
  S  S8  1  0.128043  0.128043  0.541818  1
  S  S9  1  0.627764  0.627764  0.035786  1
