# generated using pymatgen
data_Ba12Ga12Si3Ge
_symmetry_space_group_name_H-M   'P 1'
_cell_length_a   8.80480033
_cell_length_b   8.80122327
_cell_length_c   12.20639042
_cell_angle_alpha   90.17216595
_cell_angle_beta   90.19141539
_cell_angle_gamma   89.84881809
_symmetry_Int_Tables_number   1
_chemical_formula_structural   Ba12Ga12Si3Ge
_chemical_formula_sum   'Ba12 Ga12 Si3 Ge1'
_cell_volume   945.89716170
_cell_formula_units_Z   1
loop_
 _symmetry_equiv_pos_site_id
 _symmetry_equiv_pos_as_xyz
  1  'x, y, z'
loop_
 _atom_site_type_symbol
 _atom_site_label
 _atom_site_symmetry_multiplicity
 _atom_site_fract_x
 _atom_site_fract_y
 _atom_site_fract_z
 _atom_site_occupancy
  Ba  Ba0  1  0.499594  0.998361  0.750506  1
  Ba  Ba1  1  0.497264  0.004046  0.248904  1
  Ba  Ba2  1  0.998364  0.499597  0.750502  1
  Ba  Ba3  1  0.004055  0.497255  0.248908  1
  Ba  Ba4  1  0.997500  0.997500  0.832500  1
  Ba  Ba5  1  0.495208  0.495204  0.333112  1
  Ba  Ba6  1  0.503461  0.503461  0.674405  1
  Ba  Ba7  1  0.004898  0.004903  0.172568  1
  Ba  Ba8  1  0.667835  0.667838  0.996528  1
  Ba  Ba9  1  0.832661  0.166546  0.501100  1
  Ba  Ba10  1  0.166556  0.832644  0.501096  1
  Ba  Ba11  1  0.333692  0.333699  0.995245  1
  Ga  Ga12  1  0.190990  0.190972  0.617864  1
  Ga  Ga13  1  0.806807  0.806796  0.378652  1
  Ga  Ga14  1  0.309918  0.691788  0.117124  1
  Ga  Ga15  1  0.691775  0.309905  0.117117  1
  Ga  Ga16  1  0.675958  0.064552  0.998387  1
  Ga  Ga17  1  0.325029  0.935696  0.997667  1
  Ga  Ga18  1  0.064533  0.675992  0.998400  1
  Ga  Ga19  1  0.563647  0.827038  0.498584  1
  Ga  Ga20  1  0.935668  0.325023  0.997658  1
  Ga  Ga21  1  0.173784  0.436020  0.499672  1
  Ga  Ga22  1  0.827008  0.563616  0.498587  1
  Ga  Ga23  1  0.436026  0.173792  0.499672  1
  Si  Si24  1  0.696397  0.303057  0.883322  1
  Si  Si25  1  0.303050  0.696403  0.883339  1
  Si  Si26  1  0.195515  0.195493  0.385756  1
  Ge  Ge27  1  0.802807  0.802802  0.622825  1
