# generated using pymatgen
data_AcLa15(MgTc)4
_symmetry_space_group_name_H-M   'P 1'
_cell_length_a   10.15948442
_cell_length_b   10.15696321
_cell_length_c   10.15948420
_cell_angle_alpha   60.00821564
_cell_angle_beta   60.15779599
_cell_angle_gamma   60.00821299
_symmetry_Int_Tables_number   1
_chemical_formula_structural   AcLa15(MgTc)4
_chemical_formula_sum   'Ac1 La15 Mg4 Tc4'
_cell_volume   742.26928291
_cell_formula_units_Z   1
loop_
 _symmetry_equiv_pos_site_id
 _symmetry_equiv_pos_as_xyz
  1  'x, y, z'
loop_
 _atom_site_type_symbol
 _atom_site_label
 _atom_site_symmetry_multiplicity
 _atom_site_fract_x
 _atom_site_fract_y
 _atom_site_fract_z
 _atom_site_occupancy
  Ac  Ac0  1  0.561646  0.938354  0.561646  1
  La  La1  1  0.185395  0.187757  0.813794  1
  La  La2  1  0.555292  0.555796  0.944048  1
  La  La3  1  0.970280  0.343268  0.343185  1
  La  La4  1  0.814528  0.185472  0.814528  1
  La  La5  1  0.187699  0.812301  0.187699  1
  La  La6  1  0.343185  0.343268  0.970280  1
  La  La7  1  0.341986  0.971007  0.341986  1
  La  La8  1  0.944048  0.944864  0.555292  1
  La  La9  1  0.944048  0.555796  0.555292  1
  La  La10  1  0.341986  0.345021  0.341986  1
  La  La11  1  0.813794  0.813054  0.185395  1
  La  La12  1  0.813794  0.187757  0.185395  1
  La  La13  1  0.555292  0.944864  0.944048  1
  La  La14  1  0.944759  0.555241  0.944759  1
  La  La15  1  0.185395  0.813054  0.813794  1
  Mg  Mg16  1  0.577594  0.575094  0.577594  1
  Mg  Mg17  1  0.577594  0.269718  0.577594  1
  Mg  Mg18  1  0.577472  0.576987  0.268555  1
  Mg  Mg19  1  0.268555  0.576987  0.577472  1
  Tc  Tc20  1  0.132629  0.600945  0.132629  1
  Tc  Tc21  1  0.600039  0.134799  0.130363  1
  Tc  Tc22  1  0.130363  0.134799  0.600039  1
  Tc  Tc23  1  0.132629  0.133799  0.132629  1
