# generated using pymatgen
data_AlFe2Co4Si
_symmetry_space_group_name_H-M   'P 1'
_cell_length_a   6.93870714
_cell_length_b   6.93870717
_cell_length_c   6.93870716
_cell_angle_alpha   33.58244122
_cell_angle_beta   33.58243976
_cell_angle_gamma   33.58244517
_symmetry_Int_Tables_number   1
_chemical_formula_structural   AlFe2Co4Si
_chemical_formula_sum   'Al1 Fe2 Co4 Si1'
_cell_volume   91.04599617
_cell_formula_units_Z   1
loop_
 _symmetry_equiv_pos_site_id
 _symmetry_equiv_pos_as_xyz
  1  'x, y, z'
loop_
 _atom_site_type_symbol
 _atom_site_label
 _atom_site_symmetry_multiplicity
 _atom_site_fract_x
 _atom_site_fract_y
 _atom_site_fract_z
 _atom_site_occupancy
  Al  Al0  1  0.000000  0.000000  0.000000  1
  Fe  Fe1  1  0.250810  0.250810  0.250810  1
  Fe  Fe2  1  0.749190  0.749190  0.749190  1
  Co  Co3  1  0.872456  0.872456  0.872456  1
  Co  Co4  1  0.377641  0.377641  0.377641  1
  Co  Co5  1  0.127544  0.127544  0.127544  1
  Co  Co6  1  0.622359  0.622359  0.622359  1
  Si  Si7  1  0.500000  0.500000  0.500000  1
