# generated using pymatgen
data_Zr18Nb2FeCuRe6
_symmetry_space_group_name_H-M   'P 1'
_cell_length_a   8.57044600
_cell_length_b   8.77395184
_cell_length_c   8.77395000
_cell_angle_alpha   120.00244471
_cell_angle_beta   90.00000000
_cell_angle_gamma   90.00000000
_symmetry_Int_Tables_number   1
_chemical_formula_structural   Zr18Nb2FeCuRe6
_chemical_formula_sum   'Zr18 Nb2 Fe1 Cu1 Re6'
_cell_volume   571.36516267
_cell_formula_units_Z   1
loop_
 _symmetry_equiv_pos_site_id
 _symmetry_equiv_pos_as_xyz
  1  'x, y, z'
loop_
 _atom_site_type_symbol
 _atom_site_label
 _atom_site_symmetry_multiplicity
 _atom_site_fract_x
 _atom_site_fract_y
 _atom_site_fract_z
 _atom_site_occupancy
  Zr  Zr0  1  0.554639  0.803160  0.606309  1
  Zr  Zr1  1  0.554660  0.803141  0.196859  1
  Zr  Zr2  1  0.554639  0.393691  0.196840  1
  Zr  Zr3  1  0.440790  0.202256  0.404522  1
  Zr  Zr4  1  0.440754  0.202277  0.797723  1
  Zr  Zr5  1  0.440790  0.595478  0.797744  1
  Zr  Zr6  1  0.059210  0.202256  0.404522  1
  Zr  Zr7  1  0.059246  0.202277  0.797723  1
  Zr  Zr8  1  0.059210  0.595478  0.797744  1
  Zr  Zr9  1  0.945361  0.803160  0.606309  1
  Zr  Zr10  1  0.945340  0.803141  0.196859  1
  Zr  Zr11  1  0.945361  0.393691  0.196840  1
  Zr  Zr12  1  0.750000  0.457448  0.914902  1
  Zr  Zr13  1  0.750000  0.457454  0.542546  1
  Zr  Zr14  1  0.750000  0.085098  0.542551  1
  Zr  Zr15  1  0.250000  0.541659  0.083264  1
  Zr  Zr16  1  0.250000  0.541636  0.458364  1
  Zr  Zr17  1  0.250000  0.916736  0.458340  1
  Nb  Nb18  1  0.499539  0.999999  0.000001  1
  Nb  Nb19  1  0.000461  0.999999  0.000001  1
  Fe  Fe20  1  0.250000  0.333362  0.666638  1
  Cu  Cu21  1  0.750000  0.666655  0.333345  1
  Re  Re22  1  0.750000  0.111659  0.223357  1
  Re  Re23  1  0.750000  0.111655  0.888345  1
  Re  Re24  1  0.750000  0.776643  0.888341  1
  Re  Re25  1  0.250000  0.888572  0.777152  1
  Re  Re26  1  0.250000  0.888574  0.111426  1
  Re  Re27  1  0.250000  0.222848  0.111428  1
