# generated using pymatgen
data_RbMnAlF6
_symmetry_space_group_name_H-M   'P 1'
_cell_length_a   7.25978300
_cell_length_b   7.43804600
_cell_length_c   10.19030900
_cell_angle_alpha   90.00000000
_cell_angle_beta   90.00000000
_cell_angle_gamma   90.00000000
_symmetry_Int_Tables_number   1
_chemical_formula_structural   RbMnAlF6
_chemical_formula_sum   'Rb4 Mn4 Al4 F24'
_cell_volume   550.26241859
_cell_formula_units_Z   4
loop_
 _symmetry_equiv_pos_site_id
 _symmetry_equiv_pos_as_xyz
  1  'x, y, z'
loop_
 _atom_site_type_symbol
 _atom_site_label
 _atom_site_symmetry_multiplicity
 _atom_site_fract_x
 _atom_site_fract_y
 _atom_site_fract_z
 _atom_site_occupancy
  Rb  Rb0  1  0.250000  0.995831  0.638422  1
  Rb  Rb1  1  0.750000  0.004169  0.361578  1
  Rb  Rb2  1  0.250000  0.495831  0.861578  1
  Rb  Rb3  1  0.750000  0.504169  0.138422  1
  Mn  Mn4  1  0.250000  0.755703  0.252316  1
  Mn  Mn5  1  0.750000  0.244297  0.747684  1
  Mn  Mn6  1  0.250000  0.255703  0.247684  1
  Mn  Mn7  1  0.750000  0.744297  0.752316  1
  Al  Al8  1  0.000000  0.500000  0.500000  1
  Al  Al9  1  0.500000  0.500000  0.500000  1
  Al  Al10  1  0.500000  0.000000  0.000000  1
  Al  Al11  1  0.000000  0.000000  0.000000  1
  F  F12  1  0.975504  0.321191  0.620016  1
  F  F13  1  0.475504  0.678809  0.379984  1
  F  F14  1  0.524496  0.821191  0.879984  1
  F  F15  1  0.024496  0.178809  0.120016  1
  F  F16  1  0.024496  0.678809  0.379984  1
  F  F17  1  0.524496  0.321191  0.620016  1
  F  F18  1  0.475504  0.178809  0.120016  1
  F  F19  1  0.975504  0.821191  0.879984  1
  F  F20  1  0.981996  0.165845  0.869755  1
  F  F21  1  0.481996  0.834155  0.130245  1
  F  F22  1  0.518004  0.665845  0.630245  1
  F  F23  1  0.018004  0.334155  0.369755  1
  F  F24  1  0.750000  0.992880  0.653376  1
  F  F25  1  0.250000  0.007120  0.346624  1
  F  F26  1  0.750000  0.492880  0.846624  1
  F  F27  1  0.250000  0.507120  0.153376  1
  F  F28  1  0.750000  0.006088  0.025293  1
  F  F29  1  0.250000  0.993912  0.974707  1
  F  F30  1  0.750000  0.506088  0.474707  1
  F  F31  1  0.250000  0.493912  0.525293  1
  F  F32  1  0.981996  0.665845  0.630245  1
  F  F33  1  0.481996  0.334155  0.369755  1
  F  F34  1  0.518004  0.165845  0.869755  1
  F  F35  1  0.018004  0.834155  0.130245  1
