# generated using pymatgen
data_Nb12Al2GaPt5N4
_symmetry_space_group_name_H-M   'P 1'
_cell_length_a   7.06683836
_cell_length_b   7.06718255
_cell_length_c   7.06847942
_cell_angle_alpha   90.15960356
_cell_angle_beta   89.72035298
_cell_angle_gamma   89.83575446
_symmetry_Int_Tables_number   1
_chemical_formula_structural   Nb12Al2GaPt5N4
_chemical_formula_sum   'Nb12 Al2 Ga1 Pt5 N4'
_cell_volume   353.01146155
_cell_formula_units_Z   1
loop_
 _symmetry_equiv_pos_site_id
 _symmetry_equiv_pos_as_xyz
  1  'x, y, z'
loop_
 _atom_site_type_symbol
 _atom_site_label
 _atom_site_symmetry_multiplicity
 _atom_site_fract_x
 _atom_site_fract_y
 _atom_site_fract_z
 _atom_site_occupancy
  Nb  Nb0  1  0.789919  0.958466  0.375953  1
  Nb  Nb1  1  0.707812  0.049004  0.881270  1
  Nb  Nb2  1  0.213174  0.453762  0.125046  1
  Nb  Nb3  1  0.296208  0.539830  0.628399  1
  Nb  Nb4  1  0.950717  0.381410  0.791650  1
  Nb  Nb5  1  0.041890  0.876712  0.709035  1
  Nb  Nb6  1  0.460285  0.129051  0.204134  1
  Nb  Nb7  1  0.545778  0.625146  0.287816  1
  Nb  Nb8  1  0.374927  0.787675  0.953834  1
  Nb  Nb9  1  0.871321  0.704291  0.039543  1
  Nb  Nb10  1  0.124120  0.208946  0.459101  1
  Nb  Nb11  1  0.619327  0.292022  0.549202  1
  Al  Al12  1  0.932561  0.572591  0.426352  1
  Al  Al13  1  0.073172  0.067491  0.073032  1
  Ga  Ga14  1  0.428099  0.927776  0.565718  1
  Pt  Pt15  1  0.176323  0.820366  0.319078  1
  Pt  Pt16  1  0.310472  0.169501  0.818861  1
  Pt  Pt17  1  0.832285  0.316434  0.188127  1
  Pt  Pt18  1  0.686341  0.685954  0.668316  1
  Pt  Pt19  1  0.566559  0.433626  0.934134  1
  N  N20  1  0.871981  0.127036  0.627541  1
  N  N21  1  0.622471  0.874361  0.122531  1
  N  N22  1  0.125979  0.622158  0.876637  1
  N  N23  1  0.378282  0.376391  0.374690  1
