# generated using pymatgen
data_CeSm7(Si3Rh)4
_symmetry_space_group_name_H-M   'P 1'
_cell_length_a   8.22933759
_cell_length_b   8.25954041
_cell_length_c   8.14351200
_cell_angle_alpha   90.00000000
_cell_angle_beta   90.00000000
_cell_angle_gamma   120.12147306
_symmetry_Int_Tables_number   1
_chemical_formula_structural   CeSm7(Si3Rh)4
_chemical_formula_sum   'Ce1 Sm7 Si12 Rh4'
_cell_volume   478.77364534
_cell_formula_units_Z   1
loop_
 _symmetry_equiv_pos_site_id
 _symmetry_equiv_pos_as_xyz
  1  'x, y, z'
loop_
 _atom_site_type_symbol
 _atom_site_label
 _atom_site_symmetry_multiplicity
 _atom_site_fract_x
 _atom_site_fract_y
 _atom_site_fract_z
 _atom_site_occupancy
  Ce  Ce0  1  0.010306  0.505152  0.750000  1
  Sm  Sm1  1  0.000148  0.000074  0.250000  1
  Sm  Sm2  1  0.000038  0.000019  0.750000  1
  Sm  Sm3  1  0.506595  0.493024  0.250000  1
  Sm  Sm4  1  0.506595  0.013572  0.250000  1
  Sm  Sm5  1  0.986210  0.493105  0.250000  1
  Sm  Sm6  1  0.492585  0.507752  0.750000  1
  Sm  Sm7  1  0.492585  0.984832  0.750000  1
  Si  Si8  1  0.166807  0.833649  0.501934  1
  Si  Si9  1  0.166807  0.333160  0.501934  1
  Si  Si10  1  0.666185  0.833093  0.500415  1
  Si  Si11  1  0.833243  0.165902  0.499539  1
  Si  Si12  1  0.833243  0.667342  0.499539  1
  Si  Si13  1  0.334260  0.167130  0.499630  1
  Si  Si14  1  0.833243  0.165902  0.000461  1
  Si  Si15  1  0.833243  0.667342  0.000461  1
  Si  Si16  1  0.334260  0.167130  0.000370  1
  Si  Si17  1  0.166807  0.833649  0.998066  1
  Si  Si18  1  0.166807  0.333160  0.998066  1
  Si  Si19  1  0.666185  0.833093  0.999585  1
  Rh  Rh20  1  0.331755  0.665877  0.472818  1
  Rh  Rh21  1  0.670169  0.335083  0.532517  1
  Rh  Rh22  1  0.670169  0.335083  0.967483  1
  Rh  Rh23  1  0.331755  0.665877  0.027182  1
