# generated using pymatgen
data_Tm3In3Ag2Ru
_symmetry_space_group_name_H-M   'P 1'
_cell_length_a   7.97037100
_cell_length_b   7.97037095
_cell_length_c   3.66577100
_cell_angle_alpha   90.00000000
_cell_angle_beta   90.00000000
_cell_angle_gamma   119.99999604
_symmetry_Int_Tables_number   1
_chemical_formula_structural   Tm3In3Ag2Ru
_chemical_formula_sum   'Tm3 In3 Ag2 Ru1'
_cell_volume   201.67545807
_cell_formula_units_Z   1
loop_
 _symmetry_equiv_pos_site_id
 _symmetry_equiv_pos_as_xyz
  1  'x, y, z'
loop_
 _atom_site_type_symbol
 _atom_site_label
 _atom_site_symmetry_multiplicity
 _atom_site_fract_x
 _atom_site_fract_y
 _atom_site_fract_z
 _atom_site_occupancy
  Tm  Tm0  1  0.959914  0.379798  0.500000  1
  Tm  Tm1  1  0.620202  0.580116  0.500000  1
  Tm  Tm2  1  0.419884  0.040086  0.500000  1
  In  In3  1  0.271177  0.281456  0.000000  1
  In  In4  1  0.010279  0.728823  0.000000  1
  In  In5  1  0.718544  0.989721  0.000000  1
  Ag  Ag6  1  0.333333  0.666667  0.000000  1
  Ag  Ag7  1  0.000000  0.000000  0.500000  1
  Ru  Ru8  1  0.666667  0.333333  0.000000  1
