# generated using pymatgen
data_Ho3Zn2Ga7Pd2
_symmetry_space_group_name_H-M   'P 1'
_cell_length_a   8.07065882
_cell_length_b   8.09664004
_cell_length_c   8.09663964
_cell_angle_alpha   148.94600584
_cell_angle_beta   108.32885579
_cell_angle_gamma   80.17200918
_symmetry_Int_Tables_number   1
_chemical_formula_structural   Ho3Zn2Ga7Pd2
_chemical_formula_sum   'Ho3 Zn2 Ga7 Pd2'
_cell_volume   253.75735065
_cell_formula_units_Z   1
loop_
 _symmetry_equiv_pos_site_id
 _symmetry_equiv_pos_as_xyz
  1  'x, y, z'
loop_
 _atom_site_type_symbol
 _atom_site_label
 _atom_site_symmetry_multiplicity
 _atom_site_fract_x
 _atom_site_fract_y
 _atom_site_fract_z
 _atom_site_occupancy
  Ho  Ho0  1  0.499389  0.499571  0.999818  1
  Ho  Ho1  1  0.203441  0.202576  0.000865  1
  Ho  Ho2  1  0.795970  0.798343  0.997627  1
  Zn  Zn3  1  0.643531  0.364171  0.279360  1
  Zn  Zn4  1  0.994801  0.497092  0.497709  1
  Ga  Ga5  1  0.351009  0.634015  0.716994  1
  Ga  Ga6  1  0.082679  0.364383  0.718296  1
  Ga  Ga7  1  0.917163  0.634225  0.282938  1
  Ga  Ga8  1  0.523162  0.158960  0.364202  1
  Ga  Ga9  1  0.483388  0.845275  0.638113  1
  Ga  Ga10  1  0.792021  0.157090  0.634931  1
  Ga  Ga11  1  0.209826  0.842841  0.366985  1
  Pd  Pd12  1  0.180374  0.999168  0.181206  1
  Pd  Pd13  1  0.823246  0.002289  0.820957  1
