# generated using pymatgen
data_Zr4Pd4Pt7Rh
_symmetry_space_group_name_H-M   'P 1'
_cell_length_a   5.69716679
_cell_length_b   5.72364836
_cell_length_c   9.35051592
_cell_angle_alpha   90.21960053
_cell_angle_beta   90.01904992
_cell_angle_gamma   119.90402511
_symmetry_Int_Tables_number   1
_chemical_formula_structural   Zr4Pd4Pt7Rh
_chemical_formula_sum   'Zr4 Pd4 Pt7 Rh1'
_cell_volume   264.30941705
_cell_formula_units_Z   1
loop_
 _symmetry_equiv_pos_site_id
 _symmetry_equiv_pos_as_xyz
  1  'x, y, z'
loop_
 _atom_site_type_symbol
 _atom_site_label
 _atom_site_symmetry_multiplicity
 _atom_site_fract_x
 _atom_site_fract_y
 _atom_site_fract_z
 _atom_site_occupancy
  Zr  Zr0  1  0.000425  0.999918  0.499215  1
  Zr  Zr1  1  0.000164  0.999257  0.000932  1
  Zr  Zr2  1  0.337166  0.673414  0.254068  1
  Zr  Zr3  1  0.662131  0.326193  0.745580  1
  Pd  Pd4  1  0.499933  0.499932  0.999440  1
  Pd  Pd5  1  0.999988  0.499909  0.999049  1
  Pd  Pd6  1  0.168943  0.337996  0.750829  1
  Pd  Pd7  1  0.657595  0.826513  0.751119  1
  Pt  Pt8  1  0.499933  0.500112  0.500784  1
  Pt  Pt9  1  0.000247  0.500196  0.501254  1
  Pt  Pt10  1  0.499958  0.000041  0.998793  1
  Pt  Pt11  1  0.830646  0.173397  0.248926  1
  Pt  Pt12  1  0.831803  0.663676  0.249027  1
  Pt  Pt13  1  0.341467  0.172807  0.248903  1
  Pt  Pt14  1  0.169816  0.826498  0.751098  1
  Rh  Rh15  1  0.499784  0.000141  0.500982  1
