# generated using pymatgen
data_Sc12Mn(BeI8)2
_symmetry_space_group_name_H-M   'P 1'
_cell_length_a   9.18136615
_cell_length_b   11.94646375
_cell_length_c   12.62324076
_cell_angle_alpha   117.04878158
_cell_angle_beta   101.26114152
_cell_angle_gamma   100.70497828
_symmetry_Int_Tables_number   1
_chemical_formula_structural   Sc12Mn(BeI8)2
_chemical_formula_sum   'Sc12 Mn1 Be2 I16'
_cell_volume   1148.09346563
_cell_formula_units_Z   1
loop_
 _symmetry_equiv_pos_site_id
 _symmetry_equiv_pos_as_xyz
  1  'x, y, z'
loop_
 _atom_site_type_symbol
 _atom_site_label
 _atom_site_symmetry_multiplicity
 _atom_site_fract_x
 _atom_site_fract_y
 _atom_site_fract_z
 _atom_site_occupancy
  Sc  Sc0  1  0.090824  0.271777  0.360030  1
  Sc  Sc1  1  0.901797  0.721165  0.635660  1
  Sc  Sc2  1  0.776290  0.534731  0.336364  1
  Sc  Sc3  1  0.220070  0.464149  0.667710  1
  Sc  Sc4  1  0.276273  0.728358  0.639316  1
  Sc  Sc5  1  0.721685  0.278401  0.364738  1
  Sc  Sc6  1  0.147279  0.535962  0.331660  1
  Sc  Sc7  1  0.846978  0.465025  0.663925  1
  Sc  Sc8  1  0.422431  0.365990  0.284861  1
  Sc  Sc9  1  0.602174  0.634219  0.715257  1
  Sc  Sc10  1  0.472825  0.316586  0.520272  1
  Sc  Sc11  1  0.551466  0.683879  0.479914  1
  Mn  Mn12  1  0.660931  0.499969  0.500081  1
  Be  Be13  1  0.984471  0.499748  0.500120  1
  Be  Be14  1  0.360329  0.500102  0.499906  1
  I  I15  1  0.392590  0.734576  0.875777  1
  I  I16  1  0.606694  0.260482  0.115914  1
  I  I17  1  0.185431  0.957639  0.778614  1
  I  I18  1  0.814907  0.042373  0.221391  1
  I  I19  1  0.325472  0.099140  0.254302  1
  I  I20  1  0.650110  0.900851  0.745667  1
  I  I21  1  0.550617  0.437385  0.796608  1
  I  I22  1  0.424932  0.563170  0.203849  1
  I  I23  1  0.305736  0.822199  0.464077  1
  I  I24  1  0.695108  0.171235  0.537332  1
  I  I25  1  0.168714  0.178085  0.534946  1
  I  I26  1  0.836087  0.828230  0.463910  1
  I  I27  1  0.927739  0.574423  0.164271  1
  I  I28  1  0.073562  0.425173  0.835261  1
  I  I29  1  0.927873  0.739043  0.884406  1
  I  I30  1  0.078607  0.265935  0.123858  1
