# generated using pymatgen
data_Ta4(FeSe4)3
_symmetry_space_group_name_H-M   'P 1'
_cell_length_a   7.44047033
_cell_length_b   7.44047065
_cell_length_c   19.48256700
_cell_angle_alpha   68.24809094
_cell_angle_beta   68.24808994
_cell_angle_gamma   26.33234602
_symmetry_Int_Tables_number   1
_chemical_formula_structural   Ta4(FeSe4)3
_chemical_formula_sum   'Ta4 Fe3 Se12'
_cell_volume   442.42243154
_cell_formula_units_Z   1
loop_
 _symmetry_equiv_pos_site_id
 _symmetry_equiv_pos_as_xyz
  1  'x, y, z'
loop_
 _atom_site_type_symbol
 _atom_site_label
 _atom_site_symmetry_multiplicity
 _atom_site_fract_x
 _atom_site_fract_y
 _atom_site_fract_z
 _atom_site_occupancy
  Ta  Ta0  1  0.617135  0.617135  0.854663  1
  Ta  Ta1  1  0.382865  0.382865  0.145337  1
  Ta  Ta2  1  0.743685  0.743685  0.592707  1
  Ta  Ta3  1  0.256315  0.256315  0.407293  1
  Fe  Fe4  1  0.000000  0.000000  0.000000  1
  Fe  Fe5  1  0.224979  0.224979  0.716929  1
  Fe  Fe6  1  0.775021  0.775021  0.283071  1
  Se  Se7  1  0.969326  0.969326  0.888559  1
  Se  Se8  1  0.030674  0.030674  0.111441  1
  Se  Se9  1  0.629606  0.629606  0.396175  1
  Se  Se10  1  0.370394  0.370394  0.603825  1
  Se  Se11  1  0.135565  0.135565  0.551733  1
  Se  Se12  1  0.864435  0.864435  0.448267  1
  Se  Se13  1  0.800216  0.800216  0.767329  1
  Se  Se14  1  0.199784  0.199784  0.232671  1
  Se  Se15  1  0.175957  0.175957  0.931381  1
  Se  Se16  1  0.824043  0.824043  0.068619  1
  Se  Se17  1  0.601771  0.601771  0.723263  1
  Se  Se18  1  0.398229  0.398229  0.276737  1
