# generated using pymatgen
data_CeDy3Al16(SiIr3)2
_symmetry_space_group_name_H-M   'P 1'
_cell_length_a   7.56106518
_cell_length_b   7.55642656
_cell_length_c   9.34542500
_cell_angle_alpha   90.00000000
_cell_angle_beta   90.00000000
_cell_angle_gamma   119.62433799
_symmetry_Int_Tables_number   1
_chemical_formula_structural   CeDy3Al16(SiIr3)2
_chemical_formula_sum   'Ce1 Dy3 Al16 Si2 Ir6'
_cell_volume   464.15251453
_cell_formula_units_Z   1
loop_
 _symmetry_equiv_pos_site_id
 _symmetry_equiv_pos_as_xyz
  1  'x, y, z'
loop_
 _atom_site_type_symbol
 _atom_site_label
 _atom_site_symmetry_multiplicity
 _atom_site_fract_x
 _atom_site_fract_y
 _atom_site_fract_z
 _atom_site_occupancy
  Ce  Ce0  1  0.995387  0.674473  0.750000  1
  Dy  Dy1  1  0.005249  0.325249  0.250000  1
  Dy  Dy2  1  0.674969  0.994787  0.750000  1
  Dy  Dy3  1  0.325345  0.005059  0.250000  1
  Al  Al4  1  0.001462  0.335026  0.575213  1
  Al  Al5  1  0.998604  0.663350  0.421726  1
  Al  Al6  1  0.998604  0.663350  0.078274  1
  Al  Al7  1  0.338481  0.002866  0.924909  1
  Al  Al8  1  0.001462  0.335026  0.924787  1
  Al  Al9  1  0.663621  0.999199  0.076413  1
  Al  Al10  1  0.663621  0.999199  0.423587  1
  Al  Al11  1  0.338481  0.002866  0.575091  1
  Al  Al12  1  0.334917  0.334898  0.057444  1
  Al  Al13  1  0.662929  0.664443  0.946519  1
  Al  Al14  1  0.662929  0.664443  0.553481  1
  Al  Al15  1  0.334917  0.334898  0.442556  1
  Al  Al16  1  0.337481  0.548223  0.750000  1
  Al  Al17  1  0.662381  0.449380  0.250000  1
  Al  Al18  1  0.546552  0.335429  0.750000  1
  Al  Al19  1  0.450865  0.664035  0.250000  1
  Si  Si20  1  0.130239  0.130403  0.750000  1
  Si  Si21  1  0.871291  0.873363  0.250000  1
  Ir  Ir22  1  0.671941  0.328570  0.500235  1
  Ir  Ir23  1  0.328011  0.671704  0.500201  1
  Ir  Ir24  1  0.328011  0.671704  0.999799  1
  Ir  Ir25  1  0.671941  0.328570  0.999765  1
  Ir  Ir26  1  0.000156  0.999742  0.500245  1
  Ir  Ir27  1  0.000156  0.999742  0.999755  1
