# generated using pymatgen
data_Cs4Na2ScBi5
_symmetry_space_group_name_H-M   'P 1'
_cell_length_a   10.48783623
_cell_length_b   10.48807219
_cell_length_c   10.48783473
_cell_angle_alpha   136.99487758
_cell_angle_beta   62.70920519
_cell_angle_gamma   136.65059694
_symmetry_Int_Tables_number   1
_chemical_formula_structural   Cs4Na2ScBi5
_chemical_formula_sum   'Cs4 Na2 Sc1 Bi5'
_cell_volume   533.47433109
_cell_formula_units_Z   1
loop_
 _symmetry_equiv_pos_site_id
 _symmetry_equiv_pos_as_xyz
  1  'x, y, z'
loop_
 _atom_site_type_symbol
 _atom_site_label
 _atom_site_symmetry_multiplicity
 _atom_site_fract_x
 _atom_site_fract_y
 _atom_site_fract_z
 _atom_site_occupancy
  Cs  Cs0  1  0.811549  0.255022  0.095945  1
  Cs  Cs1  1  0.688320  0.784205  0.443374  1
  Cs  Cs2  1  0.340923  0.244979  0.556527  1
  Cs  Cs3  1  0.159169  0.715795  0.904115  1
  Na  Na4  1  0.750113  0.250000  0.500113  1
  Na  Na5  1  0.250063  0.750000  0.500063  1
  Sc  Sc6  1  0.250217  0.250000  0.000217  1
  Bi  Bi7  1  0.749941  0.750000  0.999941  1
  Bi  Bi8  1  0.384173  0.701340  0.126799  1
  Bi  Bi9  1  0.115993  0.242779  0.316860  1
  Bi  Bi10  1  0.925460  0.798661  0.682834  1
  Bi  Bi11  1  0.574081  0.257221  0.873212  1
