# generated using pymatgen
data_Ba8Tb3Dy(CoO5)4
_symmetry_space_group_name_H-M   'P 1'
_cell_length_a   6.17740501
_cell_length_b   7.99060874
_cell_length_c   12.51933527
_cell_angle_alpha   91.26162084
_cell_angle_beta   89.99801896
_cell_angle_gamma   89.99305709
_symmetry_Int_Tables_number   1
_chemical_formula_structural   Ba8Tb3Dy(CoO5)4
_chemical_formula_sum   'Ba8 Tb3 Dy1 Co4 O20'
_cell_volume   617.81993182
_cell_formula_units_Z   1
loop_
 _symmetry_equiv_pos_site_id
 _symmetry_equiv_pos_as_xyz
  1  'x, y, z'
loop_
 _atom_site_type_symbol
 _atom_site_label
 _atom_site_symmetry_multiplicity
 _atom_site_fract_x
 _atom_site_fract_y
 _atom_site_fract_z
 _atom_site_occupancy
  Ba  Ba0  1  0.762317  0.489633  0.359825  1
  Ba  Ba1  1  0.738184  0.990777  0.859983  1
  Ba  Ba2  1  0.237687  0.509524  0.640643  1
  Ba  Ba3  1  0.261786  0.010203  0.139368  1
  Ba  Ba4  1  0.755698  0.994235  0.382396  1
  Ba  Ba5  1  0.744626  0.493727  0.882275  1
  Ba  Ba6  1  0.244166  0.006230  0.618455  1
  Ba  Ba7  1  0.255355  0.505577  0.117035  1
  Tb  Tb8  1  0.747441  0.262362  0.628734  1
  Tb  Tb9  1  0.752691  0.762236  0.128328  1
  Tb  Tb10  1  0.252734  0.737634  0.371567  1
  Dy  Dy11  1  0.247379  0.238089  0.871477  1
  Co  Co12  1  0.738931  0.746346  0.592250  1
  Co  Co13  1  0.760454  0.246392  0.091298  1
  Co  Co14  1  0.260742  0.253507  0.407937  1
  Co  Co15  1  0.239023  0.753589  0.907797  1
  O  O16  1  0.759039  0.970080  0.634999  1
  O  O17  1  0.741311  0.469802  0.134286  1
  O  O18  1  0.240964  0.029929  0.365137  1
  O  O19  1  0.258571  0.529334  0.865638  1
  O  O20  1  0.734346  0.054562  0.168922  1
  O  O21  1  0.765895  0.554461  0.669759  1
  O  O22  1  0.265158  0.947036  0.831646  1
  O  O23  1  0.234124  0.445287  0.330322  1
  O  O24  1  0.551255  0.746126  0.275111  1
  O  O25  1  0.952328  0.246236  0.774370  1
  O  O26  1  0.450771  0.253637  0.726620  1
  O  O27  1  0.050981  0.753865  0.224874  1
  O  O28  1  0.535422  0.230499  0.985368  1
  O  O29  1  0.962513  0.730164  0.485753  1
  O  O30  1  0.462748  0.769426  0.014158  1
  O  O31  1  0.037280  0.269756  0.514450  1
  O  O32  1  0.036127  0.236987  0.022288  1
  O  O33  1  0.462498  0.737189  0.524424  1
  O  O34  1  0.962931  0.762594  0.975913  1
  O  O35  1  0.536521  0.262967  0.476593  1
