# generated using pymatgen
data_NdThSi4(RuRh2)2
_symmetry_space_group_name_H-M   'P 1'
_cell_length_a   6.68651928
_cell_length_b   6.68652060
_cell_length_c   6.68081679
_cell_angle_alpha   130.07523028
_cell_angle_beta   114.36379207
_cell_angle_gamma   86.82300507
_symmetry_Int_Tables_number   1
_chemical_formula_structural   NdThSi4(RuRh2)2
_chemical_formula_sum   'Nd1 Th1 Si4 Ru2 Rh4'
_cell_volume   198.51887486
_cell_formula_units_Z   1
loop_
 _symmetry_equiv_pos_site_id
 _symmetry_equiv_pos_as_xyz
  1  'x, y, z'
loop_
 _atom_site_type_symbol
 _atom_site_label
 _atom_site_symmetry_multiplicity
 _atom_site_fract_x
 _atom_site_fract_y
 _atom_site_fract_z
 _atom_site_occupancy
  Nd  Nd0  1  0.250254  0.965617  0.715871  1
  Th  Th1  1  0.750553  0.041625  0.292178  1
  Si  Si2  1  0.571971  0.376024  0.804420  1
  Si  Si3  1  0.417317  0.617750  0.200927  1
  Si  Si4  1  0.083176  0.283610  0.200927  1
  Si  Si5  1  0.928396  0.732450  0.804420  1
  Ru  Ru6  1  0.216427  0.493151  0.715796  1
  Ru  Ru7  1  0.722646  0.999371  0.715796  1
  Rh  Rh8  1  0.782228  0.494575  0.280417  1
  Rh  Rh9  1  0.285841  0.998190  0.280417  1
  Rh  Rh10  1  0.504255  0.494808  0.499064  1
  Rh  Rh11  1  0.986936  0.502829  0.989765  1
