# generated using pymatgen
data_YHo3Si3Rh4
_symmetry_space_group_name_H-M   'P 1'
_cell_length_a   10.69960977
_cell_length_b   10.69961024
_cell_length_c   7.70511381
_cell_angle_alpha   71.32239013
_cell_angle_beta   71.32238727
_cell_angle_gamma   29.74296449
_symmetry_Int_Tables_number   1
_chemical_formula_structural   YHo3Si3Rh4
_chemical_formula_sum   'Y2 Ho6 Si6 Rh8'
_cell_volume   412.89513428
_cell_formula_units_Z   2
loop_
 _symmetry_equiv_pos_site_id
 _symmetry_equiv_pos_as_xyz
  1  'x, y, z'
loop_
 _atom_site_type_symbol
 _atom_site_label
 _atom_site_symmetry_multiplicity
 _atom_site_fract_x
 _atom_site_fract_y
 _atom_site_fract_z
 _atom_site_occupancy
  Y  Y0  1  0.790459  0.549350  0.599882  1
  Y  Y1  1  0.450650  0.209541  0.900118  1
  Ho  Ho2  1  0.210533  0.449725  0.399978  1
  Ho  Ho3  1  0.550275  0.789467  0.100022  1
  Ho  Ho4  1  0.791054  0.073765  0.168454  1
  Ho  Ho5  1  0.926235  0.208946  0.331546  1
  Ho  Ho6  1  0.208999  0.926116  0.831654  1
  Ho  Ho7  1  0.073884  0.791001  0.668346  1
  Si  Si8  1  0.953259  0.703128  0.055769  1
  Si  Si9  1  0.296872  0.046741  0.444231  1
  Si  Si10  1  0.047043  0.296581  0.944624  1
  Si  Si11  1  0.703419  0.952957  0.555376  1
  Si  Si12  1  0.634791  0.365209  0.750000  1
  Si  Si13  1  0.365194  0.634806  0.250000  1
  Rh  Rh14  1  0.576403  0.298164  0.519941  1
  Rh  Rh15  1  0.701836  0.423597  0.980059  1
  Rh  Rh16  1  0.423207  0.702171  0.479236  1
  Rh  Rh17  1  0.297829  0.576793  0.020764  1
  Rh  Rh18  1  0.628563  0.930191  0.308328  1
  Rh  Rh19  1  0.069809  0.371437  0.191672  1
  Rh  Rh20  1  0.370614  0.070928  0.691427  1
  Rh  Rh21  1  0.929072  0.629386  0.808573  1
