# generated using pymatgen
data_YHo2Er2(In2Pd)2
_symmetry_space_group_name_H-M   'P 1'
_cell_length_a   3.61129200
_cell_length_b   8.14243900
_cell_length_c   18.21565200
_cell_angle_alpha   90.00000000
_cell_angle_beta   90.00000000
_cell_angle_gamma   90.00000000
_symmetry_Int_Tables_number   1
_chemical_formula_structural   YHo2Er2(In2Pd)2
_chemical_formula_sum   'Y2 Ho4 Er4 In8 Pd4'
_cell_volume   535.62623450
_cell_formula_units_Z   2
loop_
 _symmetry_equiv_pos_site_id
 _symmetry_equiv_pos_as_xyz
  1  'x, y, z'
loop_
 _atom_site_type_symbol
 _atom_site_label
 _atom_site_symmetry_multiplicity
 _atom_site_fract_x
 _atom_site_fract_y
 _atom_site_fract_z
 _atom_site_occupancy
  Y  Y0  1  0.000000  0.500000  0.500000  1
  Y  Y1  1  0.000000  0.000000  0.000000  1
  Ho  Ho2  1  0.000000  0.739070  0.281101  1
  Ho  Ho3  1  0.000000  0.260930  0.718899  1
  Ho  Ho4  1  0.000000  0.760930  0.781101  1
  Ho  Ho5  1  0.000000  0.239070  0.218899  1
  Er  Er6  1  0.000000  0.617017  0.083844  1
  Er  Er7  1  0.000000  0.382983  0.916156  1
  Er  Er8  1  0.000000  0.882983  0.583844  1
  Er  Er9  1  0.000000  0.117017  0.416156  1
  In  In10  1  0.500000  0.707209  0.932672  1
  In  In11  1  0.500000  0.292791  0.067328  1
  In  In12  1  0.500000  0.792791  0.432672  1
  In  In13  1  0.500000  0.207209  0.567328  1
  In  In14  1  0.500000  0.581946  0.650548  1
  In  In15  1  0.500000  0.418054  0.349452  1
  In  In16  1  0.500000  0.918054  0.150548  1
  In  In17  1  0.500000  0.081946  0.849452  1
  Pd  Pd18  1  0.500000  0.523475  0.195889  1
  Pd  Pd19  1  0.500000  0.476525  0.804111  1
  Pd  Pd20  1  0.500000  0.976525  0.695889  1
  Pd  Pd21  1  0.500000  0.023475  0.304111  1
