# generated using pymatgen
data_Ca5La4PrRu4
_symmetry_space_group_name_H-M   'P 1'
_cell_length_a   9.06314837
_cell_length_b   9.06314911
_cell_length_c   7.47627868
_cell_angle_alpha   84.07316554
_cell_angle_beta   84.07316442
_cell_angle_gamma   43.35554456
_symmetry_Int_Tables_number   1
_chemical_formula_structural   Ca5La4PrRu4
_chemical_formula_sum   'Ca5 La4 Pr1 Ru4'
_cell_volume   418.98775970
_cell_formula_units_Z   1
loop_
 _symmetry_equiv_pos_site_id
 _symmetry_equiv_pos_as_xyz
  1  'x, y, z'
loop_
 _atom_site_type_symbol
 _atom_site_label
 _atom_site_symmetry_multiplicity
 _atom_site_fract_x
 _atom_site_fract_y
 _atom_site_fract_z
 _atom_site_occupancy
  Ca  Ca0  1  0.369027  0.208415  0.818343  1
  Ca  Ca1  1  0.791585  0.630973  0.681657  1
  Ca  Ca2  1  0.633778  0.793103  0.181473  1
  Ca  Ca3  1  0.206897  0.366222  0.318527  1
  Ca  Ca4  1  0.574227  0.425773  0.750000  1
  La  La5  1  0.012831  0.800961  0.902729  1
  La  La6  1  0.199039  0.987169  0.597271  1
  La  La7  1  0.990859  0.196289  0.093703  1
  La  La8  1  0.803711  0.009141  0.406297  1
  Pr  Pr9  1  0.434009  0.565991  0.250000  1
  Ru  Ru10  1  0.139385  0.649484  0.592267  1
  Ru  Ru11  1  0.350516  0.860615  0.907733  1
  Ru  Ru12  1  0.852163  0.358027  0.399651  1
  Ru  Ru13  1  0.641973  0.147837  0.100349  1
