# generated using pymatgen
data_Tm2ReB2Ru5
_symmetry_space_group_name_H-M   'P 1'
_cell_length_a   9.57143700
_cell_length_b   9.57143700
_cell_length_c   3.08146400
_cell_angle_alpha   90.00000000
_cell_angle_beta   90.00000000
_cell_angle_gamma   90.00000000
_symmetry_Int_Tables_number   1
_chemical_formula_structural   Tm2ReB2Ru5
_chemical_formula_sum   'Tm4 Re2 B4 Ru10'
_cell_volume   282.30033180
_cell_formula_units_Z   2
loop_
 _symmetry_equiv_pos_site_id
 _symmetry_equiv_pos_as_xyz
  1  'x, y, z'
loop_
 _atom_site_type_symbol
 _atom_site_label
 _atom_site_symmetry_multiplicity
 _atom_site_fract_x
 _atom_site_fract_y
 _atom_site_fract_z
 _atom_site_occupancy
  Tm  Tm0  1  0.675348  0.175348  0.000000  1
  Tm  Tm1  1  0.324652  0.824652  0.000000  1
  Tm  Tm2  1  0.175348  0.324652  0.000000  1
  Tm  Tm3  1  0.824652  0.675348  0.000000  1
  Re  Re4  1  0.000000  0.000000  0.000000  1
  Re  Re5  1  0.500000  0.500000  0.000000  1
  B  B6  1  0.120015  0.620015  0.000000  1
  B  B7  1  0.879985  0.379985  0.000000  1
  B  B8  1  0.620015  0.879985  0.000000  1
  B  B9  1  0.379985  0.120015  0.000000  1
  Ru  Ru10  1  0.216268  0.069853  0.500000  1
  Ru  Ru11  1  0.783732  0.930147  0.500000  1
  Ru  Ru12  1  0.069853  0.783732  0.500000  1
  Ru  Ru13  1  0.716268  0.430147  0.500000  1
  Ru  Ru14  1  0.930147  0.216268  0.500000  1
  Ru  Ru15  1  0.283732  0.569853  0.500000  1
  Ru  Ru16  1  0.569853  0.716268  0.500000  1
  Ru  Ru17  1  0.430147  0.283732  0.500000  1
  Ru  Ru18  1  0.500000  0.000000  0.500000  1
  Ru  Ru19  1  0.000000  0.500000  0.500000  1
