# generated using pymatgen
data_MgZrFe3Co
_symmetry_space_group_name_H-M   'P 1'
_cell_length_a   4.90912286
_cell_length_b   4.90912122
_cell_length_c   4.90912269
_cell_angle_alpha   59.97700191
_cell_angle_beta   59.97701470
_cell_angle_gamma   59.97700497
_symmetry_Int_Tables_number   1
_chemical_formula_structural   MgZrFe3Co
_chemical_formula_sum   'Mg1 Zr1 Fe3 Co1'
_cell_volume   83.61227773
_cell_formula_units_Z   1
loop_
 _symmetry_equiv_pos_site_id
 _symmetry_equiv_pos_as_xyz
  1  'x, y, z'
loop_
 _atom_site_type_symbol
 _atom_site_label
 _atom_site_symmetry_multiplicity
 _atom_site_fract_x
 _atom_site_fract_y
 _atom_site_fract_z
 _atom_site_occupancy
  Mg  Mg0  1  0.625205  0.625205  0.625205  1
  Zr  Zr1  1  0.374490  0.374490  0.374490  1
  Fe  Fe2  1  0.999523  0.501762  0.999523  1
  Fe  Fe3  1  0.501762  0.999523  0.999523  1
  Fe  Fe4  1  0.999523  0.999523  0.501762  1
  Co  Co5  1  0.999499  0.999499  0.999499  1
