# generated using pymatgen
data_Ac8Er12Si15Ir
_symmetry_space_group_name_H-M   'P 1'
_cell_length_a   7.52032800
_cell_length_b   7.92441850
_cell_length_c   14.91239700
_cell_angle_alpha   90.00000000
_cell_angle_beta   90.00000000
_cell_angle_gamma   90.09327068
_symmetry_Int_Tables_number   1
_chemical_formula_structural   Ac8Er12Si15Ir
_chemical_formula_sum   'Ac8 Er12 Si15 Ir1'
_cell_volume   888.69158440
_cell_formula_units_Z   1
loop_
 _symmetry_equiv_pos_site_id
 _symmetry_equiv_pos_as_xyz
  1  'x, y, z'
loop_
 _atom_site_type_symbol
 _atom_site_label
 _atom_site_symmetry_multiplicity
 _atom_site_fract_x
 _atom_site_fract_y
 _atom_site_fract_z
 _atom_site_occupancy
  Ac  Ac0  1  0.014241  0.178106  0.096571  1
  Ac  Ac1  1  0.989523  0.829185  0.903791  1
  Ac  Ac2  1  0.487550  0.671480  0.905342  1
  Ac  Ac3  1  0.989523  0.829185  0.596209  1
  Ac  Ac4  1  0.513681  0.327827  0.095646  1
  Ac  Ac5  1  0.014241  0.178106  0.403429  1
  Ac  Ac6  1  0.513681  0.327827  0.404354  1
  Ac  Ac7  1  0.487550  0.671480  0.594658  1
  Er  Er8  1  0.151534  0.500794  0.750000  1
  Er  Er9  1  0.842321  0.494981  0.250000  1
  Er  Er10  1  0.342170  0.008267  0.250000  1
  Er  Er11  1  0.664132  0.997273  0.750000  1
  Er  Er12  1  0.315904  0.172161  0.627551  1
  Er  Er13  1  0.676213  0.826640  0.374019  1
  Er  Er14  1  0.176384  0.678046  0.375100  1
  Er  Er15  1  0.676213  0.826640  0.125981  1
  Er  Er16  1  0.831733  0.315611  0.627254  1
  Er  Er17  1  0.315904  0.172161  0.872449  1
  Er  Er18  1  0.831733  0.315611  0.872746  1
  Er  Er19  1  0.176384  0.678046  0.124900  1
  Si  Si20  1  0.972401  0.874398  0.250000  1
  Si  Si21  1  0.470428  0.625175  0.250000  1
  Si  Si22  1  0.528130  0.381203  0.750000  1
  Si  Si23  1  0.282938  0.879119  0.750000  1
  Si  Si24  1  0.714607  0.118942  0.250000  1
  Si  Si25  1  0.216514  0.384534  0.250000  1
  Si  Si26  1  0.775741  0.611247  0.750000  1
  Si  Si27  1  0.147023  0.468622  0.538559  1
  Si  Si28  1  0.854661  0.537949  0.461788  1
  Si  Si29  1  0.355046  0.965331  0.461106  1
  Si  Si30  1  0.854661  0.537949  0.038212  1
  Si  Si31  1  0.643928  0.034018  0.538156  1
  Si  Si32  1  0.147023  0.468622  0.961441  1
  Si  Si33  1  0.643928  0.034018  0.961844  1
  Si  Si34  1  0.355046  0.965331  0.038894  1
  Ir  Ir35  1  0.027300  0.114114  0.750000  1
