# generated using pymatgen
data_YEr19(Cd3Tc)2
_symmetry_space_group_name_H-M   'P 1'
_cell_length_a   9.46554805
_cell_length_b   9.47325433
_cell_length_c   9.87949400
_cell_angle_alpha   90.00000000
_cell_angle_beta   90.00000000
_cell_angle_gamma   120.02694114
_symmetry_Int_Tables_number   1
_chemical_formula_structural   YEr19(Cd3Tc)2
_chemical_formula_sum   'Y1 Er19 Cd6 Tc2'
_cell_volume   766.99464156
_cell_formula_units_Z   1
loop_
 _symmetry_equiv_pos_site_id
 _symmetry_equiv_pos_as_xyz
  1  'x, y, z'
loop_
 _atom_site_type_symbol
 _atom_site_label
 _atom_site_symmetry_multiplicity
 _atom_site_fract_x
 _atom_site_fract_y
 _atom_site_fract_z
 _atom_site_occupancy
  Y  Y0  1  0.079678  0.539839  0.750000  1
  Er  Er1  1  0.000016  0.000008  0.499921  1
  Er  Er2  1  0.000016  0.000008  0.000079  1
  Er  Er3  1  0.210225  0.790263  0.441480  1
  Er  Er4  1  0.210225  0.419962  0.441480  1
  Er  Er5  1  0.580005  0.790002  0.441742  1
  Er  Er6  1  0.789451  0.209562  0.558001  1
  Er  Er7  1  0.789451  0.579888  0.558001  1
  Er  Er8  1  0.419822  0.209911  0.558182  1
  Er  Er9  1  0.789451  0.209562  0.941999  1
  Er  Er10  1  0.789451  0.579888  0.941999  1
  Er  Er11  1  0.419822  0.209911  0.941818  1
  Er  Er12  1  0.210225  0.790263  0.058520  1
  Er  Er13  1  0.210225  0.419962  0.058520  1
  Er  Er14  1  0.580005  0.790002  0.058258  1
  Er  Er15  1  0.539394  0.460595  0.250000  1
  Er  Er16  1  0.539394  0.078799  0.250000  1
  Er  Er17  1  0.921508  0.460754  0.250000  1
  Er  Er18  1  0.461005  0.539290  0.750000  1
  Er  Er19  1  0.461005  0.921715  0.750000  1
  Cd  Cd20  1  0.885562  0.114300  0.250000  1
  Cd  Cd21  1  0.885562  0.771263  0.250000  1
  Cd  Cd22  1  0.228756  0.114378  0.250000  1
  Cd  Cd23  1  0.114510  0.886255  0.750000  1
  Cd  Cd24  1  0.114510  0.228254  0.750000  1
  Cd  Cd25  1  0.771277  0.885638  0.750000  1
  Tc  Tc26  1  0.333137  0.666569  0.250000  1
  Tc  Tc27  1  0.666311  0.333155  0.750000  1
