# generated using pymatgen
data_NdSmMn2Co10P7
_symmetry_space_group_name_H-M   'P 1'
_cell_length_a   9.11662715
_cell_length_b   9.10517835
_cell_length_c   3.63780600
_cell_angle_alpha   90.00000000
_cell_angle_beta   90.00000000
_cell_angle_gamma   120.11172462
_symmetry_Int_Tables_number   1
_chemical_formula_structural   NdSmMn2Co10P7
_chemical_formula_sum   'Nd1 Sm1 Mn2 Co10 P7'
_cell_volume   261.21780864
_cell_formula_units_Z   1
loop_
 _symmetry_equiv_pos_site_id
 _symmetry_equiv_pos_as_xyz
  1  'x, y, z'
loop_
 _atom_site_type_symbol
 _atom_site_label
 _atom_site_symmetry_multiplicity
 _atom_site_fract_x
 _atom_site_fract_y
 _atom_site_fract_z
 _atom_site_occupancy
  Nd  Nd0  1  0.334599  0.668508  0.500000  1
  Sm  Sm1  1  0.666350  0.333593  0.000000  1
  Mn  Mn2  1  0.899944  0.118868  0.000000  1
  Mn  Mn3  1  0.881966  0.780182  0.000000  1
  Co  Co4  1  0.427228  0.059770  0.500000  1
  Co  Co5  1  0.940361  0.369678  0.500000  1
  Co  Co6  1  0.629894  0.570237  0.500000  1
  Co  Co7  1  0.155634  0.272381  0.500000  1
  Co  Co8  1  0.728328  0.884339  0.500000  1
  Co  Co9  1  0.118278  0.845772  0.500000  1
  Co  Co10  1  0.384525  0.431228  0.000000  1
  Co  Co11  1  0.566006  0.952599  0.000000  1
  Co  Co12  1  0.049342  0.615745  0.000000  1
  Co  Co13  1  0.217211  0.093959  0.000000  1
  P  P14  1  0.111879  0.402780  0.000000  1
  P  P15  1  0.601391  0.710026  0.000000  1
  P  P16  1  0.289062  0.891856  0.000000  1
  P  P17  1  0.001344  0.999662  0.500000  1
  P  P18  1  0.407110  0.298464  0.500000  1
  P  P19  1  0.698362  0.109047  0.500000  1
  P  P20  1  0.891183  0.591307  0.500000  1
