# generated using pymatgen
data_DyErFe4(PIr)6
_symmetry_space_group_name_H-M   'P 1'
_cell_length_a   3.85144600
_cell_length_b   10.49251900
_cell_length_c   12.28656800
_cell_angle_alpha   90.00000000
_cell_angle_beta   90.00000000
_cell_angle_gamma   90.00000000
_symmetry_Int_Tables_number   1
_chemical_formula_structural   DyErFe4(PIr)6
_chemical_formula_sum   'Dy2 Er2 Fe8 P12 Ir12'
_cell_volume   496.51704956
_cell_formula_units_Z   2
loop_
 _symmetry_equiv_pos_site_id
 _symmetry_equiv_pos_as_xyz
  1  'x, y, z'
loop_
 _atom_site_type_symbol
 _atom_site_label
 _atom_site_symmetry_multiplicity
 _atom_site_fract_x
 _atom_site_fract_y
 _atom_site_fract_z
 _atom_site_occupancy
  Dy  Dy0  1  0.750000  0.419991  0.287776  1
  Dy  Dy1  1  0.750000  0.080009  0.787776  1
  Er  Er2  1  0.250000  0.580018  0.712189  1
  Er  Er3  1  0.250000  0.919982  0.212189  1
  Fe  Fe4  1  0.250000  0.875923  0.697321  1
  Fe  Fe5  1  0.250000  0.624077  0.197321  1
  Fe  Fe6  1  0.750000  0.123582  0.302510  1
  Fe  Fe7  1  0.750000  0.376418  0.802510  1
  Fe  Fe8  1  0.250000  0.458019  0.936001  1
  Fe  Fe9  1  0.250000  0.041981  0.436001  1
  Fe  Fe10  1  0.750000  0.542137  0.063717  1
  Fe  Fe11  1  0.750000  0.957863  0.563717  1
  P  P12  1  0.250000  0.440787  0.111933  1
  P  P13  1  0.250000  0.059213  0.611933  1
  P  P14  1  0.750000  0.559277  0.887688  1
  P  P15  1  0.750000  0.940723  0.387688  1
  P  P16  1  0.250000  0.272397  0.863715  1
  P  P17  1  0.250000  0.227603  0.363715  1
  P  P18  1  0.750000  0.727861  0.136411  1
  P  P19  1  0.750000  0.772139  0.636411  1
  P  P20  1  0.250000  0.599861  0.377291  1
  P  P21  1  0.250000  0.900139  0.877291  1
  P  P22  1  0.750000  0.400467  0.622895  1
  P  P23  1  0.750000  0.099533  0.122895  1
  Ir  Ir24  1  0.250000  0.718141  0.989795  1
  Ir  Ir25  1  0.250000  0.781859  0.489795  1
  Ir  Ir26  1  0.750000  0.281905  0.010264  1
  Ir  Ir27  1  0.750000  0.218095  0.510264  1
  Ir  Ir28  1  0.250000  0.408924  0.475703  1
  Ir  Ir29  1  0.250000  0.091076  0.975703  1
  Ir  Ir30  1  0.750000  0.591090  0.525029  1
  Ir  Ir31  1  0.750000  0.908910  0.025029  1
  Ir  Ir32  1  0.250000  0.231417  0.173999  1
  Ir  Ir33  1  0.250000  0.268583  0.673999  1
  Ir  Ir34  1  0.750000  0.767977  0.825763  1
  Ir  Ir35  1  0.750000  0.732023  0.325763  1
