# generated using pymatgen
data_Li2Th2Si2Sn
_symmetry_space_group_name_H-M   'P 1'
_cell_length_a   9.75450622
_cell_length_b   9.75450596
_cell_length_c   6.79839100
_cell_angle_alpha   90.00000000
_cell_angle_beta   90.00000000
_cell_angle_gamma   152.88886605
_symmetry_Int_Tables_number   1
_chemical_formula_structural   Li2Th2Si2Sn
_chemical_formula_sum   'Li4 Th4 Si4 Sn2'
_cell_volume   294.79002492
_cell_formula_units_Z   2
loop_
 _symmetry_equiv_pos_site_id
 _symmetry_equiv_pos_as_xyz
  1  'x, y, z'
loop_
 _atom_site_type_symbol
 _atom_site_label
 _atom_site_symmetry_multiplicity
 _atom_site_fract_x
 _atom_site_fract_y
 _atom_site_fract_z
 _atom_site_occupancy
  Li  Li0  1  0.816465  0.183535  0.437960  1
  Li  Li1  1  0.183535  0.816465  0.562040  1
  Li  Li2  1  0.816465  0.183535  0.062040  1
  Li  Li3  1  0.183535  0.816465  0.937960  1
  Th  Th4  1  0.545355  0.454645  0.750000  1
  Th  Th5  1  0.454645  0.545355  0.250000  1
  Th  Th6  1  0.351055  0.648945  0.750000  1
  Th  Th7  1  0.648945  0.351055  0.250000  1
  Si  Si8  1  0.941288  0.058712  0.929446  1
  Si  Si9  1  0.058712  0.941288  0.070554  1
  Si  Si10  1  0.941288  0.058712  0.570554  1
  Si  Si11  1  0.058712  0.941288  0.429446  1
  Sn  Sn12  1  0.719430  0.280570  0.750000  1
  Sn  Sn13  1  0.280570  0.719430  0.250000  1
