# generated using pymatgen
data_Ta2Nb4GaCo6
_symmetry_space_group_name_H-M   'P 1'
_cell_length_a   4.93939459
_cell_length_b   4.93939473
_cell_length_c   9.07685596
_cell_angle_alpha   74.21148238
_cell_angle_beta   74.21148029
_cell_angle_gamma   59.99998487
_symmetry_Int_Tables_number   1
_chemical_formula_structural   Ta2Nb4GaCo6
_chemical_formula_sum   'Ta2 Nb4 Ga1 Co6'
_cell_volume   182.07320813
_cell_formula_units_Z   1
loop_
 _symmetry_equiv_pos_site_id
 _symmetry_equiv_pos_as_xyz
  1  'x, y, z'
loop_
 _atom_site_type_symbol
 _atom_site_label
 _atom_site_symmetry_multiplicity
 _atom_site_fract_x
 _atom_site_fract_y
 _atom_site_fract_z
 _atom_site_occupancy
  Ta  Ta0  1  0.169134  0.169134  0.492597  1
  Ta  Ta1  1  0.830866  0.830866  0.507403  1
  Nb  Nb2  1  0.345874  0.345874  0.962380  1
  Nb  Nb3  1  0.654126  0.654126  0.037620  1
  Nb  Nb4  1  0.449798  0.449798  0.650604  1
  Nb  Nb5  1  0.550202  0.550202  0.349396  1
  Ga  Ga6  1  0.000000  0.000000  0.000000  1
  Co  Co7  1  0.587827  0.088927  0.234319  1
  Co  Co8  1  0.088927  0.088927  0.234319  1
  Co  Co9  1  0.088927  0.587827  0.234319  1
  Co  Co10  1  0.412173  0.911073  0.765681  1
  Co  Co11  1  0.911073  0.911073  0.765681  1
  Co  Co12  1  0.911073  0.412173  0.765681  1
