# generated using pymatgen
data_Pu4B16Mo3W
_symmetry_space_group_name_H-M   'P 1'
_cell_length_a   3.63207600
_cell_length_b   6.02224801
_cell_length_c   11.67296803
_cell_angle_alpha   89.99240419
_cell_angle_beta   90.00000000
_cell_angle_gamma   90.00000000
_symmetry_Int_Tables_number   1
_chemical_formula_structural   Pu4B16Mo3W
_chemical_formula_sum   'Pu4 B16 Mo3 W1'
_cell_volume   255.32589124
_cell_formula_units_Z   1
loop_
 _symmetry_equiv_pos_site_id
 _symmetry_equiv_pos_as_xyz
  1  'x, y, z'
loop_
 _atom_site_type_symbol
 _atom_site_label
 _atom_site_symmetry_multiplicity
 _atom_site_fract_x
 _atom_site_fract_y
 _atom_site_fract_z
 _atom_site_occupancy
  Pu  Pu0  1  0.000000  0.625067  0.349519  1
  Pu  Pu1  1  0.000000  0.374824  0.650643  1
  Pu  Pu2  1  0.000000  0.125139  0.150676  1
  Pu  Pu3  1  0.000000  0.874932  0.849196  1
  B  B4  1  0.500000  0.786914  0.187385  1
  B  B5  1  0.500000  0.213730  0.812991  1
  B  B6  1  0.500000  0.286152  0.313086  1
  B  B7  1  0.500000  0.713722  0.686971  1
  B  B8  1  0.500000  0.866826  0.032351  1
  B  B9  1  0.500000  0.133536  0.967388  1
  B  B10  1  0.500000  0.366508  0.467439  1
  B  B11  1  0.500000  0.633393  0.532551  1
  B  B12  1  0.500000  0.884273  0.452798  1
  B  B13  1  0.500000  0.115762  0.547160  1
  B  B14  1  0.500000  0.383970  0.047100  1
  B  B15  1  0.500000  0.615657  0.952652  1
  B  B16  1  0.500000  0.973690  0.307329  1
  B  B17  1  0.500000  0.026577  0.692741  1
  B  B18  1  0.500000  0.472861  0.192798  1
  B  B19  1  0.500000  0.526446  0.807227  1
  Mo  Mo20  1  0.000000  0.368289  0.913824  1
  Mo  Mo21  1  0.000000  0.131360  0.414032  1
  Mo  Mo22  1  0.000000  0.868637  0.585963  1
  W  W23  1  0.000000  0.631733  0.086180  1
