# generated using pymatgen
data_Sr8Mn3RuO16
_symmetry_space_group_name_H-M   'P 1'
_cell_length_a   5.55642415
_cell_length_b   8.84943022
_cell_length_c   8.84941400
_cell_angle_alpha   89.34118403
_cell_angle_beta   71.70572649
_cell_angle_gamma   108.29423232
_symmetry_Int_Tables_number   1
_chemical_formula_structural   Sr8Mn3RuO16
_chemical_formula_sum   'Sr8 Mn3 Ru1 O16'
_cell_volume   389.32873076
_cell_formula_units_Z   1
loop_
 _symmetry_equiv_pos_site_id
 _symmetry_equiv_pos_as_xyz
  1  'x, y, z'
loop_
 _atom_site_type_symbol
 _atom_site_label
 _atom_site_symmetry_multiplicity
 _atom_site_fract_x
 _atom_site_fract_y
 _atom_site_fract_z
 _atom_site_occupancy
  Sr  Sr0  1  0.254603  0.399039  0.889468  1
  Sr  Sr1  1  0.000030  0.640969  0.640960  1
  Sr  Sr2  1  0.745381  0.889452  0.399064  1
  Sr  Sr3  1  0.500005  0.145502  0.145474  1
  Sr  Sr4  1  0.000023  0.359032  0.359031  1
  Sr  Sr5  1  0.745448  0.600999  0.110490  1
  Sr  Sr6  1  0.499985  0.854511  0.854536  1
  Sr  Sr7  1  0.254588  0.110512  0.600982  1
  Mn  Mn8  1  0.500132  0.499946  0.499928  1
  Mn  Mn9  1  0.247398  0.747121  0.252894  1
  Mn  Mn10  1  0.752428  0.252911  0.747078  1
  Ru  Ru11  1  0.000043  0.000037  0.999997  1
  O  O12  1  0.252942  0.595575  0.090055  1
  O  O13  1  0.999960  0.840248  0.840369  1
  O  O14  1  0.747082  0.090099  0.595522  1
  O  O15  1  0.499999  0.343207  0.343234  1
  O  O16  1  0.000041  0.159749  0.159683  1
  O  O17  1  0.747072  0.404469  0.909912  1
  O  O18  1  0.500026  0.656759  0.656737  1
  O  O19  1  0.252839  0.909854  0.404550  1
  O  O20  1  0.872234  0.123792  0.876178  1
  O  O21  1  0.626014  0.371422  0.628576  1
  O  O22  1  0.374003  0.628565  0.371382  1
  O  O23  1  0.127747  0.876235  0.123872  1
  O  O24  1  0.374772  0.124211  0.875767  1
  O  O25  1  0.116439  0.371406  0.628594  1
  O  O26  1  0.883568  0.628556  0.371393  1
  O  O27  1  0.625200  0.875824  0.124269  1
