# generated using pymatgen
data_Dy2Er2Cd2Si3Ge
_symmetry_space_group_name_H-M   'P 1'
_cell_length_a   7.18707642
_cell_length_b   7.18707645
_cell_length_c   4.18749200
_cell_angle_alpha   90.00000000
_cell_angle_beta   90.00000000
_cell_angle_gamma   89.88710759
_symmetry_Int_Tables_number   1
_chemical_formula_structural   Dy2Er2Cd2Si3Ge
_chemical_formula_sum   'Dy2 Er2 Cd2 Si3 Ge1'
_cell_volume   216.30057546
_cell_formula_units_Z   1
loop_
 _symmetry_equiv_pos_site_id
 _symmetry_equiv_pos_as_xyz
  1  'x, y, z'
loop_
 _atom_site_type_symbol
 _atom_site_label
 _atom_site_symmetry_multiplicity
 _atom_site_fract_x
 _atom_site_fract_y
 _atom_site_fract_z
 _atom_site_occupancy
  Dy  Dy0  1  0.680167  0.177738  0.500000  1
  Dy  Dy1  1  0.322262  0.819833  0.500000  1
  Er  Er2  1  0.175328  0.324672  0.500000  1
  Er  Er3  1  0.823040  0.676960  0.500000  1
  Cd  Cd4  1  0.501219  0.502879  0.000000  1
  Cd  Cd5  1  0.997121  0.998781  0.000000  1
  Si  Si6  1  0.116997  0.617095  0.000000  1
  Si  Si7  1  0.882905  0.383003  0.000000  1
  Si  Si8  1  0.620844  0.879156  0.000000  1
  Ge  Ge9  1  0.380116  0.119884  0.000000  1
