# generated using pymatgen
data_Tm3Mg2ZnSi2Au
_symmetry_space_group_name_H-M   'P 1'
_cell_length_a   6.98080400
_cell_length_b   7.02544193
_cell_length_c   4.30925200
_cell_angle_alpha   90.00000000
_cell_angle_beta   90.00000000
_cell_angle_gamma   119.79005056
_symmetry_Int_Tables_number   1
_chemical_formula_structural   Tm3Mg2ZnSi2Au
_chemical_formula_sum   'Tm3 Mg2 Zn1 Si2 Au1'
_cell_volume   183.41148327
_cell_formula_units_Z   1
loop_
 _symmetry_equiv_pos_site_id
 _symmetry_equiv_pos_as_xyz
  1  'x, y, z'
loop_
 _atom_site_type_symbol
 _atom_site_label
 _atom_site_symmetry_multiplicity
 _atom_site_fract_x
 _atom_site_fract_y
 _atom_site_fract_z
 _atom_site_occupancy
  Tm  Tm0  1  0.571479  0.000000  0.000000  1
  Tm  Tm1  1  0.001314  0.581899  0.000000  1
  Tm  Tm2  1  0.419415  0.418101  0.000000  1
  Mg  Mg3  1  0.003309  0.243147  0.500000  1
  Mg  Mg4  1  0.760162  0.756853  0.500000  1
  Zn  Zn5  1  0.253800  0.000000  0.500000  1
  Si  Si6  1  0.330787  0.672029  0.500000  1
  Si  Si7  1  0.658759  0.327971  0.500000  1
  Au  Au8  1  0.000974  0.000000  0.000000  1
