# generated using pymatgen
data_La7Gd2ErSi8O3
_symmetry_space_group_name_H-M   'P 1'
_cell_length_a   10.97611500
_cell_length_b   10.91886789
_cell_length_c   4.57373100
_cell_angle_alpha   90.00000000
_cell_angle_beta   90.00000000
_cell_angle_gamma   120.17359061
_symmetry_Int_Tables_number   1
_chemical_formula_structural   La7Gd2ErSi8O3
_chemical_formula_sum   'La7 Gd2 Er1 Si8 O3'
_cell_volume   473.87650337
_cell_formula_units_Z   1
loop_
 _symmetry_equiv_pos_site_id
 _symmetry_equiv_pos_as_xyz
  1  'x, y, z'
loop_
 _atom_site_type_symbol
 _atom_site_label
 _atom_site_symmetry_multiplicity
 _atom_site_fract_x
 _atom_site_fract_y
 _atom_site_fract_z
 _atom_site_occupancy
  La  La0  1  0.212044  0.787194  0.000000  1
  La  La1  1  0.575151  0.787194  0.000000  1
  La  La2  1  0.787592  0.575184  0.000000  1
  La  La3  1  0.000000  0.000000  0.000000  1
  La  La4  1  0.212408  0.424816  0.000000  1
  La  La5  1  0.424849  0.212806  0.000000  1
  La  La6  1  0.787956  0.212806  0.000000  1
  Gd  Gd7  1  0.000000  0.500000  0.500000  1
  Gd  Gd8  1  0.500000  0.500000  0.500000  1
  Er  Er9  1  0.500000  0.000000  0.500000  1
  Si  Si10  1  0.999866  0.778414  0.500000  1
  Si  Si11  1  0.000134  0.221586  0.500000  1
  Si  Si12  1  0.221452  0.221586  0.500000  1
  Si  Si13  1  0.777415  0.000000  0.500000  1
  Si  Si14  1  0.335043  0.670087  0.500000  1
  Si  Si15  1  0.222585  0.000000  0.500000  1
  Si  Si16  1  0.664957  0.329913  0.500000  1
  Si  Si17  1  0.778548  0.778414  0.500000  1
  O  O18  1  0.000000  0.500000  0.000000  1
  O  O19  1  0.500000  0.500000  0.000000  1
  O  O20  1  0.500000  0.000000  0.000000  1
