# generated using pymatgen
data_Ba2Th4(SeS)5
_symmetry_space_group_name_H-M   'P 1'
_cell_length_a   7.83742800
_cell_length_b   8.94083223
_cell_length_c   12.36356448
_cell_angle_alpha   89.46570849
_cell_angle_beta   90.00000000
_cell_angle_gamma   90.00000000
_symmetry_Int_Tables_number   1
_chemical_formula_structural   Ba2Th4(SeS)5
_chemical_formula_sum   'Ba4 Th8 Se10 S10'
_cell_volume   866.31597861
_cell_formula_units_Z   2
loop_
 _symmetry_equiv_pos_site_id
 _symmetry_equiv_pos_as_xyz
  1  'x, y, z'
loop_
 _atom_site_type_symbol
 _atom_site_label
 _atom_site_symmetry_multiplicity
 _atom_site_fract_x
 _atom_site_fract_y
 _atom_site_fract_z
 _atom_site_occupancy
  Ba  Ba0  1  0.065113  0.476854  0.337092  1
  Ba  Ba1  1  0.565113  0.523146  0.162908  1
  Ba  Ba2  1  0.944211  0.510907  0.664334  1
  Ba  Ba3  1  0.444211  0.489093  0.835666  1
  Th  Th4  1  0.011290  0.993268  0.322407  1
  Th  Th5  1  0.511290  0.006732  0.177593  1
  Th  Th6  1  0.987512  0.002360  0.674309  1
  Th  Th7  1  0.487512  0.997640  0.825691  1
  Th  Th8  1  0.070782  0.764256  0.016062  1
  Th  Th9  1  0.570782  0.235744  0.483938  1
  Th  Th10  1  0.923872  0.237967  0.990164  1
  Th  Th11  1  0.423872  0.762033  0.509836  1
  Se  Se12  1  0.172571  0.216432  0.812588  1
  Se  Se13  1  0.672571  0.783568  0.687412  1
  Se  Se14  1  0.300248  0.767601  0.278772  1
  Se  Se15  1  0.800248  0.232399  0.221228  1
  Se  Se16  1  0.695220  0.230708  0.716665  1
  Se  Se17  1  0.195220  0.769292  0.783335  1
  Se  Se18  1  0.183509  0.462107  0.075457  1
  Se  Se19  1  0.683509  0.537893  0.424543  1
  Se  Se20  1  0.817985  0.539851  0.929312  1
  Se  Se21  1  0.317985  0.460149  0.570688  1
  S  S22  1  0.652778  0.954815  0.395727  1
  S  S23  1  0.152778  0.045185  0.104273  1
  S  S24  1  0.347280  0.039949  0.602869  1
  S  S25  1  0.847280  0.960051  0.897131  1
  S  S26  1  0.445939  0.802504  0.004614  1
  S  S27  1  0.945939  0.197496  0.495386  1
  S  S28  1  0.552515  0.202241  0.997854  1
  S  S29  1  0.052515  0.797759  0.502146  1
  S  S30  1  0.829174  0.797764  0.184158  1
  S  S31  1  0.329174  0.202236  0.315842  1
