# generated using pymatgen
data_Tb2HoThMgRh
_symmetry_space_group_name_H-M   'P 1'
_cell_length_a   9.79816440
_cell_length_b   9.79816532
_cell_length_c   9.80128700
_cell_angle_alpha   59.98945690
_cell_angle_beta   59.98945380
_cell_angle_gamma   60.02108359
_symmetry_Int_Tables_number   1
_chemical_formula_structural   Tb2HoThMgRh
_chemical_formula_sum   'Tb8 Ho4 Th4 Mg4 Rh4'
_cell_volume   665.36122217
_cell_formula_units_Z   4
loop_
 _symmetry_equiv_pos_site_id
 _symmetry_equiv_pos_as_xyz
  1  'x, y, z'
loop_
 _atom_site_type_symbol
 _atom_site_label
 _atom_site_symmetry_multiplicity
 _atom_site_fract_x
 _atom_site_fract_y
 _atom_site_fract_z
 _atom_site_occupancy
  Tb  Tb0  1  0.186840  0.186840  0.813160  1
  Tb  Tb1  1  0.813160  0.813160  0.186840  1
  Tb  Tb2  1  0.934231  0.565769  0.565769  1
  Tb  Tb3  1  0.565769  0.934231  0.934231  1
  Tb  Tb4  1  0.565769  0.934231  0.565769  1
  Tb  Tb5  1  0.934231  0.565769  0.934231  1
  Tb  Tb6  1  0.565714  0.565714  0.934286  1
  Tb  Tb7  1  0.934286  0.934286  0.565714  1
  Ho  Ho8  1  0.812912  0.187088  0.187088  1
  Ho  Ho9  1  0.187088  0.812912  0.812912  1
  Ho  Ho10  1  0.187088  0.812912  0.187088  1
  Ho  Ho11  1  0.812912  0.187088  0.812912  1
  Th  Th12  1  0.348105  0.348105  0.347499  1
  Th  Th13  1  0.348105  0.348105  0.956291  1
  Th  Th14  1  0.347499  0.956291  0.348105  1
  Th  Th15  1  0.956291  0.347499  0.348105  1
  Mg  Mg16  1  0.580354  0.580354  0.580490  1
  Mg  Mg17  1  0.580354  0.580354  0.258802  1
  Mg  Mg18  1  0.580490  0.258802  0.580354  1
  Mg  Mg19  1  0.258802  0.580490  0.580354  1
  Rh  Rh20  1  0.143844  0.143844  0.144514  1
  Rh  Rh21  1  0.143844  0.143844  0.567796  1
  Rh  Rh22  1  0.144514  0.567796  0.143844  1
  Rh  Rh23  1  0.567796  0.144514  0.143844  1
