# generated using pymatgen
data_Na2CaH12Ir2Pb
_symmetry_space_group_name_H-M   'P 1'
_cell_length_a   7.42135000
_cell_length_b   7.42135000
_cell_length_c   7.35880400
_cell_angle_alpha   90.00000000
_cell_angle_beta   90.00000000
_cell_angle_gamma   90.00000000
_symmetry_Int_Tables_number   1
_chemical_formula_structural   Na2CaH12Ir2Pb
_chemical_formula_sum   'Na4 Ca2 H24 Ir4 Pb2'
_cell_volume   405.29669624
_cell_formula_units_Z   2
loop_
 _symmetry_equiv_pos_site_id
 _symmetry_equiv_pos_as_xyz
  1  'x, y, z'
loop_
 _atom_site_type_symbol
 _atom_site_label
 _atom_site_symmetry_multiplicity
 _atom_site_fract_x
 _atom_site_fract_y
 _atom_site_fract_z
 _atom_site_occupancy
  Na  Na0  1  0.000000  0.000000  0.500000  1
  Na  Na1  1  0.000000  0.500000  0.000000  1
  Na  Na2  1  0.500000  0.000000  0.000000  1
  Na  Na3  1  0.000000  0.000000  0.000000  1
  Ca  Ca4  1  0.500000  0.500000  0.500000  1
  Ca  Ca5  1  0.500000  0.500000  0.000000  1
  H  H6  1  0.743960  0.743960  0.484002  1
  H  H7  1  0.256040  0.256040  0.484002  1
  H  H8  1  0.036691  0.751342  0.760996  1
  H  H9  1  0.248658  0.963309  0.760996  1
  H  H10  1  0.751342  0.036691  0.760996  1
  H  H11  1  0.963309  0.248658  0.760996  1
  H  H12  1  0.735231  0.489237  0.756819  1
  H  H13  1  0.489237  0.735231  0.756819  1
  H  H14  1  0.510763  0.264769  0.756819  1
  H  H15  1  0.264769  0.510763  0.756819  1
  H  H16  1  0.259200  0.740800  0.974089  1
  H  H17  1  0.740800  0.259200  0.974089  1
  H  H18  1  0.740800  0.740800  0.025911  1
  H  H19  1  0.259200  0.259200  0.025911  1
  H  H20  1  0.264769  0.489237  0.243181  1
  H  H21  1  0.510763  0.735231  0.243181  1
  H  H22  1  0.489237  0.264769  0.243181  1
  H  H23  1  0.735231  0.510763  0.243181  1
  H  H24  1  0.963309  0.751342  0.239004  1
  H  H25  1  0.751342  0.963309  0.239004  1
  H  H26  1  0.248658  0.036691  0.239004  1
  H  H27  1  0.036691  0.248658  0.239004  1
  H  H28  1  0.256040  0.743960  0.515998  1
  H  H29  1  0.743960  0.256040  0.515998  1
  Ir  Ir30  1  0.261334  0.738666  0.747330  1
  Ir  Ir31  1  0.738666  0.261334  0.747330  1
  Ir  Ir32  1  0.738666  0.738666  0.252670  1
  Ir  Ir33  1  0.261334  0.261334  0.252670  1
  Pb  Pb34  1  0.000000  0.500000  0.500000  1
  Pb  Pb35  1  0.500000  0.000000  0.500000  1
