# generated using pymatgen
data_Dy4HoTc6P12Ir13
_symmetry_space_group_name_H-M   'P 1'
_cell_length_a   12.65465200
_cell_length_b   12.65465191
_cell_length_c   3.98999800
_cell_angle_alpha   90.00000000
_cell_angle_beta   90.00000000
_cell_angle_gamma   120.00000024
_symmetry_Int_Tables_number   1
_chemical_formula_structural   Dy4HoTc6P12Ir13
_chemical_formula_sum   'Dy4 Ho1 Tc6 P12 Ir13'
_cell_volume   553.35484740
_cell_formula_units_Z   1
loop_
 _symmetry_equiv_pos_site_id
 _symmetry_equiv_pos_as_xyz
  1  'x, y, z'
loop_
 _atom_site_type_symbol
 _atom_site_label
 _atom_site_symmetry_multiplicity
 _atom_site_fract_x
 _atom_site_fract_y
 _atom_site_fract_z
 _atom_site_occupancy
  Dy  Dy0  1  0.666667  0.333333  0.500000  1
  Dy  Dy1  1  0.000251  0.812144  0.000000  1
  Dy  Dy2  1  0.187856  0.188107  0.000000  1
  Dy  Dy3  1  0.811893  0.999749  0.000000  1
  Ho  Ho4  1  0.333333  0.666667  0.500000  1
  Tc  Tc5  1  0.990513  0.446627  0.500000  1
  Tc  Tc6  1  0.553373  0.543886  0.500000  1
  Tc  Tc7  1  0.456114  0.009487  0.500000  1
  Tc  Tc8  1  0.620353  0.799244  0.500000  1
  Tc  Tc9  1  0.200756  0.821108  0.500000  1
  Tc  Tc10  1  0.178892  0.379647  0.500000  1
  P  P11  1  0.006972  0.638528  0.500000  1
  P  P12  1  0.361472  0.368445  0.500000  1
  P  P13  1  0.631555  0.993028  0.500000  1
  P  P14  1  0.521292  0.693993  0.000000  1
  P  P15  1  0.306007  0.827299  0.000000  1
  P  P16  1  0.172701  0.478708  0.000000  1
  P  P17  1  0.482300  0.168156  0.000000  1
  P  P18  1  0.685856  0.517700  0.000000  1
  P  P19  1  0.831844  0.314144  0.000000  1
  P  P20  1  0.003867  0.182570  0.500000  1
  P  P21  1  0.817430  0.821297  0.500000  1
  P  P22  1  0.178703  0.996133  0.500000  1
  Ir  Ir23  1  0.506662  0.874473  0.000000  1
  Ir  Ir24  1  0.125527  0.632191  0.000000  1
  Ir  Ir25  1  0.367809  0.493338  0.000000  1
  Ir  Ir26  1  0.493708  0.358033  0.000000  1
  Ir  Ir27  1  0.864326  0.506292  0.000000  1
  Ir  Ir28  1  0.641967  0.135674  0.000000  1
  Ir  Ir29  1  0.995141  0.281583  0.000000  1
  Ir  Ir30  1  0.718417  0.713560  0.000000  1
  Ir  Ir31  1  0.286440  0.004859  0.000000  1
  Ir  Ir32  1  0.374096  0.185042  0.500000  1
  Ir  Ir33  1  0.810945  0.625904  0.500000  1
  Ir  Ir34  1  0.814958  0.189055  0.500000  1
  Ir  Ir35  1  0.000000  0.000000  0.500000  1
