# generated using pymatgen
data_Cs(PtO3)2
_symmetry_space_group_name_H-M   'P 1'
_cell_length_a   7.28075011
_cell_length_b   7.28027047
_cell_length_c   7.28327387
_cell_angle_alpha   59.99071097
_cell_angle_beta   59.98417124
_cell_angle_gamma   60.02511414
_symmetry_Int_Tables_number   1
_chemical_formula_structural   Cs(PtO3)2
_chemical_formula_sum   'Cs2 Pt4 O12'
_cell_volume   272.98271102
_cell_formula_units_Z   2
loop_
 _symmetry_equiv_pos_site_id
 _symmetry_equiv_pos_as_xyz
  1  'x, y, z'
loop_
 _atom_site_type_symbol
 _atom_site_label
 _atom_site_symmetry_multiplicity
 _atom_site_fract_x
 _atom_site_fract_y
 _atom_site_fract_z
 _atom_site_occupancy
  Cs  Cs0  1  0.500000  0.500000  0.500000  1
  Cs  Cs1  1  0.250000  0.250000  0.250000  1
  Pt  Pt2  1  0.375126  0.874828  0.874932  1
  Pt  Pt3  1  0.874828  0.375126  0.875114  1
  Pt  Pt4  1  0.874932  0.875114  0.375126  1
  Pt  Pt5  1  0.875114  0.874932  0.874828  1
  O  O6  1  0.950322  0.950322  0.549678  1
  O  O7  1  0.549678  0.549678  0.950322  1
  O  O8  1  0.950162  0.549838  0.950162  1
  O  O9  1  0.549838  0.950162  0.549838  1
  O  O10  1  0.799989  0.799989  0.200011  1
  O  O11  1  0.200011  0.200011  0.799989  1
  O  O12  1  0.549833  0.950167  0.950167  1
  O  O13  1  0.950167  0.549833  0.549833  1
  O  O14  1  0.799824  0.200176  0.799824  1
  O  O15  1  0.200176  0.799824  0.200176  1
  O  O16  1  0.200272  0.799728  0.799728  1
  O  O17  1  0.799728  0.200272  0.200272  1
