# generated using pymatgen
data_Ce2Nd4TcI10
_symmetry_space_group_name_H-M   'P 1'
_cell_length_a   7.99516933
_cell_length_b   10.06815285
_cell_length_c   10.11242800
_cell_angle_alpha   107.51281180
_cell_angle_beta   97.14737854
_cell_angle_gamma   105.23860261
_symmetry_Int_Tables_number   1
_chemical_formula_structural   Ce2Nd4TcI10
_chemical_formula_sum   'Ce2 Nd4 Tc1 I10'
_cell_volume   730.44063317
_cell_formula_units_Z   1
loop_
 _symmetry_equiv_pos_site_id
 _symmetry_equiv_pos_as_xyz
  1  'x, y, z'
loop_
 _atom_site_type_symbol
 _atom_site_label
 _atom_site_symmetry_multiplicity
 _atom_site_fract_x
 _atom_site_fract_y
 _atom_site_fract_z
 _atom_site_occupancy
  Ce  Ce0  1  0.614226  0.540881  0.263456  1
  Ce  Ce1  1  0.385774  0.459119  0.736544  1
  Nd  Nd2  1  0.530375  0.211813  0.413206  1
  Nd  Nd3  1  0.469625  0.788187  0.586794  1
  Nd  Nd4  1  0.145083  0.370498  0.329974  1
  Nd  Nd5  1  0.854917  0.629502  0.670026  1
  Tc  Tc6  1  0.500000  0.500000  0.500000  1
  I  I7  1  0.145806  0.046354  0.227009  1
  I  I8  1  0.854194  0.953646  0.772991  1
  I  I9  1  0.236125  0.410970  0.041915  1
  I  I10  1  0.763875  0.589030  0.958085  1
  I  I11  1  0.708249  0.238449  0.151485  1
  I  I12  1  0.291751  0.761551  0.848515  1
  I  I13  1  0.045852  0.682441  0.410942  1
  I  I14  1  0.954148  0.317559  0.589058  1
  I  I15  1  0.413376  0.131833  0.677874  1
  I  I16  1  0.586624  0.868167  0.322126  1
