# generated using pymatgen
data_Dy11Cd4In5Ni4
_symmetry_space_group_name_H-M   'P 1'
_cell_length_a   12.98369780
_cell_length_b   12.98121212
_cell_length_c   3.63308800
_cell_angle_alpha   90.00000000
_cell_angle_beta   90.00000000
_cell_angle_gamma   111.71443699
_symmetry_Int_Tables_number   1
_chemical_formula_structural   Dy11Cd4In5Ni4
_chemical_formula_sum   'Dy11 Cd4 In5 Ni4'
_cell_volume   568.88395321
_cell_formula_units_Z   1
loop_
 _symmetry_equiv_pos_site_id
 _symmetry_equiv_pos_as_xyz
  1  'x, y, z'
loop_
 _atom_site_type_symbol
 _atom_site_label
 _atom_site_symmetry_multiplicity
 _atom_site_fract_x
 _atom_site_fract_y
 _atom_site_fract_z
 _atom_site_occupancy
  Dy  Dy0  1  0.082613  0.420340  0.000000  1
  Dy  Dy1  1  0.917387  0.579660  0.000000  1
  Dy  Dy2  1  0.420367  0.082707  0.000000  1
  Dy  Dy3  1  0.579633  0.917293  0.000000  1
  Dy  Dy4  1  0.626824  0.373042  0.000000  1
  Dy  Dy5  1  0.373176  0.626958  0.000000  1
  Dy  Dy6  1  0.840484  0.159460  0.000000  1
  Dy  Dy7  1  0.159516  0.840540  0.000000  1
  Dy  Dy8  1  0.000000  0.000000  0.000000  1
  Dy  Dy9  1  0.310743  0.310695  0.000000  1
  Dy  Dy10  1  0.689257  0.689305  0.000000  1
  Cd  Cd11  1  0.840984  0.366821  0.500000  1
  Cd  Cd12  1  0.159016  0.633179  0.500000  1
  Cd  Cd13  1  0.366821  0.841008  0.500000  1
  Cd  Cd14  1  0.633179  0.158992  0.500000  1
  In  In15  1  0.075831  0.219264  0.500000  1
  In  In16  1  0.924169  0.780736  0.500000  1
  In  In17  1  0.219269  0.075803  0.500000  1
  In  In18  1  0.780731  0.924197  0.500000  1
  In  In19  1  0.500000  0.500000  0.500000  1
  Ni  Ni20  1  0.249974  0.449751  0.500000  1
  Ni  Ni21  1  0.750026  0.550249  0.500000  1
  Ni  Ni22  1  0.449769  0.250056  0.500000  1
  Ni  Ni23  1  0.550231  0.749944  0.500000  1
