# generated using pymatgen
data_Th5Ni(P2Ru3)6
_symmetry_space_group_name_H-M   'P 1'
_cell_length_a   12.64801716
_cell_length_b   12.64972872
_cell_length_c   4.00363600
_cell_angle_alpha   90.00000000
_cell_angle_beta   90.00000000
_cell_angle_gamma   119.61139643
_symmetry_Int_Tables_number   1
_chemical_formula_structural   Th5Ni(P2Ru3)6
_chemical_formula_sum   'Th5 Ni1 P12 Ru18'
_cell_volume   556.89871196
_cell_formula_units_Z   1
loop_
 _symmetry_equiv_pos_site_id
 _symmetry_equiv_pos_as_xyz
  1  'x, y, z'
loop_
 _atom_site_type_symbol
 _atom_site_label
 _atom_site_symmetry_multiplicity
 _atom_site_fract_x
 _atom_site_fract_y
 _atom_site_fract_z
 _atom_site_occupancy
  Th  Th0  1  0.664652  0.332305  0.000000  1
  Th  Th1  1  0.335396  0.667670  0.000000  1
  Th  Th2  1  0.813155  0.999690  0.500000  1
  Th  Th3  1  0.187955  0.188942  0.500000  1
  Th  Th4  1  0.000884  0.812705  0.500000  1
  Ni  Ni5  1  0.871535  0.505240  0.500000  1
  P  P6  1  0.625692  0.999307  0.000000  1
  P  P7  1  0.374382  0.375741  0.000000  1
  P  P8  1  0.005253  0.631109  0.000000  1
  P  P9  1  0.693260  0.522191  0.500000  1
  P  P10  1  0.828667  0.306427  0.500000  1
  P  P11  1  0.304568  0.827930  0.500000  1
  P  P12  1  0.525892  0.694546  0.500000  1
  P  P13  1  0.186163  0.000441  0.000000  1
  P  P14  1  0.816005  0.812797  0.000000  1
  P  P15  1  0.000142  0.187394  0.000000  1
  P  P16  1  0.474892  0.169038  0.500000  1
  P  P17  1  0.171536  0.477435  0.500000  1
  Ru  Ru18  1  0.624678  0.805408  0.000000  1
  Ru  Ru19  1  0.181686  0.380002  0.000000  1
  Ru  Ru20  1  0.376108  0.183765  0.000000  1
  Ru  Ru21  1  0.196805  0.817455  0.000000  1
  Ru  Ru22  1  0.808038  0.616658  0.000000  1
  Ru  Ru23  1  0.493119  0.365642  0.500000  1
  Ru  Ru24  1  0.633830  0.126768  0.500000  1
  Ru  Ru25  1  0.119849  0.630724  0.500000  1
  Ru  Ru26  1  0.367697  0.493153  0.500000  1
  Ru  Ru27  1  0.508053  0.874640  0.500000  1
  Ru  Ru28  1  0.000007  0.000800  0.000000  1
  Ru  Ru29  1  0.718236  0.713650  0.500000  1
  Ru  Ru30  1  0.999793  0.287221  0.500000  1
  Ru  Ru31  1  0.446549  0.001527  0.000000  1
  Ru  Ru32  1  0.555886  0.553511  0.000000  1
  Ru  Ru33  1  0.989370  0.443744  0.000000  1
  Ru  Ru34  1  0.816059  0.194689  0.000000  1
  Ru  Ru35  1  0.284212  0.999739  0.500000  1
