# generated using pymatgen
data_GdThReB6
_symmetry_space_group_name_H-M   'P 1'
_cell_length_a   3.79336900
_cell_length_b   9.30730500
_cell_length_c   11.71220800
_cell_angle_alpha   90.00000000
_cell_angle_beta   90.00000000
_cell_angle_gamma   90.00000000
_symmetry_Int_Tables_number   1
_chemical_formula_structural   GdThReB6
_chemical_formula_sum   'Gd4 Th4 Re4 B24'
_cell_volume   413.51171061
_cell_formula_units_Z   4
loop_
 _symmetry_equiv_pos_site_id
 _symmetry_equiv_pos_as_xyz
  1  'x, y, z'
loop_
 _atom_site_type_symbol
 _atom_site_label
 _atom_site_symmetry_multiplicity
 _atom_site_fract_x
 _atom_site_fract_y
 _atom_site_fract_z
 _atom_site_occupancy
  Gd  Gd0  1  0.000000  0.944607  0.373154  1
  Gd  Gd1  1  0.000000  0.055393  0.626846  1
  Gd  Gd2  1  0.000000  0.444607  0.126846  1
  Gd  Gd3  1  0.000000  0.555393  0.873154  1
  Th  Th4  1  0.000000  0.322990  0.413758  1
  Th  Th5  1  0.000000  0.677010  0.586242  1
  Th  Th6  1  0.000000  0.822990  0.086242  1
  Th  Th7  1  0.000000  0.177010  0.913758  1
  Re  Re8  1  0.000000  0.638563  0.320711  1
  Re  Re9  1  0.000000  0.361437  0.679289  1
  Re  Re10  1  0.000000  0.138563  0.179289  1
  Re  Re11  1  0.000000  0.861437  0.820711  1
  B  B12  1  0.500000  0.555845  0.430026  1
  B  B13  1  0.500000  0.444155  0.569974  1
  B  B14  1  0.500000  0.055845  0.069974  1
  B  B15  1  0.500000  0.944155  0.930026  1
  B  B16  1  0.500000  0.748329  0.417503  1
  B  B17  1  0.500000  0.251671  0.582497  1
  B  B18  1  0.500000  0.248329  0.082497  1
  B  B19  1  0.500000  0.751671  0.917503  1
  B  B20  1  0.500000  0.790374  0.267507  1
  B  B21  1  0.500000  0.209626  0.732493  1
  B  B22  1  0.500000  0.290374  0.232493  1
  B  B23  1  0.500000  0.709626  0.767507  1
  B  B24  1  0.500000  0.631574  0.186914  1
  B  B25  1  0.500000  0.368426  0.813086  1
  B  B26  1  0.500000  0.131574  0.313086  1
  B  B27  1  0.500000  0.868426  0.686914  1
  B  B28  1  0.500000  0.986161  0.213717  1
  B  B29  1  0.500000  0.013839  0.786283  1
  B  B30  1  0.500000  0.486161  0.286283  1
  B  B31  1  0.500000  0.513839  0.713717  1
  B  B32  1  0.500000  0.606821  0.029542  1
  B  B33  1  0.500000  0.393179  0.970458  1
  B  B34  1  0.500000  0.106821  0.470458  1
  B  B35  1  0.500000  0.893179  0.529542  1
