# generated using pymatgen
data_Tb16Er3TmPb16
_symmetry_space_group_name_H-M   'P 1'
_cell_length_a   8.22919900
_cell_length_b   8.31339535
_cell_length_c   15.70552500
_cell_angle_alpha   90.00000000
_cell_angle_beta   90.00000000
_cell_angle_gamma   90.01668549
_symmetry_Int_Tables_number   1
_chemical_formula_structural   Tb16Er3TmPb16
_chemical_formula_sum   'Tb16 Er3 Tm1 Pb16'
_cell_volume   1074.45551410
_cell_formula_units_Z   1
loop_
 _symmetry_equiv_pos_site_id
 _symmetry_equiv_pos_as_xyz
  1  'x, y, z'
loop_
 _atom_site_type_symbol
 _atom_site_label
 _atom_site_symmetry_multiplicity
 _atom_site_fract_x
 _atom_site_fract_y
 _atom_site_fract_z
 _atom_site_occupancy
  Tb  Tb0  1  0.377287  0.841283  0.879285  1
  Tb  Tb1  1  0.877312  0.658710  0.620764  1
  Tb  Tb2  1  0.622781  0.158679  0.379285  1
  Tb  Tb3  1  0.122760  0.341242  0.120819  1
  Tb  Tb4  1  0.622781  0.158679  0.120715  1
  Tb  Tb5  1  0.122760  0.341242  0.379181  1
  Tb  Tb6  1  0.377287  0.841283  0.620715  1
  Tb  Tb7  1  0.877312  0.658710  0.879236  1
  Tb  Tb8  1  0.535058  0.323840  0.899920  1
  Tb  Tb9  1  0.035004  0.176083  0.600105  1
  Tb  Tb10  1  0.465054  0.676098  0.399898  1
  Tb  Tb11  1  0.964985  0.823904  0.100111  1
  Tb  Tb12  1  0.465054  0.676098  0.100102  1
  Tb  Tb13  1  0.964985  0.823904  0.399889  1
  Tb  Tb14  1  0.535058  0.323840  0.600080  1
  Tb  Tb15  1  0.035004  0.176083  0.899895  1
  Er  Er16  1  0.709162  0.996011  0.750000  1
  Er  Er17  1  0.790704  0.496125  0.250000  1
  Er  Er18  1  0.290639  0.003922  0.250000  1
  Tm  Tm19  1  0.209328  0.503850  0.750000  1
  Pb  Pb20  1  0.281091  0.032960  0.043377  1
  Pb  Pb21  1  0.781215  0.467085  0.456654  1
  Pb  Pb22  1  0.718959  0.967127  0.543457  1
  Pb  Pb23  1  0.218792  0.532880  0.956541  1
  Pb  Pb24  1  0.718959  0.967127  0.956543  1
  Pb  Pb25  1  0.218792  0.532880  0.543459  1
  Pb  Pb26  1  0.281091  0.032960  0.456623  1
  Pb  Pb27  1  0.781215  0.467085  0.043346  1
  Pb  Pb28  1  0.572321  0.625834  0.750000  1
  Pb  Pb29  1  0.072586  0.874240  0.750000  1
  Pb  Pb30  1  0.427575  0.374476  0.250000  1
  Pb  Pb31  1  0.927317  0.125548  0.250000  1
  Pb  Pb32  1  0.347199  0.154035  0.750000  1
  Pb  Pb33  1  0.847227  0.346215  0.750000  1
  Pb  Pb34  1  0.652587  0.846297  0.250000  1
  Pb  Pb35  1  0.152762  0.653662  0.250000  1
