# generated using pymatgen
data_Pr8Co(Si4Rh)3
_symmetry_space_group_name_H-M   'P 1'
_cell_length_a   8.26285700
_cell_length_b   8.26285669
_cell_length_c   8.52581100
_cell_angle_alpha   90.00000000
_cell_angle_beta   90.00000000
_cell_angle_gamma   119.99999724
_symmetry_Int_Tables_number   1
_chemical_formula_structural   Pr8Co(Si4Rh)3
_chemical_formula_sum   'Pr8 Co1 Si12 Rh3'
_cell_volume   504.11172880
_cell_formula_units_Z   1
loop_
 _symmetry_equiv_pos_site_id
 _symmetry_equiv_pos_as_xyz
  1  'x, y, z'
loop_
 _atom_site_type_symbol
 _atom_site_label
 _atom_site_symmetry_multiplicity
 _atom_site_fract_x
 _atom_site_fract_y
 _atom_site_fract_z
 _atom_site_occupancy
  Pr  Pr0  1  0.000000  0.000000  0.750766  1
  Pr  Pr1  1  0.000000  0.000000  0.249224  1
  Pr  Pr2  1  0.500120  0.499880  0.750850  1
  Pr  Pr3  1  0.500120  0.000241  0.750850  1
  Pr  Pr4  1  0.999759  0.499880  0.750850  1
  Pr  Pr5  1  0.501364  0.498636  0.249275  1
  Pr  Pr6  1  0.997273  0.498636  0.249275  1
  Pr  Pr7  1  0.501364  0.002727  0.249275  1
  Co  Co8  1  0.666667  0.333333  0.997720  1
  Si  Si9  1  0.828472  0.171528  0.999641  1
  Si  Si10  1  0.828472  0.656943  0.999641  1
  Si  Si11  1  0.343057  0.171528  0.999641  1
  Si  Si12  1  0.833666  0.166334  0.500296  1
  Si  Si13  1  0.833666  0.667333  0.500296  1
  Si  Si14  1  0.332667  0.166334  0.500296  1
  Si  Si15  1  0.166839  0.833161  0.499685  1
  Si  Si16  1  0.666322  0.833161  0.499685  1
  Si  Si17  1  0.166839  0.333678  0.499685  1
  Si  Si18  1  0.166236  0.833764  0.000242  1
  Si  Si19  1  0.667530  0.833764  0.000242  1
  Si  Si20  1  0.166236  0.332470  0.000242  1
  Rh  Rh21  1  0.666667  0.333333  0.502315  1
  Rh  Rh22  1  0.333333  0.666667  0.497821  1
  Rh  Rh23  1  0.333333  0.666667  0.002182  1
