# generated using pymatgen
data_Li2P2OsPd
_symmetry_space_group_name_H-M   'P 1'
_cell_length_a   3.91111700
_cell_length_b   6.54884822
_cell_length_c   6.85620394
_cell_angle_alpha   89.47780703
_cell_angle_beta   90.00000000
_cell_angle_gamma   90.00000000
_symmetry_Int_Tables_number   1
_chemical_formula_structural   Li2P2OsPd
_chemical_formula_sum   'Li4 P4 Os2 Pd2'
_cell_volume   175.60279443
_cell_formula_units_Z   2
loop_
 _symmetry_equiv_pos_site_id
 _symmetry_equiv_pos_as_xyz
  1  'x, y, z'
loop_
 _atom_site_type_symbol
 _atom_site_label
 _atom_site_symmetry_multiplicity
 _atom_site_fract_x
 _atom_site_fract_y
 _atom_site_fract_z
 _atom_site_occupancy
  Li  Li0  1  0.250000  0.516863  0.160232  1
  Li  Li1  1  0.750000  0.483137  0.839768  1
  Li  Li2  1  0.750000  0.979189  0.671570  1
  Li  Li3  1  0.250000  0.020811  0.328430  1
  P  P4  1  0.250000  0.778933  0.858485  1
  P  P5  1  0.750000  0.221067  0.141515  1
  P  P6  1  0.750000  0.714393  0.387232  1
  P  P7  1  0.250000  0.285607  0.612768  1
  Os  Os8  1  0.250000  0.641353  0.558041  1
  Os  Os9  1  0.750000  0.358647  0.441959  1
  Pd  Pd10  1  0.750000  0.851678  0.059595  1
  Pd  Pd11  1  0.250000  0.148322  0.940405  1
