# generated using pymatgen
data_CePr3Ni3Bi8
_symmetry_space_group_name_H-M   'P 1'
_cell_length_a   4.59523300
_cell_length_b   4.55764600
_cell_length_c   19.26224800
_cell_angle_alpha   90.00000000
_cell_angle_beta   90.00000000
_cell_angle_gamma   90.00000000
_symmetry_Int_Tables_number   1
_chemical_formula_structural   CePr3Ni3Bi8
_chemical_formula_sum   'Ce1 Pr3 Ni3 Bi8'
_cell_volume   403.41783737
_cell_formula_units_Z   1
loop_
 _symmetry_equiv_pos_site_id
 _symmetry_equiv_pos_as_xyz
  1  'x, y, z'
loop_
 _atom_site_type_symbol
 _atom_site_label
 _atom_site_symmetry_multiplicity
 _atom_site_fract_x
 _atom_site_fract_y
 _atom_site_fract_z
 _atom_site_occupancy
  Ce  Ce0  1  0.000000  0.500000  0.387749  1
  Pr  Pr1  1  0.500000  0.000000  0.114722  1
  Pr  Pr2  1  0.500000  0.000000  0.613780  1
  Pr  Pr3  1  0.000000  0.500000  0.887054  1
  Ni  Ni4  1  0.500000  0.500000  0.497596  1
  Ni  Ni5  1  0.000000  0.000000  0.999800  1
  Ni  Ni6  1  0.000000  0.000000  0.494657  1
  Bi  Bi7  1  0.500000  0.500000  0.751604  1
  Bi  Bi8  1  0.500000  0.500000  0.252586  1
  Bi  Bi9  1  0.000000  0.000000  0.751732  1
  Bi  Bi10  1  0.000000  0.000000  0.251774  1
  Bi  Bi11  1  0.500000  0.000000  0.934225  1
  Bi  Bi12  1  0.500000  0.000000  0.423892  1
  Bi  Bi13  1  0.000000  0.500000  0.068200  1
  Bi  Bi14  1  0.000000  0.500000  0.570631  1
