# generated using pymatgen
data_Dy4Hf3AlRh4
_symmetry_space_group_name_H-M   'P 1'
_cell_length_a   4.48702800
_cell_length_b   7.07123382
_cell_length_c   8.17044766
_cell_angle_alpha   86.36008728
_cell_angle_beta   90.00000000
_cell_angle_gamma   90.00000000
_symmetry_Int_Tables_number   1
_chemical_formula_structural   Dy4Hf3AlRh4
_chemical_formula_sum   'Dy4 Hf3 Al1 Rh4'
_cell_volume   258.71574676
_cell_formula_units_Z   1
loop_
 _symmetry_equiv_pos_site_id
 _symmetry_equiv_pos_as_xyz
  1  'x, y, z'
loop_
 _atom_site_type_symbol
 _atom_site_label
 _atom_site_symmetry_multiplicity
 _atom_site_fract_x
 _atom_site_fract_y
 _atom_site_fract_z
 _atom_site_occupancy
  Dy  Dy0  1  0.250000  0.467909  0.186974  1
  Dy  Dy1  1  0.750000  0.518329  0.814786  1
  Dy  Dy2  1  0.750000  0.038594  0.667180  1
  Dy  Dy3  1  0.250000  0.989170  0.335989  1
  Hf  Hf4  1  0.250000  0.863403  0.926212  1
  Hf  Hf5  1  0.750000  0.130981  0.072498  1
  Hf  Hf6  1  0.750000  0.639834  0.435970  1
  Al  Al7  1  0.250000  0.358286  0.569512  1
  Rh  Rh8  1  0.250000  0.726575  0.611792  1
  Rh  Rh9  1  0.750000  0.275322  0.382867  1
  Rh  Rh10  1  0.750000  0.759286  0.097163  1
  Rh  Rh11  1  0.250000  0.232312  0.899057  1
