# generated using pymatgen
data_Y4Ho8Co5Bi
_symmetry_space_group_name_H-M   'P 1'
_cell_length_a   8.29016234
_cell_length_b   8.29034561
_cell_length_c   8.29016287
_cell_angle_alpha   110.60100006
_cell_angle_beta   110.90680990
_cell_angle_gamma   106.93452926
_symmetry_Int_Tables_number   1
_chemical_formula_structural   Y4Ho8Co5Bi
_chemical_formula_sum   'Y4 Ho8 Co5 Bi1'
_cell_volume   437.96863089
_cell_formula_units_Z   1
loop_
 _symmetry_equiv_pos_site_id
 _symmetry_equiv_pos_as_xyz
  1  'x, y, z'
loop_
 _atom_site_type_symbol
 _atom_site_label
 _atom_site_symmetry_multiplicity
 _atom_site_fract_x
 _atom_site_fract_y
 _atom_site_fract_z
 _atom_site_occupancy
  Y  Y0  1  0.814952  0.711570  0.526520  1
  Y  Y1  1  0.185048  0.288430  0.473480  1
  Y  Y2  1  0.185051  0.711570  0.896618  1
  Y  Y3  1  0.814949  0.288430  0.103382  1
  Ho  Ho4  1  0.688584  0.378667  0.690084  1
  Ho  Ho5  1  0.311416  0.621333  0.309916  1
  Ho  Ho6  1  0.688583  0.998501  0.309918  1
  Ho  Ho7  1  0.311417  0.001499  0.690082  1
  Ho  Ho8  1  0.597994  0.792481  0.805514  1
  Ho  Ho9  1  0.402006  0.207519  0.194486  1
  Ho  Ho10  1  0.986967  0.792481  0.194487  1
  Ho  Ho11  1  0.013033  0.207519  0.805513  1
  Co  Co12  1  0.624047  0.000000  0.624047  1
  Co  Co13  1  0.375953  0.000000  0.375953  1
  Co  Co14  1  0.111764  0.611767  0.500002  1
  Co  Co15  1  0.888236  0.388233  0.499998  1
  Co  Co16  1  0.000000  0.000000  0.000000  1
  Bi  Bi17  1  0.500000  0.500000  0.000000  1
