# generated using pymatgen
data_DyY4Th3(ReB6)4
_symmetry_space_group_name_H-M   'P 1'
_cell_length_a   3.75952300
_cell_length_b   9.26543489
_cell_length_c   11.68294105
_cell_angle_alpha   90.08441196
_cell_angle_beta   90.00000000
_cell_angle_gamma   90.00000000
_symmetry_Int_Tables_number   1
_chemical_formula_structural   DyY4Th3(ReB6)4
_chemical_formula_sum   'Dy1 Y4 Th3 Re4 B24'
_cell_volume   406.95863531
_cell_formula_units_Z   1
loop_
 _symmetry_equiv_pos_site_id
 _symmetry_equiv_pos_as_xyz
  1  'x, y, z'
loop_
 _atom_site_type_symbol
 _atom_site_label
 _atom_site_symmetry_multiplicity
 _atom_site_fract_x
 _atom_site_fract_y
 _atom_site_fract_z
 _atom_site_occupancy
  Dy  Dy0  1  0.000000  0.555178  0.871849  1
  Y  Y1  1  0.000000  0.177440  0.913684  1
  Y  Y2  1  0.000000  0.944969  0.372545  1
  Y  Y3  1  0.000000  0.056289  0.628902  1
  Y  Y4  1  0.000000  0.442611  0.126940  1
  Th  Th5  1  0.000000  0.321524  0.414320  1
  Th  Th6  1  0.000000  0.678369  0.586648  1
  Th  Th7  1  0.000000  0.823822  0.085312  1
  Re  Re8  1  0.000000  0.638703  0.320240  1
  Re  Re9  1  0.000000  0.361741  0.679907  1
  Re  Re10  1  0.000000  0.139063  0.178921  1
  Re  Re11  1  0.000000  0.861051  0.820902  1
  B  B12  1  0.500000  0.555803  0.429851  1
  B  B13  1  0.500000  0.443947  0.570440  1
  B  B14  1  0.500000  0.056002  0.067566  1
  B  B15  1  0.500000  0.946273  0.930986  1
  B  B16  1  0.500000  0.749519  0.416984  1
  B  B17  1  0.500000  0.250302  0.584025  1
  B  B18  1  0.500000  0.248615  0.080617  1
  B  B19  1  0.500000  0.751801  0.916798  1
  B  B20  1  0.500000  0.790632  0.266498  1
  B  B21  1  0.500000  0.208025  0.734964  1
  B  B22  1  0.500000  0.290201  0.232056  1
  B  B23  1  0.500000  0.709655  0.767365  1
  B  B24  1  0.500000  0.630584  0.186251  1
  B  B25  1  0.500000  0.367757  0.814922  1
  B  B26  1  0.500000  0.131026  0.312796  1
  B  B27  1  0.500000  0.870121  0.687574  1
  B  B28  1  0.500000  0.985994  0.212433  1
  B  B29  1  0.500000  0.017141  0.787688  1
  B  B30  1  0.500000  0.485018  0.286170  1
  B  B31  1  0.500000  0.513977  0.714238  1
  B  B32  1  0.500000  0.601441  0.028163  1
  B  B33  1  0.500000  0.395105  0.970580  1
  B  B34  1  0.500000  0.103745  0.471817  1
  B  B35  1  0.500000  0.896557  0.529048  1
