# generated using pymatgen
data_Yb4ScNi(OsO6)2
_symmetry_space_group_name_H-M   'P 1'
_cell_length_a   5.34765992
_cell_length_b   5.61200270
_cell_length_c   7.73948370
_cell_angle_alpha   90.57375437
_cell_angle_beta   90.09791396
_cell_angle_gamma   89.96548993
_symmetry_Int_Tables_number   1
_chemical_formula_structural   Yb4ScNi(OsO6)2
_chemical_formula_sum   'Yb4 Sc1 Ni1 Os2 O12'
_cell_volume   232.25825453
_cell_formula_units_Z   1
loop_
 _symmetry_equiv_pos_site_id
 _symmetry_equiv_pos_as_xyz
  1  'x, y, z'
loop_
 _atom_site_type_symbol
 _atom_site_label
 _atom_site_symmetry_multiplicity
 _atom_site_fract_x
 _atom_site_fract_y
 _atom_site_fract_z
 _atom_site_occupancy
  Yb  Yb0  1  0.984281  0.070945  0.262434  1
  Yb  Yb1  1  0.519830  0.561707  0.258371  1
  Yb  Yb2  1  0.015718  0.929054  0.737567  1
  Yb  Yb3  1  0.480169  0.438294  0.741628  1
  Sc  Sc4  1  0.500000  0.000000  0.000000  1
  Ni  Ni5  1  0.000000  0.500000  0.500000  1
  Os  Os6  1  0.499999  0.999999  0.500000  1
  Os  Os7  1  0.999999  0.500001  0.999999  1
  O  O8  1  0.686363  0.290243  0.447508  1
  O  O9  1  0.815470  0.791948  0.056536  1
  O  O10  1  0.313637  0.709756  0.552492  1
  O  O11  1  0.184529  0.208053  0.943463  1
  O  O12  1  0.203071  0.191308  0.549178  1
  O  O13  1  0.296257  0.691176  0.946729  1
  O  O14  1  0.796928  0.808691  0.450822  1
  O  O15  1  0.703742  0.308825  0.053270  1
  O  O16  1  0.102191  0.468654  0.241887  1
  O  O17  1  0.399373  0.965948  0.256334  1
  O  O18  1  0.600627  0.034052  0.743666  1
  O  O19  1  0.897809  0.531346  0.758113  1
