# generated using pymatgen
data_Dy16Cd2Co3Hg2Ru
_symmetry_space_group_name_H-M   'P 1'
_cell_length_a   9.52081202
_cell_length_b   9.51828369
_cell_length_c   9.55325528
_cell_angle_alpha   60.12101327
_cell_angle_beta   60.11590845
_cell_angle_gamma   60.00878023
_symmetry_Int_Tables_number   1
_chemical_formula_structural   Dy16Cd2Co3Hg2Ru
_chemical_formula_sum   'Dy16 Cd2 Co3 Hg2 Ru1'
_cell_volume   613.30038155
_cell_formula_units_Z   1
loop_
 _symmetry_equiv_pos_site_id
 _symmetry_equiv_pos_as_xyz
  1  'x, y, z'
loop_
 _atom_site_type_symbol
 _atom_site_label
 _atom_site_symmetry_multiplicity
 _atom_site_fract_x
 _atom_site_fract_y
 _atom_site_fract_z
 _atom_site_occupancy
  Dy  Dy0  1  0.150074  0.540865  0.157515  1
  Dy  Dy1  1  0.693223  0.310706  0.685365  1
  Dy  Dy2  1  0.689303  0.311092  0.311729  1
  Dy  Dy3  1  0.937578  0.561801  0.563360  1
  Dy  Dy4  1  0.543592  0.149881  0.156644  1
  Dy  Dy5  1  0.152640  0.154058  0.539245  1
  Dy  Dy6  1  0.937578  0.937261  0.563360  1
  Dy  Dy7  1  0.312410  0.687784  0.312022  1
  Dy  Dy8  1  0.561629  0.941183  0.937066  1
  Dy  Dy9  1  0.562719  0.937249  0.562783  1
  Dy  Dy10  1  0.689303  0.687875  0.311729  1
  Dy  Dy11  1  0.561629  0.560121  0.937066  1
  Dy  Dy12  1  0.941354  0.561092  0.936460  1
  Dy  Dy13  1  0.312288  0.691876  0.685354  1
  Dy  Dy14  1  0.150074  0.151544  0.157515  1
  Dy  Dy15  1  0.312288  0.310483  0.685354  1
  Cd  Cd16  1  0.920118  0.919429  0.241025  1
  Cd  Cd17  1  0.240705  0.919727  0.919842  1
  Co  Co18  1  0.358461  0.921808  0.360405  1
  Co  Co19  1  0.921806  0.358888  0.360420  1
  Co  Co20  1  0.358461  0.359328  0.360405  1
  Hg  Hg21  1  0.916991  0.251092  0.916635  1
  Hg  Hg22  1  0.916991  0.915282  0.916635  1
  Ru  Ru23  1  0.358786  0.359575  0.922065  1
