# generated using pymatgen
data_NaTb(CuPt)2
_symmetry_space_group_name_H-M   'P 1'
_cell_length_a   5.25437071
_cell_length_b   5.54659589
_cell_length_c   5.25437140
_cell_angle_alpha   58.14253926
_cell_angle_beta   57.56275309
_cell_angle_gamma   58.14253962
_symmetry_Int_Tables_number   1
_chemical_formula_structural   NaTb(CuPt)2
_chemical_formula_sum   'Na1 Tb1 Cu2 Pt2'
_cell_volume   103.17864228
_cell_formula_units_Z   1
loop_
 _symmetry_equiv_pos_site_id
 _symmetry_equiv_pos_as_xyz
  1  'x, y, z'
loop_
 _atom_site_type_symbol
 _atom_site_label
 _atom_site_symmetry_multiplicity
 _atom_site_fract_x
 _atom_site_fract_y
 _atom_site_fract_z
 _atom_site_occupancy
  Na  Na0  1  0.997065  0.002935  0.997065  1
  Tb  Tb1  1  0.746143  0.753857  0.746143  1
  Cu  Cu2  1  0.377055  0.372809  0.877328  1
  Cu  Cu3  1  0.877328  0.372809  0.377055  1
  Pt  Pt4  1  0.376205  0.372677  0.376205  1
  Pt  Pt5  1  0.376205  0.874914  0.376205  1
