# generated using pymatgen
data_Ta6NbB8(OsRu2)2
_symmetry_space_group_name_H-M   'P 1'
_cell_length_a   9.61578002
_cell_length_b   9.60571620
_cell_length_c   3.11668800
_cell_angle_alpha   90.00000000
_cell_angle_beta   90.00000000
_cell_angle_gamma   119.85013707
_symmetry_Int_Tables_number   1
_chemical_formula_structural   Ta6NbB8(OsRu2)2
_chemical_formula_sum   'Ta6 Nb1 B8 Os2 Ru4'
_cell_volume   249.68479072
_cell_formula_units_Z   1
loop_
 _symmetry_equiv_pos_site_id
 _symmetry_equiv_pos_as_xyz
  1  'x, y, z'
loop_
 _atom_site_type_symbol
 _atom_site_label
 _atom_site_symmetry_multiplicity
 _atom_site_fract_x
 _atom_site_fract_y
 _atom_site_fract_z
 _atom_site_occupancy
  Ta  Ta0  1  0.724951  0.638773  0.000000  1
  Ta  Ta1  1  0.361691  0.087488  0.000000  1
  Ta  Ta2  1  0.912908  0.274737  0.000000  1
  Ta  Ta3  1  0.275377  0.360263  0.000000  1
  Ta  Ta4  1  0.638570  0.912990  0.000000  1
  Ta  Ta5  1  0.084960  0.724653  0.000000  1
  Nb  Nb6  1  0.000121  0.000429  0.000000  1
  B  B7  1  0.666584  0.333608  0.000000  1
  B  B8  1  0.333349  0.666687  0.000000  1
  B  B9  1  0.154689  0.935340  0.500000  1
  B  B10  1  0.065985  0.219526  0.500000  1
  B  B11  1  0.782991  0.847020  0.500000  1
  B  B12  1  0.845154  0.064755  0.500000  1
  B  B13  1  0.933776  0.781650  0.500000  1
  B  B14  1  0.217947  0.153204  0.500000  1
  Os  Os15  1  0.359907  0.846790  0.500000  1
  Os  Os16  1  0.152763  0.512266  0.500000  1
  Ru  Ru17  1  0.486647  0.639757  0.500000  1
  Ru  Ru18  1  0.638719  0.152510  0.500000  1
  Ru  Ru19  1  0.847498  0.485248  0.500000  1
  Ru  Ru20  1  0.515411  0.362308  0.500000  1
