# generated using pymatgen
data_Yb3ZnCuRu4
_symmetry_space_group_name_H-M   'P 1'
_cell_length_a   5.33261634
_cell_length_b   5.35942140
_cell_length_c   12.85315975
_cell_angle_alpha   89.71102516
_cell_angle_beta   91.40563832
_cell_angle_gamma   121.94539872
_symmetry_Int_Tables_number   1
_chemical_formula_structural   Yb3ZnCuRu4
_chemical_formula_sum   'Yb6 Zn2 Cu2 Ru8'
_cell_volume   311.59986639
_cell_formula_units_Z   2
loop_
 _symmetry_equiv_pos_site_id
 _symmetry_equiv_pos_as_xyz
  1  'x, y, z'
loop_
 _atom_site_type_symbol
 _atom_site_label
 _atom_site_symmetry_multiplicity
 _atom_site_fract_x
 _atom_site_fract_y
 _atom_site_fract_z
 _atom_site_occupancy
  Yb  Yb0  1  0.327419  0.674920  0.910513  1
  Yb  Yb1  1  0.990308  0.992632  0.259271  1
  Yb  Yb2  1  0.664900  0.334704  0.585460  1
  Yb  Yb3  1  0.335100  0.665296  0.664540  1
  Yb  Yb4  1  0.009692  0.007368  0.990729  1
  Yb  Yb5  1  0.672581  0.325080  0.339487  1
  Zn  Zn6  1  0.500000  0.500000  0.125000  1
  Zn  Zn7  1  0.500000  0.000000  0.125000  1
  Cu  Cu8  1  0.169658  0.833474  0.459215  1
  Cu  Cu9  1  0.830342  0.166526  0.790785  1
  Ru  Ru10  1  0.175371  0.338606  0.460301  1
  Ru  Ru11  1  0.824629  0.661394  0.789699  1
  Ru  Ru12  1  0.317748  0.646622  0.287227  1
  Ru  Ru13  1  0.000000  0.000000  0.625000  1
  Ru  Ru14  1  0.682252  0.353378  0.962773  1
  Ru  Ru15  1  0.000000  0.500000  0.125000  1
  Ru  Ru16  1  0.663501  0.825028  0.460615  1
  Ru  Ru17  1  0.336499  0.174972  0.789385  1
