# generated using pymatgen
data_TbYbY2(W2O7)2
_symmetry_space_group_name_H-M   'P 1'
_cell_length_a   7.33680284
_cell_length_b   7.34085077
_cell_length_c   7.45447400
_cell_angle_alpha   60.55147287
_cell_angle_beta   60.53421937
_cell_angle_gamma   60.01532142
_symmetry_Int_Tables_number   1
_chemical_formula_structural   TbYbY2(W2O7)2
_chemical_formula_sum   'Tb1 Yb1 Y2 W4 O14'
_cell_volume   286.23413684
_cell_formula_units_Z   1
loop_
 _symmetry_equiv_pos_site_id
 _symmetry_equiv_pos_as_xyz
  1  'x, y, z'
loop_
 _atom_site_type_symbol
 _atom_site_label
 _atom_site_symmetry_multiplicity
 _atom_site_fract_x
 _atom_site_fract_y
 _atom_site_fract_z
 _atom_site_occupancy
  Tb  Tb0  1  0.500000  0.000000  0.500000  1
  Yb  Yb1  1  0.500000  0.500000  0.000000  1
  Y  Y2  1  0.000000  0.500000  0.500000  1
  Y  Y3  1  0.500000  0.500000  0.500000  1
  W  W4  1  0.500000  0.000000  0.000000  1
  W  W5  1  0.000000  0.500000  0.000000  1
  W  W6  1  0.000000  0.000000  0.000000  1
  W  W7  1  0.000000  0.000000  0.500000  1
  O  O8  1  0.372362  0.373870  0.381477  1
  O  O9  1  0.627638  0.626130  0.618523  1
  O  O10  1  0.083574  0.672471  0.660378  1
  O  O11  1  0.338188  0.924862  0.898839  1
  O  O12  1  0.672028  0.083686  0.660414  1
  O  O13  1  0.084261  0.084100  0.660123  1
  O  O14  1  0.661914  0.662446  0.102280  1
  O  O15  1  0.074954  0.662168  0.101157  1
  O  O16  1  0.661812  0.075138  0.101161  1
  O  O17  1  0.338086  0.337554  0.897720  1
  O  O18  1  0.915739  0.915900  0.339877  1
  O  O19  1  0.916426  0.327529  0.339622  1
  O  O20  1  0.925046  0.337832  0.898843  1
  O  O21  1  0.327972  0.916314  0.339586  1
