# generated using pymatgen
data_Y2Th(AlNi)3
_symmetry_space_group_name_H-M   'P 1'
_cell_length_a   7.19516500
_cell_length_b   7.07012837
_cell_length_c   3.85580300
_cell_angle_alpha   90.00000000
_cell_angle_beta   90.00000000
_cell_angle_gamma   120.58676191
_symmetry_Int_Tables_number   1
_chemical_formula_structural   Y2Th(AlNi)3
_chemical_formula_sum   'Y2 Th1 Al3 Ni3'
_cell_volume   168.85550703
_cell_formula_units_Z   1
loop_
 _symmetry_equiv_pos_site_id
 _symmetry_equiv_pos_as_xyz
  1  'x, y, z'
loop_
 _atom_site_type_symbol
 _atom_site_label
 _atom_site_symmetry_multiplicity
 _atom_site_fract_x
 _atom_site_fract_y
 _atom_site_fract_z
 _atom_site_occupancy
  Y  Y0  1  0.998996  0.416633  0.500000  1
  Y  Y1  1  0.582363  0.583367  0.500000  1
  Th  Th2  1  0.423093  0.000000  0.500000  1
  Al  Al3  1  0.991295  0.757166  0.000000  1
  Al  Al4  1  0.234130  0.242834  0.000000  1
  Al  Al5  1  0.775884  0.000000  0.000000  1
  Ni  Ni6  1  0.333298  0.679132  0.000000  1
  Ni  Ni7  1  0.654167  0.320868  0.000000  1
  Ni  Ni8  1  0.006774  0.000000  0.500000  1
