# generated using pymatgen
data_Na4PuUSe6
_symmetry_space_group_name_H-M   'P 1'
_cell_length_a   7.29489786
_cell_length_b   7.29489785
_cell_length_c   7.35131074
_cell_angle_alpha   80.33062293
_cell_angle_beta   80.33063546
_cell_angle_gamma   119.69548113
_symmetry_Int_Tables_number   1
_chemical_formula_structural   Na4PuUSe6
_chemical_formula_sum   'Na4 Pu1 U1 Se6'
_cell_volume   320.26548993
_cell_formula_units_Z   1
loop_
 _symmetry_equiv_pos_site_id
 _symmetry_equiv_pos_as_xyz
  1  'x, y, z'
loop_
 _atom_site_type_symbol
 _atom_site_label
 _atom_site_symmetry_multiplicity
 _atom_site_fract_x
 _atom_site_fract_y
 _atom_site_fract_z
 _atom_site_occupancy
  Na  Na0  1  0.000019  0.999981  0.000000  1
  Na  Na1  1  0.500748  0.499252  0.500000  1
  Na  Na2  1  0.838508  0.161492  0.500000  1
  Na  Na3  1  0.160421  0.839579  0.500000  1
  Pu  Pu4  1  0.667997  0.332003  0.000000  1
  U  U5  1  0.332611  0.667389  0.000000  1
  Se  Se6  1  0.273360  0.283222  0.229016  1
  Se  Se7  1  0.426275  0.067461  0.771252  1
  Se  Se8  1  0.087831  0.437086  0.772967  1
  Se  Se9  1  0.716778  0.726640  0.770984  1
  Se  Se10  1  0.562914  0.912169  0.227033  1
  Se  Se11  1  0.932539  0.573725  0.228748  1
