# generated using pymatgen
data_SrYb2Pr(Al3Pd)6
_symmetry_space_group_name_H-M   'P 1'
_cell_length_a   7.71731539
_cell_length_b   7.69835625
_cell_length_c   9.60715000
_cell_angle_alpha   90.00000000
_cell_angle_beta   90.00000000
_cell_angle_gamma   119.49407221
_symmetry_Int_Tables_number   1
_chemical_formula_structural   SrYb2Pr(Al3Pd)6
_chemical_formula_sum   'Sr1 Yb2 Pr1 Al18 Pd6'
_cell_volume   496.79935107
_cell_formula_units_Z   1
loop_
 _symmetry_equiv_pos_site_id
 _symmetry_equiv_pos_as_xyz
  1  'x, y, z'
loop_
 _atom_site_type_symbol
 _atom_site_label
 _atom_site_symmetry_multiplicity
 _atom_site_fract_x
 _atom_site_fract_y
 _atom_site_fract_z
 _atom_site_occupancy
  Sr  Sr0  1  0.671374  0.996627  0.250000  1
  Yb  Yb1  1  0.994592  0.669518  0.250000  1
  Yb  Yb2  1  0.004082  0.330382  0.750000  1
  Pr  Pr3  1  0.330213  0.002669  0.750000  1
  Al  Al4  1  0.135536  0.133877  0.250000  1
  Al  Al5  1  0.869949  0.868247  0.750000  1
  Al  Al6  1  0.004674  0.338076  0.072107  1
  Al  Al7  1  0.996663  0.662374  0.924519  1
  Al  Al8  1  0.996663  0.662374  0.575481  1
  Al  Al9  1  0.331478  0.000726  0.424936  1
  Al  Al10  1  0.004674  0.338076  0.427893  1
  Al  Al11  1  0.668304  0.999593  0.578492  1
  Al  Al12  1  0.668304  0.999593  0.921508  1
  Al  Al13  1  0.331478  0.000726  0.075064  1
  Al  Al14  1  0.332746  0.334205  0.555983  1
  Al  Al15  1  0.666139  0.663726  0.449179  1
  Al  Al16  1  0.666139  0.663726  0.050821  1
  Al  Al17  1  0.332746  0.334205  0.944017  1
  Al  Al18  1  0.335994  0.542694  0.250000  1
  Al  Al19  1  0.659046  0.454959  0.750000  1
  Al  Al20  1  0.544657  0.344428  0.250000  1
  Al  Al21  1  0.455053  0.660148  0.750000  1
  Pd  Pd22  1  0.671565  0.328835  0.999522  1
  Pd  Pd23  1  0.327772  0.670603  0.998861  1
  Pd  Pd24  1  0.327772  0.670603  0.501139  1
  Pd  Pd25  1  0.671565  0.328835  0.500478  1
  Pd  Pd26  1  0.000411  0.000086  0.999359  1
  Pd  Pd27  1  0.000411  0.000086  0.500641  1
