# generated using pymatgen
data_Ti6TcMo5P6
_symmetry_space_group_name_H-M   'P 1'
_cell_length_a   7.48922483
_cell_length_b   7.48522242
_cell_length_c   7.48640132
_cell_angle_alpha   126.67880945
_cell_angle_beta   127.67672059
_cell_angle_gamma   77.95579024
_symmetry_Int_Tables_number   1
_chemical_formula_structural   Ti6TcMo5P6
_chemical_formula_sum   'Ti6 Tc1 Mo5 P6'
_cell_volume   258.17747285
_cell_formula_units_Z   1
loop_
 _symmetry_equiv_pos_site_id
 _symmetry_equiv_pos_as_xyz
  1  'x, y, z'
loop_
 _atom_site_type_symbol
 _atom_site_label
 _atom_site_symmetry_multiplicity
 _atom_site_fract_x
 _atom_site_fract_y
 _atom_site_fract_z
 _atom_site_occupancy
  Ti  Ti0  1  0.451564  0.244773  0.292706  1
  Ti  Ti1  1  0.548387  0.844581  0.795232  1
  Ti  Ti2  1  0.749002  0.650044  0.402965  1
  Ti  Ti3  1  0.248404  0.651308  0.900967  1
  Ti  Ti4  1  0.049540  0.845178  0.296971  1
  Ti  Ti5  1  0.952005  0.244456  0.793000  1
  Tc  Tc6  1  0.629131  0.504304  0.875456  1
  Mo  Mo7  1  0.371600  0.247272  0.875546  1
  Mo  Mo8  1  0.870647  0.245939  0.375224  1
  Mo  Mo9  1  0.129418  0.505903  0.375756  1
  Mo  Mo10  1  0.999755  0.987502  0.988289  1
  Mo  Mo11  1  0.500541  0.989595  0.488793  1
  P  P12  1  0.831880  0.578692  0.747591  1
  P  P13  1  0.166469  0.913204  0.746235  1
  P  P14  1  0.666347  0.909763  0.243638  1
  P  P15  1  0.332953  0.579967  0.246396  1
  P  P16  1  0.251474  0.249180  0.498515  1
  P  P17  1  0.750886  0.248736  0.997120  1
