# generated using pymatgen
data_BaErSi2Ge2N7
_symmetry_space_group_name_H-M   'P 1'
_cell_length_a   6.22513496
_cell_length_b   6.20140219
_cell_length_c   10.05683825
_cell_angle_alpha   89.44918897
_cell_angle_beta   90.27434909
_cell_angle_gamma   119.87396717
_symmetry_Int_Tables_number   1
_chemical_formula_structural   BaErSi2Ge2N7
_chemical_formula_sum   'Ba2 Er2 Si4 Ge4 N14'
_cell_volume   336.63622458
_cell_formula_units_Z   2
loop_
 _symmetry_equiv_pos_site_id
 _symmetry_equiv_pos_as_xyz
  1  'x, y, z'
loop_
 _atom_site_type_symbol
 _atom_site_label
 _atom_site_symmetry_multiplicity
 _atom_site_fract_x
 _atom_site_fract_y
 _atom_site_fract_z
 _atom_site_occupancy
  Ba  Ba0  1  0.333199  0.665710  0.362675  1
  Ba  Ba1  1  0.666801  0.332511  0.862675  1
  Er  Er2  1  0.331561  0.665513  0.737661  1
  Er  Er3  1  0.668439  0.333951  0.237661  1
  Si  Si4  1  0.827483  0.172150  0.546728  1
  Si  Si5  1  0.172517  0.344667  0.046728  1
  Si  Si6  1  0.999723  0.004841  0.813999  1
  Si  Si7  1  0.000277  0.005119  0.313999  1
  Ge  Ge8  1  0.828317  0.655165  0.546864  1
  Ge  Ge9  1  0.171683  0.826849  0.046864  1
  Ge  Ge10  1  0.654456  0.826098  0.046895  1
  Ge  Ge11  1  0.345544  0.171641  0.546895  1
  N  N12  1  0.994965  0.008698  0.626867  1
  N  N13  1  0.005035  0.013733  0.126867  1
  N  N14  1  0.151571  0.303747  0.875833  1
  N  N15  1  0.848429  0.152176  0.375833  1
  N  N16  1  0.305322  0.152209  0.364904  1
  N  N17  1  0.694678  0.846888  0.864904  1
  N  N18  1  0.150975  0.847837  0.863825  1
  N  N19  1  0.849025  0.696861  0.363825  1
  N  N20  1  0.982880  0.478906  0.601269  1
  N  N21  1  0.495341  0.990884  0.104949  1
  N  N22  1  0.478816  0.495545  0.101431  1
  N  N23  1  0.504659  0.495544  0.604949  1
  N  N24  1  0.017120  0.496024  0.101269  1
  N  N25  1  0.521184  0.016730  0.601431  1
