# generated using pymatgen
data_ErTm6CoI12
_symmetry_space_group_name_H-M   'P 1'
_cell_length_a   9.66281479
_cell_length_b   9.66281330
_cell_length_c   9.66281401
_cell_angle_alpha   106.83515135
_cell_angle_beta   106.83514805
_cell_angle_gamma   106.83515061
_symmetry_Int_Tables_number   1
_chemical_formula_structural   ErTm6CoI12
_chemical_formula_sum   'Er1 Tm6 Co1 I12'
_cell_volume   754.72808814
_cell_formula_units_Z   1
loop_
 _symmetry_equiv_pos_site_id
 _symmetry_equiv_pos_as_xyz
  1  'x, y, z'
loop_
 _atom_site_type_symbol
 _atom_site_label
 _atom_site_symmetry_multiplicity
 _atom_site_fract_x
 _atom_site_fract_y
 _atom_site_fract_z
 _atom_site_occupancy
  Er  Er0  1  0.500000  0.500000  0.500000  1
  Tm  Tm1  1  0.284453  0.090243  0.021401  1
  Tm  Tm2  1  0.021401  0.284453  0.090243  1
  Tm  Tm3  1  0.090243  0.021401  0.284453  1
  Tm  Tm4  1  0.715547  0.909757  0.978599  1
  Tm  Tm5  1  0.978599  0.715547  0.909757  1
  Tm  Tm6  1  0.909757  0.978599  0.715547  1
  Co  Co7  1  0.000000  0.000000  0.000000  1
  I  I8  1  0.463278  0.160946  0.386712  1
  I  I9  1  0.386712  0.463278  0.160946  1
  I  I10  1  0.160946  0.386712  0.463278  1
  I  I11  1  0.536722  0.839054  0.613288  1
  I  I12  1  0.613288  0.536722  0.839054  1
  I  I13  1  0.839054  0.613288  0.536722  1
  I  I14  1  0.323497  0.775956  0.929394  1
  I  I15  1  0.929394  0.323497  0.775956  1
  I  I16  1  0.775956  0.929394  0.323497  1
  I  I17  1  0.676503  0.224044  0.070606  1
  I  I18  1  0.070606  0.676503  0.224044  1
  I  I19  1  0.224044  0.070606  0.676503  1
