# generated using pymatgen
data_Mg2Ag3BiO6
_symmetry_space_group_name_H-M   'P 1'
_cell_length_a   5.57529700
_cell_length_b   5.57529639
_cell_length_c   19.01047000
_cell_angle_alpha   90.00000000
_cell_angle_beta   90.00000000
_cell_angle_gamma   119.99998581
_symmetry_Int_Tables_number   1
_chemical_formula_structural   Mg2Ag3BiO6
_chemical_formula_sum   'Mg6 Ag9 Bi3 O18'
_cell_volume   511.75196115
_cell_formula_units_Z   3
loop_
 _symmetry_equiv_pos_site_id
 _symmetry_equiv_pos_as_xyz
  1  'x, y, z'
loop_
 _atom_site_type_symbol
 _atom_site_label
 _atom_site_symmetry_multiplicity
 _atom_site_fract_x
 _atom_site_fract_y
 _atom_site_fract_z
 _atom_site_occupancy
  Mg  Mg0  1  0.106910  0.893090  0.333333  1
  Mg  Mg1  1  0.106910  0.213819  0.666667  1
  Mg  Mg2  1  0.786181  0.893090  0.000000  1
  Mg  Mg3  1  0.773551  0.226449  0.333333  1
  Mg  Mg4  1  0.773551  0.547100  0.666667  1
  Mg  Mg5  1  0.452900  0.226449  0.000000  1
  Ag  Ag6  1  0.441782  0.220890  0.500000  1
  Ag  Ag7  1  0.779110  0.220890  0.833333  1
  Ag  Ag8  1  0.779110  0.558218  0.166667  1
  Ag  Ag9  1  0.111720  0.555860  0.500000  1
  Ag  Ag10  1  0.444140  0.555860  0.833333  1
  Ag  Ag11  1  0.444140  0.888280  0.166667  1
  Ag  Ag12  1  0.769145  0.884572  0.500000  1
  Ag  Ag13  1  0.115428  0.884572  0.833333  1
  Ag  Ag14  1  0.115428  0.230855  0.166667  1
  Bi  Bi15  1  0.440347  0.559653  0.333333  1
  Bi  Bi16  1  0.440347  0.880694  0.666667  1
  Bi  Bi17  1  0.119306  0.559653  0.000000  1
  O  O18  1  0.777281  0.559621  0.277376  1
  O  O19  1  0.440379  0.217660  0.610709  1
  O  O20  1  0.782340  0.222719  0.944043  1
  O  O21  1  0.777281  0.217660  0.722624  1
  O  O22  1  0.440379  0.222719  0.389291  1
  O  O23  1  0.782340  0.559621  0.055957  1
  O  O24  1  0.440180  0.896384  0.277316  1
  O  O25  1  0.103616  0.543795  0.610649  1
  O  O26  1  0.456205  0.559820  0.943983  1
  O  O27  1  0.440180  0.543795  0.722684  1
  O  O28  1  0.103616  0.559820  0.389351  1
  O  O29  1  0.456205  0.896384  0.056017  1
  O  O30  1  0.103470  0.222964  0.277296  1
  O  O31  1  0.777036  0.880507  0.610629  1
  O  O32  1  0.119493  0.896530  0.943962  1
  O  O33  1  0.103470  0.880507  0.722704  1
  O  O34  1  0.777036  0.896530  0.389371  1
  O  O35  1  0.119493  0.222964  0.056038  1
