# generated using pymatgen
data_NdGa3CoSn
_symmetry_space_group_name_H-M   'P 1'
_cell_length_a   8.33983733
_cell_length_b   8.33983726
_cell_length_c   6.68439100
_cell_angle_alpha   90.00000000
_cell_angle_beta   90.00000000
_cell_angle_gamma   150.35607083
_symmetry_Int_Tables_number   1
_chemical_formula_structural   NdGa3CoSn
_chemical_formula_sum   'Nd2 Ga6 Co2 Sn2'
_cell_volume   229.95267381
_cell_formula_units_Z   2
loop_
 _symmetry_equiv_pos_site_id
 _symmetry_equiv_pos_as_xyz
  1  'x, y, z'
loop_
 _atom_site_type_symbol
 _atom_site_label
 _atom_site_symmetry_multiplicity
 _atom_site_fract_x
 _atom_site_fract_y
 _atom_site_fract_z
 _atom_site_occupancy
  Nd  Nd0  1  0.616004  0.383996  0.750000  1
  Nd  Nd1  1  0.383996  0.616004  0.250000  1
  Ga  Ga2  1  0.196094  0.803906  0.444535  1
  Ga  Ga3  1  0.803906  0.196094  0.555465  1
  Ga  Ga4  1  0.580532  0.419468  0.250000  1
  Ga  Ga5  1  0.419468  0.580532  0.750000  1
  Ga  Ga6  1  0.196094  0.803906  0.055465  1
  Ga  Ga7  1  0.803906  0.196094  0.944535  1
  Co  Co8  1  0.725072  0.274928  0.250000  1
  Co  Co9  1  0.274928  0.725072  0.750000  1
  Sn  Sn10  1  0.000000  0.000000  0.000000  1
  Sn  Sn11  1  0.000000  0.000000  0.500000  1
