# generated using pymatgen
data_Nd2Y5Er(WO6)4
_symmetry_space_group_name_H-M   'P 1'
_cell_length_a   5.45493954
_cell_length_b   7.78203343
_cell_length_c   11.55503641
_cell_angle_alpha   75.61033509
_cell_angle_beta   90.00776364
_cell_angle_gamma   89.95300184
_symmetry_Int_Tables_number   1
_chemical_formula_structural   Nd2Y5Er(WO6)4
_chemical_formula_sum   'Nd2 Y5 Er1 W4 O24'
_cell_volume   475.12862931
_cell_formula_units_Z   1
loop_
 _symmetry_equiv_pos_site_id
 _symmetry_equiv_pos_as_xyz
  1  'x, y, z'
loop_
 _atom_site_type_symbol
 _atom_site_label
 _atom_site_symmetry_multiplicity
 _atom_site_fract_x
 _atom_site_fract_y
 _atom_site_fract_z
 _atom_site_occupancy
  Nd  Nd0  1  0.685185  0.499753  0.249777  1
  Nd  Nd1  1  0.315279  0.499448  0.750718  1
  Y  Y2  1  0.185810  0.204391  0.422878  1
  Y  Y3  1  0.184908  0.796052  0.076819  1
  Y  Y4  1  0.814504  0.795642  0.577076  1
  Y  Y5  1  0.742280  0.000342  0.249261  1
  Y  Y6  1  0.257980  0.000455  0.750953  1
  Er  Er7  1  0.815366  0.204748  0.922528  1
  W  W8  1  0.254594  0.272534  0.114881  1
  W  W9  1  0.254465  0.727287  0.384251  1
  W  W10  1  0.745479  0.727049  0.884219  1
  W  W11  1  0.746002  0.272426  0.616472  1
  O  O12  1  0.455558  0.205658  0.271870  1
  O  O13  1  0.455235  0.793941  0.227240  1
  O  O14  1  0.544460  0.793262  0.727613  1
  O  O15  1  0.546663  0.205776  0.774157  1
  O  O16  1  0.043866  0.060077  0.103090  1
  O  O17  1  0.044417  0.940485  0.395775  1
  O  O18  1  0.952204  0.942368  0.895997  1
  O  O19  1  0.955979  0.059730  0.604408  1
  O  O20  1  0.985721  0.282249  0.229135  1
  O  O21  1  0.984983  0.717630  0.270632  1
  O  O22  1  0.015727  0.718430  0.771208  1
  O  O23  1  0.014381  0.281927  0.730890  1
  O  O24  1  0.850821  0.359623  0.454804  1
  O  O25  1  0.850982  0.640340  0.045605  1
  O  O26  1  0.149305  0.639934  0.545711  1
  O  O27  1  0.145739  0.358856  0.953825  1
  O  O28  1  0.649716  0.506099  0.613821  1
  O  O29  1  0.652279  0.492527  0.886445  1
  O  O30  1  0.350337  0.493563  0.386284  1
  O  O31  1  0.349642  0.505979  0.112728  1
  O  O32  1  0.466220  0.154811  0.570720  1
  O  O33  1  0.465246  0.844502  0.930363  1
  O  O34  1  0.533346  0.845725  0.430237  1
  O  O35  1  0.535324  0.156380  0.067612  1
