# generated using pymatgen
data_LiHoPaAlPt2
_symmetry_space_group_name_H-M   'P 1'
_cell_length_a   4.27826800
_cell_length_b   6.83325000
_cell_length_c   8.09530600
_cell_angle_alpha   90.00000000
_cell_angle_beta   90.00000000
_cell_angle_gamma   90.00000000
_symmetry_Int_Tables_number   1
_chemical_formula_structural   LiHoPaAlPt2
_chemical_formula_sum   'Li2 Ho2 Pa2 Al2 Pt4'
_cell_volume   236.66201934
_cell_formula_units_Z   2
loop_
 _symmetry_equiv_pos_site_id
 _symmetry_equiv_pos_as_xyz
  1  'x, y, z'
loop_
 _atom_site_type_symbol
 _atom_site_label
 _atom_site_symmetry_multiplicity
 _atom_site_fract_x
 _atom_site_fract_y
 _atom_site_fract_z
 _atom_site_occupancy
  Li  Li0  1  0.250000  0.138496  0.068521  1
  Li  Li1  1  0.250000  0.638496  0.431479  1
  Ho  Ho2  1  0.750000  0.964683  0.311425  1
  Ho  Ho3  1  0.750000  0.464683  0.188575  1
  Pa  Pa4  1  0.250000  0.032415  0.687406  1
  Pa  Pa5  1  0.250000  0.532415  0.812594  1
  Al  Al6  1  0.750000  0.866424  0.944372  1
  Al  Al7  1  0.750000  0.366424  0.555628  1
  Pt  Pt8  1  0.250000  0.250926  0.400697  1
  Pt  Pt9  1  0.250000  0.750926  0.099303  1
  Pt  Pt10  1  0.750000  0.747055  0.626685  1
  Pt  Pt11  1  0.750000  0.247055  0.873315  1
