# generated using pymatgen
data_LuSn5BiRu4
_symmetry_space_group_name_H-M   'P 1'
_cell_length_a   6.98613424
_cell_length_b   6.99881118
_cell_length_c   6.98059872
_cell_angle_alpha   120.79008775
_cell_angle_beta   120.73082332
_cell_angle_gamma   88.78737539
_symmetry_Int_Tables_number   1
_chemical_formula_structural   LuSn5BiRu4
_chemical_formula_sum   'Lu1 Sn5 Bi1 Ru4'
_cell_volume   238.29996965
_cell_formula_units_Z   1
loop_
 _symmetry_equiv_pos_site_id
 _symmetry_equiv_pos_as_xyz
  1  'x, y, z'
loop_
 _atom_site_type_symbol
 _atom_site_label
 _atom_site_symmetry_multiplicity
 _atom_site_fract_x
 _atom_site_fract_y
 _atom_site_fract_z
 _atom_site_occupancy
  Lu  Lu0  1  0.993153  0.998861  0.000000  1
  Sn  Sn1  1  0.118779  0.468628  0.000000  1
  Sn  Sn2  1  0.882767  0.878438  0.348836  1
  Sn  Sn3  1  0.533931  0.529603  0.651164  1
  Sn  Sn4  1  0.003156  0.503249  0.502529  1
  Sn  Sn5  1  0.500627  0.000720  0.497471  1
  Bi  Bi6  1  0.463382  0.120640  0.000000  1
  Ru  Ru7  1  0.404549  0.747715  0.000000  1
  Ru  Ru8  1  0.752476  0.403735  0.000000  1
  Ru  Ru9  1  0.245334  0.245949  0.643487  1
  Ru  Ru10  1  0.601847  0.602461  0.356513  1
