# generated using pymatgen
data_Lu17Sc3(Bi3Te)3
_symmetry_space_group_name_H-M   'P 1'
_cell_length_a   7.97841674
_cell_length_b   9.28429400
_cell_length_c   11.66393571
_cell_angle_alpha   90.00000000
_cell_angle_beta   90.00479086
_cell_angle_gamma   90.00000000
_symmetry_Int_Tables_number   1
_chemical_formula_structural   Lu17Sc3(Bi3Te)3
_chemical_formula_sum   'Lu17 Sc3 Bi9 Te3'
_cell_volume   863.99398234
_cell_formula_units_Z   1
loop_
 _symmetry_equiv_pos_site_id
 _symmetry_equiv_pos_as_xyz
  1  'x, y, z'
loop_
 _atom_site_type_symbol
 _atom_site_label
 _atom_site_symmetry_multiplicity
 _atom_site_fract_x
 _atom_site_fract_y
 _atom_site_fract_z
 _atom_site_occupancy
  Lu  Lu0  1  0.520965  0.250000  0.990599  1
  Lu  Lu1  1  0.356607  0.250000  0.285241  1
  Lu  Lu2  1  0.644274  0.750000  0.714337  1
  Lu  Lu3  1  0.144602  0.750000  0.783039  1
  Lu  Lu4  1  0.853227  0.250000  0.219055  1
  Lu  Lu5  1  0.184784  0.250000  0.779724  1
  Lu  Lu6  1  0.821141  0.750000  0.216733  1
  Lu  Lu7  1  0.320754  0.750000  0.284717  1
  Lu  Lu8  1  0.680228  0.250000  0.713470  1
  Lu  Lu9  1  0.190895  0.063463  0.058955  1
  Lu  Lu10  1  0.807897  0.929852  0.942262  1
  Lu  Lu11  1  0.308832  0.933255  0.556751  1
  Lu  Lu12  1  0.807897  0.570148  0.942262  1
  Lu  Lu13  1  0.690621  0.066027  0.443655  1
  Lu  Lu14  1  0.190895  0.436537  0.058955  1
  Lu  Lu15  1  0.690621  0.433973  0.443655  1
  Lu  Lu16  1  0.308832  0.566745  0.556751  1
  Sc  Sc17  1  0.019807  0.250000  0.510422  1
  Sc  Sc18  1  0.978880  0.750000  0.488746  1
  Sc  Sc19  1  0.477121  0.750000  0.011791  1
  Bi  Bi20  1  0.902428  0.250000  0.955702  1
  Bi  Bi21  1  0.067737  0.003216  0.327898  1
  Bi  Bi22  1  0.932277  0.995858  0.671089  1
  Bi  Bi23  1  0.431482  0.994147  0.826835  1
  Bi  Bi24  1  0.932277  0.504142  0.671089  1
  Bi  Bi25  1  0.567710  0.000240  0.174594  1
  Bi  Bi26  1  0.067737  0.496784  0.327898  1
  Bi  Bi27  1  0.567710  0.499760  0.174594  1
  Bi  Bi28  1  0.431482  0.505853  0.826835  1
  Te  Te29  1  0.394660  0.250000  0.543104  1
  Te  Te30  1  0.604049  0.750000  0.457062  1
  Te  Te31  1  0.101581  0.750000  0.042185  1
