# generated using pymatgen
data_ReOsF12
_symmetry_space_group_name_H-M   'P 1'
_cell_length_a   5.20499400
_cell_length_b   9.04215600
_cell_length_c   9.75113000
_cell_angle_alpha   90.00000000
_cell_angle_beta   90.00000000
_cell_angle_gamma   90.00000000
_symmetry_Int_Tables_number   1
_chemical_formula_structural   ReOsF12
_chemical_formula_sum   'Re2 Os2 F24'
_cell_volume   458.93076807
_cell_formula_units_Z   2
loop_
 _symmetry_equiv_pos_site_id
 _symmetry_equiv_pos_as_xyz
  1  'x, y, z'
loop_
 _atom_site_type_symbol
 _atom_site_label
 _atom_site_symmetry_multiplicity
 _atom_site_fract_x
 _atom_site_fract_y
 _atom_site_fract_z
 _atom_site_occupancy
  Re  Re0  1  0.589466  0.750000  0.124805  1
  Re  Re1  1  0.089466  0.250000  0.375195  1
  Os  Os2  1  0.410300  0.250000  0.873588  1
  Os  Os3  1  0.910300  0.750000  0.626412  1
  F  F4  1  0.260996  0.103056  0.984716  1
  F  F5  1  0.760996  0.896944  0.515284  1
  F  F6  1  0.736586  0.604124  0.016498  1
  F  F7  1  0.236586  0.395876  0.483502  1
  F  F8  1  0.619332  0.750000  0.739968  1
  F  F9  1  0.119332  0.250000  0.760032  1
  F  F10  1  0.380418  0.250000  0.263371  1
  F  F11  1  0.880418  0.750000  0.236629  1
  F  F12  1  0.060040  0.603304  0.736181  1
  F  F13  1  0.560040  0.396696  0.763819  1
  F  F14  1  0.943175  0.104486  0.265187  1
  F  F15  1  0.443175  0.895514  0.234813  1
  F  F16  1  0.943175  0.395514  0.265187  1
  F  F17  1  0.443175  0.604486  0.234813  1
  F  F18  1  0.060040  0.896696  0.736181  1
  F  F19  1  0.560040  0.103304  0.763819  1
  F  F20  1  0.200415  0.750000  0.511900  1
  F  F21  1  0.700415  0.250000  0.988100  1
  F  F22  1  0.798475  0.250000  0.485967  1
  F  F23  1  0.298475  0.750000  0.014033  1
  F  F24  1  0.760996  0.603056  0.515284  1
  F  F25  1  0.260996  0.396944  0.984716  1
  F  F26  1  0.236586  0.104124  0.483502  1
  F  F27  1  0.736586  0.895876  0.016498  1
