# generated using pymatgen
data_DyY7B20
_symmetry_space_group_name_H-M   'P 1'
_cell_length_a   7.10886638
_cell_length_b   7.10786996
_cell_length_c   7.13589640
_cell_angle_alpha   77.02239044
_cell_angle_beta   90.01525581
_cell_angle_gamma   90.03515823
_symmetry_Int_Tables_number   1
_chemical_formula_structural   DyY7B20
_chemical_formula_sum   'Dy1 Y7 B20'
_cell_volume   351.35922108
_cell_formula_units_Z   1
loop_
 _symmetry_equiv_pos_site_id
 _symmetry_equiv_pos_as_xyz
  1  'x, y, z'
loop_
 _atom_site_type_symbol
 _atom_site_label
 _atom_site_symmetry_multiplicity
 _atom_site_fract_x
 _atom_site_fract_y
 _atom_site_fract_z
 _atom_site_occupancy
  Dy  Dy0  1  0.315061  0.757396  0.253718  1
  Y  Y1  1  0.814688  0.241877  0.246296  1
  Y  Y2  1  0.684992  0.241920  0.746386  1
  Y  Y3  1  0.185430  0.758131  0.753673  1
  Y  Y4  1  0.692768  0.766782  0.628614  1
  Y  Y5  1  0.192184  0.233212  0.871423  1
  Y  Y6  1  0.307274  0.232974  0.371217  1
  Y  Y7  1  0.807657  0.766690  0.128713  1
  B  B8  1  0.501667  0.314161  0.040140  1
  B  B9  1  0.002286  0.685808  0.459776  1
  B  B10  1  0.498154  0.685631  0.960061  1
  B  B11  1  0.997972  0.314291  0.540084  1
  B  B12  1  0.491394  0.924987  0.926326  1
  B  B13  1  0.991463  0.074811  0.573995  1
  B  B14  1  0.507724  0.074656  0.074585  1
  B  B15  1  0.009214  0.925346  0.425498  1
  B  B16  1  0.326077  0.497177  0.039385  1
  B  B17  1  0.826044  0.502960  0.460675  1
  B  B18  1  0.673935  0.502777  0.960673  1
  B  B19  1  0.173981  0.497145  0.539220  1
  B  B20  1  0.910917  0.498714  0.910911  1
  B  B21  1  0.410922  0.501598  0.588843  1
  B  B22  1  0.089155  0.501724  0.089063  1
  B  B23  1  0.588992  0.499116  0.410808  1
  B  B24  1  0.962029  0.496667  0.674397  1
  B  B25  1  0.462022  0.503375  0.825502  1
  B  B26  1  0.038057  0.503512  0.325563  1
  B  B27  1  0.537941  0.496562  0.174456  1
