# generated using pymatgen
data_Sm10Ga2SiSe7
_symmetry_space_group_name_H-M   'P 1'
_cell_length_a   11.13231877
_cell_length_b   11.13231883
_cell_length_c   7.31985405
_cell_angle_alpha   83.58450833
_cell_angle_beta   83.58451257
_cell_angle_gamma   141.98052940
_symmetry_Int_Tables_number   1
_chemical_formula_structural   Sm10Ga2SiSe7
_chemical_formula_sum   'Sm10 Ga2 Si1 Se7'
_cell_volume   524.83001007
_cell_formula_units_Z   1
loop_
 _symmetry_equiv_pos_site_id
 _symmetry_equiv_pos_as_xyz
  1  'x, y, z'
loop_
 _atom_site_type_symbol
 _atom_site_label
 _atom_site_symmetry_multiplicity
 _atom_site_fract_x
 _atom_site_fract_y
 _atom_site_fract_z
 _atom_site_occupancy
  Sm  Sm0  1  0.252184  0.251558  0.755440  1
  Sm  Sm1  1  0.849547  0.650345  0.750344  1
  Sm  Sm2  1  0.748442  0.747816  0.244560  1
  Sm  Sm3  1  0.456476  0.050911  0.741615  1
  Sm  Sm4  1  0.349655  0.150453  0.249656  1
  Sm  Sm5  1  0.047237  0.450859  0.741146  1
  Sm  Sm6  1  0.949089  0.543524  0.258385  1
  Sm  Sm7  1  0.650646  0.852361  0.747712  1
  Sm  Sm8  1  0.549141  0.952763  0.258854  1
  Sm  Sm9  1  0.147639  0.349354  0.252288  1
  Ga  Ga10  1  0.499678  0.500322  0.000000  1
  Ga  Ga11  1  0.198442  0.801558  0.500000  1
  Si  Si12  1  0.801526  0.198474  0.500000  1
  Se  Se13  1  0.899168  0.100832  0.000000  1
  Se  Se14  1  0.401424  0.598576  0.500000  1
  Se  Se15  1  0.999660  0.000340  0.500000  1
  Se  Se16  1  0.599057  0.400943  0.500000  1
  Se  Se17  1  0.101039  0.898961  0.000000  1
  Se  Se18  1  0.700303  0.299697  0.000000  1
  Se  Se19  1  0.299646  0.700354  0.000000  1
