# generated using pymatgen
data_Tb3TlIn2Pd2Au
_symmetry_space_group_name_H-M   'P 1'
_cell_length_a   7.88399216
_cell_length_b   7.88924882
_cell_length_c   3.78697100
_cell_angle_alpha   90.00000000
_cell_angle_beta   90.00000000
_cell_angle_gamma   119.44262735
_symmetry_Int_Tables_number   1
_chemical_formula_structural   Tb3TlIn2Pd2Au
_chemical_formula_sum   'Tb3 Tl1 In2 Pd2 Au1'
_cell_volume   205.12393874
_cell_formula_units_Z   1
loop_
 _symmetry_equiv_pos_site_id
 _symmetry_equiv_pos_as_xyz
  1  'x, y, z'
loop_
 _atom_site_type_symbol
 _atom_site_label
 _atom_site_symmetry_multiplicity
 _atom_site_fract_x
 _atom_site_fract_y
 _atom_site_fract_z
 _atom_site_occupancy
  Tb  Tb0  1  0.590655  0.991871  0.500000  1
  Tb  Tb1  1  0.401091  0.409515  0.500000  1
  Tb  Tb2  1  0.008974  0.599431  0.500000  1
  Tl  Tl3  1  0.734614  0.737850  0.000000  1
  In  In4  1  0.260698  0.999032  0.000000  1
  In  In5  1  0.004431  0.263384  0.000000  1
  Pd  Pd6  1  0.008005  0.007853  0.500000  1
  Pd  Pd7  1  0.326384  0.664733  0.000000  1
  Au  Au8  1  0.665145  0.326332  0.000000  1
