# generated using pymatgen
data_Tb2Sc3P7Rh9
_symmetry_space_group_name_H-M   'P 1'
_cell_length_a   3.87263100
_cell_length_b   9.82251177
_cell_length_c   9.82340125
_cell_angle_alpha   119.99958462
_cell_angle_beta   89.99974348
_cell_angle_gamma   90.00024853
_symmetry_Int_Tables_number   1
_chemical_formula_structural   Tb2Sc3P7Rh9
_chemical_formula_sum   'Tb2 Sc3 P7 Rh9'
_cell_volume   323.61080116
_cell_formula_units_Z   1
loop_
 _symmetry_equiv_pos_site_id
 _symmetry_equiv_pos_as_xyz
  1  'x, y, z'
loop_
 _atom_site_type_symbol
 _atom_site_label
 _atom_site_symmetry_multiplicity
 _atom_site_fract_x
 _atom_site_fract_y
 _atom_site_fract_z
 _atom_site_occupancy
  Tb  Tb0  1  0.261835  0.666664  0.333365  1
  Tb  Tb1  1  0.761935  0.333375  0.666687  1
  Sc  Sc2  1  0.761895  0.105980  0.877219  1
  Sc  Sc3  1  0.761917  0.122765  0.228792  1
  Sc  Sc4  1  0.761922  0.771185  0.893970  1
  P  P5  1  0.261987  0.999994  0.000016  1
  P  P6  1  0.761838  0.867683  0.584089  1
  P  P7  1  0.761820  0.415890  0.283556  1
  P  P8  1  0.761829  0.716448  0.132356  1
  P  P9  1  0.261894  0.113826  0.422851  1
  P  P10  1  0.261903  0.577139  0.690954  1
  P  P11  1  0.261890  0.309021  0.886182  1
  Rh  Rh12  1  0.261867  0.879214  0.164144  1
  Rh  Rh13  1  0.261867  0.835868  0.715113  1
  Rh  Rh14  1  0.261845  0.284912  0.120789  1
  Rh  Rh15  1  0.761933  0.604642  0.551044  1
  Rh  Rh16  1  0.761910  0.448905  0.053579  1
  Rh  Rh17  1  0.761898  0.946464  0.395332  1
  Rh  Rh18  1  0.262016  0.361410  0.435223  1
  Rh  Rh19  1  0.261983  0.564752  0.926128  1
  Rh  Rh20  1  0.262017  0.073866  0.638608  1
