# generated using pymatgen
data_Nd5Y5(Pb3Br)2
_symmetry_space_group_name_H-M   'P 1'
_cell_length_a   9.45500500
_cell_length_b   9.47073877
_cell_length_c   6.79455900
_cell_angle_alpha   90.00000000
_cell_angle_beta   90.00000000
_cell_angle_gamma   119.94506322
_symmetry_Int_Tables_number   1
_chemical_formula_structural   Nd5Y5(Pb3Br)2
_chemical_formula_sum   'Nd5 Y5 Pb6 Br2'
_cell_volume   527.20276195
_cell_formula_units_Z   1
loop_
 _symmetry_equiv_pos_site_id
 _symmetry_equiv_pos_as_xyz
  1  'x, y, z'
loop_
 _atom_site_type_symbol
 _atom_site_label
 _atom_site_symmetry_multiplicity
 _atom_site_fract_x
 _atom_site_fract_y
 _atom_site_fract_z
 _atom_site_occupancy
  Nd  Nd0  1  0.735006  0.000000  0.750000  1
  Nd  Nd1  1  0.999099  0.266730  0.250000  1
  Nd  Nd2  1  0.000456  0.734733  0.750000  1
  Nd  Nd3  1  0.732369  0.733270  0.250000  1
  Nd  Nd4  1  0.265723  0.265267  0.750000  1
  Y  Y5  1  0.266083  0.000000  0.250000  1
  Y  Y6  1  0.333337  0.667450  0.000634  1
  Y  Y7  1  0.665888  0.332550  0.000634  1
  Y  Y8  1  0.665888  0.332550  0.499366  1
  Y  Y9  1  0.333337  0.667450  0.499366  1
  Pb  Pb10  1  0.604583  0.000000  0.250000  1
  Pb  Pb11  1  0.390503  0.000000  0.750000  1
  Pb  Pb12  1  0.003260  0.613903  0.250000  1
  Pb  Pb13  1  0.000225  0.390808  0.750000  1
  Pb  Pb14  1  0.389357  0.386097  0.250000  1
  Pb  Pb15  1  0.609417  0.609192  0.750000  1
  Br  Br16  1  0.002735  0.000000  0.002844  1
  Br  Br17  1  0.002735  0.000000  0.497156  1
