# generated using pymatgen
data_SmHo2Sc(Co4P3)2
_symmetry_space_group_name_H-M   'P 1'
_cell_length_a   3.72239600
_cell_length_b   10.65488200
_cell_length_c   12.35894300
_cell_angle_alpha   90.00000000
_cell_angle_beta   90.00000000
_cell_angle_gamma   90.00000000
_symmetry_Int_Tables_number   1
_chemical_formula_structural   SmHo2Sc(Co4P3)2
_chemical_formula_sum   'Sm2 Ho4 Sc2 Co16 P12'
_cell_volume   490.17656769
_cell_formula_units_Z   2
loop_
 _symmetry_equiv_pos_site_id
 _symmetry_equiv_pos_as_xyz
  1  'x, y, z'
loop_
 _atom_site_type_symbol
 _atom_site_label
 _atom_site_symmetry_multiplicity
 _atom_site_fract_x
 _atom_site_fract_y
 _atom_site_fract_z
 _atom_site_occupancy
  Sm  Sm0  1  0.000000  0.500000  0.528693  1
  Sm  Sm1  1  0.500000  0.000000  0.471307  1
  Ho  Ho2  1  0.500000  0.822568  0.205362  1
  Ho  Ho3  1  0.500000  0.177432  0.205362  1
  Ho  Ho4  1  0.000000  0.677432  0.794638  1
  Ho  Ho5  1  0.000000  0.322568  0.794638  1
  Sc  Sc6  1  0.500000  0.500000  0.156365  1
  Sc  Sc7  1  0.000000  0.000000  0.843635  1
  Co  Co8  1  0.000000  0.500000  0.987866  1
  Co  Co9  1  0.500000  0.000000  0.012134  1
  Co  Co10  1  0.500000  0.295233  0.432366  1
  Co  Co11  1  0.500000  0.704767  0.432366  1
  Co  Co12  1  0.000000  0.204767  0.567634  1
  Co  Co13  1  0.000000  0.795233  0.567634  1
  Co  Co14  1  0.500000  0.877918  0.703719  1
  Co  Co15  1  0.500000  0.122082  0.703719  1
  Co  Co16  1  0.000000  0.622082  0.296281  1
  Co  Co17  1  0.000000  0.377918  0.296281  1
  Co  Co18  1  0.500000  0.331095  0.994862  1
  Co  Co19  1  0.500000  0.668905  0.994862  1
  Co  Co20  1  0.000000  0.168905  0.005138  1
  Co  Co21  1  0.000000  0.831095  0.005138  1
  Co  Co22  1  0.500000  0.500000  0.707519  1
  Co  Co23  1  0.000000  0.000000  0.292481  1
  P  P24  1  0.500000  0.307904  0.616340  1
  P  P25  1  0.500000  0.692096  0.616340  1
  P  P26  1  0.000000  0.192096  0.383660  1
  P  P27  1  0.000000  0.807904  0.383660  1
  P  P28  1  0.500000  0.500000  0.886265  1
  P  P29  1  0.000000  0.000000  0.113735  1
  P  P30  1  0.500000  0.839177  0.892580  1
  P  P31  1  0.500000  0.160823  0.892580  1
  P  P32  1  0.000000  0.660823  0.107420  1
  P  P33  1  0.000000  0.339177  0.107420  1
  P  P34  1  0.500000  0.500000  0.358352  1
  P  P35  1  0.000000  0.000000  0.641648  1
