# generated using pymatgen
data_Lu(FeP)2
_symmetry_space_group_name_H-M   'P 1'
_cell_length_a   5.37272246
_cell_length_b   5.37272148
_cell_length_c   5.37272263
_cell_angle_alpha   138.58242675
_cell_angle_beta   138.58241856
_cell_angle_gamma   60.01215258
_symmetry_Int_Tables_number   1
_chemical_formula_structural   Lu(FeP)2
_chemical_formula_sum   'Lu1 Fe2 P2'
_cell_volume   67.17639850
_cell_formula_units_Z   1
loop_
 _symmetry_equiv_pos_site_id
 _symmetry_equiv_pos_as_xyz
  1  'x, y, z'
loop_
 _atom_site_type_symbol
 _atom_site_label
 _atom_site_symmetry_multiplicity
 _atom_site_fract_x
 _atom_site_fract_y
 _atom_site_fract_z
 _atom_site_occupancy
  Lu  Lu0  1  0.000000  0.000000  0.000000  1
  Fe  Fe1  1  0.250000  0.750000  0.500000  1
  Fe  Fe2  1  0.750000  0.250000  0.500000  1
  P  P3  1  0.629675  0.629675  0.000000  1
  P  P4  1  0.370325  0.370325  0.000000  1
