# generated using pymatgen
data_Tm5ZrFeTe2
_symmetry_space_group_name_H-M   'P 1'
_cell_length_a   8.13385126
_cell_length_b   8.23355488
_cell_length_c   3.88157500
_cell_angle_alpha   90.00000000
_cell_angle_beta   90.00000000
_cell_angle_gamma   120.40578562
_symmetry_Int_Tables_number   1
_chemical_formula_structural   Tm5ZrFeTe2
_chemical_formula_sum   'Tm5 Zr1 Fe1 Te2'
_cell_volume   224.19805869
_cell_formula_units_Z   1
loop_
 _symmetry_equiv_pos_site_id
 _symmetry_equiv_pos_as_xyz
  1  'x, y, z'
loop_
 _atom_site_type_symbol
 _atom_site_label
 _atom_site_symmetry_multiplicity
 _atom_site_fract_x
 _atom_site_fract_y
 _atom_site_fract_z
 _atom_site_occupancy
  Tm  Tm0  1  0.770776  0.765126  0.500000  1
  Tm  Tm1  1  0.999983  0.589567  0.000000  1
  Tm  Tm2  1  0.229240  0.994366  0.500000  1
  Tm  Tm3  1  0.618868  0.002182  0.000000  1
  Tm  Tm4  1  0.381159  0.383331  0.000000  1
  Zr  Zr5  1  0.000012  0.235457  0.500000  1
  Fe  Fe6  1  0.999976  0.036960  0.000000  1
  Te  Te7  1  0.664976  0.328994  0.500000  1
  Te  Te8  1  0.335010  0.664017  0.500000  1
