# generated using pymatgen
data_Ho3Lu5Tc2(B12Os)2
_symmetry_space_group_name_H-M   'P 1'
_cell_length_a   3.62274200
_cell_length_b   9.07235060
_cell_length_c   11.45270601
_cell_angle_alpha   89.93302276
_cell_angle_beta   90.00000000
_cell_angle_gamma   90.00000000
_symmetry_Int_Tables_number   1
_chemical_formula_structural   Ho3Lu5Tc2(B12Os)2
_chemical_formula_sum   'Ho3 Lu5 Tc2 B24 Os2'
_cell_volume   376.41337517
_cell_formula_units_Z   1
loop_
 _symmetry_equiv_pos_site_id
 _symmetry_equiv_pos_as_xyz
  1  'x, y, z'
loop_
 _atom_site_type_symbol
 _atom_site_label
 _atom_site_symmetry_multiplicity
 _atom_site_fract_x
 _atom_site_fract_y
 _atom_site_fract_z
 _atom_site_occupancy
  Ho  Ho0  1  0.000000  0.324084  0.415141  1
  Ho  Ho1  1  0.000000  0.675886  0.584943  1
  Ho  Ho2  1  0.000000  0.820369  0.087435  1
  Lu  Lu3  1  0.000000  0.179931  0.912367  1
  Lu  Lu4  1  0.000000  0.942136  0.371280  1
  Lu  Lu5  1  0.000000  0.058021  0.628823  1
  Lu  Lu6  1  0.000000  0.443846  0.129274  1
  Lu  Lu7  1  0.000000  0.555739  0.870575  1
  Tc  Tc8  1  0.000000  0.638859  0.319733  1
  Tc  Tc9  1  0.000000  0.360788  0.680675  1
  B  B10  1  0.500000  0.553271  0.432959  1
  B  B11  1  0.500000  0.446615  0.567163  1
  B  B12  1  0.500000  0.054080  0.066261  1
  B  B13  1  0.500000  0.946831  0.933214  1
  B  B14  1  0.500000  0.749917  0.419064  1
  B  B15  1  0.500000  0.250093  0.581135  1
  B  B16  1  0.500000  0.250043  0.080299  1
  B  B17  1  0.500000  0.749957  0.918822  1
  B  B18  1  0.500000  0.792421  0.265322  1
  B  B19  1  0.500000  0.207228  0.735370  1
  B  B20  1  0.500000  0.291661  0.234076  1
  B  B21  1  0.500000  0.708398  0.765756  1
  B  B22  1  0.500000  0.630439  0.184531  1
  B  B23  1  0.500000  0.368869  0.815953  1
  B  B24  1  0.500000  0.130114  0.314596  1
  B  B25  1  0.500000  0.870133  0.685434  1
  B  B26  1  0.500000  0.982255  0.212386  1
  B  B27  1  0.500000  0.018655  0.787884  1
  B  B28  1  0.500000  0.481804  0.286868  1
  B  B29  1  0.500000  0.517959  0.713195  1
  B  B30  1  0.500000  0.601328  0.027771  1
  B  B31  1  0.500000  0.397577  0.971913  1
  B  B32  1  0.500000  0.101288  0.471723  1
  B  B33  1  0.500000  0.898795  0.528353  1
  Os  Os34  1  0.000000  0.137967  0.178234  1
  Os  Os35  1  0.000000  0.862645  0.821472  1
