# generated using pymatgen
data_TiFe3B3W2
_symmetry_space_group_name_H-M   'P 1'
_cell_length_a   5.95115564
_cell_length_b   5.95115559
_cell_length_c   3.09055000
_cell_angle_alpha   90.00000000
_cell_angle_beta   90.00000000
_cell_angle_gamma   121.12352724
_symmetry_Int_Tables_number   1
_chemical_formula_structural   TiFe3B3W2
_chemical_formula_sum   'Ti1 Fe3 B3 W2'
_cell_volume   93.70009032
_cell_formula_units_Z   1
loop_
 _symmetry_equiv_pos_site_id
 _symmetry_equiv_pos_as_xyz
  1  'x, y, z'
loop_
 _atom_site_type_symbol
 _atom_site_label
 _atom_site_symmetry_multiplicity
 _atom_site_fract_x
 _atom_site_fract_y
 _atom_site_fract_z
 _atom_site_occupancy
  Ti  Ti0  1  0.410345  0.410345  0.500000  1
  Fe  Fe1  1  0.751088  0.751088  0.000000  1
  Fe  Fe2  1  0.244236  0.003672  0.000000  1
  Fe  Fe3  1  0.003672  0.244236  0.000000  1
  B  B4  1  0.670056  0.333732  0.000000  1
  B  B5  1  0.333732  0.670056  0.000000  1
  B  B6  1  0.992930  0.992930  0.500000  1
  W  W7  1  0.590421  0.003521  0.500000  1
  W  W8  1  0.003521  0.590421  0.500000  1
