# generated using pymatgen
data_DyY3(Ga5Ir3)2
_symmetry_space_group_name_H-M   'P 1'
_cell_length_a   8.59989632
_cell_length_b   8.60041863
_cell_length_c   8.60041902
_cell_angle_alpha   141.24478870
_cell_angle_beta   109.83609252
_cell_angle_gamma   83.15726077
_symmetry_Int_Tables_number   1
_chemical_formula_structural   DyY3(Ga5Ir3)2
_chemical_formula_sum   'Dy1 Y3 Ga10 Ir6'
_cell_volume   362.96447831
_cell_formula_units_Z   1
loop_
 _symmetry_equiv_pos_site_id
 _symmetry_equiv_pos_as_xyz
  1  'x, y, z'
loop_
 _atom_site_type_symbol
 _atom_site_label
 _atom_site_symmetry_multiplicity
 _atom_site_fract_x
 _atom_site_fract_y
 _atom_site_fract_z
 _atom_site_occupancy
  Dy  Dy0  1  0.628839  0.356151  0.272687  1
  Y  Y1  1  0.371161  0.643836  0.727325  1
  Y  Y2  1  0.916510  0.143837  0.772675  1
  Y  Y3  1  0.083493  0.856164  0.227328  1
  Ga  Ga4  1  0.403278  0.084259  0.319018  1
  Ga  Ga5  1  0.596723  0.915740  0.680984  1
  Ga  Ga6  1  0.234769  0.415745  0.819024  1
  Ga  Ga7  1  0.765234  0.584246  0.180988  1
  Ga  Ga8  1  0.299410  0.549399  0.250004  1
  Ga  Ga9  1  0.700599  0.950602  0.250000  1
  Ga  Ga10  1  0.700599  0.450599  0.749996  1
  Ga  Ga11  1  0.299410  0.049406  0.750011  1
  Ga  Ga12  1  0.999988  0.250006  0.250004  1
  Ga  Ga13  1  0.999988  0.749984  0.749982  1
  Ir  Ir14  1  0.239660  0.152298  0.087363  1
  Ir  Ir15  1  0.760366  0.847731  0.912634  1
  Ir  Ir16  1  0.935041  0.347727  0.587315  1
  Ir  Ir17  1  0.064936  0.652274  0.412661  1
  Ir  Ir18  1  0.499998  0.249990  0.749992  1
  Ir  Ir19  1  0.499998  0.750006  0.250008  1
