# generated using pymatgen
data_DyLu11IrOs3
_symmetry_space_group_name_H-M   'P 1'
_cell_length_a   7.29315739
_cell_length_b   8.83095100
_cell_length_c   6.20960912
_cell_angle_alpha   90.00000000
_cell_angle_beta   89.96989322
_cell_angle_gamma   90.00000000
_symmetry_Int_Tables_number   1
_chemical_formula_structural   DyLu11IrOs3
_chemical_formula_sum   'Dy1 Lu11 Ir1 Os3'
_cell_volume   399.93302168
_cell_formula_units_Z   1
loop_
 _symmetry_equiv_pos_site_id
 _symmetry_equiv_pos_as_xyz
  1  'x, y, z'
loop_
 _atom_site_type_symbol
 _atom_site_label
 _atom_site_symmetry_multiplicity
 _atom_site_fract_x
 _atom_site_fract_y
 _atom_site_fract_z
 _atom_site_occupancy
  Dy  Dy0  1  0.537360  0.250000  0.873888  1
  Lu  Lu1  1  0.674234  0.060720  0.334632  1
  Lu  Lu2  1  0.176797  0.439045  0.167825  1
  Lu  Lu3  1  0.324414  0.562654  0.667052  1
  Lu  Lu4  1  0.824295  0.935884  0.830750  1
  Lu  Lu5  1  0.324414  0.937346  0.667052  1
  Lu  Lu6  1  0.824295  0.564116  0.830750  1
  Lu  Lu7  1  0.674234  0.439280  0.334632  1
  Lu  Lu8  1  0.176797  0.060955  0.167825  1
  Lu  Lu9  1  0.038772  0.250000  0.626898  1
  Lu  Lu10  1  0.461305  0.750000  0.126712  1
  Lu  Lu11  1  0.961451  0.750000  0.372728  1
  Ir  Ir12  1  0.886108  0.250000  0.040060  1
  Os  Os13  1  0.382112  0.250000  0.459047  1
  Os  Os14  1  0.116074  0.750000  0.962726  1
  Os  Os15  1  0.617338  0.750000  0.537423  1
