# generated using pymatgen
data_Rb8Li4TmLu3As8
_symmetry_space_group_name_H-M   'P 1'
_cell_length_a   10.54119866
_cell_length_b   10.54119787
_cell_length_c   6.78110209
_cell_angle_alpha   89.98563358
_cell_angle_beta   90.01436459
_cell_angle_gamma   99.99434026
_symmetry_Int_Tables_number   1
_chemical_formula_structural   Rb8Li4TmLu3As8
_chemical_formula_sum   'Rb8 Li4 Tm1 Lu3 As8'
_cell_volume   742.06037972
_cell_formula_units_Z   1
loop_
 _symmetry_equiv_pos_site_id
 _symmetry_equiv_pos_as_xyz
  1  'x, y, z'
loop_
 _atom_site_type_symbol
 _atom_site_label
 _atom_site_symmetry_multiplicity
 _atom_site_fract_x
 _atom_site_fract_y
 _atom_site_fract_z
 _atom_site_occupancy
  Rb  Rb0  1  0.568551  0.931278  0.749927  1
  Rb  Rb1  1  0.931278  0.568551  0.250073  1
  Rb  Rb2  1  0.431293  0.068766  0.250050  1
  Rb  Rb3  1  0.068766  0.431293  0.749950  1
  Rb  Rb4  1  0.677420  0.322562  0.784463  1
  Rb  Rb5  1  0.822564  0.177591  0.284551  1
  Rb  Rb6  1  0.322562  0.677420  0.215537  1
  Rb  Rb7  1  0.177591  0.822564  0.715449  1
  Li  Li8  1  0.618597  0.618597  0.000000  1
  Li  Li9  1  0.881177  0.881177  0.500000  1
  Li  Li10  1  0.381170  0.381170  0.000000  1
  Li  Li11  1  0.118913  0.118913  0.500000  1
  Tm  Tm12  1  0.868773  0.868773  0.000000  1
  Lu  Lu13  1  0.630829  0.630829  0.500000  1
  Lu  Lu14  1  0.131369  0.131369  0.000000  1
  Lu  Lu15  1  0.368961  0.368961  0.500000  1
  As  As16  1  0.341297  0.158771  0.750022  1
  As  As17  1  0.158771  0.341297  0.249978  1
  As  As18  1  0.657635  0.841243  0.251286  1
  As  As19  1  0.841243  0.657635  0.748714  1
  As  As20  1  0.910052  0.091292  0.767023  1
  As  As21  1  0.590233  0.409662  0.267848  1
  As  As22  1  0.091292  0.910052  0.232977  1
  As  As23  1  0.409662  0.590233  0.732152  1
