# generated using pymatgen
data_LaTh3(SnPd2)2
_symmetry_space_group_name_H-M   'P 1'
_cell_length_a   7.96006180
_cell_length_b   7.96006233
_cell_length_c   3.86362300
_cell_angle_alpha   90.00000000
_cell_angle_beta   90.00000000
_cell_angle_gamma   89.45789575
_symmetry_Int_Tables_number   1
_chemical_formula_structural   LaTh3(SnPd2)2
_chemical_formula_sum   'La1 Th3 Sn2 Pd4'
_cell_volume   244.79819500
_cell_formula_units_Z   1
loop_
 _symmetry_equiv_pos_site_id
 _symmetry_equiv_pos_as_xyz
  1  'x, y, z'
loop_
 _atom_site_type_symbol
 _atom_site_label
 _atom_site_symmetry_multiplicity
 _atom_site_fract_x
 _atom_site_fract_y
 _atom_site_fract_z
 _atom_site_occupancy
  La  La0  1  0.323123  0.823123  0.500000  1
  Th  Th1  1  0.675089  0.175089  0.500000  1
  Th  Th2  1  0.175542  0.323966  0.500000  1
  Th  Th3  1  0.823966  0.675542  0.500000  1
  Sn  Sn4  1  0.001018  0.999780  0.000000  1
  Sn  Sn5  1  0.499780  0.501018  0.000000  1
  Pd  Pd6  1  0.377579  0.134619  0.000000  1
  Pd  Pd7  1  0.119230  0.619230  0.000000  1
  Pd  Pd8  1  0.634619  0.877579  0.000000  1
  Pd  Pd9  1  0.870055  0.370055  0.000000  1
