# generated using pymatgen
data_NdDy5(Ni3As2)6
_symmetry_space_group_name_H-M   'P 1'
_cell_length_a   3.92593200
_cell_length_b   10.87578600
_cell_length_c   12.73616500
_cell_angle_alpha   90.00000000
_cell_angle_beta   90.00000000
_cell_angle_gamma   90.00000000
_symmetry_Int_Tables_number   1
_chemical_formula_structural   NdDy5(Ni3As2)6
_chemical_formula_sum   'Nd1 Dy5 Ni18 As12'
_cell_volume   543.80363136
_cell_formula_units_Z   1
loop_
 _symmetry_equiv_pos_site_id
 _symmetry_equiv_pos_as_xyz
  1  'x, y, z'
loop_
 _atom_site_type_symbol
 _atom_site_label
 _atom_site_symmetry_multiplicity
 _atom_site_fract_x
 _atom_site_fract_y
 _atom_site_fract_z
 _atom_site_occupancy
  Nd  Nd0  1  0.500000  0.000000  0.478489  1
  Dy  Dy1  1  0.000000  0.500000  0.521281  1
  Dy  Dy2  1  0.500000  0.814599  0.206156  1
  Dy  Dy3  1  0.500000  0.185401  0.206156  1
  Dy  Dy4  1  0.000000  0.684565  0.793331  1
  Dy  Dy5  1  0.000000  0.315435  0.793331  1
  Ni  Ni6  1  0.500000  0.500000  0.153476  1
  Ni  Ni7  1  0.000000  0.000000  0.847464  1
  Ni  Ni8  1  0.500000  0.500000  0.697535  1
  Ni  Ni9  1  0.000000  0.000000  0.300632  1
  Ni  Ni10  1  0.000000  0.500000  0.979802  1
  Ni  Ni11  1  0.500000  0.000000  0.019883  1
  Ni  Ni12  1  0.500000  0.333622  0.996664  1
  Ni  Ni13  1  0.500000  0.666378  0.996664  1
  Ni  Ni14  1  0.000000  0.166748  0.003337  1
  Ni  Ni15  1  0.000000  0.833252  0.003337  1
  Ni  Ni16  1  0.500000  0.304695  0.424371  1
  Ni  Ni17  1  0.500000  0.695305  0.424371  1
  Ni  Ni18  1  0.000000  0.197805  0.576743  1
  Ni  Ni19  1  0.000000  0.802195  0.576743  1
  Ni  Ni20  1  0.500000  0.878994  0.710023  1
  Ni  Ni21  1  0.500000  0.121006  0.710023  1
  Ni  Ni22  1  0.000000  0.619686  0.290473  1
  Ni  Ni23  1  0.000000  0.380314  0.290473  1
  As  As24  1  0.500000  0.500000  0.874549  1
  As  As25  1  0.000000  0.000000  0.124651  1
  As  As26  1  0.500000  0.500000  0.342054  1
  As  As27  1  0.000000  0.000000  0.660737  1
  As  As28  1  0.500000  0.314287  0.612276  1
  As  As29  1  0.500000  0.685713  0.612276  1
  As  As30  1  0.000000  0.188100  0.386207  1
  As  As31  1  0.000000  0.811900  0.386207  1
  As  As32  1  0.500000  0.847423  0.892385  1
  As  As33  1  0.500000  0.152577  0.892385  1
  As  As34  1  0.000000  0.652012  0.107758  1
  As  As35  1  0.000000  0.347988  0.107758  1
