# generated using pymatgen
data_CaTbTh(InRh)3
_symmetry_space_group_name_H-M   'P 1'
_cell_length_a   7.55934607
_cell_length_b   7.85530473
_cell_length_c   3.99599400
_cell_angle_alpha   90.00000000
_cell_angle_beta   90.00000000
_cell_angle_gamma   122.27086845
_symmetry_Int_Tables_number   1
_chemical_formula_structural   CaTbTh(InRh)3
_chemical_formula_sum   'Ca1 Tb1 Th1 In3 Rh3'
_cell_volume   200.63323048
_cell_formula_units_Z   1
loop_
 _symmetry_equiv_pos_site_id
 _symmetry_equiv_pos_as_xyz
  1  'x, y, z'
loop_
 _atom_site_type_symbol
 _atom_site_label
 _atom_site_symmetry_multiplicity
 _atom_site_fract_x
 _atom_site_fract_y
 _atom_site_fract_z
 _atom_site_occupancy
  Ca  Ca0  1  0.404831  0.405350  0.500000  1
  Tb  Tb1  1  0.592751  0.000531  0.500000  1
  Th  Th2  1  0.000246  0.583509  0.500000  1
  In  In3  1  0.727059  0.739151  0.000000  1
  In  In4  1  0.003591  0.239240  0.000000  1
  In  In5  1  0.265870  0.014898  0.000000  1
  Rh  Rh6  1  0.307779  0.679542  0.000000  1
  Rh  Rh7  1  0.992641  0.985243  0.500000  1
  Rh  Rh8  1  0.705233  0.352537  0.000000  1
