# generated using pymatgen
data_EuY2AsSe2
_symmetry_space_group_name_H-M   'P 1'
_cell_length_a   4.17403100
_cell_length_b   4.17402999
_cell_length_c   10.28848000
_cell_angle_alpha   90.00000000
_cell_angle_beta   90.00000000
_cell_angle_gamma   120.00000011
_symmetry_Int_Tables_number   1
_chemical_formula_structural   EuY2AsSe2
_chemical_formula_sum   'Eu1 Y2 As1 Se2'
_cell_volume   155.23622881
_cell_formula_units_Z   1
loop_
 _symmetry_equiv_pos_site_id
 _symmetry_equiv_pos_as_xyz
  1  'x, y, z'
loop_
 _atom_site_type_symbol
 _atom_site_label
 _atom_site_symmetry_multiplicity
 _atom_site_fract_x
 _atom_site_fract_y
 _atom_site_fract_z
 _atom_site_occupancy
  Eu  Eu0  1  0.000000  0.000000  0.000000  1
  Y  Y1  1  0.333333  0.666667  0.655111  1
  Y  Y2  1  0.666667  0.333333  0.344889  1
  As  As3  1  0.000000  0.000000  0.500000  1
  Se  Se4  1  0.333333  0.666667  0.177501  1
  Se  Se5  1  0.666667  0.333333  0.822499  1
