# generated using pymatgen
data_YTh7Re(Si4Rh)3
_symmetry_space_group_name_H-M   'P 1'
_cell_length_a   8.28061622
_cell_length_b   8.23871303
_cell_length_c   8.35882663
_cell_angle_alpha   90.00000070
_cell_angle_beta   89.90794447
_cell_angle_gamma   119.83274893
_symmetry_Int_Tables_number   1
_chemical_formula_structural   YTh7Re(Si4Rh)3
_chemical_formula_sum   'Y1 Th7 Re1 Si12 Rh3'
_cell_volume   494.68267814
_cell_formula_units_Z   1
loop_
 _symmetry_equiv_pos_site_id
 _symmetry_equiv_pos_as_xyz
  1  'x, y, z'
loop_
 _atom_site_type_symbol
 _atom_site_label
 _atom_site_symmetry_multiplicity
 _atom_site_fract_x
 _atom_site_fract_y
 _atom_site_fract_z
 _atom_site_occupancy
  Y  Y0  1  0.002143  0.501072  0.753567  1
  Th  Th1  1  0.000615  0.000307  0.251325  1
  Th  Th2  1  0.999852  0.999926  0.747991  1
  Th  Th3  1  0.007493  0.503747  0.245213  1
  Th  Th4  1  0.497096  0.502748  0.245624  1
  Th  Th5  1  0.497726  0.996479  0.753361  1
  Th  Th6  1  0.497096  0.994347  0.245624  1
  Th  Th7  1  0.497726  0.501248  0.753361  1
  Re  Re8  1  0.339320  0.669661  0.001609  1
  Si  Si9  1  0.164143  0.331654  0.995363  1
  Si  Si10  1  0.674626  0.837314  0.001019  1
  Si  Si11  1  0.164953  0.333996  0.498674  1
  Si  Si12  1  0.329889  0.164945  0.002297  1
  Si  Si13  1  0.164143  0.832490  0.995363  1
  Si  Si14  1  0.670082  0.835041  0.496135  1
  Si  Si15  1  0.834425  0.664862  0.998957  1
  Si  Si16  1  0.329745  0.164873  0.499734  1
  Si  Si17  1  0.164953  0.830958  0.498674  1
  Si  Si18  1  0.833765  0.664960  0.501587  1
  Si  Si19  1  0.834425  0.169564  0.998957  1
  Si  Si20  1  0.833765  0.168806  0.501587  1
  Rh  Rh21  1  0.337004  0.668503  0.513468  1
  Rh  Rh22  1  0.662597  0.331298  0.997036  1
  Rh  Rh23  1  0.662413  0.331206  0.503474  1
