# generated using pymatgen
data_Lu6Ti4Al12Rh7
_symmetry_space_group_name_H-M   'P 1'
_cell_length_a   8.92228211
_cell_length_b   8.92228140
_cell_length_c   8.92228100
_cell_angle_alpha   59.99999778
_cell_angle_beta   60.00000041
_cell_angle_gamma   59.99999765
_symmetry_Int_Tables_number   1
_chemical_formula_structural   Lu6Ti4Al12Rh7
_chemical_formula_sum   'Lu6 Ti4 Al12 Rh7'
_cell_volume   502.24168201
_cell_formula_units_Z   1
loop_
 _symmetry_equiv_pos_site_id
 _symmetry_equiv_pos_as_xyz
  1  'x, y, z'
loop_
 _atom_site_type_symbol
 _atom_site_label
 _atom_site_symmetry_multiplicity
 _atom_site_fract_x
 _atom_site_fract_y
 _atom_site_fract_z
 _atom_site_occupancy
  Lu  Lu0  1  0.702564  0.702564  0.297436  1
  Lu  Lu1  1  0.297436  0.702564  0.297436  1
  Lu  Lu2  1  0.702564  0.297436  0.297436  1
  Lu  Lu3  1  0.297436  0.297436  0.702564  1
  Lu  Lu4  1  0.702564  0.297436  0.702564  1
  Lu  Lu5  1  0.297436  0.702564  0.702564  1
  Ti  Ti6  1  0.880869  0.880869  0.357390  1
  Ti  Ti7  1  0.880869  0.357390  0.880869  1
  Ti  Ti8  1  0.357390  0.880869  0.880869  1
  Ti  Ti9  1  0.880869  0.880869  0.880869  1
  Al  Al10  1  0.119317  0.119317  0.642048  1
  Al  Al11  1  0.119317  0.642048  0.119317  1
  Al  Al12  1  0.642048  0.119317  0.119317  1
  Al  Al13  1  0.119317  0.119317  0.119317  1
  Al  Al14  1  0.668959  0.668959  0.993122  1
  Al  Al15  1  0.668959  0.993122  0.668959  1
  Al  Al16  1  0.993122  0.668959  0.668959  1
  Al  Al17  1  0.668959  0.668959  0.668959  1
  Al  Al18  1  0.329694  0.329694  0.010919  1
  Al  Al19  1  0.329694  0.010919  0.329694  1
  Al  Al20  1  0.010919  0.329694  0.329694  1
  Al  Al21  1  0.329694  0.329694  0.329694  1
  Rh  Rh22  1  0.000000  0.000000  0.000000  1
  Rh  Rh23  1  0.998618  0.998618  0.501382  1
  Rh  Rh24  1  0.501382  0.998618  0.501382  1
  Rh  Rh25  1  0.998618  0.501382  0.501382  1
  Rh  Rh26  1  0.501382  0.501382  0.998618  1
  Rh  Rh27  1  0.998618  0.501382  0.998618  1
  Rh  Rh28  1  0.501382  0.998618  0.998618  1
