# generated using pymatgen
data_Tb5Tl2Os
_symmetry_space_group_name_H-M   'P 1'
_cell_length_a   7.73992000
_cell_length_b   9.15908100
_cell_length_c   12.58531300
_cell_angle_alpha   90.00000000
_cell_angle_beta   90.00000000
_cell_angle_gamma   90.00000000
_symmetry_Int_Tables_number   1
_chemical_formula_structural   Tb5Tl2Os
_chemical_formula_sum   'Tb20 Tl8 Os4'
_cell_volume   892.17981352
_cell_formula_units_Z   4
loop_
 _symmetry_equiv_pos_site_id
 _symmetry_equiv_pos_as_xyz
  1  'x, y, z'
loop_
 _atom_site_type_symbol
 _atom_site_label
 _atom_site_symmetry_multiplicity
 _atom_site_fract_x
 _atom_site_fract_y
 _atom_site_fract_z
 _atom_site_occupancy
  Tb  Tb0  1  0.151330  0.750000  0.219155  1
  Tb  Tb1  1  0.651330  0.250000  0.280845  1
  Tb  Tb2  1  0.848670  0.250000  0.780845  1
  Tb  Tb3  1  0.348670  0.750000  0.719155  1
  Tb  Tb4  1  0.453425  0.750000  0.998092  1
  Tb  Tb5  1  0.953425  0.250000  0.501908  1
  Tb  Tb6  1  0.546575  0.250000  0.001908  1
  Tb  Tb7  1  0.046575  0.750000  0.498092  1
  Tb  Tb8  1  0.613542  0.750000  0.308856  1
  Tb  Tb9  1  0.113542  0.250000  0.191144  1
  Tb  Tb10  1  0.386458  0.250000  0.691144  1
  Tb  Tb11  1  0.886458  0.750000  0.808856  1
  Tb  Tb12  1  0.825055  0.965731  0.073143  1
  Tb  Tb13  1  0.325055  0.034269  0.426857  1
  Tb  Tb14  1  0.174945  0.465731  0.926857  1
  Tb  Tb15  1  0.674945  0.534269  0.573143  1
  Tb  Tb16  1  0.174945  0.034269  0.926857  1
  Tb  Tb17  1  0.674945  0.965731  0.573143  1
  Tb  Tb18  1  0.825055  0.534269  0.073143  1
  Tb  Tb19  1  0.325055  0.465731  0.426857  1
  Tl  Tl20  1  0.916348  0.993455  0.334137  1
  Tl  Tl21  1  0.416348  0.006545  0.165863  1
  Tl  Tl22  1  0.083652  0.493455  0.665863  1
  Tl  Tl23  1  0.583652  0.506545  0.834137  1
  Tl  Tl24  1  0.083652  0.006545  0.665863  1
  Tl  Tl25  1  0.583652  0.993455  0.834137  1
  Tl  Tl26  1  0.916348  0.506545  0.334137  1
  Tl  Tl27  1  0.416348  0.493455  0.165863  1
  Os  Os28  1  0.423432  0.750000  0.498511  1
  Os  Os29  1  0.923432  0.250000  0.001489  1
  Os  Os30  1  0.576568  0.250000  0.501489  1
  Os  Os31  1  0.076568  0.750000  0.998511  1
