# generated using pymatgen
data_Pr3Mg2TlIrAu2
_symmetry_space_group_name_H-M   'P 1'
_cell_length_a   7.87540069
_cell_length_b   7.92734387
_cell_length_c   4.05118900
_cell_angle_alpha   90.00000000
_cell_angle_beta   90.00000000
_cell_angle_gamma   118.99667075
_symmetry_Int_Tables_number   1
_chemical_formula_structural   Pr3Mg2TlIrAu2
_chemical_formula_sum   'Pr3 Mg2 Tl1 Ir1 Au2'
_cell_volume   221.21578191
_cell_formula_units_Z   1
loop_
 _symmetry_equiv_pos_site_id
 _symmetry_equiv_pos_as_xyz
  1  'x, y, z'
loop_
 _atom_site_type_symbol
 _atom_site_label
 _atom_site_symmetry_multiplicity
 _atom_site_fract_x
 _atom_site_fract_y
 _atom_site_fract_z
 _atom_site_occupancy
  Pr  Pr0  1  0.574525  0.973200  0.000000  1
  Pr  Pr1  1  0.015875  0.599268  0.000000  1
  Pr  Pr2  1  0.406705  0.429817  0.000000  1
  Mg  Mg3  1  0.248648  0.997435  0.500000  1
  Mg  Mg4  1  0.000653  0.253504  0.500000  1
  Tl  Tl5  1  0.747017  0.744152  0.500000  1
  Ir  Ir6  1  0.318228  0.661044  0.500000  1
  Au  Au7  1  0.662142  0.313519  0.500000  1
  Au  Au8  1  0.026206  0.028062  0.000000  1
