# generated using pymatgen
data_Sm3Pa(Si5Os3)2
_symmetry_space_group_name_H-M   'P 1'
_cell_length_a   8.17759212
_cell_length_b   8.17204601
_cell_length_c   5.84369900
_cell_angle_alpha   70.46590156
_cell_angle_beta   70.44161503
_cell_angle_gamma   93.86053953
_symmetry_Int_Tables_number   1
_chemical_formula_structural   Sm3Pa(Si5Os3)2
_chemical_formula_sum   'Sm3 Pa1 Si10 Os6'
_cell_volume   339.66844782
_cell_formula_units_Z   1
loop_
 _symmetry_equiv_pos_site_id
 _symmetry_equiv_pos_as_xyz
  1  'x, y, z'
loop_
 _atom_site_type_symbol
 _atom_site_label
 _atom_site_symmetry_multiplicity
 _atom_site_fract_x
 _atom_site_fract_y
 _atom_site_fract_z
 _atom_site_occupancy
  Sm  Sm0  1  0.869122  0.601014  0.754622  1
  Sm  Sm1  1  0.397884  0.133604  0.742777  1
  Sm  Sm2  1  0.133728  0.398523  0.243073  1
  Pa  Pa3  1  0.598463  0.869295  0.259596  1
  Si  Si4  1  0.065358  0.261515  0.835147  1
  Si  Si5  1  0.739177  0.936908  0.665873  1
  Si  Si6  1  0.934512  0.737906  0.164861  1
  Si  Si7  1  0.260438  0.062361  0.335725  1
  Si  Si8  1  0.206965  0.793626  0.748668  1
  Si  Si9  1  0.794985  0.209008  0.250608  1
  Si  Si10  1  0.514271  0.486433  0.751584  1
  Si  Si11  1  0.486951  0.511417  0.250609  1
  Si  Si12  1  0.773250  0.227649  0.746665  1
  Si  Si13  1  0.226569  0.775565  0.250765  1
  Os  Os14  1  0.259556  0.544466  0.629350  1
  Os  Os15  1  0.458218  0.745715  0.864000  1
  Os  Os16  1  0.742157  0.458329  0.365888  1
  Os  Os17  1  0.546095  0.250449  0.132950  1
  Os  Os18  1  0.999702  0.996118  0.753582  1
  Os  Os19  1  0.992600  0.000101  0.253657  1
