# generated using pymatgen
data_Zr6BeZn22Rh
_symmetry_space_group_name_H-M   'P 1'
_cell_length_a   8.75208120
_cell_length_b   8.75208164
_cell_length_c   8.75208100
_cell_angle_alpha   60.00000618
_cell_angle_beta   60.00000453
_cell_angle_gamma   60.00000031
_symmetry_Int_Tables_number   1
_chemical_formula_structural   Zr6BeZn22Rh
_chemical_formula_sum   'Zr6 Be1 Zn22 Rh1'
_cell_volume   474.04444838
_cell_formula_units_Z   1
loop_
 _symmetry_equiv_pos_site_id
 _symmetry_equiv_pos_as_xyz
  1  'x, y, z'
loop_
 _atom_site_type_symbol
 _atom_site_label
 _atom_site_symmetry_multiplicity
 _atom_site_fract_x
 _atom_site_fract_y
 _atom_site_fract_z
 _atom_site_occupancy
  Zr  Zr0  1  0.702872  0.297128  0.297128  1
  Zr  Zr1  1  0.297128  0.702872  0.702872  1
  Zr  Zr2  1  0.297128  0.702872  0.297128  1
  Zr  Zr3  1  0.702872  0.297128  0.702872  1
  Zr  Zr4  1  0.297128  0.297128  0.702872  1
  Zr  Zr5  1  0.702872  0.702872  0.297128  1
  Be  Be6  1  0.500000  0.500000  0.500000  1
  Zn  Zn7  1  0.120185  0.120185  0.120185  1
  Zn  Zn8  1  0.879815  0.879815  0.879815  1
  Zn  Zn9  1  0.120185  0.120185  0.639446  1
  Zn  Zn10  1  0.120185  0.639446  0.120185  1
  Zn  Zn11  1  0.879815  0.879815  0.360554  1
  Zn  Zn12  1  0.879815  0.360554  0.879815  1
  Zn  Zn13  1  0.639446  0.120185  0.120185  1
  Zn  Zn14  1  0.360554  0.879815  0.879815  1
  Zn  Zn15  1  0.500000  0.000000  0.000000  1
  Zn  Zn16  1  0.000000  0.500000  0.500000  1
  Zn  Zn17  1  0.000000  0.500000  0.000000  1
  Zn  Zn18  1  0.500000  0.000000  0.500000  1
  Zn  Zn19  1  0.000000  0.000000  0.500000  1
  Zn  Zn20  1  0.500000  0.500000  0.000000  1
  Zn  Zn21  1  0.336044  0.336044  0.336044  1
  Zn  Zn22  1  0.663956  0.663956  0.663956  1
  Zn  Zn23  1  0.336044  0.336044  0.991867  1
  Zn  Zn24  1  0.336044  0.991867  0.336044  1
  Zn  Zn25  1  0.663956  0.663956  0.008133  1
  Zn  Zn26  1  0.663956  0.008133  0.663956  1
  Zn  Zn27  1  0.991867  0.336044  0.336044  1
  Zn  Zn28  1  0.008133  0.663956  0.663956  1
  Rh  Rh29  1  0.000000  0.000000  0.000000  1
