# generated using pymatgen
data_Tm12MnIn2FeOs
_symmetry_space_group_name_H-M   'P 1'
_cell_length_a   8.27303852
_cell_length_b   8.27303989
_cell_length_c   8.27304009
_cell_angle_alpha   108.72732603
_cell_angle_beta   108.72734762
_cell_angle_gamma   110.96947365
_symmetry_Int_Tables_number   1
_chemical_formula_structural   Tm12MnIn2FeOs
_chemical_formula_sum   'Tm12 Mn1 In2 Fe1 Os1'
_cell_volume   435.66219329
_cell_formula_units_Z   1
loop_
 _symmetry_equiv_pos_site_id
 _symmetry_equiv_pos_as_xyz
  1  'x, y, z'
loop_
 _atom_site_type_symbol
 _atom_site_label
 _atom_site_symmetry_multiplicity
 _atom_site_fract_x
 _atom_site_fract_y
 _atom_site_fract_z
 _atom_site_occupancy
  Tm  Tm0  1  0.192350  0.430527  0.238177  1
  Tm  Tm1  1  0.807515  0.570067  0.762552  1
  Tm  Tm2  1  0.192350  0.954174  0.761823  1
  Tm  Tm3  1  0.954174  0.192350  0.761823  1
  Tm  Tm4  1  0.807515  0.044962  0.237448  1
  Tm  Tm5  1  0.044962  0.807515  0.237448  1
  Tm  Tm6  1  0.430527  0.192350  0.238177  1
  Tm  Tm7  1  0.570067  0.807515  0.762552  1
  Tm  Tm8  1  0.306822  0.306822  0.615431  1
  Tm  Tm9  1  0.691392  0.691392  0.384569  1
  Tm  Tm10  1  0.691392  0.306822  0.000000  1
  Tm  Tm11  1  0.306822  0.691392  0.000000  1
  Mn  Mn12  1  0.388243  0.388243  0.000000  1
  In  In13  1  0.999387  0.499387  0.500000  1
  In  In14  1  0.499387  0.999387  0.500000  1
  Fe  Fe15  1  0.617368  0.617368  0.000000  1
  Os  Os16  1  0.999728  0.999728  0.000000  1
