# generated using pymatgen
data_HoTmMgB2Rh5
_symmetry_space_group_name_H-M   'P 1'
_cell_length_a   9.60545337
_cell_length_b   9.60545337
_cell_length_c   3.17720900
_cell_angle_alpha   90.00000000
_cell_angle_beta   90.00000000
_cell_angle_gamma   89.72643649
_symmetry_Int_Tables_number   1
_chemical_formula_structural   HoTmMgB2Rh5
_chemical_formula_sum   'Ho2 Tm2 Mg2 B4 Rh10'
_cell_volume   293.14100340
_cell_formula_units_Z   2
loop_
 _symmetry_equiv_pos_site_id
 _symmetry_equiv_pos_as_xyz
  1  'x, y, z'
loop_
 _atom_site_type_symbol
 _atom_site_label
 _atom_site_symmetry_multiplicity
 _atom_site_fract_x
 _atom_site_fract_y
 _atom_site_fract_z
 _atom_site_occupancy
  Ho  Ho0  1  0.675665  0.175665  0.000000  1
  Ho  Ho1  1  0.324335  0.824335  0.000000  1
  Tm  Tm2  1  0.175521  0.324479  0.000000  1
  Tm  Tm3  1  0.824479  0.675521  0.000000  1
  Mg  Mg4  1  0.000000  0.000000  0.000000  1
  Mg  Mg5  1  0.500000  0.500000  0.000000  1
  B  B6  1  0.122454  0.622454  0.000000  1
  B  B7  1  0.877546  0.377546  0.000000  1
  B  B8  1  0.622969  0.877031  0.000000  1
  B  B9  1  0.377031  0.122969  0.000000  1
  Rh  Rh10  1  0.500000  0.000000  0.500000  1
  Rh  Rh11  1  0.000000  0.500000  0.500000  1
  Rh  Rh12  1  0.222981  0.071870  0.500000  1
  Rh  Rh13  1  0.777019  0.928130  0.500000  1
  Rh  Rh14  1  0.069258  0.775833  0.500000  1
  Rh  Rh15  1  0.724167  0.430742  0.500000  1
  Rh  Rh16  1  0.930742  0.224167  0.500000  1
  Rh  Rh17  1  0.275833  0.569258  0.500000  1
  Rh  Rh18  1  0.571870  0.722981  0.500000  1
  Rh  Rh19  1  0.428130  0.277019  0.500000  1
