# generated using pymatgen
data_Pr2DyTh(ZnSn)4
_symmetry_space_group_name_H-M   'P 1'
_cell_length_a   4.59984600
_cell_length_b   4.59984644
_cell_length_c   16.22330000
_cell_angle_alpha   90.00000000
_cell_angle_beta   90.00000000
_cell_angle_gamma   119.99999682
_symmetry_Int_Tables_number   1
_chemical_formula_structural   Pr2DyTh(ZnSn)4
_chemical_formula_sum   'Pr2 Dy1 Th1 Zn4 Sn4'
_cell_volume   297.27368767
_cell_formula_units_Z   1
loop_
 _symmetry_equiv_pos_site_id
 _symmetry_equiv_pos_as_xyz
  1  'x, y, z'
loop_
 _atom_site_type_symbol
 _atom_site_label
 _atom_site_symmetry_multiplicity
 _atom_site_fract_x
 _atom_site_fract_y
 _atom_site_fract_z
 _atom_site_occupancy
  Pr  Pr0  1  0.000000  0.000000  0.505287  1
  Pr  Pr1  1  0.000000  0.000000  0.994713  1
  Dy  Dy2  1  0.000000  0.000000  0.750000  1
  Th  Th3  1  0.000000  0.000000  0.250000  1
  Zn  Zn4  1  0.333333  0.666667  0.347976  1
  Zn  Zn5  1  0.666667  0.333333  0.663626  1
  Zn  Zn6  1  0.666667  0.333333  0.836374  1
  Zn  Zn7  1  0.333333  0.666667  0.152024  1
  Sn  Sn8  1  0.333333  0.666667  0.879062  1
  Sn  Sn9  1  0.666667  0.333333  0.116967  1
  Sn  Sn10  1  0.666667  0.333333  0.383033  1
  Sn  Sn11  1  0.333333  0.666667  0.620938  1
