# generated using pymatgen
data_Dy16Mg(ZrIr4)3
_symmetry_space_group_name_H-M   'P 1'
_cell_length_a   10.82460200
_cell_length_b   10.82460200
_cell_length_c   6.25228700
_cell_angle_alpha   90.00000000
_cell_angle_beta   90.00000000
_cell_angle_gamma   90.00000000
_symmetry_Int_Tables_number   1
_chemical_formula_structural   Dy16Mg(ZrIr4)3
_chemical_formula_sum   'Dy16 Mg1 Zr3 Ir12'
_cell_volume   732.59302525
_cell_formula_units_Z   1
loop_
 _symmetry_equiv_pos_site_id
 _symmetry_equiv_pos_as_xyz
  1  'x, y, z'
loop_
 _atom_site_type_symbol
 _atom_site_label
 _atom_site_symmetry_multiplicity
 _atom_site_fract_x
 _atom_site_fract_y
 _atom_site_fract_z
 _atom_site_occupancy
  Dy  Dy0  1  0.290954  0.085514  0.373338  1
  Dy  Dy1  1  0.289866  0.912447  0.876059  1
  Dy  Dy2  1  0.710134  0.087553  0.876059  1
  Dy  Dy3  1  0.709046  0.914486  0.373338  1
  Dy  Dy4  1  0.587630  0.789637  0.877338  1
  Dy  Dy5  1  0.583218  0.217333  0.376227  1
  Dy  Dy6  1  0.416782  0.782667  0.376227  1
  Dy  Dy7  1  0.412370  0.210363  0.877338  1
  Dy  Dy8  1  0.217333  0.416782  0.623773  1
  Dy  Dy9  1  0.210363  0.587630  0.122662  1
  Dy  Dy10  1  0.789637  0.412370  0.122662  1
  Dy  Dy11  1  0.782667  0.583218  0.623773  1
  Dy  Dy12  1  0.912447  0.710134  0.123941  1
  Dy  Dy13  1  0.914486  0.290954  0.626662  1
  Dy  Dy14  1  0.085514  0.709046  0.626662  1
  Dy  Dy15  1  0.087553  0.289866  0.123941  1
  Mg  Mg16  1  0.500000  0.500000  0.500000  1
  Zr  Zr17  1  0.000000  0.000000  0.500000  1
  Zr  Zr18  1  0.000000  0.000000  0.000000  1
  Zr  Zr19  1  0.500000  0.500000  0.000000  1
  Ir  Ir20  1  0.854121  0.144387  0.253591  1
  Ir  Ir21  1  0.855613  0.854121  0.746409  1
  Ir  Ir22  1  0.144387  0.145879  0.746409  1
  Ir  Ir23  1  0.145879  0.855613  0.253591  1
  Ir  Ir24  1  0.646500  0.347699  0.761670  1
  Ir  Ir25  1  0.652301  0.646500  0.238330  1
  Ir  Ir26  1  0.347699  0.353500  0.238330  1
  Ir  Ir27  1  0.353500  0.652301  0.761670  1
  Ir  Ir28  1  0.500000  0.000000  0.123887  1
  Ir  Ir29  1  0.500000  0.000000  0.620131  1
  Ir  Ir30  1  0.000000  0.500000  0.876113  1
  Ir  Ir31  1  0.000000  0.500000  0.379869  1
