# generated using pymatgen
data_K2Yb3Si3O10
_symmetry_space_group_name_H-M   'P 1'
_cell_length_a   5.66048187
_cell_length_b   7.39679162
_cell_length_c   11.96045514
_cell_angle_alpha   85.55710454
_cell_angle_beta   80.62616589
_cell_angle_gamma   88.32563836
_symmetry_Int_Tables_number   1
_chemical_formula_structural   K2Yb3Si3O10
_chemical_formula_sum   'K4 Yb6 Si6 O20'
_cell_volume   492.53520030
_cell_formula_units_Z   2
loop_
 _symmetry_equiv_pos_site_id
 _symmetry_equiv_pos_as_xyz
  1  'x, y, z'
loop_
 _atom_site_type_symbol
 _atom_site_label
 _atom_site_symmetry_multiplicity
 _atom_site_fract_x
 _atom_site_fract_y
 _atom_site_fract_z
 _atom_site_occupancy
  K  K0  1  0.721265  0.959427  0.624259  1
  K  K1  1  0.278735  0.040573  0.375741  1
  K  K2  1  0.168583  0.939038  0.847810  1
  K  K3  1  0.831417  0.060962  0.152190  1
  Yb  Yb4  1  0.207628  0.247217  0.623799  1
  Yb  Yb5  1  0.792372  0.752783  0.376201  1
  Yb  Yb6  1  0.171035  0.469092  0.859308  1
  Yb  Yb7  1  0.828965  0.530908  0.140692  1
  Yb  Yb8  1  0.729616  0.493578  0.659859  1
  Yb  Yb9  1  0.270384  0.506422  0.340141  1
  Si  Si10  1  0.248837  0.727553  0.578261  1
  Si  Si11  1  0.751163  0.272447  0.421739  1
  Si  Si12  1  0.659049  0.187738  0.848874  1
  Si  Si13  1  0.340951  0.812262  0.151126  1
  Si  Si14  1  0.362832  0.257689  0.089964  1
  Si  Si15  1  0.637168  0.742311  0.910036  1
  O  O16  1  0.213163  0.934949  0.622304  1
  O  O17  1  0.786837  0.065051  0.377696  1
  O  O18  1  0.461014  0.314445  0.459082  1
  O  O19  1  0.538986  0.685555  0.540918  1
  O  O20  1  0.125588  0.568286  0.674271  1
  O  O21  1  0.874412  0.431714  0.325729  1
  O  O22  1  0.888515  0.285971  0.533366  1
  O  O23  1  0.111485  0.714029  0.466634  1
  O  O24  1  0.919574  0.265194  0.793444  1
  O  O25  1  0.080426  0.734806  0.206556  1
  O  O26  1  0.461800  0.254725  0.767788  1
  O  O27  1  0.538200  0.745275  0.232212  1
  O  O28  1  0.581505  0.252440  0.978783  1
  O  O29  1  0.418495  0.747560  0.021217  1
  O  O30  1  0.322883  0.038465  0.138731  1
  O  O31  1  0.677117  0.961535  0.861269  1
  O  O32  1  0.529816  0.641117  0.815176  1
  O  O33  1  0.470184  0.358883  0.184824  1
  O  O34  1  0.118592  0.336381  0.049814  1
  O  O35  1  0.881408  0.663619  0.950186  1
