# generated using pymatgen
data_Hf3Ta3(B2Os5)2
_symmetry_space_group_name_H-M   'P 1'
_cell_length_a   9.53467600
_cell_length_b   9.53467625
_cell_length_c   3.09335400
_cell_angle_alpha   90.00000000
_cell_angle_beta   90.00000000
_cell_angle_gamma   90.02942105
_symmetry_Int_Tables_number   1
_chemical_formula_structural   Hf3Ta3(B2Os5)2
_chemical_formula_sum   'Hf3 Ta3 B4 Os10'
_cell_volume   281.21692609
_cell_formula_units_Z   1
loop_
 _symmetry_equiv_pos_site_id
 _symmetry_equiv_pos_as_xyz
  1  'x, y, z'
loop_
 _atom_site_type_symbol
 _atom_site_label
 _atom_site_symmetry_multiplicity
 _atom_site_fract_x
 _atom_site_fract_y
 _atom_site_fract_z
 _atom_site_occupancy
  Hf  Hf0  1  0.823817  0.676919  0.000000  1
  Hf  Hf1  1  0.176919  0.323817  0.000000  1
  Hf  Hf2  1  0.323748  0.823748  0.000000  1
  Ta  Ta3  1  0.677147  0.177147  0.000000  1
  Ta  Ta4  1  0.499344  0.500711  0.000000  1
  Ta  Ta5  1  0.000711  0.999344  0.000000  1
  B  B6  1  0.620889  0.878389  0.000000  1
  B  B7  1  0.378389  0.120889  0.000000  1
  B  B8  1  0.120532  0.620532  0.000000  1
  B  B9  1  0.879183  0.379183  0.000000  1
  Os  Os10  1  0.570732  0.719004  0.500000  1
  Os  Os11  1  0.433579  0.280776  0.500000  1
  Os  Os12  1  0.069924  0.781251  0.500000  1
  Os  Os13  1  0.924500  0.216654  0.500000  1
  Os  Os14  1  0.281251  0.569924  0.500000  1
  Os  Os15  1  0.716654  0.424500  0.500000  1
  Os  Os16  1  0.219004  0.070732  0.500000  1
  Os  Os17  1  0.780776  0.933579  0.500000  1
  Os  Os18  1  0.504063  0.004063  0.500000  1
  Os  Os19  1  0.998840  0.498840  0.500000  1
