# generated using pymatgen
data_La3Yb5(GdIr2)2
_symmetry_space_group_name_H-M   'P 1'
_cell_length_a   6.66114129
_cell_length_b   7.34045249
_cell_length_c   8.69988000
_cell_angle_alpha   96.42603496
_cell_angle_beta   111.96241966
_cell_angle_gamma   89.65030986
_symmetry_Int_Tables_number   1
_chemical_formula_structural   La3Yb5(GdIr2)2
_chemical_formula_sum   'La3 Yb5 Gd2 Ir4'
_cell_volume   391.74303551
_cell_formula_units_Z   1
loop_
 _symmetry_equiv_pos_site_id
 _symmetry_equiv_pos_as_xyz
  1  'x, y, z'
loop_
 _atom_site_type_symbol
 _atom_site_label
 _atom_site_symmetry_multiplicity
 _atom_site_fract_x
 _atom_site_fract_y
 _atom_site_fract_z
 _atom_site_occupancy
  La  La0  1  0.647594  0.316620  0.434847  1
  La  La1  1  0.791897  0.820583  0.435418  1
  La  La2  1  0.348809  0.685303  0.568070  1
  Yb  Yb3  1  0.804251  0.082998  0.825311  1
  Yb  Yb4  1  0.978953  0.417447  0.176866  1
  Yb  Yb5  1  0.194990  0.917265  0.174964  1
  Yb  Yb6  1  0.020378  0.581312  0.822084  1
  Yb  Yb7  1  0.213190  0.183571  0.565127  1
  Gd  Gd8  1  0.432815  0.247795  0.993299  1
  Gd  Gd9  1  0.563120  0.749255  0.000172  1
  Ir  Ir10  1  0.597579  0.432581  0.780486  1
  Ir  Ir11  1  0.809900  0.070632  0.211697  1
  Ir  Ir12  1  0.409864  0.569274  0.224430  1
  Ir  Ir13  1  0.186661  0.925366  0.787227  1
