# generated using pymatgen
data_HfScP7IrRu11
_symmetry_space_group_name_H-M   'P 1'
_cell_length_a   9.33493228
_cell_length_b   9.38668717
_cell_length_c   3.91079500
_cell_angle_alpha   90.00000000
_cell_angle_beta   90.00000000
_cell_angle_gamma   119.72216597
_symmetry_Int_Tables_number   1
_chemical_formula_structural   HfScP7IrRu11
_chemical_formula_sum   'Hf1 Sc1 P7 Ir1 Ru11'
_cell_volume   297.59681030
_cell_formula_units_Z   1
loop_
 _symmetry_equiv_pos_site_id
 _symmetry_equiv_pos_as_xyz
  1  'x, y, z'
loop_
 _atom_site_type_symbol
 _atom_site_label
 _atom_site_symmetry_multiplicity
 _atom_site_fract_x
 _atom_site_fract_y
 _atom_site_fract_z
 _atom_site_occupancy
  Hf  Hf0  1  0.668583  0.335850  0.500000  1
  Sc  Sc1  1  0.331666  0.663485  0.000000  1
  P  P2  1  0.594978  0.714381  0.500000  1
  P  P3  1  0.999932  0.000467  0.000000  1
  P  P4  1  0.275966  0.873811  0.500000  1
  P  P5  1  0.123335  0.404465  0.500000  1
  P  P6  1  0.885499  0.576229  0.000000  1
  P  P7  1  0.427088  0.310607  0.000000  1
  P  P8  1  0.695197  0.120198  0.000000  1
  Ir  Ir9  1  0.548276  0.942429  0.500000  1
  Ru  Ru10  1  0.394330  0.444162  0.500000  1
  Ru  Ru11  1  0.911734  0.126586  0.500000  1
  Ru  Ru12  1  0.212459  0.086067  0.500000  1
  Ru  Ru13  1  0.874588  0.790446  0.500000  1
  Ru  Ru14  1  0.724354  0.891146  0.000000  1
  Ru  Ru15  1  0.112382  0.837163  0.000000  1
  Ru  Ru16  1  0.163777  0.273444  0.000000  1
  Ru  Ru17  1  0.434405  0.075069  0.000000  1
  Ru  Ru18  1  0.928513  0.359404  0.000000  1
  Ru  Ru19  1  0.643023  0.570351  0.000000  1
  Ru  Ru20  1  0.049914  0.604241  0.500000  1
