# generated using pymatgen
data_SrLa2Th(Al3Ir)6
_symmetry_space_group_name_H-M   'P 1'
_cell_length_a   7.65903484
_cell_length_b   7.65339489
_cell_length_c   9.66521700
_cell_angle_alpha   90.00000000
_cell_angle_beta   90.00000000
_cell_angle_gamma   119.24047654
_symmetry_Int_Tables_number   1
_chemical_formula_structural   SrLa2Th(Al3Ir)6
_chemical_formula_sum   'Sr1 La2 Th1 Al18 Ir6'
_cell_volume   494.36036300
_cell_formula_units_Z   1
loop_
 _symmetry_equiv_pos_site_id
 _symmetry_equiv_pos_as_xyz
  1  'x, y, z'
loop_
 _atom_site_type_symbol
 _atom_site_label
 _atom_site_symmetry_multiplicity
 _atom_site_fract_x
 _atom_site_fract_y
 _atom_site_fract_z
 _atom_site_occupancy
  Sr  Sr0  1  0.993980  0.671843  0.250000  1
  La  La1  1  0.670844  0.995112  0.250000  1
  La  La2  1  0.328076  0.003206  0.750000  1
  Th  Th3  1  0.003239  0.328120  0.750000  1
  Al  Al4  1  0.131656  0.133220  0.250000  1
  Al  Al5  1  0.866818  0.866940  0.750000  1
  Al  Al6  1  0.004539  0.337528  0.073656  1
  Al  Al7  1  0.997016  0.665715  0.927811  1
  Al  Al8  1  0.997016  0.665715  0.572189  1
  Al  Al9  1  0.334466  0.003351  0.427848  1
  Al  Al10  1  0.004539  0.337528  0.426344  1
  Al  Al11  1  0.662640  0.994986  0.573919  1
  Al  Al12  1  0.662640  0.994986  0.926081  1
  Al  Al13  1  0.334466  0.003351  0.072152  1
  Al  Al14  1  0.335949  0.334617  0.545348  1
  Al  Al15  1  0.666622  0.665487  0.459805  1
  Al  Al16  1  0.666622  0.665487  0.040195  1
  Al  Al17  1  0.335949  0.334617  0.954652  1
  Al  Al18  1  0.339956  0.545182  0.250000  1
  Al  Al19  1  0.661536  0.455233  0.750000  1
  Al  Al20  1  0.543775  0.336087  0.250000  1
  Al  Al21  1  0.454296  0.658214  0.750000  1
  Ir  Ir22  1  0.671839  0.328776  0.997268  1
  Ir  Ir23  1  0.329478  0.669494  0.997422  1
  Ir  Ir24  1  0.329478  0.669494  0.502578  1
  Ir  Ir25  1  0.671839  0.328776  0.502732  1
  Ir  Ir26  1  0.000365  0.003468  0.996421  1
  Ir  Ir27  1  0.000365  0.003468  0.503579  1
