# generated using pymatgen
data_Cs4Sn2BiAu6
_symmetry_space_group_name_H-M   'P 1'
_cell_length_a   11.09290606
_cell_length_b   11.09290619
_cell_length_c   11.09290689
_cell_angle_alpha   37.43368634
_cell_angle_beta   37.43368820
_cell_angle_gamma   37.43368481
_symmetry_Int_Tables_number   1
_chemical_formula_structural   Cs4Sn2BiAu6
_chemical_formula_sum   'Cs4 Sn2 Bi1 Au6'
_cell_volume   452.24527249
_cell_formula_units_Z   1
loop_
 _symmetry_equiv_pos_site_id
 _symmetry_equiv_pos_as_xyz
  1  'x, y, z'
loop_
 _atom_site_type_symbol
 _atom_site_label
 _atom_site_symmetry_multiplicity
 _atom_site_fract_x
 _atom_site_fract_y
 _atom_site_fract_z
 _atom_site_occupancy
  Cs  Cs0  1  0.812972  0.812972  0.812972  1
  Cs  Cs1  1  0.684404  0.684404  0.684404  1
  Cs  Cs2  1  0.315596  0.315596  0.315596  1
  Cs  Cs3  1  0.187028  0.187028  0.187028  1
  Sn  Sn4  1  0.451410  0.451410  0.451410  1
  Sn  Sn5  1  0.548590  0.548590  0.548590  1
  Bi  Bi6  1  0.000000  0.000000  0.000000  1
  Au  Au7  1  0.782130  0.782130  0.196429  1
  Au  Au8  1  0.217870  0.803571  0.217870  1
  Au  Au9  1  0.782130  0.196429  0.782130  1
  Au  Au10  1  0.803571  0.217870  0.217870  1
  Au  Au11  1  0.196429  0.782130  0.782130  1
  Au  Au12  1  0.217870  0.217870  0.803571  1
