# generated using pymatgen
data_Th2Mn5NiP7Ir6
_symmetry_space_group_name_H-M   'P 1'
_cell_length_a   9.41823274
_cell_length_b   9.42868331
_cell_length_c   3.92973000
_cell_angle_alpha   90.00000000
_cell_angle_beta   90.00000000
_cell_angle_gamma   119.60233253
_symmetry_Int_Tables_number   1
_chemical_formula_structural   Th2Mn5NiP7Ir6
_chemical_formula_sum   'Th2 Mn5 Ni1 P7 Ir6'
_cell_volume   303.41719483
_cell_formula_units_Z   1
loop_
 _symmetry_equiv_pos_site_id
 _symmetry_equiv_pos_as_xyz
  1  'x, y, z'
loop_
 _atom_site_type_symbol
 _atom_site_label
 _atom_site_symmetry_multiplicity
 _atom_site_fract_x
 _atom_site_fract_y
 _atom_site_fract_z
 _atom_site_occupancy
  Th  Th0  1  0.332322  0.666472  0.000000  1
  Th  Th1  1  0.000340  0.000669  0.500000  1
  Mn  Mn2  1  0.935073  0.490386  0.000000  1
  Mn  Mn3  1  0.510741  0.446350  0.000000  1
  Mn  Mn4  1  0.791776  0.246619  0.500000  1
  Mn  Mn5  1  0.759425  0.549757  0.500000  1
  Mn  Mn6  1  0.449793  0.208308  0.500000  1
  Ni  Ni7  1  0.557534  0.065566  0.000000  1
  P  P8  1  0.774095  0.037535  0.000000  1
  P  P9  1  0.963919  0.736833  0.000000  1
  P  P10  1  0.264307  0.225882  0.000000  1
  P  P11  1  0.383584  0.941160  0.500000  1
  P  P12  1  0.055961  0.443792  0.500000  1
  P  P13  1  0.555830  0.611814  0.500000  1
  P  P14  1  0.667633  0.332331  0.000000  1
  Ir  Ir15  1  0.029292  0.269031  0.000000  1
  Ir  Ir16  1  0.732200  0.761967  0.000000  1
  Ir  Ir17  1  0.239454  0.967808  0.000000  1
  Ir  Ir18  1  0.612007  0.894868  0.500000  1
  Ir  Ir19  1  0.102281  0.715675  0.500000  1
  Ir  Ir20  1  0.282433  0.387178  0.500000  1
