# generated using pymatgen
data_Tb8Ti9Nb2Si16Ir
_symmetry_space_group_name_H-M   'P 1'
_cell_length_a   7.06015720
_cell_length_b   7.06015798
_cell_length_c   12.94481797
_cell_angle_alpha   90.18601037
_cell_angle_beta   89.81399244
_cell_angle_gamma   89.72513404
_symmetry_Int_Tables_number   1
_chemical_formula_structural   Tb8Ti9Nb2Si16Ir
_chemical_formula_sum   'Tb8 Ti9 Nb2 Si16 Ir1'
_cell_volume   645.23087507
_cell_formula_units_Z   1
loop_
 _symmetry_equiv_pos_site_id
 _symmetry_equiv_pos_as_xyz
  1  'x, y, z'
loop_
 _atom_site_type_symbol
 _atom_site_label
 _atom_site_symmetry_multiplicity
 _atom_site_fract_x
 _atom_site_fract_y
 _atom_site_fract_z
 _atom_site_occupancy
  Tb  Tb0  1  0.340096  0.003679  0.467156  1
  Tb  Tb1  1  0.497229  0.841662  0.718538  1
  Tb  Tb2  1  0.501113  0.158299  0.215300  1
  Tb  Tb3  1  0.841662  0.497229  0.281462  1
  Tb  Tb4  1  0.158299  0.501113  0.784700  1
  Tb  Tb5  1  0.658629  0.998301  0.968311  1
  Tb  Tb6  1  0.003679  0.340096  0.532844  1
  Tb  Tb7  1  0.998301  0.658629  0.031689  1
  Ti  Ti8  1  0.673723  0.673723  0.500000  1
  Ti  Ti9  1  0.149172  0.003482  0.875770  1
  Ti  Ti10  1  0.491730  0.658183  0.125775  1
  Ti  Ti11  1  0.508699  0.347529  0.629184  1
  Ti  Ti12  1  0.658183  0.491730  0.874225  1
  Ti  Ti13  1  0.347529  0.508699  0.370816  1
  Ti  Ti14  1  0.848411  0.992462  0.374296  1
  Ti  Ti15  1  0.003482  0.149172  0.124230  1
  Ti  Ti16  1  0.992462  0.848411  0.625704  1
  Nb  Nb17  1  0.175515  0.826590  0.247871  1
  Nb  Nb18  1  0.826590  0.175515  0.752129  1
  Si  Si19  1  0.202715  0.130797  0.685925  1
  Si  Si20  1  0.373365  0.700245  0.934686  1
  Si  Si21  1  0.629775  0.297161  0.435013  1
  Si  Si22  1  0.700245  0.373365  0.065314  1
  Si  Si23  1  0.297161  0.629775  0.564987  1
  Si  Si24  1  0.796689  0.869484  0.184703  1
  Si  Si25  1  0.130797  0.202715  0.314075  1
  Si  Si26  1  0.869484  0.796689  0.815297  1
  Si  Si27  1  0.287304  0.952795  0.061797  1
  Si  Si28  1  0.548273  0.791422  0.315865  1
  Si  Si29  1  0.448568  0.209991  0.818547  1
  Si  Si30  1  0.791422  0.548273  0.684135  1
  Si  Si31  1  0.209991  0.448568  0.181453  1
  Si  Si32  1  0.708223  0.047505  0.564822  1
  Si  Si33  1  0.952795  0.287304  0.938203  1
  Si  Si34  1  0.047505  0.708223  0.435178  1
  Ir  Ir35  1  0.331183  0.331183  0.000000  1
