# generated using pymatgen
data_Sm2Dy4Cd23As
_symmetry_space_group_name_H-M   'P 1'
_cell_length_a   9.97398841
_cell_length_b   9.97398764
_cell_length_c   9.92001800
_cell_angle_alpha   60.17883490
_cell_angle_beta   60.17883742
_cell_angle_gamma   60.05284051
_symmetry_Int_Tables_number   1
_chemical_formula_structural   Sm2Dy4Cd23As
_chemical_formula_sum   'Sm2 Dy4 Cd23 As1'
_cell_volume   699.96750990
_cell_formula_units_Z   1
loop_
 _symmetry_equiv_pos_site_id
 _symmetry_equiv_pos_as_xyz
  1  'x, y, z'
loop_
 _atom_site_type_symbol
 _atom_site_label
 _atom_site_symmetry_multiplicity
 _atom_site_fract_x
 _atom_site_fract_y
 _atom_site_fract_z
 _atom_site_occupancy
  Sm  Sm0  1  0.794908  0.205092  0.794844  1
  Sm  Sm1  1  0.205092  0.794908  0.794844  1
  Dy  Dy2  1  0.797076  0.797076  0.203131  1
  Dy  Dy3  1  0.203568  0.796432  0.204574  1
  Dy  Dy4  1  0.796432  0.203568  0.204574  1
  Dy  Dy5  1  0.202924  0.202924  0.797283  1
  Cd  Cd6  1  0.836401  0.836401  0.490075  1
  Cd  Cd7  1  0.834979  0.493603  0.836418  1
  Cd  Cd8  1  0.493603  0.834979  0.836418  1
  Cd  Cd9  1  0.834952  0.834952  0.836994  1
  Cd  Cd10  1  0.165048  0.165048  0.506896  1
  Cd  Cd11  1  0.165021  0.506397  0.164998  1
  Cd  Cd12  1  0.506397  0.165021  0.164998  1
  Cd  Cd13  1  0.163599  0.163599  0.162874  1
  Cd  Cd14  1  0.621312  0.621312  0.136312  1
  Cd  Cd15  1  0.620995  0.135258  0.620724  1
  Cd  Cd16  1  0.135258  0.620995  0.620724  1
  Cd  Cd17  1  0.622680  0.622680  0.620018  1
  Cd  Cd18  1  0.377320  0.377320  0.865376  1
  Cd  Cd19  1  0.379005  0.864742  0.376975  1
  Cd  Cd20  1  0.864742  0.379005  0.376975  1
  Cd  Cd21  1  0.378688  0.378688  0.378935  1
  Cd  Cd22  1  0.000000  0.000000  0.499406  1
  Cd  Cd23  1  0.500521  0.999866  0.500077  1
  Cd  Cd24  1  0.999866  0.500521  0.500077  1
  Cd  Cd25  1  0.500000  0.500000  0.000543  1
  Cd  Cd26  1  0.000134  0.499479  0.000464  1
  Cd  Cd27  1  0.499479  0.000134  0.000464  1
  Cd  Cd28  1  0.500000  0.500000  0.500508  1
  As  As29  1  0.000000  0.000000  0.003500  1
