# generated using pymatgen
data_Sc3In3PtAu
_symmetry_space_group_name_H-M   'P 1'
_cell_length_a   7.55175200
_cell_length_b   7.55175193
_cell_length_c   3.44430300
_cell_angle_alpha   90.00000000
_cell_angle_beta   90.00000000
_cell_angle_gamma   120.00000028
_symmetry_Int_Tables_number   1
_chemical_formula_structural   Sc3In3PtAu
_chemical_formula_sum   'Sc3 In3 Pt1 Au1'
_cell_volume   170.10904843
_cell_formula_units_Z   1
loop_
 _symmetry_equiv_pos_site_id
 _symmetry_equiv_pos_as_xyz
  1  'x, y, z'
loop_
 _atom_site_type_symbol
 _atom_site_label
 _atom_site_symmetry_multiplicity
 _atom_site_fract_x
 _atom_site_fract_y
 _atom_site_fract_z
 _atom_site_occupancy
  Sc  Sc0  1  0.574761  0.986355  0.500001  1
  Sc  Sc1  1  0.411595  0.425239  0.500001  1
  Sc  Sc2  1  0.013645  0.588405  0.500001  1
  In  In3  1  0.233162  0.999658  0.000000  1
  In  In4  1  0.000342  0.233504  0.000000  1
  In  In5  1  0.766496  0.766838  0.000000  1
  Pt  Pt6  1  0.333333  0.666667  0.000000  1
  Au  Au7  1  0.666667  0.333333  0.000000  1
