# generated using pymatgen
data_Y3Hf3Al2(Ga2Pt3)2
_symmetry_space_group_name_H-M   'P 1'
_cell_length_a   7.22063900
_cell_length_b   7.28135926
_cell_length_c   7.41455300
_cell_angle_alpha   90.00000000
_cell_angle_beta   90.00000000
_cell_angle_gamma   119.72242743
_symmetry_Int_Tables_number   1
_chemical_formula_structural   Y3Hf3Al2(Ga2Pt3)2
_chemical_formula_sum   'Y3 Hf3 Al2 Ga4 Pt6'
_cell_volume   338.54128564
_cell_formula_units_Z   1
loop_
 _symmetry_equiv_pos_site_id
 _symmetry_equiv_pos_as_xyz
  1  'x, y, z'
loop_
 _atom_site_type_symbol
 _atom_site_label
 _atom_site_symmetry_multiplicity
 _atom_site_fract_x
 _atom_site_fract_y
 _atom_site_fract_z
 _atom_site_occupancy
  Y  Y0  1  0.594239  0.999349  0.750000  1
  Y  Y1  1  0.410399  0.412813  0.750000  1
  Y  Y2  1  0.998838  0.587747  0.750000  1
  Hf  Hf3  1  0.392638  0.393743  0.250000  1
  Hf  Hf4  1  0.997401  0.605521  0.250000  1
  Hf  Hf5  1  0.611634  0.000694  0.250000  1
  Al  Al6  1  0.257206  0.999627  0.008909  1
  Al  Al7  1  0.257206  0.999627  0.491091  1
  Ga  Ga8  1  0.002819  0.263902  0.491037  1
  Ga  Ga9  1  0.002819  0.263902  0.008963  1
  Ga  Ga10  1  0.738483  0.736494  0.008960  1
  Ga  Ga11  1  0.738483  0.736494  0.491040  1
  Pt  Pt12  1  0.659509  0.327249  0.469936  1
  Pt  Pt13  1  0.009477  0.999987  0.750000  1
  Pt  Pt14  1  0.659509  0.327249  0.030064  1
  Pt  Pt15  1  0.332267  0.672799  0.031883  1
  Pt  Pt16  1  0.332267  0.672799  0.468117  1
  Pt  Pt17  1  0.004802  0.000006  0.250000  1
