# generated using pymatgen
data_Eu2Cu5Ni5P6
_symmetry_space_group_name_H-M   'P 1'
_cell_length_a   6.25055626
_cell_length_b   6.25055650
_cell_length_c   11.57111281
_cell_angle_alpha   89.15052299
_cell_angle_beta   90.84947687
_cell_angle_gamma   145.85165114
_symmetry_Int_Tables_number   1
_chemical_formula_structural   Eu2Cu5Ni5P6
_chemical_formula_sum   'Eu2 Cu5 Ni5 P6'
_cell_volume   253.73731462
_cell_formula_units_Z   1
loop_
 _symmetry_equiv_pos_site_id
 _symmetry_equiv_pos_as_xyz
  1  'x, y, z'
loop_
 _atom_site_type_symbol
 _atom_site_label
 _atom_site_symmetry_multiplicity
 _atom_site_fract_x
 _atom_site_fract_y
 _atom_site_fract_z
 _atom_site_occupancy
  Eu  Eu0  1  0.161584  0.838416  0.253804  1
  Eu  Eu1  1  0.837130  0.162870  0.748484  1
  Cu  Cu2  1  0.446827  0.553173  0.148014  1
  Cu  Cu3  1  0.450184  0.549816  0.355617  1
  Cu  Cu4  1  0.192539  0.807461  0.927480  1
  Cu  Cu5  1  0.549736  0.450264  0.853547  1
  Cu  Cu6  1  0.002229  0.997771  0.002792  1
  Ni  Ni7  1  0.804355  0.195645  0.435272  1
  Ni  Ni8  1  0.551188  0.448812  0.644399  1
  Ni  Ni9  1  0.200416  0.799584  0.561671  1
  Ni  Ni10  1  0.001266  0.998734  0.502361  1
  Ni  Ni11  1  0.806471  0.193529  0.063853  1
  P  P12  1  0.117504  0.882496  0.736775  1
  P  P13  1  0.377906  0.622094  0.955183  1
  P  P14  1  0.382045  0.617955  0.545173  1
  P  P15  1  0.623118  0.376882  0.462275  1
  P  P16  1  0.622981  0.377019  0.050647  1
  P  P17  1  0.872521  0.127479  0.252652  1
