# generated using pymatgen
data_Dy3Ho13(LuGa3)4
_symmetry_space_group_name_H-M   'P 1'
_cell_length_a   7.54589307
_cell_length_b   7.54629106
_cell_length_c   14.11673002
_cell_angle_alpha   90.00152211
_cell_angle_beta   90.00549192
_cell_angle_gamma   89.98578629
_symmetry_Int_Tables_number   1
_chemical_formula_structural   Dy3Ho13(LuGa3)4
_chemical_formula_sum   'Dy3 Ho13 Lu4 Ga12'
_cell_volume   803.85606298
_cell_formula_units_Z   1
loop_
 _symmetry_equiv_pos_site_id
 _symmetry_equiv_pos_as_xyz
  1  'x, y, z'
loop_
 _atom_site_type_symbol
 _atom_site_label
 _atom_site_symmetry_multiplicity
 _atom_site_fract_x
 _atom_site_fract_y
 _atom_site_fract_z
 _atom_site_occupancy
  Dy  Dy0  1  0.676632  0.662236  0.602899  1
  Dy  Dy1  1  0.676626  0.337729  0.102842  1
  Dy  Dy2  1  0.823365  0.837757  0.397135  1
  Ho  Ho3  1  0.176631  0.837949  0.896909  1
  Ho  Ho4  1  0.323302  0.337916  0.603116  1
  Ho  Ho5  1  0.323288  0.662073  0.103077  1
  Ho  Ho6  1  0.176695  0.162094  0.396884  1
  Ho  Ho7  1  0.823445  0.162095  0.896934  1
  Ho  Ho8  1  0.662074  0.323413  0.396930  1
  Ho  Ho9  1  0.337721  0.323409  0.896892  1
  Ho  Ho10  1  0.162343  0.823566  0.603121  1
  Ho  Ho11  1  0.837927  0.823499  0.103040  1
  Ho  Ho12  1  0.337666  0.676447  0.396925  1
  Ho  Ho13  1  0.662174  0.676719  0.896952  1
  Ho  Ho14  1  0.837907  0.176594  0.603094  1
  Ho  Ho15  1  0.162196  0.176471  0.103065  1
  Lu  Lu16  1  0.000092  0.499952  0.762482  1
  Lu  Lu17  1  0.000145  0.499962  0.262472  1
  Lu  Lu18  1  0.499849  0.999935  0.237579  1
  Lu  Lu19  1  0.499921  0.000096  0.737602  1
  Ga  Ga20  1  0.000437  0.499642  0.494881  1
  Ga  Ga21  1  0.000268  0.500145  0.994826  1
  Ga  Ga22  1  0.499584  0.000371  0.505125  1
  Ga  Ga23  1  0.499793  0.999893  0.005031  1
  Ga  Ga24  1  0.876260  0.876257  0.750036  1
  Ga  Ga25  1  0.876243  0.123885  0.249958  1
  Ga  Ga26  1  0.623704  0.623858  0.250042  1
  Ga  Ga27  1  0.376101  0.623794  0.750055  1
  Ga  Ga28  1  0.123789  0.123795  0.750026  1
  Ga  Ga29  1  0.123972  0.876170  0.249950  1
  Ga  Ga30  1  0.376056  0.376197  0.250048  1
  Ga  Ga31  1  0.623794  0.376079  0.750072  1
