# generated using pymatgen
data_Ho11TmCo4BiIr
_symmetry_space_group_name_H-M   'P 1'
_cell_length_a   8.27322598
_cell_length_b   8.27653860
_cell_length_c   8.27322562
_cell_angle_alpha   110.72620413
_cell_angle_beta   111.12294279
_cell_angle_gamma   106.58699417
_symmetry_Int_Tables_number   1
_chemical_formula_structural   Ho11TmCo4BiIr
_chemical_formula_sum   'Ho11 Tm1 Co4 Bi1 Ir1'
_cell_volume   435.34817991
_cell_formula_units_Z   1
loop_
 _symmetry_equiv_pos_site_id
 _symmetry_equiv_pos_as_xyz
  1  'x, y, z'
loop_
 _atom_site_type_symbol
 _atom_site_label
 _atom_site_symmetry_multiplicity
 _atom_site_fract_x
 _atom_site_fract_y
 _atom_site_fract_z
 _atom_site_occupancy
  Ho  Ho0  1  0.283893  0.182132  0.466357  1
  Ho  Ho1  1  0.715622  0.817780  0.533047  1
  Ho  Ho2  1  0.284734  0.817780  0.102156  1
  Ho  Ho3  1  0.715774  0.182132  0.898240  1
  Ho  Ho4  1  0.620832  0.311328  0.308780  1
  Ho  Ho5  1  0.379669  0.688559  0.691410  1
  Ho  Ho6  1  0.002549  0.311328  0.690495  1
  Ho  Ho7  1  0.997149  0.688559  0.308890  1
  Ho  Ho8  1  0.212660  0.410477  0.197817  1
  Ho  Ho9  1  0.787105  0.589668  0.802562  1
  Ho  Ho10  1  0.212871  0.015077  0.802206  1
  Tm  Tm11  1  0.787642  0.985383  0.197741  1
  Co  Co12  1  0.999688  0.375654  0.375966  1
  Co  Co13  1  0.000118  0.623851  0.623733  1
  Co  Co14  1  0.389298  0.889340  0.500042  1
  Co  Co15  1  0.610881  0.110613  0.499732  1
  Bi  Bi16  1  0.500179  0.500341  0.000163  1
  Ir  Ir17  1  0.999334  0.999998  0.000664  1
