# generated using pymatgen
data_FeTcWBr6
_symmetry_space_group_name_H-M   'P 1'
_cell_length_a   9.85696491
_cell_length_b   9.85696329
_cell_length_c   12.20699700
_cell_angle_alpha   90.00000000
_cell_angle_beta   90.00000000
_cell_angle_gamma   105.74458966
_symmetry_Int_Tables_number   1
_chemical_formula_structural   FeTcWBr6
_chemical_formula_sum   'Fe4 Tc4 W4 Br24'
_cell_volume   1141.52989938
_cell_formula_units_Z   4
loop_
 _symmetry_equiv_pos_site_id
 _symmetry_equiv_pos_as_xyz
  1  'x, y, z'
loop_
 _atom_site_type_symbol
 _atom_site_label
 _atom_site_symmetry_multiplicity
 _atom_site_fract_x
 _atom_site_fract_y
 _atom_site_fract_z
 _atom_site_occupancy
  Fe  Fe0  1  0.861546  0.861546  0.931359  1
  Fe  Fe1  1  0.638454  0.638454  0.431359  1
  Fe  Fe2  1  0.361546  0.361546  0.568641  1
  Fe  Fe3  1  0.138454  0.138454  0.068641  1
  Tc  Tc4  1  0.073270  0.073270  0.858407  1
  Tc  Tc5  1  0.426730  0.426730  0.358407  1
  Tc  Tc6  1  0.573270  0.573270  0.641593  1
  Tc  Tc7  1  0.926730  0.926730  0.141593  1
  W  W8  1  0.388294  0.611706  0.500000  1
  W  W9  1  0.111706  0.888294  0.000000  1
  W  W10  1  0.611706  0.388294  0.500000  1
  W  W11  1  0.888294  0.111706  0.000000  1
  Br  Br12  1  0.660803  0.660803  0.845632  1
  Br  Br13  1  0.839197  0.839197  0.345632  1
  Br  Br14  1  0.160803  0.160803  0.654368  1
  Br  Br15  1  0.339197  0.339197  0.154368  1
  Br  Br16  1  0.226367  0.773633  0.500000  1
  Br  Br17  1  0.273633  0.726367  0.000000  1
  Br  Br18  1  0.773633  0.226367  0.500000  1
  Br  Br19  1  0.726367  0.273633  0.000000  1
  Br  Br20  1  0.324553  0.089891  0.927209  1
  Br  Br21  1  0.175447  0.410109  0.427209  1
  Br  Br22  1  0.589891  0.824553  0.572791  1
  Br  Br23  1  0.910109  0.675447  0.072791  1
  Br  Br24  1  0.946412  0.181346  0.204974  1
  Br  Br25  1  0.553588  0.318654  0.704974  1
  Br  Br26  1  0.681346  0.446412  0.295026  1
  Br  Br27  1  0.818654  0.053588  0.795026  1
  Br  Br28  1  0.053588  0.818654  0.795026  1
  Br  Br29  1  0.446412  0.681346  0.295026  1
  Br  Br30  1  0.318654  0.553588  0.704974  1
  Br  Br31  1  0.181346  0.946412  0.204974  1
  Br  Br32  1  0.089891  0.324553  0.927209  1
  Br  Br33  1  0.410109  0.175447  0.427209  1
  Br  Br34  1  0.824553  0.589891  0.572791  1
  Br  Br35  1  0.675447  0.910109  0.072791  1
