# generated using pymatgen
data_CaLa2TlIn2Rh3
_symmetry_space_group_name_H-M   'P 1'
_cell_length_a   7.80054701
_cell_length_b   7.49106956
_cell_length_c   4.11300000
_cell_angle_alpha   90.00000000
_cell_angle_beta   90.00000000
_cell_angle_gamma   118.69605439
_symmetry_Int_Tables_number   1
_chemical_formula_structural   CaLa2TlIn2Rh3
_chemical_formula_sum   'Ca1 La2 Tl1 In2 Rh3'
_cell_volume   210.82200444
_cell_formula_units_Z   1
loop_
 _symmetry_equiv_pos_site_id
 _symmetry_equiv_pos_as_xyz
  1  'x, y, z'
loop_
 _atom_site_type_symbol
 _atom_site_label
 _atom_site_symmetry_multiplicity
 _atom_site_fract_x
 _atom_site_fract_y
 _atom_site_fract_z
 _atom_site_occupancy
  Ca  Ca0  1  0.000000  0.594298  0.500000  1
  La  La1  1  0.586817  0.001216  0.500000  1
  La  La2  1  0.413183  0.414399  0.500000  1
  Tl  Tl3  1  0.000000  0.270000  0.000000  1
  In  In4  1  0.237853  0.985502  0.000000  1
  In  In5  1  0.762147  0.747649  0.000000  1
  Rh  Rh6  1  0.000000  0.997699  0.500000  1
  Rh  Rh7  1  0.630251  0.309743  0.000000  1
  Rh  Rh8  1  0.369749  0.679493  0.000000  1
