# generated using pymatgen
data_SmSc7(MnC2)4
_symmetry_space_group_name_H-M   'P 1'
_cell_length_a   4.74875000
_cell_length_b   6.15988294
_cell_length_c   9.14166000
_cell_angle_alpha   90.60811164
_cell_angle_beta   90.00000000
_cell_angle_gamma   90.00000000
_symmetry_Int_Tables_number   1
_chemical_formula_structural   SmSc7(MnC2)4
_chemical_formula_sum   'Sm1 Sc7 Mn4 C8'
_cell_volume   267.39443790
_cell_formula_units_Z   1
loop_
 _symmetry_equiv_pos_site_id
 _symmetry_equiv_pos_as_xyz
  1  'x, y, z'
loop_
 _atom_site_type_symbol
 _atom_site_label
 _atom_site_symmetry_multiplicity
 _atom_site_fract_x
 _atom_site_fract_y
 _atom_site_fract_z
 _atom_site_occupancy
  Sm  Sm0  1  0.250000  0.523724  0.203869  1
  Sc  Sc1  1  0.750000  0.835294  0.057703  1
  Sc  Sc2  1  0.250000  0.669119  0.560454  1
  Sc  Sc3  1  0.750000  0.326581  0.443123  1
  Sc  Sc4  1  0.250000  0.172023  0.937554  1
  Sc  Sc5  1  0.750000  0.467384  0.786800  1
  Sc  Sc6  1  0.250000  0.027265  0.287345  1
  Sc  Sc7  1  0.750000  0.968347  0.716159  1
  Mn  Mn8  1  0.750000  0.275007  0.136518  1
  Mn  Mn9  1  0.250000  0.221879  0.638121  1
  Mn  Mn10  1  0.750000  0.778049  0.366018  1
  Mn  Mn11  1  0.250000  0.726555  0.862627  1
  C  C12  1  0.750000  0.178982  0.949775  1
  C  C13  1  0.250000  0.837430  0.043715  1
  C  C14  1  0.750000  0.678796  0.549898  1
  C  C15  1  0.250000  0.312783  0.455157  1
  C  C16  1  0.750000  0.045997  0.264589  1
  C  C17  1  0.250000  0.454645  0.764476  1
  C  C18  1  0.750000  0.546752  0.240726  1
  C  C19  1  0.250000  0.953387  0.735374  1
