# generated using pymatgen
data_LaPrDyRuI3
_symmetry_space_group_name_H-M   'P 1'
_cell_length_a   4.32031800
_cell_length_b   9.49916001
_cell_length_c   12.45442626
_cell_angle_alpha   88.45132313
_cell_angle_beta   90.00000000
_cell_angle_gamma   90.00000000
_symmetry_Int_Tables_number   1
_chemical_formula_structural   LaPrDyRuI3
_chemical_formula_sum   'La2 Pr2 Dy2 Ru2 I6'
_cell_volume   510.93538067
_cell_formula_units_Z   2
loop_
 _symmetry_equiv_pos_site_id
 _symmetry_equiv_pos_as_xyz
  1  'x, y, z'
loop_
 _atom_site_type_symbol
 _atom_site_label
 _atom_site_symmetry_multiplicity
 _atom_site_fract_x
 _atom_site_fract_y
 _atom_site_fract_z
 _atom_site_occupancy
  La  La0  1  0.250000  0.881407  0.327859  1
  La  La1  1  0.750000  0.118593  0.672141  1
  Pr  Pr2  1  0.250000  0.898543  0.897941  1
  Pr  Pr3  1  0.750000  0.101457  0.102059  1
  Dy  Dy4  1  0.750000  0.691870  0.118648  1
  Dy  Dy5  1  0.250000  0.308130  0.881352  1
  Ru  Ru6  1  0.250000  0.883197  0.131419  1
  Ru  Ru7  1  0.750000  0.116803  0.868581  1
  I  I8  1  0.250000  0.861680  0.619306  1
  I  I9  1  0.750000  0.138320  0.380694  1
  I  I10  1  0.750000  0.623962  0.368205  1
  I  I11  1  0.250000  0.376038  0.631795  1
  I  I12  1  0.250000  0.400359  0.127007  1
  I  I13  1  0.750000  0.599641  0.872993  1
