# generated using pymatgen
data_Sc8Cr9Si16Tc3
_symmetry_space_group_name_H-M   'P 1'
_cell_length_a   6.54978125
_cell_length_b   6.55090132
_cell_length_c   12.08642732
_cell_angle_alpha   90.00520576
_cell_angle_beta   90.01099239
_cell_angle_gamma   90.28003211
_symmetry_Int_Tables_number   1
_chemical_formula_structural   Sc8Cr9Si16Tc3
_chemical_formula_sum   'Sc8 Cr9 Si16 Tc3'
_cell_volume   518.58577669
_cell_formula_units_Z   1
loop_
 _symmetry_equiv_pos_site_id
 _symmetry_equiv_pos_as_xyz
  1  'x, y, z'
loop_
 _atom_site_type_symbol
 _atom_site_label
 _atom_site_symmetry_multiplicity
 _atom_site_fract_x
 _atom_site_fract_y
 _atom_site_fract_z
 _atom_site_occupancy
  Sc  Sc0  1  0.001978  0.663851  0.028662  1
  Sc  Sc1  1  0.998133  0.335687  0.529012  1
  Sc  Sc2  1  0.335646  0.998008  0.471011  1
  Sc  Sc3  1  0.163015  0.497429  0.778228  1
  Sc  Sc4  1  0.836861  0.501379  0.278306  1
  Sc  Sc5  1  0.497436  0.162964  0.221751  1
  Sc  Sc6  1  0.501278  0.836869  0.721634  1
  Sc  Sc7  1  0.663862  0.001955  0.971334  1
  Cr  Cr8  1  0.666688  0.666887  0.500116  1
  Cr  Cr9  1  0.005593  0.828988  0.624175  1
  Cr  Cr10  1  0.988545  0.170323  0.126996  1
  Cr  Cr11  1  0.828912  0.006077  0.375955  1
  Cr  Cr12  1  0.336713  0.491363  0.377797  1
  Cr  Cr13  1  0.670344  0.510938  0.876509  1
  Cr  Cr14  1  0.491397  0.336799  0.622188  1
  Cr  Cr15  1  0.510618  0.670169  0.123336  1
  Cr  Cr16  1  0.170568  0.988287  0.872980  1
  Si  Si17  1  0.032328  0.711065  0.434230  1
  Si  Si18  1  0.623540  0.300573  0.433990  1
  Si  Si19  1  0.379316  0.699425  0.933099  1
  Si  Si20  1  0.199280  0.121073  0.682713  1
  Si  Si21  1  0.300397  0.623497  0.566026  1
  Si  Si22  1  0.699474  0.379246  0.066910  1
  Si  Si23  1  0.799630  0.878940  0.183568  1
  Si  Si24  1  0.121100  0.199397  0.317294  1
  Si  Si25  1  0.966824  0.285608  0.934855  1
  Si  Si26  1  0.710944  0.032561  0.565760  1
  Si  Si27  1  0.214661  0.466955  0.185250  1
  Si  Si28  1  0.785324  0.533985  0.684242  1
  Si  Si29  1  0.466785  0.214482  0.814739  1
  Si  Si30  1  0.534052  0.785252  0.315813  1
  Si  Si31  1  0.285862  0.966655  0.065059  1
  Si  Si32  1  0.879180  0.799878  0.816427  1
  Tc  Tc33  1  0.167270  0.833693  0.249354  1
  Tc  Tc34  1  0.332682  0.332657  0.000011  1
  Tc  Tc35  1  0.833763  0.167083  0.750671  1
