# generated using pymatgen
data_TbHo9In8(PdPt)2
_symmetry_space_group_name_H-M   'P 1'
_cell_length_a   3.60919600
_cell_length_b   8.15359449
_cell_length_c   18.24859936
_cell_angle_alpha   90.07406608
_cell_angle_beta   90.00000000
_cell_angle_gamma   90.00000000
_symmetry_Int_Tables_number   1
_chemical_formula_structural   TbHo9In8(PdPt)2
_chemical_formula_sum   'Tb1 Ho9 In8 Pd2 Pt2'
_cell_volume   537.01788505
_cell_formula_units_Z   1
loop_
 _symmetry_equiv_pos_site_id
 _symmetry_equiv_pos_as_xyz
  1  'x, y, z'
loop_
 _atom_site_type_symbol
 _atom_site_label
 _atom_site_symmetry_multiplicity
 _atom_site_fract_x
 _atom_site_fract_y
 _atom_site_fract_z
 _atom_site_occupancy
  Tb  Tb0  1  0.000000  0.000000  0.000000  1
  Ho  Ho1  1  0.000000  0.118245  0.415737  1
  Ho  Ho2  1  0.000000  0.881755  0.584263  1
  Ho  Ho3  1  0.000000  0.382565  0.915027  1
  Ho  Ho4  1  0.000000  0.617435  0.084973  1
  Ho  Ho5  1  0.000000  0.246363  0.219278  1
  Ho  Ho6  1  0.000000  0.753637  0.780722  1
  Ho  Ho7  1  0.000000  0.261007  0.720330  1
  Ho  Ho8  1  0.000000  0.738993  0.279670  1
  Ho  Ho9  1  0.000000  0.500000  0.500000  1
  In  In10  1  0.500000  0.421547  0.351325  1
  In  In11  1  0.500000  0.578453  0.648675  1
  In  In12  1  0.500000  0.075755  0.849835  1
  In  In13  1  0.500000  0.924245  0.150165  1
  In  In14  1  0.500000  0.293313  0.066688  1
  In  In15  1  0.500000  0.706687  0.933312  1
  In  In16  1  0.500000  0.206665  0.567191  1
  In  In17  1  0.500000  0.793335  0.432809  1
  Pd  Pd18  1  0.500000  0.024646  0.303784  1
  Pd  Pd19  1  0.500000  0.975354  0.696216  1
  Pt  Pt20  1  0.500000  0.475016  0.803418  1
  Pt  Pt21  1  0.500000  0.524984  0.196582  1
