# generated using pymatgen
data_Sc4BeTc3Os4
_symmetry_space_group_name_H-M   'P 1'
_cell_length_a   5.16798422
_cell_length_b   5.09047731
_cell_length_c   8.64780900
_cell_angle_alpha   90.00000000
_cell_angle_beta   90.00000000
_cell_angle_gamma   119.85133738
_symmetry_Int_Tables_number   1
_chemical_formula_structural   Sc4BeTc3Os4
_chemical_formula_sum   'Sc4 Be1 Tc3 Os4'
_cell_volume   197.31724426
_cell_formula_units_Z   1
loop_
 _symmetry_equiv_pos_site_id
 _symmetry_equiv_pos_as_xyz
  1  'x, y, z'
loop_
 _atom_site_type_symbol
 _atom_site_label
 _atom_site_symmetry_multiplicity
 _atom_site_fract_x
 _atom_site_fract_y
 _atom_site_fract_z
 _atom_site_occupancy
  Sc  Sc0  1  0.332553  0.666900  0.436465  1
  Sc  Sc1  1  0.670760  0.337842  0.562356  1
  Sc  Sc2  1  0.670760  0.337842  0.937644  1
  Sc  Sc3  1  0.332553  0.666900  0.063535  1
  Be  Be4  1  0.830106  0.658222  0.250000  1
  Tc  Tc5  1  0.168108  0.334655  0.750000  1
  Tc  Tc6  1  0.169699  0.825414  0.750000  1
  Tc  Tc7  1  0.341487  0.164802  0.250000  1
  Os  Os8  1  0.654869  0.826216  0.750000  1
  Os  Os9  1  0.006645  0.007043  0.006709  1
  Os  Os10  1  0.815817  0.167121  0.250000  1
  Os  Os11  1  0.006645  0.007043  0.493291  1
