# generated using pymatgen
data_LiPr3SiS7
_symmetry_space_group_name_H-M   'P 1'
_cell_length_a   10.30930204
_cell_length_b   10.31055575
_cell_length_c   5.74663500
_cell_angle_alpha   90.00000000
_cell_angle_beta   90.00000000
_cell_angle_gamma   120.00460963
_symmetry_Int_Tables_number   1
_chemical_formula_structural   LiPr3SiS7
_chemical_formula_sum   'Li2 Pr6 Si2 S14'
_cell_volume   528.97531879
_cell_formula_units_Z   2
loop_
 _symmetry_equiv_pos_site_id
 _symmetry_equiv_pos_as_xyz
  1  'x, y, z'
loop_
 _atom_site_type_symbol
 _atom_site_label
 _atom_site_symmetry_multiplicity
 _atom_site_fract_x
 _atom_site_fract_y
 _atom_site_fract_z
 _atom_site_occupancy
  Li  Li0  1  0.999998  0.999995  0.008947  1
  Li  Li1  1  0.000002  0.000005  0.508949  1
  Pr  Pr2  1  0.356962  0.235174  0.269057  1
  Pr  Pr3  1  0.764815  0.121767  0.269053  1
  Pr  Pr4  1  0.878203  0.643048  0.269058  1
  Pr  Pr5  1  0.643038  0.764826  0.769056  1
  Pr  Pr6  1  0.235184  0.878233  0.769054  1
  Pr  Pr7  1  0.121798  0.356952  0.769057  1
  Si  Si8  1  0.333444  0.666674  0.355822  1
  Si  Si9  1  0.666556  0.333326  0.855823  1
  S  S10  1  0.081708  0.243091  0.254728  1
  S  S11  1  0.756907  0.838624  0.254728  1
  S  S12  1  0.161358  0.918261  0.254723  1
  S  S13  1  0.666655  0.333337  0.489183  1
  S  S14  1  0.114572  0.591969  0.498436  1
  S  S15  1  0.407977  0.522731  0.498374  1
  S  S16  1  0.477329  0.885307  0.498391  1
  S  S17  1  0.838642  0.081739  0.754723  1
  S  S18  1  0.243092  0.161376  0.754728  1
  S  S19  1  0.918291  0.756909  0.754728  1
  S  S20  1  0.333345  0.666663  0.989182  1
  S  S21  1  0.885429  0.408031  0.998436  1
  S  S22  1  0.592022  0.477269  0.998374  1
  S  S23  1  0.522671  0.114693  0.998390  1
