# generated using pymatgen
data_Li2Tm4Co13Ni5P12
_symmetry_space_group_name_H-M   'P 1'
_cell_length_a   3.66884600
_cell_length_b   10.21366414
_cell_length_c   11.86105816
_cell_angle_alpha   90.01875467
_cell_angle_beta   90.00000000
_cell_angle_gamma   90.00000000
_symmetry_Int_Tables_number   1
_chemical_formula_structural   Li2Tm4Co13Ni5P12
_chemical_formula_sum   'Li2 Tm4 Co13 Ni5 P12'
_cell_volume   444.46182715
_cell_formula_units_Z   1
loop_
 _symmetry_equiv_pos_site_id
 _symmetry_equiv_pos_as_xyz
  1  'x, y, z'
loop_
 _atom_site_type_symbol
 _atom_site_label
 _atom_site_symmetry_multiplicity
 _atom_site_fract_x
 _atom_site_fract_y
 _atom_site_fract_z
 _atom_site_occupancy
  Li  Li0  1  0.250000  0.703077  0.990520  1
  Li  Li1  1  0.250000  0.797664  0.491599  1
  Tm  Tm2  1  0.250000  0.579402  0.703919  1
  Tm  Tm3  1  0.250000  0.920567  0.203755  1
  Tm  Tm4  1  0.750000  0.420250  0.295817  1
  Tm  Tm5  1  0.750000  0.079623  0.796227  1
  Co  Co6  1  0.250000  0.093017  0.985009  1
  Co  Co7  1  0.250000  0.224928  0.174394  1
  Co  Co8  1  0.250000  0.275817  0.676009  1
  Co  Co9  1  0.750000  0.780233  0.827189  1
  Co  Co10  1  0.750000  0.719479  0.327001  1
  Co  Co11  1  0.250000  0.880153  0.698492  1
  Co  Co12  1  0.250000  0.620179  0.198299  1
  Co  Co13  1  0.750000  0.120951  0.299351  1
  Co  Co14  1  0.750000  0.379023  0.800791  1
  Co  Co15  1  0.250000  0.463773  0.931594  1
  Co  Co16  1  0.250000  0.036019  0.431503  1
  Co  Co17  1  0.750000  0.532682  0.066304  1
  Co  Co18  1  0.750000  0.967251  0.566062  1
  Ni  Ni19  1  0.750000  0.287871  0.008737  1
  Ni  Ni20  1  0.750000  0.211925  0.510047  1
  Ni  Ni21  1  0.250000  0.406903  0.484454  1
  Ni  Ni22  1  0.750000  0.591071  0.515808  1
  Ni  Ni23  1  0.750000  0.907554  0.016076  1
  P  P24  1  0.250000  0.423232  0.113007  1
  P  P25  1  0.250000  0.077216  0.613356  1
  P  P26  1  0.750000  0.577338  0.884133  1
  P  P27  1  0.750000  0.922883  0.383864  1
  P  P28  1  0.250000  0.266308  0.865416  1
  P  P29  1  0.250000  0.231620  0.362554  1
  P  P30  1  0.750000  0.728597  0.140502  1
  P  P31  1  0.750000  0.771808  0.641156  1
  P  P32  1  0.250000  0.603074  0.387455  1
  P  P33  1  0.250000  0.899914  0.888688  1
  P  P34  1  0.750000  0.394096  0.612244  1
  P  P35  1  0.750000  0.104502  0.108662  1
