# generated using pymatgen
data_Ti(BeRu)2
_symmetry_space_group_name_H-M   'P 1'
_cell_length_a   6.26242000
_cell_length_b   6.26242000
_cell_length_c   2.98253100
_cell_angle_alpha   90.00000000
_cell_angle_beta   90.00000000
_cell_angle_gamma   90.00000000
_symmetry_Int_Tables_number   1
_chemical_formula_structural   Ti(BeRu)2
_chemical_formula_sum   'Ti2 Be4 Ru4'
_cell_volume   116.96861520
_cell_formula_units_Z   2
loop_
 _symmetry_equiv_pos_site_id
 _symmetry_equiv_pos_as_xyz
  1  'x, y, z'
loop_
 _atom_site_type_symbol
 _atom_site_label
 _atom_site_symmetry_multiplicity
 _atom_site_fract_x
 _atom_site_fract_y
 _atom_site_fract_z
 _atom_site_occupancy
  Ti  Ti0  1  0.000000  0.000000  0.000000  1
  Ti  Ti1  1  0.500000  0.500000  0.000000  1
  Be  Be2  1  0.881600  0.381600  0.000000  1
  Be  Be3  1  0.381600  0.118400  0.000000  1
  Be  Be4  1  0.618400  0.881600  0.000000  1
  Be  Be5  1  0.118400  0.618400  0.000000  1
  Ru  Ru6  1  0.674654  0.174654  0.500000  1
  Ru  Ru7  1  0.174654  0.325346  0.500000  1
  Ru  Ru8  1  0.825346  0.674654  0.500000  1
  Ru  Ru9  1  0.325346  0.825346  0.500000  1
