# generated using pymatgen
data_Ba4U3ReF28
_symmetry_space_group_name_H-M   'P 1'
_cell_length_a   9.94666431
_cell_length_b   5.97960590
_cell_length_c   10.30561860
_cell_angle_alpha   87.43190033
_cell_angle_beta   89.87190274
_cell_angle_gamma   89.42658566
_symmetry_Int_Tables_number   1
_chemical_formula_structural   Ba4U3ReF28
_chemical_formula_sum   'Ba4 U3 Re1 F28'
_cell_volume   612.30139714
_cell_formula_units_Z   1
loop_
 _symmetry_equiv_pos_site_id
 _symmetry_equiv_pos_as_xyz
  1  'x, y, z'
loop_
 _atom_site_type_symbol
 _atom_site_label
 _atom_site_symmetry_multiplicity
 _atom_site_fract_x
 _atom_site_fract_y
 _atom_site_fract_z
 _atom_site_occupancy
  Ba  Ba0  1  0.311789  0.278390  0.508197  1
  Ba  Ba1  1  0.806409  0.719399  0.990986  1
  Ba  Ba2  1  0.689214  0.729179  0.482422  1
  Ba  Ba3  1  0.196237  0.281987  0.016335  1
  U  U4  1  0.388837  0.775016  0.783619  1
  U  U5  1  0.887556  0.224874  0.715180  1
  U  U6  1  0.110454  0.777743  0.286274  1
  Re  Re7  1  0.613500  0.225559  0.218660  1
  F  F8  1  0.405301  0.073963  0.882018  1
  F  F9  1  0.053616  0.346323  0.611298  1
  F  F10  1  0.713486  0.512031  0.231496  1
  F  F11  1  0.281762  0.459956  0.761105  1
  F  F12  1  0.494086  0.989327  0.636779  1
  F  F13  1  0.768643  0.298000  0.545537  1
  F  F14  1  0.766793  0.076027  0.308638  1
  F  F15  1  0.991703  0.003408  0.856821  1
  F  F16  1  0.457098  0.343505  0.121950  1
  F  F17  1  0.221082  0.457170  0.263958  1
  F  F18  1  0.096724  0.075440  0.387190  1
  F  F19  1  0.599735  0.948351  0.128350  1
  F  F20  1  0.272017  0.934849  0.192106  1
  F  F21  1  0.022894  0.574598  0.127128  1
  F  F22  1  0.509874  0.019591  0.339284  1
  F  F23  1  0.007340  0.994889  0.142931  1
  F  F24  1  0.227847  0.941199  0.690222  1
  F  F25  1  0.899673  0.926740  0.613050  1
  F  F26  1  0.532868  0.404451  0.361866  1
  F  F27  1  0.942646  0.655940  0.387247  1
  F  F28  1  0.975390  0.421969  0.878484  1
  F  F29  1  0.726284  0.065935  0.810992  1
  F  F30  1  0.477844  0.571890  0.619136  1
  F  F31  1  0.270075  0.712537  0.955161  1
  F  F32  1  0.231513  0.709080  0.456819  1
  F  F33  1  0.718467  0.273400  0.057913  1
  F  F34  1  0.552688  0.652629  0.890494  1
  F  F35  1  0.778556  0.544656  0.740355  1
