# generated using pymatgen
data_KRb5(SiTe3)2
_symmetry_space_group_name_H-M   'P 1'
_cell_length_a   8.61615319
_cell_length_b   8.76086098
_cell_length_c   9.24799489
_cell_angle_alpha   74.63196448
_cell_angle_beta   75.00948546
_cell_angle_gamma   109.40507082
_symmetry_Int_Tables_number   1
_chemical_formula_structural   KRb5(SiTe3)2
_chemical_formula_sum   'K1 Rb5 Si2 Te6'
_cell_volume   586.94058754
_cell_formula_units_Z   1
loop_
 _symmetry_equiv_pos_site_id
 _symmetry_equiv_pos_as_xyz
  1  'x, y, z'
loop_
 _atom_site_type_symbol
 _atom_site_label
 _atom_site_symmetry_multiplicity
 _atom_site_fract_x
 _atom_site_fract_y
 _atom_site_fract_z
 _atom_site_occupancy
  K  K0  1  0.500000  0.000000  0.000000  1
  Rb  Rb1  1  0.209243  0.208081  0.323567  1
  Rb  Rb2  1  0.000000  0.500000  0.000000  1
  Rb  Rb3  1  0.660459  0.341991  0.499614  1
  Rb  Rb4  1  0.339541  0.658009  0.500386  1
  Rb  Rb5  1  0.790757  0.791919  0.676433  1
  Si  Si6  1  0.104727  0.103775  0.865424  1
  Si  Si7  1  0.895273  0.896225  0.134576  1
  Te  Te8  1  0.644405  0.651110  0.120435  1
  Te  Te9  1  0.355595  0.348890  0.879565  1
  Te  Te10  1  0.756702  0.048765  0.289834  1
  Te  Te11  1  0.944868  0.238091  0.713264  1
  Te  Te12  1  0.243298  0.951235  0.710166  1
  Te  Te13  1  0.055132  0.761909  0.286736  1
