# generated using pymatgen
data_Na2C2O5
_symmetry_space_group_name_H-M   'P 1'
_cell_length_a   5.27777300
_cell_length_b   7.29557410
_cell_length_c   11.57844066
_cell_angle_alpha   88.76875026
_cell_angle_beta   90.00000000
_cell_angle_gamma   90.00000000
_symmetry_Int_Tables_number   1
_chemical_formula_structural   Na2C2O5
_chemical_formula_sum   'Na8 C8 O20'
_cell_volume   445.71779080
_cell_formula_units_Z   4
loop_
 _symmetry_equiv_pos_site_id
 _symmetry_equiv_pos_as_xyz
  1  'x, y, z'
loop_
 _atom_site_type_symbol
 _atom_site_label
 _atom_site_symmetry_multiplicity
 _atom_site_fract_x
 _atom_site_fract_y
 _atom_site_fract_z
 _atom_site_occupancy
  Na  Na0  1  0.422636  0.887337  0.841464  1
  Na  Na1  1  0.577364  0.112663  0.158536  1
  Na  Na2  1  0.922636  0.112663  0.658536  1
  Na  Na3  1  0.077364  0.887337  0.341464  1
  Na  Na4  1  0.948850  0.607879  0.632485  1
  Na  Na5  1  0.051150  0.392121  0.367515  1
  Na  Na6  1  0.448850  0.392121  0.867515  1
  Na  Na7  1  0.551150  0.607879  0.132485  1
  C  C8  1  0.443757  0.336724  0.587460  1
  C  C9  1  0.556243  0.663276  0.412540  1
  C  C10  1  0.943757  0.663276  0.912540  1
  C  C11  1  0.056243  0.336724  0.087460  1
  C  C12  1  0.435298  0.835429  0.596530  1
  C  C13  1  0.564702  0.164571  0.403470  1
  C  C14  1  0.935298  0.164571  0.903470  1
  C  C15  1  0.064702  0.835429  0.096530  1
  O  O16  1  0.231863  0.885539  0.643274  1
  O  O17  1  0.768137  0.114461  0.356726  1
  O  O18  1  0.731863  0.114461  0.856726  1
  O  O19  1  0.268137  0.885539  0.143274  1
  O  O20  1  0.655260  0.844240  0.636021  1
  O  O21  1  0.344740  0.155760  0.363979  1
  O  O22  1  0.155260  0.155760  0.863979  1
  O  O23  1  0.844740  0.844240  0.136021  1
  O  O24  1  0.114180  0.759729  0.986522  1
  O  O25  1  0.885820  0.240271  0.013478  1
  O  O26  1  0.614180  0.240271  0.513478  1
  O  O27  1  0.385820  0.759729  0.486522  1
  O  O28  1  0.211726  0.347125  0.564418  1
  O  O29  1  0.788274  0.652875  0.435582  1
  O  O30  1  0.711726  0.652875  0.935582  1
  O  O31  1  0.288274  0.347125  0.064418  1
  O  O32  1  0.066132  0.599426  0.829474  1
  O  O33  1  0.933868  0.400574  0.170526  1
  O  O34  1  0.566132  0.400574  0.670526  1
  O  O35  1  0.433868  0.599426  0.329474  1
