# generated using pymatgen
data_Tb3Ho4Er5Os4
_symmetry_space_group_name_H-M   'P 1'
_cell_length_a   6.29941815
_cell_length_b   7.38343843
_cell_length_c   9.01703014
_cell_angle_alpha   89.99487515
_cell_angle_beta   90.01954428
_cell_angle_gamma   89.95261221
_symmetry_Int_Tables_number   1
_chemical_formula_structural   Tb3Ho4Er5Os4
_chemical_formula_sum   'Tb3 Ho4 Er5 Os4'
_cell_volume   419.39422008
_cell_formula_units_Z   1
loop_
 _symmetry_equiv_pos_site_id
 _symmetry_equiv_pos_as_xyz
  1  'x, y, z'
loop_
 _atom_site_type_symbol
 _atom_site_label
 _atom_site_symmetry_multiplicity
 _atom_site_fract_x
 _atom_site_fract_y
 _atom_site_fract_z
 _atom_site_occupancy
  Tb  Tb0  1  0.870194  0.538116  0.249994  1
  Tb  Tb1  1  0.629947  0.038051  0.249924  1
  Tb  Tb2  1  0.130138  0.461793  0.750056  1
  Ho  Ho3  1  0.333066  0.675978  0.062795  1
  Ho  Ho4  1  0.167432  0.174909  0.437342  1
  Ho  Ho5  1  0.666771  0.324232  0.563097  1
  Ho  Ho6  1  0.369675  0.961565  0.750012  1
  Er  Er7  1  0.832188  0.824904  0.936553  1
  Er  Er8  1  0.666832  0.324250  0.936912  1
  Er  Er9  1  0.832149  0.824848  0.563428  1
  Er  Er10  1  0.333063  0.675983  0.437219  1
  Er  Er11  1  0.167441  0.174818  0.062613  1
  Os  Os12  1  0.042958  0.883009  0.250037  1
  Os  Os13  1  0.456988  0.382925  0.249909  1
  Os  Os14  1  0.958634  0.116603  0.750165  1
  Os  Os15  1  0.542522  0.618018  0.749944  1
