# generated using pymatgen
data_Y2Si5Ni3P2Ru9
_symmetry_space_group_name_H-M   'P 1'
_cell_length_a   9.49181556
_cell_length_b   9.46460602
_cell_length_c   3.81879600
_cell_angle_alpha   90.00000000
_cell_angle_beta   90.00000000
_cell_angle_gamma   119.96042435
_symmetry_Int_Tables_number   1
_chemical_formula_structural   Y2Si5Ni3P2Ru9
_chemical_formula_sum   'Y2 Si5 Ni3 P2 Ru9'
_cell_volume   297.22270072
_cell_formula_units_Z   1
loop_
 _symmetry_equiv_pos_site_id
 _symmetry_equiv_pos_as_xyz
  1  'x, y, z'
loop_
 _atom_site_type_symbol
 _atom_site_label
 _atom_site_symmetry_multiplicity
 _atom_site_fract_x
 _atom_site_fract_y
 _atom_site_fract_z
 _atom_site_occupancy
  Y  Y0  1  0.666718  0.333800  0.000000  1
  Y  Y1  1  0.333553  0.663866  0.500000  1
  Si  Si2  1  0.293168  0.889223  0.000000  1
  Si  Si3  1  0.598984  0.707389  0.000000  1
  Si  Si4  1  0.108904  0.401636  0.000000  1
  Si  Si5  1  0.395329  0.288837  0.500000  1
  Si  Si6  1  0.001699  0.002058  0.000000  1
  Ni  Ni7  1  0.274146  0.120993  0.000000  1
  Ni  Ni8  1  0.848635  0.727397  0.000000  1
  Ni  Ni9  1  0.877269  0.153579  0.000000  1
  P  P10  1  0.895022  0.604635  0.500000  1
  P  P11  1  0.708147  0.105960  0.500000  1
  Ru  Ru12  1  0.054863  0.627620  0.000000  1
  Ru  Ru13  1  0.573723  0.943551  0.000000  1
  Ru  Ru14  1  0.372513  0.430542  0.000000  1
  Ru  Ru15  1  0.437606  0.056507  0.500000  1
  Ru  Ru16  1  0.628300  0.565519  0.500000  1
  Ru  Ru17  1  0.935697  0.375617  0.500000  1
  Ru  Ru18  1  0.090970  0.884141  0.500000  1
  Ru  Ru19  1  0.794978  0.911131  0.500000  1
  Ru  Ru20  1  0.109773  0.206002  0.500000  1
