# generated using pymatgen
data_Dy5Ho7Co4TcBi
_symmetry_space_group_name_H-M   'P 1'
_cell_length_a   8.31977170
_cell_length_b   8.32001491
_cell_length_c   8.31977321
_cell_angle_alpha   111.55177545
_cell_angle_beta   110.52432621
_cell_angle_gamma   106.38163435
_symmetry_Int_Tables_number   1
_chemical_formula_structural   Dy5Ho7Co4TcBi
_chemical_formula_sum   'Dy5 Ho7 Co4 Tc1 Bi1'
_cell_volume   442.33669401
_cell_formula_units_Z   1
loop_
 _symmetry_equiv_pos_site_id
 _symmetry_equiv_pos_as_xyz
  1  'x, y, z'
loop_
 _atom_site_type_symbol
 _atom_site_label
 _atom_site_symmetry_multiplicity
 _atom_site_fract_x
 _atom_site_fract_y
 _atom_site_fract_z
 _atom_site_occupancy
  Dy  Dy0  1  0.817506  0.716879  0.534240  1
  Dy  Dy1  1  0.182440  0.283190  0.465694  1
  Dy  Dy2  1  0.182641  0.716879  0.899373  1
  Dy  Dy3  1  0.817495  0.283190  0.100751  1
  Dy  Dy4  1  0.689863  0.380896  0.691035  1
  Ho  Ho5  1  0.310193  0.619330  0.309136  1
  Ho  Ho6  1  0.689799  0.998839  0.309040  1
  Ho  Ho7  1  0.310121  0.000964  0.690842  1
  Ho  Ho8  1  0.589853  0.786370  0.803573  1
  Ho  Ho9  1  0.410081  0.213657  0.196308  1
  Ho  Ho10  1  0.982797  0.786370  0.196517  1
  Ho  Ho11  1  0.017350  0.213657  0.803577  1
  Co  Co12  1  0.621563  0.999846  0.621593  1
  Co  Co13  1  0.378253  0.999846  0.378283  1
  Co  Co14  1  0.110747  0.610757  0.500010  1
  Co  Co15  1  0.889347  0.389301  0.499954  1
  Tc  Tc16  1  0.999993  0.000009  0.000015  1
  Bi  Bi17  1  0.499958  0.500019  0.000060  1
