# generated using pymatgen
data_YbY(CoC2)2
_symmetry_space_group_name_H-M   'P 1'
_cell_length_a   3.67581933
_cell_length_b   3.69272687
_cell_length_c   7.30399951
_cell_angle_alpha   82.11907700
_cell_angle_beta   82.53679048
_cell_angle_gamma   90.03331434
_symmetry_Int_Tables_number   1
_chemical_formula_structural   YbY(CoC2)2
_chemical_formula_sum   'Yb1 Y1 Co2 C4'
_cell_volume   97.35758332
_cell_formula_units_Z   1
loop_
 _symmetry_equiv_pos_site_id
 _symmetry_equiv_pos_as_xyz
  1  'x, y, z'
loop_
 _atom_site_type_symbol
 _atom_site_label
 _atom_site_symmetry_multiplicity
 _atom_site_fract_x
 _atom_site_fract_y
 _atom_site_fract_z
 _atom_site_occupancy
  Yb  Yb0  1  0.069316  0.929818  0.999466  1
  Y  Y1  1  0.930694  0.070281  0.500105  1
  Co  Co2  1  0.374777  0.510645  0.693163  1
  Co  Co3  1  0.509762  0.373127  0.192709  1
  C  C4  1  0.443948  0.592513  0.428178  1
  C  C5  1  0.592947  0.444690  0.929482  1
  C  C6  1  0.489052  0.857618  0.273682  1
  C  C7  1  0.856503  0.488305  0.777016  1
