# generated using pymatgen
data_YbTm3(SiNi2)4
_symmetry_space_group_name_H-M   'P 1'
_cell_length_a   5.36515045
_cell_length_b   6.36157600
_cell_length_c   6.95900733
_cell_angle_alpha   90.00000000
_cell_angle_beta   90.11306955
_cell_angle_gamma   90.00000000
_symmetry_Int_Tables_number   1
_chemical_formula_structural   YbTm3(SiNi2)4
_chemical_formula_sum   'Yb1 Tm3 Si4 Ni8'
_cell_volume   237.51611081
_cell_formula_units_Z   1
loop_
 _symmetry_equiv_pos_site_id
 _symmetry_equiv_pos_as_xyz
  1  'x, y, z'
loop_
 _atom_site_type_symbol
 _atom_site_label
 _atom_site_symmetry_multiplicity
 _atom_site_fract_x
 _atom_site_fract_y
 _atom_site_fract_z
 _atom_site_occupancy
  Yb  Yb0  1  0.349832  0.750000  0.026906  1
  Tm  Tm1  1  0.150984  0.750000  0.528509  1
  Tm  Tm2  1  0.648519  0.250000  0.972429  1
  Tm  Tm3  1  0.850725  0.250000  0.471840  1
  Si  Si4  1  0.650392  0.750000  0.375599  1
  Si  Si5  1  0.850879  0.750000  0.875812  1
  Si  Si6  1  0.351514  0.250000  0.625438  1
  Si  Si7  1  0.147127  0.250000  0.124197  1
  Ni  Ni8  1  0.910759  0.556533  0.171302  1
  Ni  Ni9  1  0.593651  0.943870  0.670776  1
  Ni  Ni10  1  0.086815  0.056233  0.828211  1
  Ni  Ni11  1  0.408789  0.443140  0.329345  1
  Ni  Ni12  1  0.086815  0.443767  0.828211  1
  Ni  Ni13  1  0.408789  0.056860  0.329345  1
  Ni  Ni14  1  0.910759  0.943467  0.171302  1
  Ni  Ni15  1  0.593651  0.556130  0.670776  1
