# generated using pymatgen
data_Lu4B8Ru9W
_symmetry_space_group_name_H-M   'P 1'
_cell_length_a   3.06915500
_cell_length_b   8.71225781
_cell_length_c   10.15188693
_cell_angle_alpha   90.36819033
_cell_angle_beta   90.00000000
_cell_angle_gamma   90.00000000
_symmetry_Int_Tables_number   1
_chemical_formula_structural   Lu4B8Ru9W
_chemical_formula_sum   'Lu4 B8 Ru9 W1'
_cell_volume   271.44843680
_cell_formula_units_Z   1
loop_
 _symmetry_equiv_pos_site_id
 _symmetry_equiv_pos_as_xyz
  1  'x, y, z'
loop_
 _atom_site_type_symbol
 _atom_site_label
 _atom_site_symmetry_multiplicity
 _atom_site_fract_x
 _atom_site_fract_y
 _atom_site_fract_z
 _atom_site_occupancy
  Lu  Lu0  1  0.500000  0.841657  0.180220  1
  Lu  Lu1  1  0.500000  0.159644  0.819195  1
  Lu  Lu2  1  0.500000  0.660657  0.682432  1
  Lu  Lu3  1  0.500000  0.341823  0.316258  1
  B  B4  1  0.500000  0.966687  0.588560  1
  B  B5  1  0.500000  0.034433  0.410321  1
  B  B6  1  0.500000  0.849127  0.901701  1
  B  B7  1  0.500000  0.148562  0.098383  1
  B  B8  1  0.500000  0.645460  0.399552  1
  B  B9  1  0.500000  0.351547  0.600983  1
  B  B10  1  0.500000  0.465061  0.913834  1
  B  B11  1  0.500000  0.534310  0.087590  1
  Ru  Ru12  1  0.000000  0.335919  0.049024  1
  Ru  Ru13  1  0.000000  0.842638  0.452859  1
  Ru  Ru14  1  0.000000  0.158479  0.545107  1
  Ru  Ru15  1  0.000000  0.001545  0.999848  1
  Ru  Ru16  1  0.000000  0.406360  0.760967  1
  Ru  Ru17  1  0.000000  0.595060  0.240022  1
  Ru  Ru18  1  0.000000  0.499541  0.500778  1
  Ru  Ru19  1  0.000000  0.909095  0.736702  1
  Ru  Ru20  1  0.000000  0.093668  0.261201  1
  W  W21  1  0.000000  0.658725  0.954467  1
