# generated using pymatgen
data_La7HoSc12Si15Ge
_symmetry_space_group_name_H-M   'P 1'
_cell_length_a   7.29997321
_cell_length_b   7.57235477
_cell_length_c   14.29866123
_cell_angle_alpha   89.83531300
_cell_angle_beta   89.87762860
_cell_angle_gamma   90.24963591
_symmetry_Int_Tables_number   1
_chemical_formula_structural   La7HoSc12Si15Ge
_chemical_formula_sum   'La7 Ho1 Sc12 Si15 Ge1'
_cell_volume   790.38861833
_cell_formula_units_Z   1
loop_
 _symmetry_equiv_pos_site_id
 _symmetry_equiv_pos_as_xyz
  1  'x, y, z'
loop_
 _atom_site_type_symbol
 _atom_site_label
 _atom_site_symmetry_multiplicity
 _atom_site_fract_x
 _atom_site_fract_y
 _atom_site_fract_z
 _atom_site_occupancy
  La  La0  1  0.011260  0.171048  0.097727  1
  La  La1  1  0.988461  0.829299  0.900606  1
  La  La2  1  0.489150  0.669489  0.902705  1
  La  La3  1  0.989809  0.828634  0.597424  1
  La  La4  1  0.509816  0.330051  0.097328  1
  La  La5  1  0.012391  0.169977  0.404028  1
  La  La6  1  0.509491  0.327179  0.403635  1
  Ho  Ho7  1  0.493601  0.677023  0.601374  1
  Sc  Sc8  1  0.161629  0.499575  0.749504  1
  Sc  Sc9  1  0.838348  0.503246  0.250721  1
  Sc  Sc10  1  0.340061  0.994215  0.251139  1
  Sc  Sc11  1  0.660452  0.003403  0.748080  1
  Sc  Sc12  1  0.335211  0.173700  0.627029  1
  Sc  Sc13  1  0.665944  0.822238  0.375036  1
  Sc  Sc14  1  0.168820  0.674589  0.376074  1
  Sc  Sc15  1  0.668939  0.825176  0.125544  1
  Sc  Sc16  1  0.829419  0.327916  0.623830  1
  Sc  Sc17  1  0.331008  0.174815  0.872005  1
  Sc  Sc18  1  0.829847  0.325683  0.873140  1
  Sc  Sc19  1  0.167596  0.676077  0.125008  1
  Si  Si20  1  0.032998  0.130218  0.748601  1
  Si  Si21  1  0.965014  0.871681  0.250647  1
  Si  Si22  1  0.462677  0.627686  0.250044  1
  Si  Si23  1  0.534967  0.377821  0.748144  1
  Si  Si24  1  0.293768  0.879524  0.748057  1
  Si  Si25  1  0.709739  0.113749  0.250218  1
  Si  Si26  1  0.208297  0.386168  0.250384  1
  Si  Si27  1  0.786561  0.617449  0.746925  1
  Si  Si28  1  0.839788  0.539159  0.459326  1
  Si  Si29  1  0.350465  0.955944  0.463697  1
  Si  Si30  1  0.848885  0.537701  0.039496  1
  Si  Si31  1  0.649408  0.030996  0.541560  1
  Si  Si32  1  0.149129  0.462597  0.958917  1
  Si  Si33  1  0.649929  0.038008  0.959537  1
  Si  Si34  1  0.349767  0.963323  0.038814  1
  Ge  Ge35  1  0.167353  0.464638  0.543698  1
