# generated using pymatgen
data_TmBeCrO4
_symmetry_space_group_name_H-M   'P 1'
_cell_length_a   4.71601000
_cell_length_b   6.14787901
_cell_length_c   10.60269001
_cell_angle_alpha   90.00002704
_cell_angle_beta   89.99985829
_cell_angle_gamma   89.99916052
_symmetry_Int_Tables_number   1
_chemical_formula_structural   TmBeCrO4
_chemical_formula_sum   'Tm4 Be4 Cr4 O16'
_cell_volume   307.40865719
_cell_formula_units_Z   4
loop_
 _symmetry_equiv_pos_site_id
 _symmetry_equiv_pos_as_xyz
  1  'x, y, z'
loop_
 _atom_site_type_symbol
 _atom_site_label
 _atom_site_symmetry_multiplicity
 _atom_site_fract_x
 _atom_site_fract_y
 _atom_site_fract_z
 _atom_site_occupancy
  Tm  Tm0  1  0.480748  0.749979  0.224387  1
  Tm  Tm1  1  0.019269  0.750013  0.724421  1
  Tm  Tm2  1  0.519348  0.250009  0.775549  1
  Tm  Tm3  1  0.980675  0.249988  0.275585  1
  Be  Be4  1  0.916565  0.749999  0.417407  1
  Be  Be5  1  0.583393  0.750026  0.917419  1
  Be  Be6  1  0.083252  0.250018  0.582600  1
  Be  Be7  1  0.416707  0.250007  0.082609  1
  Cr  Cr8  1  0.500015  0.499963  0.499973  1
  Cr  Cr9  1  0.000034  0.000035  0.000054  1
  Cr  Cr10  1  0.500027  0.999949  0.499969  1
  Cr  Cr11  1  0.000185  0.499940  0.000054  1
  O  O12  1  0.259191  0.749958  0.420814  1
  O  O13  1  0.240751  0.750035  0.920867  1
  O  O14  1  0.740603  0.249960  0.579114  1
  O  O15  1  0.759336  0.250036  0.079166  1
  O  O16  1  0.757301  0.750019  0.057993  1
  O  O17  1  0.742656  0.750001  0.557973  1
  O  O18  1  0.242858  0.250016  0.942023  1
  O  O19  1  0.257104  0.250006  0.442007  1
  O  O20  1  0.760518  0.963490  0.348487  1
  O  O21  1  0.739444  0.536503  0.848506  1
  O  O22  1  0.239372  0.463512  0.651494  1
  O  O23  1  0.260656  0.036520  0.151517  1
  O  O24  1  0.239316  0.036504  0.651492  1
  O  O25  1  0.260646  0.463489  0.151511  1
  O  O26  1  0.760592  0.536484  0.348492  1
  O  O27  1  0.739437  0.963547  0.848516  1
