# generated using pymatgen
data_Ca2La(GeRh)2
_symmetry_space_group_name_H-M   'P 1'
_cell_length_a   5.71317973
_cell_length_b   7.93812175
_cell_length_c   13.82917485
_cell_angle_alpha   90.04971926
_cell_angle_beta   90.14550346
_cell_angle_gamma   89.73424657
_symmetry_Int_Tables_number   1
_chemical_formula_structural   Ca2La(GeRh)2
_chemical_formula_sum   'Ca8 La4 Ge8 Rh8'
_cell_volume   627.17058226
_cell_formula_units_Z   4
loop_
 _symmetry_equiv_pos_site_id
 _symmetry_equiv_pos_as_xyz
  1  'x, y, z'
loop_
 _atom_site_type_symbol
 _atom_site_label
 _atom_site_symmetry_multiplicity
 _atom_site_fract_x
 _atom_site_fract_y
 _atom_site_fract_z
 _atom_site_occupancy
  Ca  Ca0  1  0.641293  0.248704  0.248074  1
  Ca  Ca1  1  0.361066  0.744151  0.751264  1
  Ca  Ca2  1  0.356274  0.750394  0.250903  1
  Ca  Ca3  1  0.645856  0.256787  0.749257  1
  Ca  Ca4  1  0.141277  0.398226  0.103722  1
  Ca  Ca5  1  0.859191  0.600163  0.897537  1
  Ca  Ca6  1  0.854184  0.608677  0.602761  1
  Ca  Ca7  1  0.853362  0.892462  0.396048  1
  La  La8  1  0.149212  0.399654  0.401970  1
  La  La9  1  0.151154  0.098585  0.599078  1
  La  La10  1  0.154881  0.110824  0.902010  1
  La  La11  1  0.845017  0.892846  0.097186  1
  Ge  Ge12  1  0.148873  0.100138  0.250513  1
  Ge  Ge13  1  0.845746  0.903452  0.751725  1
  Ge  Ge14  1  0.842335  0.598711  0.249487  1
  Ge  Ge15  1  0.153338  0.398291  0.748268  1
  Ge  Ge16  1  0.632811  0.254814  0.000892  1
  Ge  Ge17  1  0.366254  0.745216  0.999392  1
  Ge  Ge18  1  0.383247  0.750704  0.498849  1
  Ge  Ge19  1  0.636563  0.248855  0.500872  1
  Rh  Rh20  1  0.374076  0.032225  0.091476  1
  Rh  Rh21  1  0.624044  0.964390  0.909596  1
  Rh  Rh22  1  0.624795  0.966891  0.591587  1
  Rh  Rh23  1  0.624915  0.529730  0.408947  1
  Rh  Rh24  1  0.366679  0.037180  0.411690  1
  Rh  Rh25  1  0.366191  0.466071  0.587652  1
  Rh  Rh26  1  0.370465  0.463998  0.910338  1
  Rh  Rh27  1  0.626902  0.537858  0.088909  1
