# generated using pymatgen
data_Er10TlGa2Sb3
_symmetry_space_group_name_H-M   'P 1'
_cell_length_a   8.77122100
_cell_length_b   8.75718552
_cell_length_c   6.39451500
_cell_angle_alpha   90.00000000
_cell_angle_beta   90.00000000
_cell_angle_gamma   120.02467156
_symmetry_Int_Tables_number   1
_chemical_formula_structural   Er10TlGa2Sb3
_chemical_formula_sum   'Er10 Tl1 Ga2 Sb3'
_cell_volume   425.26028282
_cell_formula_units_Z   1
loop_
 _symmetry_equiv_pos_site_id
 _symmetry_equiv_pos_as_xyz
  1  'x, y, z'
loop_
 _atom_site_type_symbol
 _atom_site_label
 _atom_site_symmetry_multiplicity
 _atom_site_fract_x
 _atom_site_fract_y
 _atom_site_fract_z
 _atom_site_occupancy
  Er  Er0  1  0.012577  0.770776  0.750000  1
  Er  Er1  1  0.013387  0.242684  0.250000  1
  Er  Er2  1  0.758865  0.754619  0.250000  1
  Er  Er3  1  0.755989  0.001095  0.750000  1
  Er  Er4  1  0.241860  0.230839  0.750000  1
  Er  Er5  1  0.240033  0.008608  0.250000  1
  Er  Er6  1  0.333237  0.666942  0.499144  1
  Er  Er7  1  0.652318  0.327478  0.000609  1
  Er  Er8  1  0.652318  0.327478  0.499391  1
  Er  Er9  1  0.333237  0.666942  0.000856  1
  Tl  Tl10  1  0.997727  0.602987  0.250000  1
  Ga  Ga11  1  0.396833  0.998514  0.750000  1
  Ga  Ga12  1  0.395829  0.398911  0.250000  1
  Sb  Sb13  1  0.997077  0.391905  0.750000  1
  Sb  Sb14  1  0.608353  0.608931  0.750000  1
  Sb  Sb15  1  0.610359  0.001293  0.250000  1
