# generated using pymatgen
data_Pr3Nd(SeO3)6
_symmetry_space_group_name_H-M   'P 1'
_cell_length_a   7.20389348
_cell_length_b   8.15222566
_cell_length_c   9.40017343
_cell_angle_alpha   69.65731068
_cell_angle_beta   76.39536471
_cell_angle_gamma   64.55515981
_symmetry_Int_Tables_number   1
_chemical_formula_structural   Pr3Nd(SeO3)6
_chemical_formula_sum   'Pr3 Nd1 Se6 O18'
_cell_volume   465.00070346
_cell_formula_units_Z   1
loop_
 _symmetry_equiv_pos_site_id
 _symmetry_equiv_pos_as_xyz
  1  'x, y, z'
loop_
 _atom_site_type_symbol
 _atom_site_label
 _atom_site_symmetry_multiplicity
 _atom_site_fract_x
 _atom_site_fract_y
 _atom_site_fract_z
 _atom_site_occupancy
  Pr  Pr0  1  0.628209  0.349861  0.325124  1
  Pr  Pr1  1  0.371985  0.649240  0.675374  1
  Pr  Pr2  1  0.229165  0.309588  0.127463  1
  Nd  Nd3  1  0.769559  0.691218  0.872683  1
  Se  Se4  1  0.453274  0.176015  0.745939  1
  Se  Se5  1  0.193578  0.762998  0.030838  1
  Se  Se6  1  0.863025  0.782039  0.495592  1
  Se  Se7  1  0.805873  0.239449  0.967042  1
  Se  Se8  1  0.548613  0.822354  0.252260  1
  Se  Se9  1  0.134887  0.217192  0.507493  1
  O  O10  1  0.670759  0.020650  0.835214  1
  O  O11  1  0.329609  0.976016  0.164341  1
  O  O12  1  0.637897  0.790150  0.620033  1
  O  O13  1  0.359285  0.213119  0.382965  1
  O  O14  1  0.392644  0.778343  0.890876  1
  O  O15  1  0.327224  0.333504  0.855732  1
  O  O16  1  0.901490  0.346779  0.052009  1
  O  O17  1  0.536811  0.333368  0.594802  1
  O  O18  1  0.699527  0.439241  0.823444  1
  O  O19  1  0.098001  0.655954  0.945174  1
  O  O20  1  0.172757  0.987333  0.582291  1
  O  O21  1  0.023828  0.688788  0.643781  1
  O  O22  1  0.608852  0.221739  0.108417  1
  O  O23  1  0.674996  0.664539  0.142702  1
  O  O24  1  0.468311  0.664163  0.405155  1
  O  O25  1  0.298499  0.564210  0.175624  1
  O  O26  1  0.827670  0.011133  0.418017  1
  O  O27  1  0.973674  0.311013  0.359613  1
