# generated using pymatgen
data_Pr5Cu6Ni13
_symmetry_space_group_name_H-M   'P 1'
_cell_length_a   5.07020011
_cell_length_b   5.07020005
_cell_length_c   16.50994797
_cell_angle_alpha   81.16730286
_cell_angle_beta   81.16730188
_cell_angle_gamma   60.00000549
_symmetry_Int_Tables_number   1
_chemical_formula_structural   Pr5Cu6Ni13
_chemical_formula_sum   'Pr5 Cu6 Ni13'
_cell_volume   361.73502151
_cell_formula_units_Z   1
loop_
 _symmetry_equiv_pos_site_id
 _symmetry_equiv_pos_as_xyz
  1  'x, y, z'
loop_
 _atom_site_type_symbol
 _atom_site_label
 _atom_site_symmetry_multiplicity
 _atom_site_fract_x
 _atom_site_fract_y
 _atom_site_fract_z
 _atom_site_occupancy
  Pr  Pr0  1  0.000000  0.000000  0.000000  1
  Pr  Pr1  1  0.921892  0.921892  0.234325  1
  Pr  Pr2  1  0.078108  0.078108  0.765675  1
  Pr  Pr3  1  0.847965  0.847965  0.456105  1
  Pr  Pr4  1  0.152035  0.152035  0.543895  1
  Cu  Cu5  1  0.749300  0.749301  0.752100  1
  Cu  Cu6  1  0.250699  0.250699  0.247901  1
  Cu  Cu7  1  0.666757  0.666757  0.999729  1
  Cu  Cu8  1  0.333243  0.333243  0.000271  1
  Cu  Cu9  1  0.584123  0.584123  0.247631  1
  Cu  Cu10  1  0.415877  0.415877  0.752369  1
  Ni  Ni11  1  0.500000  0.500000  0.500000  1
  Ni  Ni12  1  0.377099  0.377099  0.371076  1
  Ni  Ni13  1  0.874726  0.377099  0.371076  1
  Ni  Ni14  1  0.377099  0.874726  0.371076  1
  Ni  Ni15  1  0.622901  0.622901  0.628924  1
  Ni  Ni16  1  0.125274  0.622901  0.628924  1
  Ni  Ni17  1  0.622901  0.125274  0.628924  1
  Ni  Ni18  1  0.459172  0.459172  0.123332  1
  Ni  Ni19  1  0.958324  0.459172  0.123332  1
  Ni  Ni20  1  0.459172  0.958324  0.123332  1
  Ni  Ni21  1  0.540828  0.540828  0.876668  1
  Ni  Ni22  1  0.041676  0.540828  0.876668  1
  Ni  Ni23  1  0.540828  0.041676  0.876668  1
