# generated using pymatgen
data_Y8Sc12GaSi15
_symmetry_space_group_name_H-M   'P 1'
_cell_length_a   7.11598644
_cell_length_b   7.40403102
_cell_length_c   14.04843700
_cell_angle_alpha   89.93384864
_cell_angle_beta   89.95244018
_cell_angle_gamma   90.00204269
_symmetry_Int_Tables_number   1
_chemical_formula_structural   Y8Sc12GaSi15
_chemical_formula_sum   'Y8 Sc12 Ga1 Si15'
_cell_volume   740.16903139
_cell_formula_units_Z   1
loop_
 _symmetry_equiv_pos_site_id
 _symmetry_equiv_pos_as_xyz
  1  'x, y, z'
loop_
 _atom_site_type_symbol
 _atom_site_label
 _atom_site_symmetry_multiplicity
 _atom_site_fract_x
 _atom_site_fract_y
 _atom_site_fract_z
 _atom_site_occupancy
  Y  Y0  1  0.011888  0.175496  0.097300  1
  Y  Y1  1  0.987969  0.824823  0.903303  1
  Y  Y2  1  0.487690  0.676227  0.903122  1
  Y  Y3  1  0.987341  0.826605  0.597602  1
  Y  Y4  1  0.512203  0.323957  0.097165  1
  Y  Y5  1  0.011116  0.174021  0.401446  1
  Y  Y6  1  0.512888  0.323516  0.401343  1
  Y  Y7  1  0.489935  0.678058  0.597680  1
  Sc  Sc8  1  0.161245  0.502436  0.751644  1
  Sc  Sc9  1  0.838975  0.497885  0.249865  1
  Sc  Sc10  1  0.339063  0.002176  0.249612  1
  Sc  Sc11  1  0.661637  0.996792  0.750162  1
  Sc  Sc12  1  0.332563  0.173758  0.626169  1
  Sc  Sc13  1  0.668438  0.824119  0.374220  1
  Sc  Sc14  1  0.169934  0.677401  0.373332  1
  Sc  Sc15  1  0.669864  0.823850  0.125433  1
  Sc  Sc16  1  0.828254  0.323419  0.625633  1
  Sc  Sc17  1  0.329856  0.175650  0.874886  1
  Sc  Sc18  1  0.830366  0.323231  0.874919  1
  Sc  Sc19  1  0.169175  0.676661  0.125476  1
  Ga  Ga20  1  0.159789  0.462165  0.539134  1
  Si  Si21  1  0.033699  0.118359  0.750674  1
  Si  Si22  1  0.966556  0.882579  0.249659  1
  Si  Si23  1  0.467571  0.616935  0.249908  1
  Si  Si24  1  0.532278  0.383981  0.749785  1
  Si  Si25  1  0.284613  0.873547  0.750345  1
  Si  Si26  1  0.714306  0.126637  0.249553  1
  Si  Si27  1  0.214130  0.373098  0.249484  1
  Si  Si28  1  0.785802  0.626351  0.750736  1
  Si  Si29  1  0.841604  0.536315  0.460354  1
  Si  Si30  1  0.342107  0.964101  0.460179  1
  Si  Si31  1  0.842636  0.535624  0.038852  1
  Si  Si32  1  0.657274  0.035974  0.538942  1
  Si  Si33  1  0.157333  0.464148  0.961687  1
  Si  Si34  1  0.656895  0.035538  0.960749  1
  Si  Si35  1  0.343006  0.964569  0.039648  1
