# generated using pymatgen
data_Tb10InBi5P2
_symmetry_space_group_name_H-M   'P 1'
_cell_length_a   9.23192491
_cell_length_b   9.23192614
_cell_length_c   6.75897600
_cell_angle_alpha   90.00000000
_cell_angle_beta   90.00000000
_cell_angle_gamma   119.85980144
_symmetry_Int_Tables_number   1
_chemical_formula_structural   Tb10InBi5P2
_chemical_formula_sum   'Tb10 In1 Bi5 P2'
_cell_volume   499.58332171
_cell_formula_units_Z   1
loop_
 _symmetry_equiv_pos_site_id
 _symmetry_equiv_pos_as_xyz
  1  'x, y, z'
loop_
 _atom_site_type_symbol
 _atom_site_label
 _atom_site_symmetry_multiplicity
 _atom_site_fract_x
 _atom_site_fract_y
 _atom_site_fract_z
 _atom_site_occupancy
  Tb  Tb0  1  0.663232  0.334316  0.498098  1
  Tb  Tb1  1  0.334316  0.663232  0.498098  1
  Tb  Tb2  1  0.334316  0.663232  0.001902  1
  Tb  Tb3  1  0.663232  0.334316  0.001902  1
  Tb  Tb4  1  0.761819  0.761819  0.250000  1
  Tb  Tb5  1  0.239381  0.004920  0.250000  1
  Tb  Tb6  1  0.004920  0.239381  0.250000  1
  Tb  Tb7  1  0.237605  0.237605  0.750000  1
  Tb  Tb8  1  0.764035  0.000856  0.750000  1
  Tb  Tb9  1  0.000856  0.764035  0.750000  1
  In  In10  1  0.400266  0.400266  0.250000  1
  Bi  Bi11  1  0.601872  0.999940  0.250000  1
  Bi  Bi12  1  0.999940  0.601872  0.250000  1
  Bi  Bi13  1  0.598699  0.598699  0.750000  1
  Bi  Bi14  1  0.398123  0.998897  0.750000  1
  Bi  Bi15  1  0.998897  0.398123  0.750000  1
  P  P16  1  0.999245  0.999245  0.500404  1
  P  P17  1  0.999245  0.999245  0.999596  1
