# generated using pymatgen
data_Ho3Tm7(InBi2)2
_symmetry_space_group_name_H-M   'P 1'
_cell_length_a   6.48375100
_cell_length_b   9.00149703
_cell_length_c   8.99480454
_cell_angle_alpha   120.02461348
_cell_angle_beta   89.99972169
_cell_angle_gamma   90.00055347
_symmetry_Int_Tables_number   1
_chemical_formula_structural   Ho3Tm7(InBi2)2
_chemical_formula_sum   'Ho3 Tm7 In2 Bi4'
_cell_volume   454.52279067
_cell_formula_units_Z   1
loop_
 _symmetry_equiv_pos_site_id
 _symmetry_equiv_pos_as_xyz
  1  'x, y, z'
loop_
 _atom_site_type_symbol
 _atom_site_label
 _atom_site_symmetry_multiplicity
 _atom_site_fract_x
 _atom_site_fract_y
 _atom_site_fract_z
 _atom_site_occupancy
  Ho  Ho0  1  0.750002  0.236723  0.000000  1
  Ho  Ho1  1  0.749999  0.764188  0.762616  1
  Ho  Ho2  1  0.749999  0.001572  0.237384  1
  Tm  Tm3  1  0.497576  0.332047  0.660035  1
  Tm  Tm4  1  0.497576  0.672012  0.339965  1
  Tm  Tm5  1  0.002426  0.672014  0.339970  1
  Tm  Tm6  1  0.002426  0.332044  0.660030  1
  Tm  Tm7  1  0.250007  0.767494  0.000000  1
  Tm  Tm8  1  0.249998  0.232868  0.242674  1
  Tm  Tm9  1  0.249998  0.990195  0.757326  1
  In  In10  1  0.249994  0.604429  0.605923  1
  In  In11  1  0.249994  0.998505  0.394077  1
  Bi  Bi12  1  0.750007  0.605868  0.000000  1
  Bi  Bi13  1  0.749996  0.396730  0.393180  1
  Bi  Bi14  1  0.749996  0.003550  0.606820  1
  Bi  Bi15  1  0.250002  0.389762  0.000000  1
