# generated using pymatgen
data_Er16Cd4OsPd3
_symmetry_space_group_name_H-M   'P 1'
_cell_length_a   9.63804389
_cell_length_b   9.63804290
_cell_length_c   9.63804415
_cell_angle_alpha   59.35287654
_cell_angle_beta   59.35287836
_cell_angle_gamma   59.35287670
_symmetry_Int_Tables_number   1
_chemical_formula_structural   Er16Cd4OsPd3
_chemical_formula_sum   'Er16 Cd4 Os1 Pd3'
_cell_volume   623.74454628
_cell_formula_units_Z   1
loop_
 _symmetry_equiv_pos_site_id
 _symmetry_equiv_pos_as_xyz
  1  'x, y, z'
loop_
 _atom_site_type_symbol
 _atom_site_label
 _atom_site_symmetry_multiplicity
 _atom_site_fract_x
 _atom_site_fract_y
 _atom_site_fract_z
 _atom_site_occupancy
  Er  Er0  1  0.353383  0.353383  0.353383  1
  Er  Er1  1  0.351141  0.351141  0.943087  1
  Er  Er2  1  0.351141  0.943087  0.351141  1
  Er  Er3  1  0.943087  0.351141  0.351141  1
  Er  Er4  1  0.816304  0.187914  0.187914  1
  Er  Er5  1  0.187878  0.811100  0.811100  1
  Er  Er6  1  0.187914  0.816304  0.187914  1
  Er  Er7  1  0.811100  0.187878  0.811100  1
  Er  Er8  1  0.187914  0.187914  0.816304  1
  Er  Er9  1  0.811100  0.811100  0.187878  1
  Er  Er10  1  0.934237  0.566391  0.566391  1
  Er  Er11  1  0.559004  0.936887  0.936887  1
  Er  Er12  1  0.566391  0.934237  0.566391  1
  Er  Er13  1  0.936887  0.559004  0.936887  1
  Er  Er14  1  0.566391  0.566391  0.934237  1
  Er  Er15  1  0.936887  0.936887  0.559004  1
  Cd  Cd16  1  0.581091  0.581091  0.581091  1
  Cd  Cd17  1  0.581597  0.581597  0.253453  1
  Cd  Cd18  1  0.581597  0.253453  0.581597  1
  Cd  Cd19  1  0.253453  0.581597  0.581597  1
  Os  Os20  1  0.144302  0.144302  0.144302  1
  Pd  Pd21  1  0.144513  0.144513  0.568173  1
  Pd  Pd22  1  0.144513  0.568173  0.144513  1
  Pd  Pd23  1  0.568173  0.144513  0.144513  1
