# generated using pymatgen
data_Tb3MnAlCo9B4
_symmetry_space_group_name_H-M   'P 1'
_cell_length_a   5.12058802
_cell_length_b   5.11710036
_cell_length_c   9.63018500
_cell_angle_alpha   89.99775981
_cell_angle_beta   90.00034907
_cell_angle_gamma   120.02315569
_symmetry_Int_Tables_number   1
_chemical_formula_structural   Tb3MnAlCo9B4
_chemical_formula_sum   'Tb3 Mn1 Al1 Co9 B4'
_cell_volume   218.47796913
_cell_formula_units_Z   1
loop_
 _symmetry_equiv_pos_site_id
 _symmetry_equiv_pos_as_xyz
  1  'x, y, z'
loop_
 _atom_site_type_symbol
 _atom_site_label
 _atom_site_symmetry_multiplicity
 _atom_site_fract_x
 _atom_site_fract_y
 _atom_site_fract_z
 _atom_site_occupancy
  Tb  Tb0  1  0.000020  0.999999  0.000090  1
  Tb  Tb1  1  0.999999  0.000000  0.341104  1
  Tb  Tb2  1  0.999990  0.000003  0.658901  1
  Mn  Mn3  1  0.333347  0.666634  0.000004  1
  Al  Al4  1  0.666623  0.333259  0.000043  1
  Co  Co5  1  0.499939  0.999884  0.499985  1
  Co  Co6  1  0.499942  0.500058  0.499986  1
  Co  Co7  1  0.000120  0.500063  0.499980  1
  Co  Co8  1  0.499284  0.998565  0.207322  1
  Co  Co9  1  0.499254  0.500744  0.207356  1
  Co  Co10  1  0.001443  0.500720  0.207337  1
  Co  Co11  1  0.499280  0.998585  0.792662  1
  Co  Co12  1  0.499230  0.500762  0.792671  1
  Co  Co13  1  0.001443  0.500730  0.792662  1
  B  B14  1  0.333329  0.666729  0.350256  1
  B  B15  1  0.666666  0.333258  0.349819  1
  B  B16  1  0.666659  0.333195  0.650128  1
  B  B17  1  0.333333  0.666810  0.649696  1
