# generated using pymatgen
data_Li2AcNdSb4
_symmetry_space_group_name_H-M   'P 1'
_cell_length_a   4.36843188
_cell_length_b   4.36843253
_cell_length_c   22.83173500
_cell_angle_alpha   90.31703835
_cell_angle_beta   90.31703840
_cell_angle_gamma   90.21976987
_symmetry_Int_Tables_number   1
_chemical_formula_structural   Li2AcNdSb4
_chemical_formula_sum   'Li4 Ac2 Nd2 Sb8'
_cell_volume   435.68596635
_cell_formula_units_Z   2
loop_
 _symmetry_equiv_pos_site_id
 _symmetry_equiv_pos_as_xyz
  1  'x, y, z'
loop_
 _atom_site_type_symbol
 _atom_site_label
 _atom_site_symmetry_multiplicity
 _atom_site_fract_x
 _atom_site_fract_y
 _atom_site_fract_z
 _atom_site_occupancy
  Li  Li0  1  0.244696  0.745239  0.758560  1
  Li  Li1  1  0.254761  0.755304  0.241440  1
  Li  Li2  1  0.755304  0.254761  0.241440  1
  Li  Li3  1  0.745239  0.244696  0.758560  1
  Ac  Ac4  1  0.255875  0.255875  0.377948  1
  Ac  Ac5  1  0.744125  0.744125  0.622052  1
  Nd  Nd6  1  0.751520  0.751520  0.112343  1
  Nd  Nd7  1  0.248480  0.248480  0.887657  1
  Sb  Sb8  1  0.747247  0.747247  0.837470  1
  Sb  Sb9  1  0.252753  0.252753  0.162530  1
  Sb  Sb10  1  0.244338  0.244338  0.680930  1
  Sb  Sb11  1  0.755662  0.755662  0.319070  1
  Sb  Sb12  1  0.240187  0.759813  0.000000  1
  Sb  Sb13  1  0.235839  0.764161  0.500000  1
  Sb  Sb14  1  0.759813  0.240187  0.000000  1
  Sb  Sb15  1  0.764161  0.235839  0.500000  1
