# generated using pymatgen
data_CeHoReB6
_symmetry_space_group_name_H-M   'P 1'
_cell_length_a   3.72298100
_cell_length_b   9.19974700
_cell_length_c   11.58949400
_cell_angle_alpha   90.00000000
_cell_angle_beta   90.00000000
_cell_angle_gamma   90.00000000
_symmetry_Int_Tables_number   1
_chemical_formula_structural   CeHoReB6
_chemical_formula_sum   'Ce4 Ho4 Re4 B24'
_cell_volume   396.94577054
_cell_formula_units_Z   4
loop_
 _symmetry_equiv_pos_site_id
 _symmetry_equiv_pos_as_xyz
  1  'x, y, z'
loop_
 _atom_site_type_symbol
 _atom_site_label
 _atom_site_symmetry_multiplicity
 _atom_site_fract_x
 _atom_site_fract_y
 _atom_site_fract_z
 _atom_site_occupancy
  Ce  Ce0  1  0.000000  0.322531  0.414284  1
  Ce  Ce1  1  0.000000  0.677469  0.585716  1
  Ce  Ce2  1  0.000000  0.822531  0.085716  1
  Ce  Ce3  1  0.000000  0.177469  0.914284  1
  Ho  Ho4  1  0.000000  0.944219  0.372699  1
  Ho  Ho5  1  0.000000  0.055781  0.627301  1
  Ho  Ho6  1  0.000000  0.444219  0.127301  1
  Ho  Ho7  1  0.000000  0.555781  0.872699  1
  Re  Re8  1  0.000000  0.638429  0.320724  1
  Re  Re9  1  0.000000  0.361571  0.679276  1
  Re  Re10  1  0.000000  0.138429  0.179276  1
  Re  Re11  1  0.000000  0.861571  0.820724  1
  B  B12  1  0.500000  0.554559  0.431634  1
  B  B13  1  0.500000  0.445441  0.568366  1
  B  B14  1  0.500000  0.054559  0.068366  1
  B  B15  1  0.500000  0.945441  0.931634  1
  B  B16  1  0.500000  0.748811  0.418482  1
  B  B17  1  0.500000  0.251189  0.581518  1
  B  B18  1  0.500000  0.248811  0.081518  1
  B  B19  1  0.500000  0.751189  0.918482  1
  B  B20  1  0.500000  0.791451  0.265920  1
  B  B21  1  0.500000  0.208549  0.734080  1
  B  B22  1  0.500000  0.291451  0.234080  1
  B  B23  1  0.500000  0.708549  0.765920  1
  B  B24  1  0.500000  0.631430  0.185880  1
  B  B25  1  0.500000  0.368570  0.814120  1
  B  B26  1  0.500000  0.131430  0.314120  1
  B  B27  1  0.500000  0.868570  0.685880  1
  B  B28  1  0.500000  0.983527  0.212946  1
  B  B29  1  0.500000  0.016473  0.787054  1
  B  B30  1  0.500000  0.483527  0.287054  1
  B  B31  1  0.500000  0.516473  0.712946  1
  B  B32  1  0.500000  0.606082  0.029289  1
  B  B33  1  0.500000  0.393918  0.970711  1
  B  B34  1  0.500000  0.106082  0.470711  1
  B  B35  1  0.500000  0.893918  0.529289  1
