# generated using pymatgen
data_Rb2FeCoSe4
_symmetry_space_group_name_H-M   'P 1'
_cell_length_a   7.20111160
_cell_length_b   7.20111105
_cell_length_c   5.55800718
_cell_angle_alpha   78.91747703
_cell_angle_beta   78.91747130
_cell_angle_gamma   116.57745987
_symmetry_Int_Tables_number   1
_chemical_formula_structural   Rb2FeCoSe4
_chemical_formula_sum   'Rb2 Fe1 Co1 Se4'
_cell_volume   239.90667812
_cell_formula_units_Z   1
loop_
 _symmetry_equiv_pos_site_id
 _symmetry_equiv_pos_as_xyz
  1  'x, y, z'
loop_
 _atom_site_type_symbol
 _atom_site_label
 _atom_site_symmetry_multiplicity
 _atom_site_fract_x
 _atom_site_fract_y
 _atom_site_fract_z
 _atom_site_occupancy
  Rb  Rb0  1  0.140268  0.859732  0.250000  1
  Rb  Rb1  1  0.859697  0.140303  0.750000  1
  Fe  Fe2  1  0.499088  0.500912  0.750000  1
  Co  Co3  1  0.500840  0.499160  0.250000  1
  Se  Se4  1  0.203657  0.420317  0.094304  1
  Se  Se5  1  0.579683  0.796343  0.405696  1
  Se  Se6  1  0.796350  0.579582  0.904785  1
  Se  Se7  1  0.420418  0.203650  0.595215  1
