# generated using pymatgen
data_LiSmNiPt3
_symmetry_space_group_name_H-M   'P 1'
_cell_length_a   5.39982049
_cell_length_b   5.39982056
_cell_length_c   5.15010488
_cell_angle_alpha   58.38265922
_cell_angle_beta   58.38264723
_cell_angle_gamma   59.99999370
_symmetry_Int_Tables_number   1
_chemical_formula_structural   LiSmNiPt3
_chemical_formula_sum   'Li1 Sm1 Ni1 Pt3'
_cell_volume   103.51386454
_cell_formula_units_Z   1
loop_
 _symmetry_equiv_pos_site_id
 _symmetry_equiv_pos_as_xyz
  1  'x, y, z'
loop_
 _atom_site_type_symbol
 _atom_site_label
 _atom_site_symmetry_multiplicity
 _atom_site_fract_x
 _atom_site_fract_y
 _atom_site_fract_z
 _atom_site_occupancy
  Li  Li0  1  0.256281  0.256281  0.231155  1
  Sm  Sm1  1  0.001441  0.001441  0.995677  1
  Ni  Ni2  1  0.623161  0.623161  0.130518  1
  Pt  Pt3  1  0.621981  0.125156  0.630883  1
  Pt  Pt4  1  0.125156  0.621981  0.630883  1
  Pt  Pt5  1  0.621981  0.621981  0.630883  1
