# generated using pymatgen
data_Nd3(AlGa3)2
_symmetry_space_group_name_H-M   'P 1'
_cell_length_a   4.32213198
_cell_length_b   4.30435699
_cell_length_c   13.02951803
_cell_angle_alpha   99.50752715
_cell_angle_beta   99.54714786
_cell_angle_gamma   90.00000533
_symmetry_Int_Tables_number   1
_chemical_formula_structural   Nd3(AlGa3)2
_chemical_formula_sum   'Nd3 Al2 Ga6'
_cell_volume   235.66667701
_cell_formula_units_Z   1
loop_
 _symmetry_equiv_pos_site_id
 _symmetry_equiv_pos_as_xyz
  1  'x, y, z'
loop_
 _atom_site_type_symbol
 _atom_site_label
 _atom_site_symmetry_multiplicity
 _atom_site_fract_x
 _atom_site_fract_y
 _atom_site_fract_z
 _atom_site_occupancy
  Nd  Nd0  1  0.145885  0.645885  0.291770  1
  Nd  Nd1  1  0.854115  0.354115  0.708230  1
  Nd  Nd2  1  0.000000  0.000000  0.000000  1
  Al  Al3  1  0.750408  0.750408  0.500816  1
  Al  Al4  1  0.249592  0.249592  0.499184  1
  Ga  Ga5  1  0.404784  0.904784  0.809568  1
  Ga  Ga6  1  0.595216  0.095216  0.190432  1
  Ga  Ga7  1  0.307907  0.807907  0.615816  1
  Ga  Ga8  1  0.692093  0.192093  0.384184  1
  Ga  Ga9  1  0.548315  0.548315  0.096629  1
  Ga  Ga10  1  0.451685  0.451685  0.903371  1
