# generated using pymatgen
data_Lu5SnGePb2
_symmetry_space_group_name_H-M   'P 1'
_cell_length_a   9.11628400
_cell_length_b   9.08311419
_cell_length_c   6.44640800
_cell_angle_alpha   90.00000000
_cell_angle_beta   90.00000000
_cell_angle_gamma   120.12087460
_symmetry_Int_Tables_number   1
_chemical_formula_structural   Lu5SnGePb2
_chemical_formula_sum   'Lu10 Sn2 Ge2 Pb4'
_cell_volume   461.71158894
_cell_formula_units_Z   2
loop_
 _symmetry_equiv_pos_site_id
 _symmetry_equiv_pos_as_xyz
  1  'x, y, z'
loop_
 _atom_site_type_symbol
 _atom_site_label
 _atom_site_symmetry_multiplicity
 _atom_site_fract_x
 _atom_site_fract_y
 _atom_site_fract_z
 _atom_site_occupancy
  Lu  Lu0  1  0.255190  0.000000  0.750000  1
  Lu  Lu1  1  0.744810  0.000000  0.250000  1
  Lu  Lu2  1  0.995853  0.248806  0.750000  1
  Lu  Lu3  1  0.004147  0.751194  0.250000  1
  Lu  Lu4  1  0.747047  0.751194  0.750000  1
  Lu  Lu5  1  0.252953  0.248806  0.250000  1
  Lu  Lu6  1  0.335711  0.671423  0.500000  1
  Lu  Lu7  1  0.664289  0.328577  0.500000  1
  Lu  Lu8  1  0.664289  0.328577  0.000000  1
  Lu  Lu9  1  0.335711  0.671423  0.000000  1
  Sn  Sn10  1  0.605859  0.000000  0.750000  1
  Sn  Sn11  1  0.394141  0.000000  0.250000  1
  Ge  Ge12  1  0.000000  0.000000  0.500000  1
  Ge  Ge13  1  0.000000  0.000000  0.000000  1
  Pb  Pb14  1  0.000583  0.607525  0.750000  1
  Pb  Pb15  1  0.999417  0.392475  0.250000  1
  Pb  Pb16  1  0.393058  0.392475  0.750000  1
  Pb  Pb17  1  0.606942  0.607525  0.250000  1
