# generated using pymatgen
data_Tb3Dy4Ho13Pb16
_symmetry_space_group_name_H-M   'P 1'
_cell_length_a   8.19645464
_cell_length_b   8.27283815
_cell_length_c   15.61754422
_cell_angle_alpha   90.01148320
_cell_angle_beta   90.03146067
_cell_angle_gamma   89.98938677
_symmetry_Int_Tables_number   1
_chemical_formula_structural   Tb3Dy4Ho13Pb16
_chemical_formula_sum   'Tb3 Dy4 Ho13 Pb16'
_cell_volume   1058.99334375
_cell_formula_units_Z   1
loop_
 _symmetry_equiv_pos_site_id
 _symmetry_equiv_pos_as_xyz
  1  'x, y, z'
loop_
 _atom_site_type_symbol
 _atom_site_label
 _atom_site_symmetry_multiplicity
 _atom_site_fract_x
 _atom_site_fract_y
 _atom_site_fract_z
 _atom_site_occupancy
  Tb  Tb0  1  0.036174  0.176740  0.600076  1
  Tb  Tb1  1  0.463812  0.676708  0.399962  1
  Tb  Tb2  1  0.963757  0.823348  0.100055  1
  Dy  Dy3  1  0.463711  0.676622  0.100100  1
  Dy  Dy4  1  0.963751  0.823326  0.399876  1
  Dy  Dy5  1  0.536234  0.323374  0.600077  1
  Dy  Dy6  1  0.036268  0.176707  0.899863  1
  Ho  Ho7  1  0.376569  0.841236  0.879155  1
  Ho  Ho8  1  0.876500  0.658797  0.620924  1
  Ho  Ho9  1  0.623491  0.158808  0.379080  1
  Ho  Ho10  1  0.123408  0.341108  0.120857  1
  Ho  Ho11  1  0.623375  0.158906  0.120782  1
  Ho  Ho12  1  0.123456  0.341153  0.379051  1
  Ho  Ho13  1  0.376556  0.841189  0.620966  1
  Ho  Ho14  1  0.876495  0.658721  0.879121  1
  Ho  Ho15  1  0.536382  0.323405  0.899875  1
  Ho  Ho16  1  0.208478  0.504315  0.750142  1
  Ho  Ho17  1  0.708281  0.995646  0.750152  1
  Ho  Ho18  1  0.791652  0.495559  0.249915  1
  Ho  Ho19  1  0.291666  0.004440  0.249929  1
  Pb  Pb20  1  0.281573  0.033167  0.042696  1
  Pb  Pb21  1  0.781608  0.466797  0.457316  1
  Pb  Pb22  1  0.718357  0.966796  0.542744  1
  Pb  Pb23  1  0.218772  0.532868  0.957204  1
  Pb  Pb24  1  0.718330  0.967168  0.957131  1
  Pb  Pb25  1  0.218479  0.533114  0.542836  1
  Pb  Pb26  1  0.281504  0.033104  0.457230  1
  Pb  Pb27  1  0.781216  0.466698  0.042591  1
  Pb  Pb28  1  0.571539  0.626292  0.750013  1
  Pb  Pb29  1  0.071550  0.873560  0.750005  1
  Pb  Pb30  1  0.428434  0.373610  0.249994  1
  Pb  Pb31  1  0.928435  0.126420  0.250002  1
  Pb  Pb32  1  0.347168  0.153476  0.750167  1
  Pb  Pb33  1  0.846766  0.346837  0.750121  1
  Pb  Pb34  1  0.653128  0.846838  0.249930  1
  Pb  Pb35  1  0.153124  0.653148  0.250061  1
