# generated using pymatgen
data_HoEr(GaNi)2
_symmetry_space_group_name_H-M   'P 1'
_cell_length_a   4.25741400
_cell_length_b   6.76214300
_cell_length_c   7.37295500
_cell_angle_alpha   90.00000000
_cell_angle_beta   90.00000000
_cell_angle_gamma   90.00000000
_symmetry_Int_Tables_number   1
_chemical_formula_structural   HoEr(GaNi)2
_chemical_formula_sum   'Ho2 Er2 Ga4 Ni4'
_cell_volume   212.26178780
_cell_formula_units_Z   2
loop_
 _symmetry_equiv_pos_site_id
 _symmetry_equiv_pos_as_xyz
  1  'x, y, z'
loop_
 _atom_site_type_symbol
 _atom_site_label
 _atom_site_symmetry_multiplicity
 _atom_site_fract_x
 _atom_site_fract_y
 _atom_site_fract_z
 _atom_site_occupancy
  Ho  Ho0  1  0.250000  0.980970  0.305952  1
  Ho  Ho1  1  0.250000  0.480970  0.194048  1
  Er  Er2  1  0.750000  0.019430  0.695642  1
  Er  Er3  1  0.750000  0.519430  0.804358  1
  Ga  Ga4  1  0.250000  0.326909  0.574699  1
  Ga  Ga5  1  0.250000  0.826909  0.925301  1
  Ga  Ga6  1  0.750000  0.674506  0.426140  1
  Ga  Ga7  1  0.750000  0.174506  0.073860  1
  Ni  Ni8  1  0.250000  0.215563  0.900395  1
  Ni  Ni9  1  0.250000  0.715563  0.599605  1
  Ni  Ni10  1  0.750000  0.782621  0.097877  1
  Ni  Ni11  1  0.750000  0.282621  0.402123  1
