# generated using pymatgen
data_DyHo3TcPt3F28
_symmetry_space_group_name_H-M   'P 1'
_cell_length_a   5.55118496
_cell_length_b   8.86914770
_cell_length_c   11.97707015
_cell_angle_alpha   62.53940227
_cell_angle_beta   89.94351637
_cell_angle_gamma   89.95271900
_symmetry_Int_Tables_number   1
_chemical_formula_structural   DyHo3TcPt3F28
_chemical_formula_sum   'Dy1 Ho3 Tc1 Pt3 F28'
_cell_volume   523.24151890
_cell_formula_units_Z   1
loop_
 _symmetry_equiv_pos_site_id
 _symmetry_equiv_pos_as_xyz
  1  'x, y, z'
loop_
 _atom_site_type_symbol
 _atom_site_label
 _atom_site_symmetry_multiplicity
 _atom_site_fract_x
 _atom_site_fract_y
 _atom_site_fract_z
 _atom_site_occupancy
  Dy  Dy0  1  0.761022  0.814836  0.763767  1
  Ho  Ho1  1  0.259644  0.186897  0.734140  1
  Ho  Ho2  1  0.239591  0.185954  0.236079  1
  Ho  Ho3  1  0.739533  0.814257  0.264192  1
  Tc  Tc4  1  0.757448  0.273074  0.956747  1
  Pt  Pt5  1  0.259288  0.727932  0.542615  1
  Pt  Pt6  1  0.241105  0.727747  0.043214  1
  Pt  Pt7  1  0.740890  0.272869  0.456495  1
  F  F8  1  0.436997  0.702441  0.915932  1
  F  F9  1  0.935556  0.297410  0.584315  1
  F  F10  1  0.553323  0.292829  0.082506  1
  F  F11  1  0.063132  0.702723  0.415703  1
  F  F12  1  0.439500  0.278642  0.542012  1
  F  F13  1  0.940731  0.722150  0.957043  1
  F  F14  1  0.560304  0.722103  0.456845  1
  F  F15  1  0.053648  0.277154  0.046439  1
  F  F16  1  0.773694  0.521663  0.859042  1
  F  F17  1  0.274332  0.478623  0.641471  1
  F  F18  1  0.224803  0.478537  0.142303  1
  F  F19  1  0.725760  0.522264  0.357793  1
  F  F20  1  0.755912  0.025412  0.053471  1
  F  F21  1  0.255288  0.977223  0.449755  1
  F  F22  1  0.245699  0.977019  0.949074  1
  F  F23  1  0.745497  0.023646  0.549772  1
  F  F24  1  0.966812  0.725055  0.636397  1
  F  F25  1  0.473342  0.271252  0.860077  1
  F  F26  1  0.034448  0.274906  0.363672  1
  F  F27  1  0.533512  0.725489  0.136514  1
  F  F28  1  0.050964  0.746355  0.175442  1
  F  F29  1  0.552212  0.254505  0.323798  1
  F  F30  1  0.956018  0.253078  0.827556  1
  F  F31  1  0.449130  0.745789  0.675138  1
  F  F32  1  0.416499  0.969918  0.233156  1
  F  F33  1  0.916797  0.028729  0.268730  1
  F  F34  1  0.582471  0.030779  0.766929  1
  F  F35  1  0.085095  0.970737  0.731866  1
