# generated using pymatgen
data_TbNd2Pa(Al3Ir)6
_symmetry_space_group_name_H-M   'P 1'
_cell_length_a   7.61246464
_cell_length_b   7.60712438
_cell_length_c   9.48684600
_cell_angle_alpha   90.00000000
_cell_angle_beta   90.00000000
_cell_angle_gamma   119.53857980
_symmetry_Int_Tables_number   1
_chemical_formula_structural   TbNd2Pa(Al3Ir)6
_chemical_formula_sum   'Tb1 Nd2 Pa1 Al18 Ir6'
_cell_volume   477.96803442
_cell_formula_units_Z   1
loop_
 _symmetry_equiv_pos_site_id
 _symmetry_equiv_pos_as_xyz
  1  'x, y, z'
loop_
 _atom_site_type_symbol
 _atom_site_label
 _atom_site_symmetry_multiplicity
 _atom_site_fract_x
 _atom_site_fract_y
 _atom_site_fract_z
 _atom_site_occupancy
  Tb  Tb0  1  0.673330  0.994689  0.250000  1
  Nd  Nd1  1  0.004763  0.329525  0.750000  1
  Nd  Nd2  1  0.329618  0.004218  0.750000  1
  Pa  Pa3  1  0.996083  0.672665  0.250000  1
  Al  Al4  1  0.132430  0.131021  0.250000  1
  Al  Al5  1  0.869709  0.870930  0.750000  1
  Al  Al6  1  0.001036  0.332948  0.077029  1
  Al  Al7  1  0.997028  0.664580  0.925527  1
  Al  Al8  1  0.997028  0.664580  0.574473  1
  Al  Al9  1  0.338966  0.003810  0.422834  1
  Al  Al10  1  0.001036  0.332948  0.422971  1
  Al  Al11  1  0.665213  0.998137  0.571587  1
  Al  Al12  1  0.665213  0.998137  0.928413  1
  Al  Al13  1  0.338966  0.003810  0.077166  1
  Al  Al14  1  0.333595  0.333567  0.549297  1
  Al  Al15  1  0.663121  0.665487  0.448366  1
  Al  Al16  1  0.663121  0.665487  0.051634  1
  Al  Al17  1  0.333595  0.333567  0.950703  1
  Al  Al18  1  0.339875  0.547897  0.250000  1
  Al  Al19  1  0.659380  0.452525  0.750000  1
  Al  Al20  1  0.548068  0.343383  0.250000  1
  Al  Al21  1  0.453236  0.660859  0.750000  1
  Ir  Ir22  1  0.673664  0.330634  0.003875  1
  Ir  Ir23  1  0.326430  0.671842  0.003985  1
  Ir  Ir24  1  0.326430  0.671842  0.496015  1
  Ir  Ir25  1  0.673664  0.330634  0.496125  1
  Ir  Ir26  1  0.997703  0.995137  0.005684  1
  Ir  Ir27  1  0.997703  0.995137  0.494316  1
