# generated using pymatgen
data_Ho3Tm7Zn3Ru
_symmetry_space_group_name_H-M   'P 1'
_cell_length_a   9.30149100
_cell_length_b   9.30149082
_cell_length_c   9.53958400
_cell_angle_alpha   90.00000000
_cell_angle_beta   90.00000000
_cell_angle_gamma   120.00000420
_symmetry_Int_Tables_number   1
_chemical_formula_structural   Ho3Tm7Zn3Ru
_chemical_formula_sum   'Ho6 Tm14 Zn6 Ru2'
_cell_volume   714.76813275
_cell_formula_units_Z   2
loop_
 _symmetry_equiv_pos_site_id
 _symmetry_equiv_pos_as_xyz
  1  'x, y, z'
loop_
 _atom_site_type_symbol
 _atom_site_label
 _atom_site_symmetry_multiplicity
 _atom_site_fract_x
 _atom_site_fract_y
 _atom_site_fract_z
 _atom_site_occupancy
  Ho  Ho0  1  0.540858  0.459142  0.250000  1
  Ho  Ho1  1  0.540858  0.081716  0.250000  1
  Ho  Ho2  1  0.918284  0.459142  0.250000  1
  Ho  Ho3  1  0.459142  0.540858  0.750000  1
  Ho  Ho4  1  0.459142  0.918284  0.750000  1
  Ho  Ho5  1  0.081716  0.540858  0.750000  1
  Tm  Tm6  1  0.000000  0.000000  0.500000  1
  Tm  Tm7  1  0.000000  0.000000  0.000000  1
  Tm  Tm8  1  0.207892  0.792108  0.442338  1
  Tm  Tm9  1  0.207892  0.415784  0.442338  1
  Tm  Tm10  1  0.584216  0.792108  0.442338  1
  Tm  Tm11  1  0.792108  0.207892  0.557662  1
  Tm  Tm12  1  0.792108  0.584216  0.557662  1
  Tm  Tm13  1  0.415784  0.207892  0.557662  1
  Tm  Tm14  1  0.792108  0.207892  0.942338  1
  Tm  Tm15  1  0.792108  0.584216  0.942338  1
  Tm  Tm16  1  0.415784  0.207892  0.942338  1
  Tm  Tm17  1  0.207892  0.792108  0.057662  1
  Tm  Tm18  1  0.207892  0.415784  0.057662  1
  Tm  Tm19  1  0.584216  0.792108  0.057662  1
  Zn  Zn20  1  0.886342  0.113658  0.250000  1
  Zn  Zn21  1  0.886342  0.772685  0.250000  1
  Zn  Zn22  1  0.227315  0.113658  0.250000  1
  Zn  Zn23  1  0.113658  0.886342  0.750000  1
  Zn  Zn24  1  0.113658  0.227315  0.750000  1
  Zn  Zn25  1  0.772685  0.886342  0.750000  1
  Ru  Ru26  1  0.333333  0.666667  0.250000  1
  Ru  Ru27  1  0.666667  0.333333  0.750000  1
