# generated using pymatgen
data_Th8Ni6OsRu
_symmetry_space_group_name_H-M   'P 1'
_cell_length_a   4.24301500
_cell_length_b   5.80087906
_cell_length_c   14.37348114
_cell_angle_alpha   89.98380098
_cell_angle_beta   90.00000000
_cell_angle_gamma   90.00000000
_symmetry_Int_Tables_number   1
_chemical_formula_structural   Th8Ni6OsRu
_chemical_formula_sum   'Th8 Ni6 Os1 Ru1'
_cell_volume   353.77759423
_cell_formula_units_Z   1
loop_
 _symmetry_equiv_pos_site_id
 _symmetry_equiv_pos_as_xyz
  1  'x, y, z'
loop_
 _atom_site_type_symbol
 _atom_site_label
 _atom_site_symmetry_multiplicity
 _atom_site_fract_x
 _atom_site_fract_y
 _atom_site_fract_z
 _atom_site_occupancy
  Th  Th0  1  0.250000  0.547033  0.284453  1
  Th  Th1  1  0.750000  0.457390  0.715408  1
  Th  Th2  1  0.250000  0.955488  0.784120  1
  Th  Th3  1  0.250000  0.757809  0.538304  1
  Th  Th4  1  0.250000  0.747972  0.033482  1
  Th  Th5  1  0.750000  0.259664  0.962020  1
  Th  Th6  1  0.750000  0.045805  0.215862  1
  Th  Th7  1  0.750000  0.245906  0.466781  1
  Ni  Ni8  1  0.750000  0.735725  0.406551  1
  Ni  Ni9  1  0.250000  0.455046  0.854252  1
  Ni  Ni10  1  0.750000  0.956841  0.645835  1
  Ni  Ni11  1  0.750000  0.745791  0.891524  1
  Ni  Ni12  1  0.250000  0.234539  0.094572  1
  Ni  Ni13  1  0.250000  0.244849  0.606782  1
  Os  Os14  1  0.750000  0.552001  0.143768  1
  Ru  Ru15  1  0.250000  0.058140  0.356287  1
