# generated using pymatgen
data_Ti8In4Cu7Pt
_symmetry_space_group_name_H-M   'P 1'
_cell_length_a   7.02543075
_cell_length_b   7.02543110
_cell_length_c   6.49763406
_cell_angle_alpha   90.05948516
_cell_angle_beta   90.05948983
_cell_angle_gamma   90.09240085
_symmetry_Int_Tables_number   1
_chemical_formula_structural   Ti8In4Cu7Pt
_chemical_formula_sum   'Ti8 In4 Cu7 Pt1'
_cell_volume   320.70087965
_cell_formula_units_Z   1
loop_
 _symmetry_equiv_pos_site_id
 _symmetry_equiv_pos_as_xyz
  1  'x, y, z'
loop_
 _atom_site_type_symbol
 _atom_site_label
 _atom_site_symmetry_multiplicity
 _atom_site_fract_x
 _atom_site_fract_y
 _atom_site_fract_z
 _atom_site_occupancy
  Ti  Ti0  1  0.144848  0.144848  0.001419  1
  Ti  Ti1  1  0.855600  0.855600  0.996966  1
  Ti  Ti2  1  0.646831  0.352756  0.498488  1
  Ti  Ti3  1  0.352756  0.646831  0.498488  1
  Ti  Ti4  1  0.692654  0.304737  0.001346  1
  Ti  Ti5  1  0.304737  0.692654  0.001346  1
  Ti  Ti6  1  0.807098  0.807098  0.501950  1
  Ti  Ti7  1  0.194372  0.194372  0.499419  1
  In  In8  1  0.503170  0.992692  0.249715  1
  In  In9  1  0.500174  0.998460  0.749257  1
  In  In10  1  0.992692  0.503170  0.249715  1
  In  In11  1  0.998460  0.500174  0.749257  1
  Cu  Cu12  1  0.623904  0.623904  0.796472  1
  Cu  Cu13  1  0.632456  0.632456  0.198958  1
  Cu  Cu14  1  0.875574  0.124965  0.701533  1
  Cu  Cu15  1  0.875698  0.124347  0.298907  1
  Cu  Cu16  1  0.374747  0.374747  0.795770  1
  Cu  Cu17  1  0.124347  0.875698  0.298907  1
  Cu  Cu18  1  0.124965  0.875574  0.701533  1
  Pt  Pt19  1  0.374919  0.374919  0.210556  1
