# generated using pymatgen
data_Ca5Zr3(Cu4Si3)4
_symmetry_space_group_name_H-M   'P 1'
_cell_length_a   12.93685000
_cell_length_b   12.93684849
_cell_length_c   3.98362200
_cell_angle_alpha   90.00000000
_cell_angle_beta   90.00000000
_cell_angle_gamma   120.00000386
_symmetry_Int_Tables_number   1
_chemical_formula_structural   Ca5Zr3(Cu4Si3)4
_chemical_formula_sum   'Ca5 Zr3 Cu16 Si12'
_cell_volume   577.38536479
_cell_formula_units_Z   1
loop_
 _symmetry_equiv_pos_site_id
 _symmetry_equiv_pos_as_xyz
  1  'x, y, z'
loop_
 _atom_site_type_symbol
 _atom_site_label
 _atom_site_symmetry_multiplicity
 _atom_site_fract_x
 _atom_site_fract_y
 _atom_site_fract_z
 _atom_site_occupancy
  Ca  Ca0  1  0.187087  0.187087  0.500000  1
  Ca  Ca1  1  0.812913  0.000000  0.500000  1
  Ca  Ca2  1  0.000000  0.812913  0.500000  1
  Ca  Ca3  1  0.333333  0.666667  0.000000  1
  Ca  Ca4  1  0.666667  0.333333  0.000000  1
  Zr  Zr5  1  0.570637  0.570637  0.000000  1
  Zr  Zr6  1  0.429363  0.000000  0.000000  1
  Zr  Zr7  1  0.000000  0.429363  0.000000  1
  Cu  Cu8  1  0.726918  0.726918  0.500000  1
  Cu  Cu9  1  0.273082  0.000000  0.500000  1
  Cu  Cu10  1  0.000000  0.273082  0.500000  1
  Cu  Cu11  1  0.189512  0.379620  0.000000  1
  Cu  Cu12  1  0.620380  0.809892  0.000000  1
  Cu  Cu13  1  0.190108  0.810488  0.000000  1
  Cu  Cu14  1  0.809892  0.620380  0.000000  1
  Cu  Cu15  1  0.810488  0.190108  0.000000  1
  Cu  Cu16  1  0.379620  0.189512  0.000000  1
  Cu  Cu17  1  0.362084  0.481708  0.500000  1
  Cu  Cu18  1  0.518292  0.880377  0.500000  1
  Cu  Cu19  1  0.119623  0.637916  0.500000  1
  Cu  Cu20  1  0.880377  0.518292  0.500000  1
  Cu  Cu21  1  0.637916  0.119623  0.500000  1
  Cu  Cu22  1  0.481708  0.362084  0.500000  1
  Cu  Cu23  1  0.000000  0.000000  0.000000  1
  Si  Si24  1  0.818296  0.818296  0.000000  1
  Si  Si25  1  0.181704  0.000000  0.000000  1
  Si  Si26  1  0.000000  0.181704  0.000000  1
  Si  Si27  1  0.169682  0.476240  0.500000  1
  Si  Si28  1  0.523760  0.693442  0.500000  1
  Si  Si29  1  0.306558  0.830318  0.500000  1
  Si  Si30  1  0.693442  0.523760  0.500000  1
  Si  Si31  1  0.830318  0.306558  0.500000  1
  Si  Si32  1  0.476240  0.169682  0.500000  1
  Si  Si33  1  0.362398  0.362398  0.000000  1
  Si  Si34  1  0.637602  0.000000  0.000000  1
  Si  Si35  1  0.000000  0.637602  0.000000  1
