# generated using pymatgen
data_LiCa14Bi11
_symmetry_space_group_name_H-M   'P 1'
_cell_length_a   16.60538127
_cell_length_b   16.60538090
_cell_length_c   16.60538100
_cell_angle_alpha   117.56788670
_cell_angle_beta   117.56788604
_cell_angle_gamma   94.26683545
_symmetry_Int_Tables_number   1
_chemical_formula_structural   LiCa14Bi11
_chemical_formula_sum   'Li4 Ca56 Bi44'
_cell_volume   3346.64356403
_cell_formula_units_Z   4
loop_
 _symmetry_equiv_pos_site_id
 _symmetry_equiv_pos_as_xyz
  1  'x, y, z'
loop_
 _atom_site_type_symbol
 _atom_site_label
 _atom_site_symmetry_multiplicity
 _atom_site_fract_x
 _atom_site_fract_y
 _atom_site_fract_z
 _atom_site_occupancy
  Li  Li0  1  0.000000  0.000000  0.000000  1
  Li  Li1  1  0.500000  0.500000  0.000000  1
  Li  Li2  1  0.250000  0.750000  0.500000  1
  Li  Li3  1  0.750000  0.250000  0.500000  1
  Ca  Ca4  1  0.307675  0.645237  0.017813  1
  Ca  Ca5  1  0.399167  0.002269  0.648818  1
  Ca  Ca6  1  0.395237  0.877424  0.837561  1
  Ca  Ca7  1  0.161087  0.378290  0.135130  1
  Ca  Ca8  1  0.039863  0.557675  0.162439  1
  Ca  Ca9  1  0.252269  0.149167  0.148818  1
  Ca  Ca10  1  0.997731  0.646550  0.396898  1
  Ca  Ca11  1  0.210137  0.872576  0.017813  1
  Ca  Ca12  1  0.480349  0.875000  0.105350  1
  Ca  Ca13  1  0.850833  0.999652  0.103102  1
  Ca  Ca14  1  0.625000  0.519651  0.394651  1
  Ca  Ca15  1  0.350833  0.247731  0.851182  1
  Ca  Ca16  1  0.854763  0.192325  0.982187  1
  Ca  Ca17  1  0.743161  0.878290  0.217203  1
  Ca  Ca18  1  0.769650  0.375000  0.894650  1
  Ca  Ca19  1  0.121710  0.338913  0.864870  1
  Ca  Ca20  1  0.942325  0.460137  0.837561  1
  Ca  Ca21  1  0.752269  0.603450  0.103102  1
  Ca  Ca22  1  0.710137  0.692325  0.337561  1
  Ca  Ca23  1  0.497731  0.100833  0.351182  1
  Ca  Ca24  1  0.899167  0.250348  0.396898  1
  Ca  Ca25  1  0.353450  0.750348  0.351182  1
  Ca  Ca26  1  0.354763  0.372576  0.662439  1
  Ca  Ca27  1  0.506839  0.224043  0.635130  1
  Ca  Ca28  1  0.243161  0.025957  0.864870  1
  Ca  Ca29  1  0.622576  0.104763  0.162439  1
  Ca  Ca30  1  0.853450  0.502269  0.603102  1
  Ca  Ca31  1  0.896550  0.747731  0.896898  1
  Ca  Ca32  1  0.895237  0.057675  0.517813  1
  Ca  Ca33  1  0.122576  0.960137  0.517813  1
  Ca  Ca34  1  0.628290  0.911087  0.635130  1
  Ca  Ca35  1  0.088913  0.724043  0.717203  1
  Ca  Ca36  1  0.127424  0.145237  0.337561  1
  Ca  Ca37  1  0.269651  0.375000  0.394650  1
  Ca  Ca38  1  0.539863  0.377424  0.482187  1
  Ca  Ca39  1  0.625000  0.019650  0.894650  1
  Ca  Ca40  1  0.749652  0.146550  0.648818  1
  Ca  Ca41  1  0.006839  0.371710  0.282797  1
  Ca  Ca42  1  0.128290  0.493161  0.717203  1
  Ca  Ca43  1  0.500348  0.649167  0.896898  1
  Ca  Ca44  1  0.974043  0.838913  0.217203  1
  Ca  Ca45  1  0.588913  0.871710  0.364870  1
  Ca  Ca46  1  0.125000  0.230350  0.605350  1
  Ca  Ca47  1  0.249652  0.600833  0.603102  1
  Ca  Ca48  1  0.775957  0.411087  0.282797  1
  Ca  Ca49  1  0.621710  0.756839  0.782797  1
  Ca  Ca50  1  0.442325  0.604763  0.482187  1
  Ca  Ca51  1  0.125000  0.730350  0.105350  1
  Ca  Ca52  1  0.627424  0.289863  0.982187  1
  Ca  Ca53  1  0.980350  0.875000  0.605350  1
  Ca  Ca54  1  0.396550  0.499652  0.148818  1
  Ca  Ca55  1  0.275957  0.993161  0.364870  1
  Ca  Ca56  1  0.661087  0.525957  0.782797  1
  Ca  Ca57  1  0.000348  0.103450  0.851182  1
  Ca  Ca58  1  0.807675  0.789863  0.662439  1
  Ca  Ca59  1  0.474043  0.256839  0.135130  1
  Bi  Bi60  1  0.295128  0.431268  0.852963  1
  Bi  Bi61  1  0.362527  0.862527  0.225055  1
  Bi  Bi62  1  0.795128  0.942165  0.863859  1
  Bi  Bi63  1  0.171694  0.807835  0.352963  1
  Bi  Bi64  1  0.958432  0.051065  0.353610  1
  Bi  Bi65  1  0.181268  0.828306  0.636141  1
  Bi  Bi66  1  0.112527  0.112527  0.725055  1
  Bi  Bi67  1  0.791568  0.198935  0.146390  1
  Bi  Bi68  1  0.354822  0.208432  0.407367  1
  Bi  Bi69  1  0.250000  0.250000  0.000000  1
  Bi  Bi70  1  0.801065  0.947454  0.592633  1
  Bi  Bi71  1  0.454872  0.818732  0.647037  1
  Bi  Bi72  1  0.057835  0.921694  0.852963  1
  Bi  Bi73  1  0.862527  0.637473  0.500000  1
  Bi  Bi74  1  0.552546  0.698935  0.407367  1
  Bi  Bi75  1  0.681268  0.045128  0.352963  1
  Bi  Bi76  1  0.068732  0.204872  0.147037  1
  Bi  Bi77  1  0.137473  0.362527  0.500000  1
  Bi  Bi78  1  0.192165  0.545128  0.363859  1
  Bi  Bi79  1  0.387473  0.387473  0.274945  1
  Bi  Bi80  1  0.500000  0.000000  0.500000  1
  Bi  Bi81  1  0.078306  0.931268  0.136141  1
  Bi  Bi82  1  0.568732  0.421694  0.863859  1
  Bi  Bi83  1  0.448935  0.541568  0.646390  1
  Bi  Bi84  1  0.671694  0.318732  0.363859  1
  Bi  Bi85  1  0.458432  0.104822  0.907367  1
  Bi  Bi86  1  0.395178  0.041568  0.092633  1
  Bi  Bi87  1  0.895178  0.802546  0.353610  1
  Bi  Bi88  1  0.697454  0.604822  0.646390  1
  Bi  Bi89  1  0.692165  0.328306  0.647037  1
  Bi  Bi90  1  0.750000  0.750000  0.000000  1
  Bi  Bi91  1  0.197454  0.551065  0.092633  1
  Bi  Bi92  1  0.954872  0.307835  0.636141  1
  Bi  Bi93  1  0.854822  0.447454  0.146390  1
  Bi  Bi94  1  0.887473  0.612527  0.000000  1
  Bi  Bi95  1  0.301065  0.708432  0.853610  1
  Bi  Bi96  1  0.000000  0.500000  0.500000  1
  Bi  Bi97  1  0.291568  0.145178  0.592633  1
  Bi  Bi98  1  0.637473  0.137473  0.774945  1
  Bi  Bi99  1  0.557835  0.704872  0.136141  1
  Bi  Bi100  1  0.578306  0.442165  0.147037  1
  Bi  Bi101  1  0.052546  0.645178  0.853610  1
  Bi  Bi102  1  0.948935  0.302546  0.907367  1
  Bi  Bi103  1  0.612527  0.887473  0.000000  1
