# generated using pymatgen
data_CsRb19(SiP3)4
_symmetry_space_group_name_H-M   'P 1'
_cell_length_a   5.65626600
_cell_length_b   13.98492989
_cell_length_c   15.54992611
_cell_angle_alpha   90.09437112
_cell_angle_beta   90.00000000
_cell_angle_gamma   90.00000000
_symmetry_Int_Tables_number   1
_chemical_formula_structural   CsRb19(SiP3)4
_chemical_formula_sum   'Cs1 Rb19 Si4 P12'
_cell_volume   1230.03610441
_cell_formula_units_Z   1
loop_
 _symmetry_equiv_pos_site_id
 _symmetry_equiv_pos_as_xyz
  1  'x, y, z'
loop_
 _atom_site_type_symbol
 _atom_site_label
 _atom_site_symmetry_multiplicity
 _atom_site_fract_x
 _atom_site_fract_y
 _atom_site_fract_z
 _atom_site_occupancy
  Cs  Cs0  1  0.750000  0.383590  0.687057  1
  Rb  Rb1  1  0.250000  0.562964  0.548937  1
  Rb  Rb2  1  0.750000  0.451794  0.147648  1
  Rb  Rb3  1  0.750000  0.952053  0.351995  1
  Rb  Rb4  1  0.250000  0.060966  0.950925  1
  Rb  Rb5  1  0.250000  0.269676  0.795502  1
  Rb  Rb6  1  0.250000  0.854384  0.454426  1
  Rb  Rb7  1  0.750000  0.145314  0.543054  1
  Rb  Rb8  1  0.250000  0.771941  0.707124  1
  Rb  Rb9  1  0.250000  0.614902  0.311564  1
  Rb  Rb10  1  0.750000  0.646315  0.955692  1
  Rb  Rb11  1  0.250000  0.047764  0.646759  1
  Rb  Rb12  1  0.250000  0.548426  0.854413  1
  Rb  Rb13  1  0.750000  0.728918  0.206968  1
  Rb  Rb14  1  0.750000  0.885296  0.811842  1
  Rb  Rb15  1  0.750000  0.938094  0.050014  1
  Rb  Rb16  1  0.250000  0.114534  0.187910  1
  Rb  Rb17  1  0.250000  0.353632  0.046833  1
  Rb  Rb18  1  0.750000  0.228399  0.292521  1
  Rb  Rb19  1  0.750000  0.437976  0.448285  1
  Si  Si20  1  0.250000  0.260677  0.433200  1
  Si  Si21  1  0.750000  0.740597  0.564426  1
  Si  Si22  1  0.750000  0.238120  0.937366  1
  Si  Si23  1  0.250000  0.761632  0.064759  1
  P  P24  1  0.250000  0.366551  0.327596  1
  P  P25  1  0.250000  0.306410  0.568713  1
  P  P26  1  0.250000  0.866832  0.170990  1
  P  P27  1  0.750000  0.693315  0.428761  1
  P  P28  1  0.750000  0.393910  0.913806  1
  P  P29  1  0.750000  0.133577  0.830362  1
  P  P30  1  0.750000  0.895928  0.590192  1
  P  P31  1  0.250000  0.606327  0.090743  1
  P  P32  1  0.750000  0.636039  0.670526  1
  P  P33  1  0.250000  0.105189  0.407802  1
  P  P34  1  0.250000  0.806946  0.928683  1
  P  P35  1  0.750000  0.191013  0.072604  1
