# generated using pymatgen
data_Lu16Sc4IrPt11
_symmetry_space_group_name_H-M   'P 1'
_cell_length_a   10.83307800
_cell_length_b   10.83307800
_cell_length_c   6.23217800
_cell_angle_alpha   90.00000000
_cell_angle_beta   90.00000000
_cell_angle_gamma   90.00000000
_symmetry_Int_Tables_number   1
_chemical_formula_structural   Lu16Sc4IrPt11
_chemical_formula_sum   'Lu16 Sc4 Ir1 Pt11'
_cell_volume   731.38085733
_cell_formula_units_Z   1
loop_
 _symmetry_equiv_pos_site_id
 _symmetry_equiv_pos_as_xyz
  1  'x, y, z'
loop_
 _atom_site_type_symbol
 _atom_site_label
 _atom_site_symmetry_multiplicity
 _atom_site_fract_x
 _atom_site_fract_y
 _atom_site_fract_z
 _atom_site_occupancy
  Lu  Lu0  1  0.288367  0.087358  0.377038  1
  Lu  Lu1  1  0.288172  0.912236  0.876221  1
  Lu  Lu2  1  0.711828  0.087764  0.876221  1
  Lu  Lu3  1  0.711633  0.912642  0.377038  1
  Lu  Lu4  1  0.587764  0.788172  0.876221  1
  Lu  Lu5  1  0.587358  0.211633  0.377038  1
  Lu  Lu6  1  0.412642  0.788367  0.377038  1
  Lu  Lu7  1  0.412236  0.211828  0.876221  1
  Lu  Lu8  1  0.208501  0.414208  0.620187  1
  Lu  Lu9  1  0.209007  0.585851  0.126975  1
  Lu  Lu10  1  0.790993  0.414149  0.126975  1
  Lu  Lu11  1  0.791499  0.585792  0.620187  1
  Lu  Lu12  1  0.914149  0.709007  0.126975  1
  Lu  Lu13  1  0.914208  0.291499  0.620187  1
  Lu  Lu14  1  0.085792  0.708501  0.620187  1
  Lu  Lu15  1  0.085851  0.290993  0.126975  1
  Sc  Sc16  1  0.000000  0.000000  0.500756  1
  Sc  Sc17  1  0.000000  0.000000  0.999616  1
  Sc  Sc18  1  0.500000  0.500000  0.999616  1
  Sc  Sc19  1  0.500000  0.500000  0.500756  1
  Ir  Ir20  1  0.000000  0.500000  0.380937  1
  Pt  Pt21  1  0.848984  0.149336  0.249913  1
  Pt  Pt22  1  0.849890  0.849692  0.750237  1
  Pt  Pt23  1  0.150110  0.150308  0.750237  1
  Pt  Pt24  1  0.151016  0.850664  0.249913  1
  Pt  Pt25  1  0.650308  0.349890  0.750237  1
  Pt  Pt26  1  0.649336  0.651016  0.249913  1
  Pt  Pt27  1  0.350664  0.348984  0.249913  1
  Pt  Pt28  1  0.349692  0.650110  0.750237  1
  Pt  Pt29  1  0.500000  0.000000  0.116857  1
  Pt  Pt30  1  0.500000  0.000000  0.618054  1
  Pt  Pt31  1  0.000000  0.500000  0.881125  1
