# generated using pymatgen
data_Ca6Tb3Pr11Pb16
_symmetry_space_group_name_H-M   'P 1'
_cell_length_a   8.18529672
_cell_length_b   8.62141576
_cell_length_c   16.17584600
_cell_angle_alpha   90.12246134
_cell_angle_beta   89.72582216
_cell_angle_gamma   90.14416596
_symmetry_Int_Tables_number   1
_chemical_formula_structural   Ca6Tb3Pr11Pb16
_chemical_formula_sum   'Ca6 Tb3 Pr11 Pb16'
_cell_volume   1141.49152638
_cell_formula_units_Z   1
loop_
 _symmetry_equiv_pos_site_id
 _symmetry_equiv_pos_as_xyz
  1  'x, y, z'
loop_
 _atom_site_type_symbol
 _atom_site_label
 _atom_site_symmetry_multiplicity
 _atom_site_fract_x
 _atom_site_fract_y
 _atom_site_fract_z
 _atom_site_occupancy
  Ca  Ca0  1  0.830901  0.663659  0.377193  1
  Ca  Ca1  1  0.333682  0.835313  0.376509  1
  Ca  Ca2  1  0.835160  0.502462  0.749978  1
  Ca  Ca3  1  0.334380  0.997707  0.750662  1
  Ca  Ca4  1  0.164254  0.500140  0.251005  1
  Ca  Ca5  1  0.665708  0.998390  0.252270  1
  Tb  Tb6  1  0.668740  0.164865  0.625386  1
  Tb  Tb7  1  0.166836  0.334000  0.875580  1
  Tb  Tb8  1  0.336363  0.832108  0.123142  1
  Pr  Pr9  1  0.837520  0.670473  0.123471  1
  Pr  Pr10  1  0.662298  0.168265  0.876225  1
  Pr  Pr11  1  0.164436  0.331520  0.623509  1
  Pr  Pr12  1  0.502812  0.682880  0.594811  1
  Pr  Pr13  1  0.004697  0.817729  0.904656  1
  Pr  Pr14  1  0.495171  0.315198  0.093743  1
  Pr  Pr15  1  0.993375  0.186145  0.404281  1
  Pr  Pr16  1  0.495146  0.316490  0.405914  1
  Pr  Pr17  1  0.996817  0.182760  0.093422  1
  Pr  Pr18  1  0.504728  0.681429  0.904655  1
  Pr  Pr19  1  0.004509  0.816831  0.595241  1
  Pb  Pb20  1  0.682496  0.962699  0.462093  1
  Pb  Pb21  1  0.187801  0.540384  0.038099  1
  Pb  Pb22  1  0.311719  0.041054  0.961966  1
  Pb  Pb23  1  0.815474  0.459637  0.540892  1
  Pb  Pb24  1  0.328105  0.038047  0.540593  1
  Pb  Pb25  1  0.825327  0.460470  0.959734  1
  Pb  Pb26  1  0.676830  0.960600  0.040413  1
  Pb  Pb27  1  0.178593  0.539872  0.459378  1
  Pb  Pb28  1  0.471094  0.387223  0.749398  1
  Pb  Pb29  1  0.970833  0.111804  0.750252  1
  Pb  Pb30  1  0.527736  0.611253  0.248832  1
  Pb  Pb31  1  0.033790  0.891035  0.248830  1
  Pb  Pb32  1  0.700028  0.853159  0.749676  1
  Pb  Pb33  1  0.200668  0.646636  0.750885  1
  Pb  Pb34  1  0.297950  0.145082  0.248542  1
  Pb  Pb35  1  0.794027  0.352683  0.248767  1
