# generated using pymatgen
data_Tm2Ti2NbSi4
_symmetry_space_group_name_H-M   'P 1'
_cell_length_a   7.00795200
_cell_length_b   6.83933752
_cell_length_c   7.00014602
_cell_angle_alpha   71.15002969
_cell_angle_beta   90.00000000
_cell_angle_gamma   90.00000000
_symmetry_Int_Tables_number   1
_chemical_formula_structural   Tm2Ti2NbSi4
_chemical_formula_sum   'Tm4 Ti4 Nb2 Si8'
_cell_volume   317.52083404
_cell_formula_units_Z   2
loop_
 _symmetry_equiv_pos_site_id
 _symmetry_equiv_pos_as_xyz
  1  'x, y, z'
loop_
 _atom_site_type_symbol
 _atom_site_label
 _atom_site_symmetry_multiplicity
 _atom_site_fract_x
 _atom_site_fract_y
 _atom_site_fract_z
 _atom_site_occupancy
  Tm  Tm0  1  0.329707  0.566883  0.809940  1
  Tm  Tm1  1  0.829707  0.933117  0.190060  1
  Tm  Tm2  1  0.670293  0.433117  0.190060  1
  Tm  Tm3  1  0.170293  0.066883  0.809940  1
  Ti  Ti4  1  0.823141  0.749134  0.744086  1
  Ti  Ti5  1  0.323141  0.750866  0.255914  1
  Ti  Ti6  1  0.176859  0.250866  0.255914  1
  Ti  Ti7  1  0.676859  0.249134  0.744086  1
  Nb  Nb8  1  0.500000  0.000000  0.500000  1
  Nb  Nb9  1  0.000000  0.500000  0.500000  1
  Si  Si10  1  0.537897  0.869686  0.916573  1
  Si  Si11  1  0.037897  0.630314  0.083427  1
  Si  Si12  1  0.462103  0.130314  0.083427  1
  Si  Si13  1  0.962103  0.369686  0.916573  1
  Si  Si14  1  0.124874  0.871374  0.504182  1
  Si  Si15  1  0.624874  0.628626  0.495818  1
  Si  Si16  1  0.875126  0.128626  0.495818  1
  Si  Si17  1  0.375126  0.371374  0.504182  1
