# generated using pymatgen
data_LiFe(SiRu2)2
_symmetry_space_group_name_H-M   'P 1'
_cell_length_a   4.14491500
_cell_length_b   4.14491500
_cell_length_c   5.84516100
_cell_angle_alpha   90.00000000
_cell_angle_beta   90.00000000
_cell_angle_gamma   90.00000000
_symmetry_Int_Tables_number   1
_chemical_formula_structural   LiFe(SiRu2)2
_chemical_formula_sum   'Li1 Fe1 Si2 Ru4'
_cell_volume   100.42173852
_cell_formula_units_Z   1
loop_
 _symmetry_equiv_pos_site_id
 _symmetry_equiv_pos_as_xyz
  1  'x, y, z'
loop_
 _atom_site_type_symbol
 _atom_site_label
 _atom_site_symmetry_multiplicity
 _atom_site_fract_x
 _atom_site_fract_y
 _atom_site_fract_z
 _atom_site_occupancy
  Li  Li0  1  0.499999  0.499999  0.000000  1
  Fe  Fe1  1  0.000000  0.000000  0.500000  1
  Si  Si2  1  0.000000  0.000000  0.000000  1
  Si  Si3  1  0.499999  0.499999  0.500000  1
  Ru  Ru4  1  0.499999  0.000000  0.252066  1
  Ru  Ru5  1  0.000000  0.499999  0.252066  1
  Ru  Ru6  1  0.499999  0.000000  0.747935  1
  Ru  Ru7  1  0.000000  0.499999  0.747935  1
