# generated using pymatgen
data_Pr2Tm(LuSn2)2
_symmetry_space_group_name_H-M   'P 1'
_cell_length_a   8.03082700
_cell_length_b   8.24260700
_cell_length_c   15.47321900
_cell_angle_alpha   90.00000000
_cell_angle_beta   90.00000000
_cell_angle_gamma   90.00000000
_symmetry_Int_Tables_number   1
_chemical_formula_structural   Pr2Tm(LuSn2)2
_chemical_formula_sum   'Pr8 Tm4 Lu8 Sn16'
_cell_volume   1024.24897113
_cell_formula_units_Z   4
loop_
 _symmetry_equiv_pos_site_id
 _symmetry_equiv_pos_as_xyz
  1  'x, y, z'
loop_
 _atom_site_type_symbol
 _atom_site_label
 _atom_site_symmetry_multiplicity
 _atom_site_fract_x
 _atom_site_fract_y
 _atom_site_fract_z
 _atom_site_occupancy
  Pr  Pr0  1  0.509836  0.324508  0.903917  1
  Pr  Pr1  1  0.009836  0.175492  0.596083  1
  Pr  Pr2  1  0.490164  0.675492  0.403917  1
  Pr  Pr3  1  0.990164  0.824508  0.096083  1
  Pr  Pr4  1  0.490208  0.675511  0.096120  1
  Pr  Pr5  1  0.990208  0.824489  0.403880  1
  Pr  Pr6  1  0.509792  0.324489  0.596120  1
  Pr  Pr7  1  0.009792  0.175511  0.903880  1
  Tm  Tm8  1  0.349225  0.835794  0.875040  1
  Tm  Tm9  1  0.849225  0.664206  0.624960  1
  Tm  Tm10  1  0.650775  0.164206  0.375040  1
  Tm  Tm11  1  0.150775  0.335794  0.124960  1
  Lu  Lu12  1  0.650811  0.164173  0.124973  1
  Lu  Lu13  1  0.150811  0.335827  0.375027  1
  Lu  Lu14  1  0.349189  0.835827  0.624973  1
  Lu  Lu15  1  0.849189  0.664173  0.875027  1
  Lu  Lu16  1  0.181812  0.503126  0.749976  1
  Lu  Lu17  1  0.681812  0.996874  0.750024  1
  Lu  Lu18  1  0.818188  0.496874  0.249976  1
  Lu  Lu19  1  0.318188  0.003126  0.250024  1
  Sn  Sn20  1  0.314842  0.041928  0.042076  1
  Sn  Sn21  1  0.814842  0.458072  0.457924  1
  Sn  Sn22  1  0.685158  0.958072  0.542076  1
  Sn  Sn23  1  0.185158  0.541928  0.957924  1
  Sn  Sn24  1  0.685812  0.958030  0.958124  1
  Sn  Sn25  1  0.185812  0.541970  0.541876  1
  Sn  Sn26  1  0.314188  0.041970  0.458124  1
  Sn  Sn27  1  0.814188  0.458030  0.041876  1
  Sn  Sn28  1  0.546150  0.625736  0.749966  1
  Sn  Sn29  1  0.046150  0.874264  0.750034  1
  Sn  Sn30  1  0.453850  0.374264  0.249966  1
  Sn  Sn31  1  0.953850  0.125736  0.250034  1
  Sn  Sn32  1  0.317002  0.144125  0.749898  1
  Sn  Sn33  1  0.817002  0.355875  0.750102  1
  Sn  Sn34  1  0.682998  0.855875  0.249898  1
  Sn  Sn35  1  0.182998  0.644125  0.250102  1
