# generated using pymatgen
data_La2Zn(Ga3Pt2)3
_symmetry_space_group_name_H-M   'P 1'
_cell_length_a   4.14741300
_cell_length_b   7.41154410
_cell_length_c   21.11085600
_cell_angle_alpha   90.06027560
_cell_angle_beta   90.00000000
_cell_angle_gamma   90.00000000
_symmetry_Int_Tables_number   1
_chemical_formula_structural   La2Zn(Ga3Pt2)3
_chemical_formula_sum   'La4 Zn2 Ga18 Pt12'
_cell_volume   648.92063552
_cell_formula_units_Z   2
loop_
 _symmetry_equiv_pos_site_id
 _symmetry_equiv_pos_as_xyz
  1  'x, y, z'
loop_
 _atom_site_type_symbol
 _atom_site_label
 _atom_site_symmetry_multiplicity
 _atom_site_fract_x
 _atom_site_fract_y
 _atom_site_fract_z
 _atom_site_occupancy
  La  La0  1  0.250000  0.116232  0.640980  1
  La  La1  1  0.750000  0.884316  0.358810  1
  La  La2  1  0.250000  0.383411  0.140258  1
  La  La3  1  0.750000  0.617355  0.859747  1
  Zn  Zn4  1  0.750000  0.353059  0.384138  1
  Zn  Zn5  1  0.750000  0.885252  0.983173  1
  Ga  Ga6  1  0.750000  0.686198  0.200911  1
  Ga  Ga7  1  0.250000  0.868123  0.491290  1
  Ga  Ga8  1  0.250000  0.635897  0.990314  1
  Ga  Ga9  1  0.250000  0.317430  0.800564  1
  Ga  Ga10  1  0.750000  0.077130  0.207257  1
  Ga  Ga11  1  0.250000  0.647597  0.616879  1
  Ga  Ga12  1  0.250000  0.576865  0.294087  1
  Ga  Ga13  1  0.250000  0.188363  0.301715  1
  Ga  Ga14  1  0.750000  0.144580  0.884478  1
  Ga  Ga15  1  0.250000  0.922210  0.792442  1
  Ga  Ga16  1  0.750000  0.371125  0.008864  1
  Ga  Ga17  1  0.750000  0.611251  0.482092  1
  Ga  Ga18  1  0.750000  0.129454  0.507967  1
  Ga  Ga19  1  0.250000  0.105784  0.016281  1
  Ga  Ga20  1  0.250000  0.853447  0.115964  1
  Ga  Ga21  1  0.250000  0.385098  0.515757  1
  Ga  Ga22  1  0.750000  0.422086  0.706399  1
  Ga  Ga23  1  0.750000  0.817684  0.699999  1
  Pt  Pt24  1  0.750000  0.384140  0.261375  1
  Pt  Pt25  1  0.250000  0.884633  0.237730  1
  Pt  Pt26  1  0.250000  0.616323  0.737131  1
  Pt  Pt27  1  0.750000  0.117836  0.763183  1
  Pt  Pt28  1  0.250000  0.160271  0.426034  1
  Pt  Pt29  1  0.750000  0.422855  0.585185  1
  Pt  Pt30  1  0.750000  0.081212  0.086745  1
  Pt  Pt31  1  0.250000  0.923556  0.912541  1
  Pt  Pt32  1  0.750000  0.833137  0.573457  1
  Pt  Pt33  1  0.250000  0.333783  0.926719  1
  Pt  Pt34  1  0.750000  0.663562  0.075600  1
  Pt  Pt35  1  0.250000  0.578748  0.413931  1
