# generated using pymatgen
data_PrThRe17C3
_symmetry_space_group_name_H-M   'P 1'
_cell_length_a   7.06360245
_cell_length_b   7.06360274
_cell_length_c   7.06360142
_cell_angle_alpha   82.99459395
_cell_angle_beta   82.99458939
_cell_angle_gamma   82.99460022
_symmetry_Int_Tables_number   1
_chemical_formula_structural   PrThRe17C3
_chemical_formula_sum   'Pr1 Th1 Re17 C3'
_cell_volume   345.13483222
_cell_formula_units_Z   1
loop_
 _symmetry_equiv_pos_site_id
 _symmetry_equiv_pos_as_xyz
  1  'x, y, z'
loop_
 _atom_site_type_symbol
 _atom_site_label
 _atom_site_symmetry_multiplicity
 _atom_site_fract_x
 _atom_site_fract_y
 _atom_site_fract_z
 _atom_site_occupancy
  Pr  Pr0  1  0.349495  0.349495  0.349495  1
  Th  Th1  1  0.648534  0.648534  0.648534  1
  Re  Re2  1  0.001058  0.001058  0.499195  1
  Re  Re3  1  0.499195  0.001058  0.001058  1
  Re  Re4  1  0.001058  0.499195  0.001058  1
  Re  Re5  1  0.721769  0.278795  0.000060  1
  Re  Re6  1  0.000060  0.721769  0.278795  1
  Re  Re7  1  0.278795  0.000060  0.721769  1
  Re  Re8  1  0.000060  0.278795  0.721769  1
  Re  Re9  1  0.721769  0.000060  0.278795  1
  Re  Re10  1  0.278795  0.721769  0.000060  1
  Re  Re11  1  0.349565  0.349565  0.860161  1
  Re  Re12  1  0.860161  0.349565  0.349565  1
  Re  Re13  1  0.349565  0.860161  0.349565  1
  Re  Re14  1  0.651979  0.651979  0.136287  1
  Re  Re15  1  0.136287  0.651979  0.651979  1
  Re  Re16  1  0.651979  0.136287  0.651979  1
  Re  Re17  1  0.901621  0.901621  0.901621  1
  Re  Re18  1  0.098425  0.098425  0.098425  1
  C  C19  1  0.500119  0.500119  0.999593  1
  C  C20  1  0.999593  0.500119  0.500119  1
  C  C21  1  0.500119  0.999593  0.500119  1
