# generated using pymatgen
data_YbTh5(SnIr)6
_symmetry_space_group_name_H-M   'P 1'
_cell_length_a   7.55123994
_cell_length_b   7.57170017
_cell_length_c   8.24844500
_cell_angle_alpha   90.00000000
_cell_angle_beta   90.00000000
_cell_angle_gamma   119.90218577
_symmetry_Int_Tables_number   1
_chemical_formula_structural   YbTh5(SnIr)6
_chemical_formula_sum   'Yb1 Th5 Sn6 Ir6'
_cell_volume   408.82891820
_cell_formula_units_Z   1
loop_
 _symmetry_equiv_pos_site_id
 _symmetry_equiv_pos_as_xyz
  1  'x, y, z'
loop_
 _atom_site_type_symbol
 _atom_site_label
 _atom_site_symmetry_multiplicity
 _atom_site_fract_x
 _atom_site_fract_y
 _atom_site_fract_z
 _atom_site_occupancy
  Yb  Yb0  1  0.406081  0.000181  0.750000  1
  Th  Th1  1  0.412322  0.999787  0.250000  1
  Th  Th2  1  0.585590  0.587013  0.750000  1
  Th  Th3  1  0.590453  0.587620  0.250000  1
  Th  Th4  1  0.002045  0.412040  0.250000  1
  Th  Th5  1  0.999437  0.413471  0.750000  1
  Sn  Sn6  1  0.251771  0.244685  0.502831  1
  Sn  Sn7  1  0.251771  0.244685  0.997169  1
  Sn  Sn8  1  0.741130  0.999994  0.996508  1
  Sn  Sn9  1  0.007138  0.755337  0.503194  1
  Sn  Sn10  1  0.741130  0.999994  0.503492  1
  Sn  Sn11  1  0.007138  0.755337  0.996806  1
  Ir  Ir12  1  0.676018  0.342775  0.496711  1
  Ir  Ir13  1  0.676018  0.342775  0.003289  1
  Ir  Ir14  1  0.333109  0.657230  0.004078  1
  Ir  Ir15  1  0.333109  0.657230  0.495922  1
  Ir  Ir16  1  0.987397  0.000155  0.750000  1
  Ir  Ir17  1  0.998343  0.999692  0.250000  1
