# generated using pymatgen
data_Hf5Zr13Ta5(ReO2)3
_symmetry_space_group_name_H-M   'P 1'
_cell_length_a   8.68497003
_cell_length_b   8.72238018
_cell_length_c   8.53949400
_cell_angle_alpha   90.00000000
_cell_angle_beta   90.00000000
_cell_angle_gamma   119.50798621
_symmetry_Int_Tables_number   1
_chemical_formula_structural   Hf5Zr13Ta5(ReO2)3
_chemical_formula_sum   'Hf5 Zr13 Ta5 Re3 O6'
_cell_volume   562.98651931
_cell_formula_units_Z   1
loop_
 _symmetry_equiv_pos_site_id
 _symmetry_equiv_pos_as_xyz
  1  'x, y, z'
loop_
 _atom_site_type_symbol
 _atom_site_label
 _atom_site_symmetry_multiplicity
 _atom_site_fract_x
 _atom_site_fract_y
 _atom_site_fract_z
 _atom_site_occupancy
  Hf  Hf0  1  0.546905  0.093950  0.750000  1
  Hf  Hf1  1  0.093205  0.546978  0.250000  1
  Hf  Hf2  1  0.907353  0.452861  0.750000  1
  Hf  Hf3  1  0.452696  0.545110  0.250000  1
  Hf  Hf4  1  0.545493  0.452080  0.750000  1
  Zr  Zr5  1  0.452042  0.904903  0.250000  1
  Zr  Zr6  1  0.203863  0.408470  0.563783  1
  Zr  Zr7  1  0.794086  0.588039  0.436817  1
  Zr  Zr8  1  0.587382  0.794441  0.564271  1
  Zr  Zr9  1  0.794086  0.588039  0.063183  1
  Zr  Zr10  1  0.409456  0.204178  0.438237  1
  Zr  Zr11  1  0.203863  0.408470  0.936217  1
  Zr  Zr12  1  0.205022  0.795332  0.563006  1
  Zr  Zr13  1  0.409456  0.204178  0.061763  1
  Zr  Zr14  1  0.793607  0.205139  0.437901  1
  Zr  Zr15  1  0.587382  0.794441  0.935729  1
  Zr  Zr16  1  0.793607  0.205139  0.062099  1
  Zr  Zr17  1  0.205022  0.795332  0.936994  1
  Ta  Ta18  1  0.113805  0.222732  0.250000  1
  Ta  Ta19  1  0.889332  0.779420  0.750000  1
  Ta  Ta20  1  0.779497  0.886394  0.250000  1
  Ta  Ta21  1  0.003936  0.002761  0.996293  1
  Ta  Ta22  1  0.003936  0.002761  0.503707  1
  Re  Re23  1  0.225723  0.114228  0.750000  1
  Re  Re24  1  0.110793  0.888055  0.250000  1
  Re  Re25  1  0.889193  0.114354  0.750000  1
  O  O26  1  0.499353  0.001753  0.995762  1
  O  O27  1  0.001233  0.501128  0.999639  1
  O  O28  1  0.499353  0.001753  0.504238  1
  O  O29  1  0.499046  0.498227  0.998784  1
  O  O30  1  0.001233  0.501128  0.500361  1
  O  O31  1  0.499046  0.498227  0.501216  1
