# generated using pymatgen
data_NaNiH3
_symmetry_space_group_name_H-M   'P 1'
_cell_length_a   3.38962424
_cell_length_b   5.88174742
_cell_length_c   3.40832611
_cell_angle_alpha   54.65484140
_cell_angle_beta   90.01462084
_cell_angle_gamma   54.82384457
_symmetry_Int_Tables_number   1
_chemical_formula_structural   NaNiH3
_chemical_formula_sum   'Na1 Ni1 H3'
_cell_volume   39.22894885
_cell_formula_units_Z   1
loop_
 _symmetry_equiv_pos_site_id
 _symmetry_equiv_pos_as_xyz
  1  'x, y, z'
loop_
 _atom_site_type_symbol
 _atom_site_label
 _atom_site_symmetry_multiplicity
 _atom_site_fract_x
 _atom_site_fract_y
 _atom_site_fract_z
 _atom_site_occupancy
  Na  Na0  1  0.284445  0.871859  0.323120  1
  Ni  Ni1  1  0.284274  0.370577  0.323673  1
  H  H2  1  0.785488  0.870560  0.825373  1
  H  H3  1  0.785377  0.369702  0.323924  1
  H  H4  1  0.283334  0.373057  0.821173  1
