# generated using pymatgen
data_Li4SmNi9As5P2
_symmetry_space_group_name_H-M   'P 1'
_cell_length_a   9.39185047
_cell_length_b   9.38430991
_cell_length_c   3.77731400
_cell_angle_alpha   90.00000000
_cell_angle_beta   90.00000000
_cell_angle_gamma   120.09100685
_symmetry_Int_Tables_number   1
_chemical_formula_structural   Li4SmNi9As5P2
_chemical_formula_sum   'Li4 Sm1 Ni9 As5 P2'
_cell_volume   288.05023420
_cell_formula_units_Z   1
loop_
 _symmetry_equiv_pos_site_id
 _symmetry_equiv_pos_as_xyz
  1  'x, y, z'
loop_
 _atom_site_type_symbol
 _atom_site_label
 _atom_site_symmetry_multiplicity
 _atom_site_fract_x
 _atom_site_fract_y
 _atom_site_fract_z
 _atom_site_occupancy
  Li  Li0  1  0.771216  0.548396  0.500000  1
  Li  Li1  1  0.452563  0.223235  0.500000  1
  Li  Li2  1  0.768582  0.222808  0.500000  1
  Li  Li3  1  0.999597  0.000055  0.500000  1
  Sm  Sm4  1  0.337492  0.670059  0.000000  1
  Ni  Ni5  1  0.283056  0.383319  0.500000  1
  Ni  Ni6  1  0.613202  0.888782  0.500000  1
  Ni  Ni7  1  0.111110  0.733749  0.500000  1
  Ni  Ni8  1  0.499890  0.459220  0.000000  1
  Ni  Ni9  1  0.542689  0.040688  0.000000  1
  Ni  Ni10  1  0.954666  0.504646  0.000000  1
  Ni  Ni11  1  0.711203  0.756863  0.000000  1
  Ni  Ni12  1  0.245489  0.955884  0.000000  1
  Ni  Ni13  1  0.043332  0.280353  0.000000  1
  As  As14  1  0.965857  0.759217  0.000000  1
  As  As15  1  0.246141  0.209000  0.000000  1
  As  As16  1  0.788877  0.032721  0.000000  1
  As  As17  1  0.665571  0.333182  0.000000  1
  As  As18  1  0.071128  0.452213  0.500000  1
  P  P19  1  0.546010  0.618419  0.500000  1
  P  P20  1  0.382328  0.927191  0.500000  1
