# generated using pymatgen
data_HoErGe(PRh2)6
_symmetry_space_group_name_H-M   'P 1'
_cell_length_a   9.66752200
_cell_length_b   9.66752108
_cell_length_c   3.86330000
_cell_angle_alpha   90.00000000
_cell_angle_beta   90.00000000
_cell_angle_gamma   120.00001000
_symmetry_Int_Tables_number   1
_chemical_formula_structural   HoErGe(PRh2)6
_chemical_formula_sum   'Ho1 Er1 Ge1 P6 Rh12'
_cell_volume   312.69383482
_cell_formula_units_Z   1
loop_
 _symmetry_equiv_pos_site_id
 _symmetry_equiv_pos_as_xyz
  1  'x, y, z'
loop_
 _atom_site_type_symbol
 _atom_site_label
 _atom_site_symmetry_multiplicity
 _atom_site_fract_x
 _atom_site_fract_y
 _atom_site_fract_z
 _atom_site_occupancy
  Ho  Ho0  1  0.666667  0.333333  0.251486  1
  Er  Er1  1  0.333333  0.666667  0.748545  1
  Ge  Ge2  1  0.000000  0.000000  0.500059  1
  P  P3  1  0.404405  0.286146  0.750841  1
  P  P4  1  0.713854  0.118259  0.750841  1
  P  P5  1  0.881741  0.595595  0.750841  1
  P  P6  1  0.595425  0.713809  0.249134  1
  P  P7  1  0.286191  0.881616  0.249134  1
  P  P8  1  0.118384  0.404575  0.249134  1
  Rh  Rh9  1  0.452407  0.068109  0.750139  1
  Rh  Rh10  1  0.931891  0.384298  0.750139  1
  Rh  Rh11  1  0.615702  0.547593  0.750139  1
  Rh  Rh12  1  0.547280  0.931470  0.249875  1
  Rh  Rh13  1  0.068530  0.615811  0.249875  1
  Rh  Rh14  1  0.384189  0.452720  0.249875  1
  Rh  Rh15  1  0.155662  0.275482  0.751842  1
  Rh  Rh16  1  0.724518  0.880181  0.751842  1
  Rh  Rh17  1  0.119819  0.844338  0.751842  1
  Rh  Rh18  1  0.844376  0.724569  0.248139  1
  Rh  Rh19  1  0.275431  0.119806  0.248139  1
  Rh  Rh20  1  0.880194  0.155624  0.248139  1
