# generated using pymatgen
data_Ho4Er4Ti11Si16Pd
_symmetry_space_group_name_H-M   'P 1'
_cell_length_a   7.03536043
_cell_length_b   7.03506379
_cell_length_c   12.84605279
_cell_angle_alpha   90.12263620
_cell_angle_beta   89.88463487
_cell_angle_gamma   89.71360139
_symmetry_Int_Tables_number   1
_chemical_formula_structural   Ho4Er4Ti11Si16Pd
_chemical_formula_sum   'Ho4 Er4 Ti11 Si16 Pd1'
_cell_volume   635.79452441
_cell_formula_units_Z   1
loop_
 _symmetry_equiv_pos_site_id
 _symmetry_equiv_pos_as_xyz
  1  'x, y, z'
loop_
 _atom_site_type_symbol
 _atom_site_label
 _atom_site_symmetry_multiplicity
 _atom_site_fract_x
 _atom_site_fract_y
 _atom_site_fract_z
 _atom_site_occupancy
  Ho  Ho0  1  0.340350  0.003109  0.466843  1
  Ho  Ho1  1  0.496819  0.841660  0.717616  1
  Ho  Ho2  1  0.501178  0.157778  0.214122  1
  Ho  Ho3  1  0.841593  0.496992  0.282441  1
  Er  Er4  1  0.157470  0.501136  0.785685  1
  Er  Er5  1  0.656148  0.000101  0.968271  1
  Er  Er6  1  0.002618  0.340804  0.533315  1
  Er  Er7  1  0.000161  0.656272  0.031568  1
  Ti  Ti8  1  0.175575  0.826092  0.248926  1
  Ti  Ti9  1  0.826329  0.175682  0.751090  1
  Ti  Ti10  1  0.673109  0.672911  0.500131  1
  Ti  Ti11  1  0.148405  0.005480  0.876761  1
  Ti  Ti12  1  0.494613  0.653040  0.123652  1
  Ti  Ti13  1  0.507542  0.350503  0.626656  1
  Ti  Ti14  1  0.653249  0.494511  0.876266  1
  Ti  Ti15  1  0.349997  0.507311  0.373503  1
  Ti  Ti16  1  0.850202  0.993213  0.374491  1
  Ti  Ti17  1  0.005740  0.148029  0.123162  1
  Ti  Ti18  1  0.993438  0.850217  0.625706  1
  Si  Si19  1  0.201701  0.133965  0.685083  1
  Si  Si20  1  0.372651  0.711207  0.931415  1
  Si  Si21  1  0.631601  0.294515  0.433031  1
  Si  Si22  1  0.711960  0.372915  0.068343  1
  Si  Si23  1  0.294015  0.630983  0.567285  1
  Si  Si24  1  0.797345  0.867266  0.182610  1
  Si  Si25  1  0.133156  0.202121  0.314911  1
  Si  Si26  1  0.867615  0.796969  0.817437  1
  Si  Si27  1  0.286387  0.943529  0.064552  1
  Si  Si28  1  0.547379  0.791370  0.314719  1
  Si  Si29  1  0.450637  0.209948  0.813928  1
  Si  Si30  1  0.792041  0.547231  0.685309  1
  Si  Si31  1  0.209598  0.450974  0.186060  1
  Si  Si32  1  0.708647  0.047829  0.565068  1
  Si  Si33  1  0.944257  0.286499  0.935312  1
  Si  Si34  1  0.047494  0.708025  0.435084  1
  Pd  Pd35  1  0.328983  0.329814  0.999645  1
