# generated using pymatgen
data_Bi8RuO18
_symmetry_space_group_name_H-M   'P 1'
_cell_length_a   9.51643100
_cell_length_b   9.51642852
_cell_length_c   5.36853900
_cell_angle_alpha   90.00000000
_cell_angle_beta   90.00000000
_cell_angle_gamma   119.99999820
_symmetry_Int_Tables_number   1
_chemical_formula_structural   Bi8RuO18
_chemical_formula_sum   'Bi8 Ru1 O18'
_cell_volume   421.05113737
_cell_formula_units_Z   1
loop_
 _symmetry_equiv_pos_site_id
 _symmetry_equiv_pos_as_xyz
  1  'x, y, z'
loop_
 _atom_site_type_symbol
 _atom_site_label
 _atom_site_symmetry_multiplicity
 _atom_site_fract_x
 _atom_site_fract_y
 _atom_site_fract_z
 _atom_site_occupancy
  Bi  Bi0  1  0.001493  0.371601  0.498809  1
  Bi  Bi1  1  0.300475  0.292848  0.991344  1
  Bi  Bi2  1  0.992371  0.699525  0.991344  1
  Bi  Bi3  1  0.628399  0.629894  0.498809  1
  Bi  Bi4  1  0.370106  0.998507  0.498809  1
  Bi  Bi5  1  0.707152  0.007629  0.991344  1
  Bi  Bi6  1  0.000000  0.000000  0.508317  1
  Bi  Bi7  1  0.333333  0.666667  0.009748  1
  Ru  Ru8  1  0.666667  0.333333  0.983743  1
  O  O9  1  0.077959  0.215319  0.732082  1
  O  O10  1  0.233122  0.447967  0.231997  1
  O  O11  1  0.121624  0.585959  0.784919  1
  O  O12  1  0.414041  0.535664  0.784919  1
  O  O13  1  0.214846  0.766878  0.231997  1
  O  O14  1  0.137360  0.922041  0.732082  1
  O  O15  1  0.552033  0.785154  0.231997  1
  O  O16  1  0.218643  0.097836  0.300323  1
  O  O17  1  0.464336  0.878376  0.784919  1
  O  O18  1  0.784681  0.862640  0.732082  1
  O  O19  1  0.473776  0.225228  0.776546  1
  O  O20  1  0.593096  0.141891  0.183376  1
  O  O21  1  0.548795  0.406904  0.183376  1
  O  O22  1  0.774772  0.248548  0.776546  1
  O  O23  1  0.902164  0.120807  0.300323  1
  O  O24  1  0.751452  0.526224  0.776546  1
  O  O25  1  0.858109  0.451205  0.183376  1
  O  O26  1  0.879193  0.781357  0.300323  1
