# generated using pymatgen
data_Ho4Al18CuIr4Pt
_symmetry_space_group_name_H-M   'P 1'
_cell_length_a   7.56693057
_cell_length_b   7.56693041
_cell_length_c   9.40524333
_cell_angle_alpha   90.09573463
_cell_angle_beta   90.09573368
_cell_angle_gamma   119.71525766
_symmetry_Int_Tables_number   1
_chemical_formula_structural   Ho4Al18CuIr4Pt
_chemical_formula_sum   'Ho4 Al18 Cu1 Ir4 Pt1'
_cell_volume   467.71006529
_cell_formula_units_Z   1
loop_
 _symmetry_equiv_pos_site_id
 _symmetry_equiv_pos_as_xyz
  1  'x, y, z'
loop_
 _atom_site_type_symbol
 _atom_site_label
 _atom_site_symmetry_multiplicity
 _atom_site_fract_x
 _atom_site_fract_y
 _atom_site_fract_z
 _atom_site_occupancy
  Ho  Ho0  1  0.994186  0.670447  0.250628  1
  Ho  Ho1  1  0.004778  0.329060  0.749448  1
  Ho  Ho2  1  0.670940  0.995222  0.250552  1
  Ho  Ho3  1  0.329553  0.005814  0.749372  1
  Al  Al4  1  0.128089  0.127359  0.251277  1
  Al  Al5  1  0.872641  0.871911  0.748723  1
  Al  Al6  1  0.003638  0.337632  0.077722  1
  Al  Al7  1  0.002037  0.665610  0.922291  1
  Al  Al8  1  0.001006  0.665805  0.572914  1
  Al  Al9  1  0.334195  0.998994  0.427086  1
  Al  Al10  1  0.999478  0.333898  0.426669  1
  Al  Al11  1  0.666102  0.000522  0.573331  1
  Al  Al12  1  0.662368  0.996362  0.922278  1
  Al  Al13  1  0.334390  0.997963  0.077709  1
  Al  Al14  1  0.332520  0.332512  0.551846  1
  Al  Al15  1  0.667488  0.667480  0.448154  1
  Al  Al16  1  0.664435  0.667214  0.057670  1
  Al  Al17  1  0.332786  0.335565  0.942330  1
  Al  Al18  1  0.339387  0.549144  0.250939  1
  Al  Al19  1  0.661316  0.453486  0.747049  1
  Al  Al20  1  0.546514  0.338684  0.252951  1
  Al  Al21  1  0.450856  0.660613  0.749061  1
  Cu  Cu22  1  0.000266  0.999734  0.000000  1
  Ir  Ir23  1  0.328007  0.671993  0.000000  1
  Ir  Ir24  1  0.328439  0.671561  0.500000  1
  Ir  Ir25  1  0.671895  0.328105  0.500000  1
  Ir  Ir26  1  0.000145  0.999855  0.500000  1
  Pt  Pt27  1  0.672546  0.327454  0.000000  1
