# generated using pymatgen
data_Nd8Er11Si16Mo
_symmetry_space_group_name_H-M   'P 1'
_cell_length_a   7.40275452
_cell_length_b   14.61950400
_cell_length_c   7.73144772
_cell_angle_alpha   90.00000000
_cell_angle_beta   89.86034161
_cell_angle_gamma   90.00000000
_symmetry_Int_Tables_number   1
_chemical_formula_structural   Nd8Er11Si16Mo
_chemical_formula_sum   'Nd8 Er11 Si16 Mo1'
_cell_volume   836.73034583
_cell_formula_units_Z   1
loop_
 _symmetry_equiv_pos_site_id
 _symmetry_equiv_pos_as_xyz
  1  'x, y, z'
loop_
 _atom_site_type_symbol
 _atom_site_label
 _atom_site_symmetry_multiplicity
 _atom_site_fract_x
 _atom_site_fract_y
 _atom_site_fract_z
 _atom_site_occupancy
  Nd  Nd0  1  0.025643  0.101266  0.174568  1
  Nd  Nd1  1  0.025643  0.398734  0.174568  1
  Nd  Nd2  1  0.515785  0.101661  0.315447  1
  Nd  Nd3  1  0.515785  0.398339  0.315447  1
  Nd  Nd4  1  0.478243  0.595322  0.679595  1
  Nd  Nd5  1  0.478243  0.904678  0.679595  1
  Nd  Nd6  1  0.978366  0.596947  0.820532  1
  Nd  Nd7  1  0.978366  0.903053  0.820532  1
  Er  Er8  1  0.320172  0.620909  0.175802  1
  Er  Er9  1  0.320172  0.879090  0.175802  1
  Er  Er10  1  0.819385  0.622568  0.321962  1
  Er  Er11  1  0.819385  0.877431  0.321962  1
  Er  Er12  1  0.848289  0.250000  0.488343  1
  Er  Er13  1  0.151699  0.750000  0.510574  1
  Er  Er14  1  0.181652  0.126927  0.681570  1
  Er  Er15  1  0.181652  0.373072  0.681570  1
  Er  Er16  1  0.678487  0.127256  0.830202  1
  Er  Er17  1  0.678487  0.372743  0.830202  1
  Er  Er18  1  0.652188  0.750000  0.990409  1
  Si  Si19  1  0.646248  0.537709  0.031415  1
  Si  Si20  1  0.646248  0.962291  0.031415  1
  Si  Si21  1  0.026981  0.750000  0.115661  1
  Si  Si22  1  0.713526  0.250000  0.123598  1
  Si  Si23  1  0.228947  0.250000  0.361154  1
  Si  Si24  1  0.523311  0.750000  0.386390  1
  Si  Si25  1  0.144767  0.536895  0.468156  1
  Si  Si26  1  0.144767  0.963105  0.468156  1
  Si  Si27  1  0.851847  0.040843  0.531782  1
  Si  Si28  1  0.851847  0.459156  0.531782  1
  Si  Si29  1  0.475385  0.250000  0.619804  1
  Si  Si30  1  0.771356  0.750000  0.622915  1
  Si  Si31  1  0.273633  0.750000  0.877532  1
  Si  Si32  1  0.987957  0.250000  0.899996  1
  Si  Si33  1  0.354389  0.049361  0.970661  1
  Si  Si34  1  0.354389  0.450638  0.970661  1
  Mo  Mo35  1  0.356764  0.250000  0.000239  1
