# generated using pymatgen
data_Ac20Si15Sn
_symmetry_space_group_name_H-M   'P 1'
_cell_length_a   8.33545407
_cell_length_b   8.32204689
_cell_length_c   16.44820829
_cell_angle_alpha   90.04743683
_cell_angle_beta   90.02102622
_cell_angle_gamma   89.95156710
_symmetry_Int_Tables_number   1
_chemical_formula_structural   Ac20Si15Sn
_chemical_formula_sum   'Ac20 Si15 Sn1'
_cell_volume   1140.97908903
_cell_formula_units_Z   1
loop_
 _symmetry_equiv_pos_site_id
 _symmetry_equiv_pos_as_xyz
  1  'x, y, z'
loop_
 _atom_site_type_symbol
 _atom_site_label
 _atom_site_symmetry_multiplicity
 _atom_site_fract_x
 _atom_site_fract_y
 _atom_site_fract_z
 _atom_site_occupancy
  Ac  Ac0  1  0.382725  0.472189  0.371096  1
  Ac  Ac1  1  0.865706  0.036091  0.372871  1
  Ac  Ac2  1  0.973888  0.126244  0.122004  1
  Ac  Ac3  1  0.024696  0.875509  0.626312  1
  Ac  Ac4  1  0.624474  0.524761  0.873212  1
  Ac  Ac5  1  0.476837  0.372472  0.630296  1
  Ac  Ac6  1  0.525830  0.623706  0.126543  1
  Ac  Ac7  1  0.125044  0.974852  0.878077  1
  Ac  Ac8  1  0.985520  0.618177  0.051412  1
  Ac  Ac9  1  0.012717  0.373924  0.557544  1
  Ac  Ac10  1  0.620400  0.986067  0.946412  1
  Ac  Ac11  1  0.120272  0.515063  0.804095  1
  Ac  Ac12  1  0.873920  0.480191  0.296337  1
  Ac  Ac13  1  0.515337  0.118822  0.194907  1
  Ac  Ac14  1  0.486943  0.882295  0.698370  1
  Ac  Ac15  1  0.384251  0.015874  0.445502  1
  Ac  Ac16  1  0.681740  0.692337  0.502702  1
  Ac  Ac17  1  0.810159  0.191198  0.751372  1
  Ac  Ac18  1  0.192706  0.809568  0.242204  1
  Ac  Ac19  1  0.308650  0.308199  0.000313  1
  Si  Si20  1  0.917818  0.290363  0.939902  1
  Si  Si21  1  0.713337  0.081520  0.560638  1
  Si  Si22  1  0.211169  0.418749  0.189952  1
  Si  Si23  1  0.790401  0.581891  0.691249  1
  Si  Si24  1  0.417932  0.210816  0.811752  1
  Si  Si25  1  0.582367  0.790029  0.309370  1
  Si  Si26  1  0.289103  0.918374  0.057506  1
  Si  Si27  1  0.828230  0.804589  0.791427  1
  Si  Si28  1  0.173673  0.195307  0.288678  1
  Si  Si29  1  0.804049  0.828521  0.208443  1
  Si  Si30  1  0.312025  0.668063  0.548735  1
  Si  Si31  1  0.695897  0.328992  0.040373  1
  Si  Si32  1  0.671204  0.306063  0.462967  1
  Si  Si33  1  0.329766  0.695304  0.959209  1
  Si  Si34  1  0.195502  0.171572  0.712029  1
  Sn  Sn35  1  0.075714  0.712305  0.436187  1
