# generated using pymatgen
data_Sr2Ca3Pt4
_symmetry_space_group_name_H-M   'P 1'
_cell_length_a   7.71391200
_cell_length_b   7.92579400
_cell_length_c   15.08491800
_cell_angle_alpha   90.00000000
_cell_angle_beta   90.00000000
_cell_angle_gamma   90.00000000
_symmetry_Int_Tables_number   1
_chemical_formula_structural   Sr2Ca3Pt4
_chemical_formula_sum   'Sr8 Ca12 Pt16'
_cell_volume   922.27495289
_cell_formula_units_Z   4
loop_
 _symmetry_equiv_pos_site_id
 _symmetry_equiv_pos_as_xyz
  1  'x, y, z'
loop_
 _atom_site_type_symbol
 _atom_site_label
 _atom_site_symmetry_multiplicity
 _atom_site_fract_x
 _atom_site_fract_y
 _atom_site_fract_z
 _atom_site_occupancy
  Sr  Sr0  1  0.501750  0.323358  0.904793  1
  Sr  Sr1  1  0.001750  0.176642  0.595207  1
  Sr  Sr2  1  0.498250  0.676642  0.404793  1
  Sr  Sr3  1  0.998250  0.823358  0.095207  1
  Sr  Sr4  1  0.498250  0.676642  0.095207  1
  Sr  Sr5  1  0.998250  0.823358  0.404793  1
  Sr  Sr6  1  0.501750  0.323358  0.595207  1
  Sr  Sr7  1  0.001750  0.176642  0.904793  1
  Ca  Ca8  1  0.340449  0.827235  0.876428  1
  Ca  Ca9  1  0.840449  0.672765  0.623572  1
  Ca  Ca10  1  0.659551  0.172765  0.376429  1
  Ca  Ca11  1  0.159551  0.327235  0.123571  1
  Ca  Ca12  1  0.659551  0.172765  0.123571  1
  Ca  Ca13  1  0.159551  0.327235  0.376429  1
  Ca  Ca14  1  0.340449  0.827235  0.623572  1
  Ca  Ca15  1  0.840449  0.672765  0.876428  1
  Ca  Ca16  1  0.177741  0.494239  0.750000  1
  Ca  Ca17  1  0.677741  0.005761  0.750000  1
  Ca  Ca18  1  0.822259  0.505761  0.250000  1
  Ca  Ca19  1  0.322259  0.994239  0.250000  1
  Pt  Pt20  1  0.335712  0.034896  0.040159  1
  Pt  Pt21  1  0.835712  0.465104  0.459841  1
  Pt  Pt22  1  0.664288  0.965104  0.540159  1
  Pt  Pt23  1  0.164288  0.534896  0.959841  1
  Pt  Pt24  1  0.664288  0.965104  0.959841  1
  Pt  Pt25  1  0.164288  0.534896  0.540159  1
  Pt  Pt26  1  0.335712  0.034896  0.459841  1
  Pt  Pt27  1  0.835712  0.465104  0.040159  1
  Pt  Pt28  1  0.548591  0.615874  0.750000  1
  Pt  Pt29  1  0.048591  0.884126  0.750000  1
  Pt  Pt30  1  0.451409  0.384126  0.250000  1
  Pt  Pt31  1  0.951409  0.115874  0.250000  1
  Pt  Pt32  1  0.301880  0.127490  0.750000  1
  Pt  Pt33  1  0.801880  0.372510  0.750000  1
  Pt  Pt34  1  0.698120  0.872510  0.250000  1
  Pt  Pt35  1  0.198120  0.627490  0.250000  1
