# generated using pymatgen
data_Yb4Mn2ZnRu5
_symmetry_space_group_name_H-M   'P 1'
_cell_length_a   5.38012144
_cell_length_b   5.38012073
_cell_length_c   8.50647600
_cell_angle_alpha   90.00000000
_cell_angle_beta   90.00000000
_cell_angle_gamma   121.54569588
_symmetry_Int_Tables_number   1
_chemical_formula_structural   Yb4Mn2ZnRu5
_chemical_formula_sum   'Yb4 Mn2 Zn1 Ru5'
_cell_volume   209.83944182
_cell_formula_units_Z   1
loop_
 _symmetry_equiv_pos_site_id
 _symmetry_equiv_pos_as_xyz
  1  'x, y, z'
loop_
 _atom_site_type_symbol
 _atom_site_label
 _atom_site_symmetry_multiplicity
 _atom_site_fract_x
 _atom_site_fract_y
 _atom_site_fract_z
 _atom_site_occupancy
  Yb  Yb0  1  0.332942  0.667058  0.435182  1
  Yb  Yb1  1  0.663237  0.336763  0.569097  1
  Yb  Yb2  1  0.663237  0.336763  0.930903  1
  Yb  Yb3  1  0.332942  0.667058  0.064818  1
  Mn  Mn4  1  0.009949  0.990051  0.505122  1
  Mn  Mn5  1  0.009949  0.990051  0.994878  1
  Zn  Zn6  1  0.828639  0.171361  0.250000  1
  Ru  Ru7  1  0.817021  0.664672  0.250000  1
  Ru  Ru8  1  0.335328  0.182979  0.250000  1
  Ru  Ru9  1  0.179888  0.820112  0.750000  1
  Ru  Ru10  1  0.159049  0.332179  0.750000  1
  Ru  Ru11  1  0.667821  0.840951  0.750000  1
