# generated using pymatgen
data_CaDyMnIr3
_symmetry_space_group_name_H-M   'P 1'
_cell_length_a   5.20509460
_cell_length_b   5.20509524
_cell_length_c   5.20509724
_cell_angle_alpha   63.38567672
_cell_angle_beta   63.38567567
_cell_angle_gamma   63.38567763
_symmetry_Int_Tables_number   1
_chemical_formula_structural   CaDyMnIr3
_chemical_formula_sum   'Ca1 Dy1 Mn1 Ir3'
_cell_volume   107.18995812
_cell_formula_units_Z   1
loop_
 _symmetry_equiv_pos_site_id
 _symmetry_equiv_pos_as_xyz
  1  'x, y, z'
loop_
 _atom_site_type_symbol
 _atom_site_label
 _atom_site_symmetry_multiplicity
 _atom_site_fract_x
 _atom_site_fract_y
 _atom_site_fract_z
 _atom_site_occupancy
  Ca  Ca0  1  0.000484  0.000484  0.000484  1
  Dy  Dy1  1  0.249321  0.249321  0.249321  1
  Mn  Mn2  1  0.624584  0.624584  0.624584  1
  Ir  Ir3  1  0.625750  0.625750  0.124110  1
  Ir  Ir4  1  0.625750  0.124110  0.625750  1
  Ir  Ir5  1  0.124110  0.625750  0.625750  1
