# generated using pymatgen
data_Y4HoP12Pd4Ru15
_symmetry_space_group_name_H-M   'P 1'
_cell_length_a   12.70941807
_cell_length_b   12.62887645
_cell_length_c   3.96644000
_cell_angle_alpha   90.00000000
_cell_angle_beta   90.00000000
_cell_angle_gamma   120.36646837
_symmetry_Int_Tables_number   1
_chemical_formula_structural   Y4HoP12Pd4Ru15
_chemical_formula_sum   'Y4 Ho1 P12 Pd4 Ru15'
_cell_volume   549.29579477
_cell_formula_units_Z   1
loop_
 _symmetry_equiv_pos_site_id
 _symmetry_equiv_pos_as_xyz
  1  'x, y, z'
loop_
 _atom_site_type_symbol
 _atom_site_label
 _atom_site_symmetry_multiplicity
 _atom_site_fract_x
 _atom_site_fract_y
 _atom_site_fract_z
 _atom_site_occupancy
  Y  Y0  1  0.003598  0.179952  0.500000  1
  Y  Y1  1  0.817806  0.814926  0.500000  1
  Y  Y2  1  0.182109  0.999359  0.500000  1
  Y  Y3  1  0.334487  0.667881  0.000000  1
  Ho  Ho4  1  0.663708  0.333562  0.000000  1
  P  P5  1  0.001482  0.814590  0.000000  1
  P  P6  1  0.186619  0.185716  0.000000  1
  P  P7  1  0.814917  0.992827  0.000000  1
  P  P8  1  0.687310  0.174543  0.500000  1
  P  P9  1  0.820082  0.518499  0.500000  1
  P  P10  1  0.479490  0.302674  0.500000  1
  P  P11  1  0.179085  0.698732  0.500000  1
  P  P12  1  0.520127  0.821993  0.500000  1
  P  P13  1  0.301748  0.481611  0.500000  1
  P  P14  1  0.009643  0.375552  0.000000  1
  P  P15  1  0.633971  0.634093  0.000000  1
  P  P16  1  0.365358  0.999953  0.000000  1
  Pd  Pd17  1  0.995953  0.551740  0.000000  1
  Pd  Pd18  1  0.447146  0.447101  0.000000  1
  Pd  Pd19  1  0.554432  0.004340  0.000000  1
  Pd  Pd20  1  0.813746  0.187132  0.000000  1
  Ru  Ru21  1  0.000351  0.712756  0.500000  1
  Ru  Ru22  1  0.287588  0.288256  0.500000  1
  Ru  Ru23  1  0.715707  0.003376  0.500000  1
  Ru  Ru24  1  0.814975  0.621114  0.000000  1
  Ru  Ru25  1  0.377414  0.193274  0.000000  1
  Ru  Ru26  1  0.185654  0.805863  0.000000  1
  Ru  Ru27  1  0.621645  0.816346  0.000000  1
  Ru  Ru28  1  0.195467  0.379668  0.000000  1
  Ru  Ru29  1  0.869694  0.362586  0.500000  1
  Ru  Ru30  1  0.632034  0.508167  0.500000  1
  Ru  Ru31  1  0.487815  0.123546  0.500000  1
  Ru  Ru32  1  0.369476  0.875088  0.500000  1
  Ru  Ru33  1  0.507390  0.632238  0.500000  1
  Ru  Ru34  1  0.121423  0.490929  0.500000  1
  Ru  Ru35  1  0.000547  0.000016  0.000000  1
