# generated using pymatgen
data_Cu3Mo6RhN2
_symmetry_space_group_name_H-M   'P 1'
_cell_length_a   6.75847900
_cell_length_b   6.74657269
_cell_length_c   6.75707112
_cell_angle_alpha   89.85384825
_cell_angle_beta   90.00000000
_cell_angle_gamma   90.00000000
_symmetry_Int_Tables_number   1
_chemical_formula_structural   Cu3Mo6RhN2
_chemical_formula_sum   'Cu6 Mo12 Rh2 N4'
_cell_volume   308.09826300
_cell_formula_units_Z   2
loop_
 _symmetry_equiv_pos_site_id
 _symmetry_equiv_pos_as_xyz
  1  'x, y, z'
loop_
 _atom_site_type_symbol
 _atom_site_label
 _atom_site_symmetry_multiplicity
 _atom_site_fract_x
 _atom_site_fract_y
 _atom_site_fract_z
 _atom_site_occupancy
  Cu  Cu0  1  0.818764  0.679575  0.567519  1
  Cu  Cu1  1  0.318764  0.320425  0.432481  1
  Cu  Cu2  1  0.067731  0.563806  0.325821  1
  Cu  Cu3  1  0.432834  0.073531  0.191801  1
  Cu  Cu4  1  0.567731  0.436194  0.674179  1
  Cu  Cu5  1  0.932834  0.926469  0.808199  1
  Mo  Mo6  1  0.627522  0.045410  0.545480  1
  Mo  Mo7  1  0.127522  0.954590  0.454520  1
  Mo  Mo8  1  0.877926  0.553238  0.961781  1
  Mo  Mo9  1  0.377926  0.446762  0.038219  1
  Mo  Mo10  1  0.207534  0.621384  0.704408  1
  Mo  Mo11  1  0.291877  0.125813  0.802682  1
  Mo  Mo12  1  0.791877  0.874187  0.197318  1
  Mo  Mo13  1  0.707534  0.378616  0.295592  1
  Mo  Mo14  1  0.046732  0.206245  0.127345  1
  Mo  Mo15  1  0.949954  0.290924  0.626056  1
  Mo  Mo16  1  0.546732  0.793755  0.872655  1
  Mo  Mo17  1  0.449954  0.709076  0.373944  1
  Rh  Rh18  1  0.684731  0.181862  0.931852  1
  Rh  Rh19  1  0.184731  0.818138  0.068148  1
  N  N20  1  0.373319  0.876764  0.626463  1
  N  N21  1  0.873319  0.123236  0.373537  1
  N  N22  1  0.121075  0.375110  0.876862  1
  N  N23  1  0.621075  0.624890  0.123138  1
