# generated using pymatgen
data_Y3Er13Cd4NiIr3
_symmetry_space_group_name_H-M   'P 1'
_cell_length_a   9.52914347
_cell_length_b   9.57635489
_cell_length_c   9.58331268
_cell_angle_alpha   59.98141638
_cell_angle_beta   59.64459689
_cell_angle_gamma   59.53403745
_symmetry_Int_Tables_number   1
_chemical_formula_structural   Y3Er13Cd4NiIr3
_chemical_formula_sum   'Y3 Er13 Cd4 Ni1 Ir3'
_cell_volume   614.42621955
_cell_formula_units_Z   1
loop_
 _symmetry_equiv_pos_site_id
 _symmetry_equiv_pos_as_xyz
  1  'x, y, z'
loop_
 _atom_site_type_symbol
 _atom_site_label
 _atom_site_symmetry_multiplicity
 _atom_site_fract_x
 _atom_site_fract_y
 _atom_site_fract_z
 _atom_site_occupancy
  Y  Y0  1  0.189833  0.810128  0.188282  1
  Y  Y1  1  0.811362  0.817149  0.187131  1
  Y  Y2  1  0.188678  0.188003  0.810588  1
  Er  Er3  1  0.601275  0.596142  0.596229  1
  Er  Er4  1  0.602798  0.598270  0.202842  1
  Er  Er5  1  0.602790  0.202661  0.598603  1
  Er  Er6  1  0.201384  0.599801  0.600443  1
  Er  Er7  1  0.057922  0.438431  0.439548  1
  Er  Er8  1  0.437764  0.060947  0.060741  1
  Er  Er9  1  0.438606  0.060040  0.440219  1
  Er  Er10  1  0.059564  0.437505  0.062557  1
  Er  Er11  1  0.438948  0.439763  0.060066  1
  Er  Er12  1  0.059293  0.062869  0.438193  1
  Er  Er13  1  0.189599  0.811712  0.810578  1
  Er  Er14  1  0.808330  0.188524  0.187756  1
  Er  Er15  1  0.810960  0.188542  0.815607  1
  Cd  Cd16  1  0.829802  0.830949  0.830703  1
  Cd  Cd17  1  0.829864  0.831207  0.507319  1
  Cd  Cd18  1  0.830083  0.506620  0.831325  1
  Cd  Cd19  1  0.506551  0.830884  0.830849  1
  Ni  Ni20  1  0.825048  0.391533  0.391596  1
  Ir  Ir21  1  0.393937  0.391598  0.391566  1
  Ir  Ir22  1  0.393250  0.392775  0.823995  1
  Ir  Ir23  1  0.392361  0.823942  0.393260  1
