# generated using pymatgen
data_YbAl2SiNi
_symmetry_space_group_name_H-M   'P 1'
_cell_length_a   4.00855400
_cell_length_b   4.00886733
_cell_length_c   5.94643900
_cell_angle_alpha   70.30083751
_cell_angle_beta   70.30243740
_cell_angle_gamma   90.00001394
_symmetry_Int_Tables_number   1
_chemical_formula_structural   YbAl2SiNi
_chemical_formula_sum   'Yb1 Al2 Si1 Ni1'
_cell_volume   84.00235481
_cell_formula_units_Z   1
loop_
 _symmetry_equiv_pos_site_id
 _symmetry_equiv_pos_as_xyz
  1  'x, y, z'
loop_
 _atom_site_type_symbol
 _atom_site_label
 _atom_site_symmetry_multiplicity
 _atom_site_fract_x
 _atom_site_fract_y
 _atom_site_fract_z
 _atom_site_occupancy
  Yb  Yb0  1  0.997608  0.997608  0.004784  1
  Al  Al1  1  0.742233  0.242233  0.515533  1
  Al  Al2  1  0.242235  0.742235  0.515528  1
  Si  Si3  1  0.401500  0.401500  0.196999  1
  Ni  Ni4  1  0.616423  0.616423  0.767155  1
