# generated using pymatgen
data_Tb2B4Os3Ru
_symmetry_space_group_name_H-M   'P 1'
_cell_length_a   6.64737852
_cell_length_b   5.94459490
_cell_length_c   5.59494869
_cell_angle_alpha   70.27195499
_cell_angle_beta   57.32935676
_cell_angle_gamma   52.38835359
_symmetry_Int_Tables_number   1
_chemical_formula_structural   Tb2B4Os3Ru
_chemical_formula_sum   'Tb2 B4 Os3 Ru1'
_cell_volume   147.41956453
_cell_formula_units_Z   1
loop_
 _symmetry_equiv_pos_site_id
 _symmetry_equiv_pos_as_xyz
  1  'x, y, z'
loop_
 _atom_site_type_symbol
 _atom_site_label
 _atom_site_symmetry_multiplicity
 _atom_site_fract_x
 _atom_site_fract_y
 _atom_site_fract_z
 _atom_site_occupancy
  Tb  Tb0  1  0.000668  0.000668  0.999332  1
  Tb  Tb1  1  0.248548  0.248547  0.251452  1
  B  B2  1  0.310269  0.690174  0.312143  1
  B  B3  1  0.560248  0.941265  0.557147  1
  B  B4  1  0.690172  0.310271  0.687415  1
  B  B5  1  0.941264  0.560249  0.941339  1
  Os  Os6  1  0.638931  0.638933  0.361068  1
  Os  Os7  1  0.887613  0.887614  0.612386  1
  Os  Os8  1  0.361547  0.361549  0.638452  1
  Ru  Ru9  1  0.610732  0.610733  0.889267  1
