# generated using pymatgen
data_Y5TiRuO12
_symmetry_space_group_name_H-M   'P 1'
_cell_length_a   6.86884030
_cell_length_b   6.86884058
_cell_length_c   7.30878486
_cell_angle_alpha   74.45746901
_cell_angle_beta   74.45746611
_cell_angle_gamma   50.64821723
_symmetry_Int_Tables_number   1
_chemical_formula_structural   Y5TiRuO12
_chemical_formula_sum   'Y5 Ti1 Ru1 O12'
_cell_volume   254.66451482
_cell_formula_units_Z   1
loop_
 _symmetry_equiv_pos_site_id
 _symmetry_equiv_pos_as_xyz
  1  'x, y, z'
loop_
 _atom_site_type_symbol
 _atom_site_label
 _atom_site_symmetry_multiplicity
 _atom_site_fract_x
 _atom_site_fract_y
 _atom_site_fract_z
 _atom_site_occupancy
  Y  Y0  1  0.303992  0.300314  0.360207  1
  Y  Y1  1  0.699686  0.696008  0.639793  1
  Y  Y2  1  0.688701  0.696750  0.168174  1
  Y  Y3  1  0.303250  0.311299  0.831826  1
  Y  Y4  1  0.001214  0.998786  0.500000  1
  Ti  Ti5  1  0.767424  0.232576  0.000000  1
  Ru  Ru6  1  0.250175  0.749825  0.000000  1
  O  O7  1  0.096646  0.597515  0.574075  1
  O  O8  1  0.001152  0.997875  0.184705  1
  O  O9  1  0.402485  0.903354  0.425925  1
  O  O10  1  0.497304  0.502942  0.186419  1
  O  O11  1  0.095715  0.575492  0.083364  1
  O  O12  1  0.903103  0.402779  0.424365  1
  O  O13  1  0.002125  0.998848  0.815295  1
  O  O14  1  0.597221  0.096896  0.575635  1
  O  O15  1  0.497058  0.502696  0.813581  1
  O  O16  1  0.572171  0.103928  0.081519  1
  O  O17  1  0.424508  0.904285  0.916636  1
  O  O18  1  0.896072  0.427829  0.918481  1
