# generated using pymatgen
data_Nd2Dy7HoBi6
_symmetry_space_group_name_H-M   'P 1'
_cell_length_a   8.36904900
_cell_length_b   9.53005800
_cell_length_c   12.20821300
_cell_angle_alpha   90.00000000
_cell_angle_beta   90.00000000
_cell_angle_gamma   90.00251622
_symmetry_Int_Tables_number   1
_chemical_formula_structural   Nd2Dy7HoBi6
_chemical_formula_sum   'Nd4 Dy14 Ho2 Bi12'
_cell_volume   973.69682103
_cell_formula_units_Z   2
loop_
 _symmetry_equiv_pos_site_id
 _symmetry_equiv_pos_as_xyz
  1  'x, y, z'
loop_
 _atom_site_type_symbol
 _atom_site_label
 _atom_site_symmetry_multiplicity
 _atom_site_fract_x
 _atom_site_fract_y
 _atom_site_fract_z
 _atom_site_occupancy
  Nd  Nd0  1  0.171828  0.750020  0.226531  1
  Nd  Nd1  1  0.328172  0.749980  0.726531  1
  Nd  Nd2  1  0.828175  0.250022  0.773413  1
  Nd  Nd3  1  0.671825  0.249978  0.273413  1
  Dy  Dy4  1  0.810264  0.562850  0.064784  1
  Dy  Dy5  1  0.689736  0.937150  0.564784  1
  Dy  Dy6  1  0.189739  0.062754  0.935226  1
  Dy  Dy7  1  0.310261  0.437246  0.435226  1
  Dy  Dy8  1  0.189676  0.437218  0.935219  1
  Dy  Dy9  1  0.310324  0.062782  0.435219  1
  Dy  Dy10  1  0.476614  0.750033  0.003825  1
  Dy  Dy11  1  0.023386  0.749967  0.503825  1
  Dy  Dy12  1  0.523486  0.249990  0.996186  1
  Dy  Dy13  1  0.976514  0.250010  0.496186  1
  Dy  Dy14  1  0.663732  0.750029  0.289430  1
  Dy  Dy15  1  0.836268  0.749971  0.789430  1
  Dy  Dy16  1  0.336260  0.249978  0.710543  1
  Dy  Dy17  1  0.163740  0.250022  0.210543  1
  Ho  Ho18  1  0.810327  0.937017  0.064793  1
  Ho  Ho19  1  0.689673  0.562983  0.564793  1
  Bi  Bi20  1  0.403293  0.749897  0.467998  1
  Bi  Bi21  1  0.096707  0.750103  0.967998  1
  Bi  Bi22  1  0.596911  0.250292  0.532072  1
  Bi  Bi23  1  0.903089  0.249708  0.032072  1
  Bi  Bi24  1  0.934995  0.507286  0.327945  1
  Bi  Bi25  1  0.565005  0.992714  0.827945  1
  Bi  Bi26  1  0.064980  0.007271  0.672080  1
  Bi  Bi27  1  0.435020  0.492729  0.172080  1
  Bi  Bi28  1  0.064954  0.492721  0.672059  1
  Bi  Bi29  1  0.435046  0.007279  0.172059  1
  Bi  Bi30  1  0.934941  0.992688  0.327898  1
  Bi  Bi31  1  0.565059  0.507312  0.827898  1
