# generated using pymatgen
data_Ho8Sc11Si16Ag
_symmetry_space_group_name_H-M   'P 1'
_cell_length_a   7.01264668
_cell_length_b   7.37106476
_cell_length_c   13.98006200
_cell_angle_alpha   90.00000000
_cell_angle_beta   90.00000000
_cell_angle_gamma   89.90041067
_symmetry_Int_Tables_number   1
_chemical_formula_structural   Ho8Sc11Si16Ag
_chemical_formula_sum   'Ho8 Sc11 Si16 Ag1'
_cell_volume   722.63771826
_cell_formula_units_Z   1
loop_
 _symmetry_equiv_pos_site_id
 _symmetry_equiv_pos_as_xyz
  1  'x, y, z'
loop_
 _atom_site_type_symbol
 _atom_site_label
 _atom_site_symmetry_multiplicity
 _atom_site_fract_x
 _atom_site_fract_y
 _atom_site_fract_z
 _atom_site_occupancy
  Ho  Ho0  1  0.011350  0.175969  0.096461  1
  Ho  Ho1  1  0.990349  0.815782  0.901190  1
  Ho  Ho2  1  0.484499  0.674071  0.901658  1
  Ho  Ho3  1  0.990349  0.815782  0.598810  1
  Ho  Ho4  1  0.510711  0.323464  0.096401  1
  Ho  Ho5  1  0.011350  0.175969  0.403539  1
  Ho  Ho6  1  0.510711  0.323464  0.403599  1
  Ho  Ho7  1  0.484499  0.674071  0.598342  1
  Sc  Sc8  1  0.838389  0.497080  0.250000  1
  Sc  Sc9  1  0.339899  0.003221  0.250000  1
  Sc  Sc10  1  0.658028  0.997404  0.750000  1
  Sc  Sc11  1  0.326571  0.182034  0.626450  1
  Sc  Sc12  1  0.670885  0.823542  0.374894  1
  Sc  Sc13  1  0.170622  0.678454  0.374197  1
  Sc  Sc14  1  0.670885  0.823542  0.125106  1
  Sc  Sc15  1  0.835007  0.326972  0.626368  1
  Sc  Sc16  1  0.326571  0.182034  0.873550  1
  Sc  Sc17  1  0.835007  0.326972  0.873632  1
  Sc  Sc18  1  0.170622  0.678454  0.125803  1
  Si  Si19  1  0.028390  0.100102  0.750000  1
  Si  Si20  1  0.968962  0.887666  0.250000  1
  Si  Si21  1  0.467456  0.616310  0.250000  1
  Si  Si22  1  0.536608  0.385421  0.750000  1
  Si  Si23  1  0.288270  0.882605  0.750000  1
  Si  Si24  1  0.713870  0.128179  0.250000  1
  Si  Si25  1  0.213057  0.371884  0.250000  1
  Si  Si26  1  0.777022  0.629490  0.750000  1
  Si  Si27  1  0.161312  0.460498  0.532138  1
  Si  Si28  1  0.842578  0.535532  0.462099  1
  Si  Si29  1  0.344084  0.965546  0.462530  1
  Si  Si30  1  0.842578  0.535532  0.037901  1
  Si  Si31  1  0.658151  0.033927  0.540101  1
  Si  Si32  1  0.161312  0.460498  0.967862  1
  Si  Si33  1  0.658151  0.033927  0.959899  1
  Si  Si34  1  0.344084  0.965546  0.037470  1
  Ag  Ag35  1  0.157809  0.509056  0.750000  1
