# generated using pymatgen
data_Tm9Sc(SiB4)4
_symmetry_space_group_name_H-M   'P 1'
_cell_length_a   7.13174900
_cell_length_b   7.13174900
_cell_length_c   7.88958100
_cell_angle_alpha   90.00000000
_cell_angle_beta   90.00000000
_cell_angle_gamma   90.00000000
_symmetry_Int_Tables_number   1
_chemical_formula_structural   Tm9Sc(SiB4)4
_chemical_formula_sum   'Tm9 Sc1 Si4 B16'
_cell_volume   401.27863646
_cell_formula_units_Z   1
loop_
 _symmetry_equiv_pos_site_id
 _symmetry_equiv_pos_as_xyz
  1  'x, y, z'
loop_
 _atom_site_type_symbol
 _atom_site_label
 _atom_site_symmetry_multiplicity
 _atom_site_fract_x
 _atom_site_fract_y
 _atom_site_fract_z
 _atom_site_occupancy
  Tm  Tm0  1  0.680776  0.179618  0.225461  1
  Tm  Tm1  1  0.319224  0.820382  0.774539  1
  Tm  Tm2  1  0.319224  0.820382  0.225461  1
  Tm  Tm3  1  0.820382  0.680776  0.225461  1
  Tm  Tm4  1  0.820382  0.680776  0.774539  1
  Tm  Tm5  1  0.680776  0.179618  0.774539  1
  Tm  Tm6  1  0.179618  0.319224  0.774539  1
  Tm  Tm7  1  0.179618  0.319224  0.225461  1
  Tm  Tm8  1  0.500000  0.500000  0.500000  1
  Sc  Sc9  1  0.000000  0.000000  0.500000  1
  Si  Si10  1  0.111992  0.622533  0.500000  1
  Si  Si11  1  0.888008  0.377467  0.500000  1
  Si  Si12  1  0.377467  0.111992  0.500000  1
  Si  Si13  1  0.622533  0.888008  0.500000  1
  B  B14  1  0.173193  0.039027  0.000000  1
  B  B15  1  0.826807  0.960973  0.000000  1
  B  B16  1  0.960973  0.173193  0.000000  1
  B  B17  1  0.327061  0.539262  0.000000  1
  B  B18  1  0.039027  0.826807  0.000000  1
  B  B19  1  0.672939  0.460738  0.000000  1
  B  B20  1  0.539262  0.672939  0.000000  1
  B  B21  1  0.460738  0.327061  0.000000  1
  B  B22  1  0.089103  0.589085  0.000000  1
  B  B23  1  0.910897  0.410915  0.000000  1
  B  B24  1  0.410915  0.089103  0.000000  1
  B  B25  1  0.589085  0.910897  0.000000  1
  B  B26  1  0.000000  0.000000  0.167785  1
  B  B27  1  0.000000  0.000000  0.832215  1
  B  B28  1  0.500000  0.500000  0.832889  1
  B  B29  1  0.500000  0.500000  0.167111  1
