# generated using pymatgen
data_Sm4Tc3RuF28
_symmetry_space_group_name_H-M   'P 1'
_cell_length_a   5.65327132
_cell_length_b   9.09321049
_cell_length_c   12.19847324
_cell_angle_alpha   62.31394967
_cell_angle_beta   90.02952614
_cell_angle_gamma   89.89025240
_symmetry_Int_Tables_number   1
_chemical_formula_structural   Sm4Tc3RuF28
_chemical_formula_sum   'Sm4 Tc3 Ru1 F28'
_cell_volume   555.28136045
_cell_formula_units_Z   1
loop_
 _symmetry_equiv_pos_site_id
 _symmetry_equiv_pos_as_xyz
  1  'x, y, z'
loop_
 _atom_site_type_symbol
 _atom_site_label
 _atom_site_symmetry_multiplicity
 _atom_site_fract_x
 _atom_site_fract_y
 _atom_site_fract_z
 _atom_site_occupancy
  Sm  Sm0  1  0.759042  0.810084  0.766677  1
  Sm  Sm1  1  0.257790  0.188736  0.732773  1
  Sm  Sm2  1  0.241223  0.189497  0.236241  1
  Sm  Sm3  1  0.741503  0.814224  0.264528  1
  Tc  Tc4  1  0.755896  0.273146  0.956970  1
  Tc  Tc5  1  0.255914  0.726622  0.542668  1
  Tc  Tc6  1  0.244260  0.726685  0.043454  1
  Ru  Ru7  1  0.744233  0.273645  0.456615  1
  F  F8  1  0.443725  0.706903  0.919474  1
  F  F9  1  0.940712  0.291672  0.583013  1
  F  F10  1  0.555109  0.292416  0.080555  1
  F  F11  1  0.055107  0.707378  0.418928  1
  F  F12  1  0.453310  0.281347  0.543926  1
  F  F13  1  0.953760  0.718216  0.956746  1
  F  F14  1  0.545412  0.717044  0.455625  1
  F  F15  1  0.044889  0.281352  0.044668  1
  F  F16  1  0.768382  0.516499  0.859744  1
  F  F17  1  0.267066  0.483957  0.640393  1
  F  F18  1  0.231923  0.483814  0.140296  1
  F  F19  1  0.734074  0.511024  0.362151  1
  F  F20  1  0.757963  0.030391  0.052401  1
  F  F21  1  0.258644  0.968964  0.447916  1
  F  F22  1  0.242180  0.968761  0.947737  1
  F  F23  1  0.742636  0.037238  0.548291  1
  F  F24  1  0.974069  0.732732  0.634770  1
  F  F25  1  0.475688  0.269301  0.863227  1
  F  F26  1  0.028387  0.270594  0.364914  1
  F  F27  1  0.525540  0.729231  0.137247  1
  F  F28  1  0.049022  0.744334  0.170780  1
  F  F29  1  0.551986  0.255463  0.328274  1
  F  F30  1  0.951828  0.254743  0.830428  1
  F  F31  1  0.452334  0.746618  0.668698  1
  F  F32  1  0.412996  0.969636  0.231451  1
  F  F33  1  0.913409  0.030863  0.269266  1
  F  F34  1  0.584880  0.028927  0.768258  1
  F  F35  1  0.085109  0.967942  0.730897  1
