# generated using pymatgen
data_Yb3ErAl14(Si2Ir3)2
_symmetry_space_group_name_H-M   'P 1'
_cell_length_a   7.49731090
_cell_length_b   7.46854700
_cell_length_c   9.44166829
_cell_angle_alpha   89.98167063
_cell_angle_beta   90.06127325
_cell_angle_gamma   119.86201461
_symmetry_Int_Tables_number   1
_chemical_formula_structural   Yb3ErAl14(Si2Ir3)2
_chemical_formula_sum   'Yb3 Er1 Al14 Si4 Ir6'
_cell_volume   458.48267299
_cell_formula_units_Z   1
loop_
 _symmetry_equiv_pos_site_id
 _symmetry_equiv_pos_as_xyz
  1  'x, y, z'
loop_
 _atom_site_type_symbol
 _atom_site_label
 _atom_site_symmetry_multiplicity
 _atom_site_fract_x
 _atom_site_fract_y
 _atom_site_fract_z
 _atom_site_occupancy
  Yb  Yb0  1  0.006078  0.342310  0.754774  1
  Yb  Yb1  1  0.670398  0.001626  0.250013  1
  Yb  Yb2  1  0.319431  0.990532  0.745049  1
  Er  Er3  1  0.001268  0.668550  0.249895  1
  Al  Al4  1  0.130399  0.126518  0.250060  1
  Al  Al5  1  0.872138  0.871323  0.749972  1
  Al  Al6  1  0.000370  0.328860  0.429240  1
  Al  Al7  1  0.669285  0.000391  0.576017  1
  Al  Al8  1  0.663274  0.998401  0.923658  1
  Al  Al9  1  0.340154  0.004685  0.071202  1
  Al  Al10  1  0.332715  0.333992  0.557265  1
  Al  Al11  1  0.663366  0.668383  0.441557  1
  Al  Al12  1  0.662866  0.668206  0.058315  1
  Al  Al13  1  0.335878  0.332246  0.942776  1
  Al  Al14  1  0.336717  0.546418  0.250281  1
  Al  Al15  1  0.660036  0.450155  0.751426  1
  Al  Al16  1  0.548743  0.344548  0.249681  1
  Al  Al17  1  0.455874  0.660506  0.748849  1
  Si  Si18  1  0.001553  0.327718  0.075729  1
  Si  Si19  1  0.997037  0.670822  0.931539  1
  Si  Si20  1  0.991535  0.659193  0.568344  1
  Si  Si21  1  0.340745  0.007304  0.424047  1
  Ir  Ir22  1  0.689272  0.338935  0.004024  1
  Ir  Ir23  1  0.311030  0.662256  0.999228  1
  Ir  Ir24  1  0.319111  0.678141  0.498373  1
  Ir  Ir25  1  0.672544  0.330261  0.498823  1
  Ir  Ir26  1  0.000553  0.997811  0.001684  1
  Ir  Ir27  1  0.007631  0.989907  0.498177  1
