# generated using pymatgen
data_KIn6IrAu3
_symmetry_space_group_name_H-M   'P 1'
_cell_length_a   8.35911100
_cell_length_b   8.35911084
_cell_length_c   4.27083800
_cell_angle_alpha   90.00000000
_cell_angle_beta   90.00000000
_cell_angle_gamma   120.00000461
_symmetry_Int_Tables_number   1
_chemical_formula_structural   KIn6IrAu3
_chemical_formula_sum   'K1 In6 Ir1 Au3'
_cell_volume   258.44247155
_cell_formula_units_Z   1
loop_
 _symmetry_equiv_pos_site_id
 _symmetry_equiv_pos_as_xyz
  1  'x, y, z'
loop_
 _atom_site_type_symbol
 _atom_site_label
 _atom_site_symmetry_multiplicity
 _atom_site_fract_x
 _atom_site_fract_y
 _atom_site_fract_z
 _atom_site_occupancy
  K  K0  1  0.000000  0.000000  0.000000  1
  In  In1  1  0.945331  0.472666  0.000000  1
  In  In2  1  0.202066  0.797934  0.500000  1
  In  In3  1  0.527334  0.054669  0.000000  1
  In  In4  1  0.527334  0.472666  0.000000  1
  In  In5  1  0.202066  0.404132  0.500000  1
  In  In6  1  0.595868  0.797934  0.500000  1
  Ir  Ir7  1  0.333333  0.666667  0.000000  1
  Au  Au8  1  0.398592  0.199296  0.500000  1
  Au  Au9  1  0.800704  0.199296  0.500000  1
  Au  Au10  1  0.800704  0.601408  0.500000  1
