# generated using pymatgen
data_Ta6Co15Si7Os
_symmetry_space_group_name_H-M   'P 1'
_cell_length_a   7.94050635
_cell_length_b   7.94050634
_cell_length_c   7.94050640
_cell_angle_alpha   59.74099310
_cell_angle_beta   59.74099855
_cell_angle_gamma   59.74099734
_symmetry_Int_Tables_number   1
_chemical_formula_structural   Ta6Co15Si7Os
_chemical_formula_sum   'Ta6 Co15 Si7 Os1'
_cell_volume   351.93919924
_cell_formula_units_Z   1
loop_
 _symmetry_equiv_pos_site_id
 _symmetry_equiv_pos_as_xyz
  1  'x, y, z'
loop_
 _atom_site_type_symbol
 _atom_site_label
 _atom_site_symmetry_multiplicity
 _atom_site_fract_x
 _atom_site_fract_y
 _atom_site_fract_z
 _atom_site_occupancy
  Ta  Ta0  1  0.200572  0.797619  0.797619  1
  Ta  Ta1  1  0.200559  0.800762  0.200559  1
  Ta  Ta2  1  0.800762  0.200559  0.200559  1
  Ta  Ta3  1  0.797619  0.200572  0.797619  1
  Ta  Ta4  1  0.797619  0.797619  0.200572  1
  Ta  Ta5  1  0.200559  0.200559  0.800762  1
  Co  Co6  1  0.498099  0.834383  0.834383  1
  Co  Co7  1  0.621578  0.621578  0.143009  1
  Co  Co8  1  0.163238  0.163238  0.504411  1
  Co  Co9  1  0.834383  0.834383  0.498099  1
  Co  Co10  1  0.167510  0.167510  0.167510  1
  Co  Co11  1  0.834173  0.834173  0.834173  1
  Co  Co12  1  0.380704  0.380704  0.856823  1
  Co  Co13  1  0.834383  0.498099  0.834383  1
  Co  Co14  1  0.619779  0.619779  0.619779  1
  Co  Co15  1  0.380704  0.856823  0.380704  1
  Co  Co16  1  0.143009  0.621578  0.621578  1
  Co  Co17  1  0.621578  0.143009  0.621578  1
  Co  Co18  1  0.163238  0.504411  0.163238  1
  Co  Co19  1  0.856823  0.380704  0.380704  1
  Co  Co20  1  0.504411  0.163238  0.163238  1
  Si  Si21  1  0.999330  0.999330  0.498453  1
  Si  Si22  1  0.501088  0.992587  0.501088  1
  Si  Si23  1  0.504883  0.504883  0.504883  1
  Si  Si24  1  0.999330  0.498453  0.999330  1
  Si  Si25  1  0.501088  0.501088  0.992587  1
  Si  Si26  1  0.498453  0.999330  0.999330  1
  Si  Si27  1  0.992587  0.501088  0.501088  1
  Os  Os28  1  0.381937  0.381937  0.381937  1
