# generated using pymatgen
data_Eu2Co12As7
_symmetry_space_group_name_H-M   'P 1'
_cell_length_a   3.78298500
_cell_length_b   9.37375595
_cell_length_c   9.39454622
_cell_angle_alpha   120.21436784
_cell_angle_beta   90.00000000
_cell_angle_gamma   90.00000000
_symmetry_Int_Tables_number   1
_chemical_formula_structural   Eu2Co12As7
_chemical_formula_sum   'Eu2 Co12 As7'
_cell_volume   287.88067823
_cell_formula_units_Z   1
loop_
 _symmetry_equiv_pos_site_id
 _symmetry_equiv_pos_as_xyz
  1  'x, y, z'
loop_
 _atom_site_type_symbol
 _atom_site_label
 _atom_site_symmetry_multiplicity
 _atom_site_fract_x
 _atom_site_fract_y
 _atom_site_fract_z
 _atom_site_occupancy
  Eu  Eu0  1  0.000000  0.666946  0.333810  1
  Eu  Eu1  1  0.500000  0.333234  0.665981  1
  Co  Co2  1  0.000000  0.375690  0.946369  1
  Co  Co3  1  0.000000  0.054004  0.429643  1
  Co  Co4  1  0.000000  0.570623  0.624958  1
  Co  Co5  1  0.000000  0.878730  0.725245  1
  Co  Co6  1  0.000000  0.274613  0.152946  1
  Co  Co7  1  0.000000  0.846808  0.121469  1
  Co  Co8  1  0.500000  0.952120  0.572835  1
  Co  Co9  1  0.500000  0.427173  0.379060  1
  Co  Co10  1  0.500000  0.620589  0.047804  1
  Co  Co11  1  0.500000  0.117414  0.905408  1
  Co  Co12  1  0.500000  0.093630  0.211766  1
  Co  Co13  1  0.500000  0.789281  0.882916  1
  As  As14  1  0.000000  0.114410  0.707022  1
  As  As15  1  0.000000  0.292979  0.406529  1
  As  As16  1  0.000000  0.592372  0.885974  1
  As  As17  1  0.500000  0.706919  0.596314  1
  As  As18  1  0.500000  0.404056  0.110963  1
  As  As19  1  0.500000  0.888981  0.293127  1
  As  As20  1  0.000000  0.999427  0.999860  1
