# generated using pymatgen
data_Hf2Sc2Fe3Si4Ni
_symmetry_space_group_name_H-M   'P 1'
_cell_length_a   3.97397700
_cell_length_b   6.38517095
_cell_length_c   6.93525379
_cell_angle_alpha   89.93503500
_cell_angle_beta   90.00000000
_cell_angle_gamma   90.00000000
_symmetry_Int_Tables_number   1
_chemical_formula_structural   Hf2Sc2Fe3Si4Ni
_chemical_formula_sum   'Hf2 Sc2 Fe3 Si4 Ni1'
_cell_volume   175.97863999
_cell_formula_units_Z   1
loop_
 _symmetry_equiv_pos_site_id
 _symmetry_equiv_pos_as_xyz
  1  'x, y, z'
loop_
 _atom_site_type_symbol
 _atom_site_label
 _atom_site_symmetry_multiplicity
 _atom_site_fract_x
 _atom_site_fract_y
 _atom_site_fract_z
 _atom_site_occupancy
  Hf  Hf0  1  0.250000  0.991837  0.306102  1
  Hf  Hf1  1  0.250000  0.499935  0.198796  1
  Sc  Sc2  1  0.750000  0.002248  0.694777  1
  Sc  Sc3  1  0.750000  0.507503  0.800585  1
  Fe  Fe4  1  0.250000  0.655755  0.558231  1
  Fe  Fe5  1  0.750000  0.845318  0.066687  1
  Fe  Fe6  1  0.750000  0.343771  0.435566  1
  Si  Si7  1  0.250000  0.292124  0.602212  1
  Si  Si8  1  0.250000  0.788287  0.890813  1
  Si  Si9  1  0.750000  0.708448  0.395396  1
  Si  Si10  1  0.750000  0.209175  0.113933  1
  Ni  Ni11  1  0.250000  0.155597  0.936904  1
