# generated using pymatgen
data_Dy7Ho5(TmRh3)2
_symmetry_space_group_name_H-M   'P 1'
_cell_length_a   9.76284448
_cell_length_b   9.76284473
_cell_length_c   6.17302840
_cell_angle_alpha   89.96417245
_cell_angle_beta   90.03583325
_cell_angle_gamma   119.99916556
_symmetry_Int_Tables_number   1
_chemical_formula_structural   Dy7Ho5(TmRh3)2
_chemical_formula_sum   'Dy7 Ho5 Tm2 Rh6'
_cell_volume   509.54811397
_cell_formula_units_Z   1
loop_
 _symmetry_equiv_pos_site_id
 _symmetry_equiv_pos_as_xyz
  1  'x, y, z'
loop_
 _atom_site_type_symbol
 _atom_site_label
 _atom_site_symmetry_multiplicity
 _atom_site_fract_x
 _atom_site_fract_y
 _atom_site_fract_z
 _atom_site_occupancy
  Dy  Dy0  1  0.123933  0.876067  0.253779  1
  Dy  Dy1  1  0.752161  0.876146  0.253725  1
  Dy  Dy2  1  0.123854  0.247839  0.253725  1
  Dy  Dy3  1  0.876090  0.123910  0.753759  1
  Dy  Dy4  1  0.247804  0.123873  0.753791  1
  Dy  Dy5  1  0.876127  0.752196  0.753791  1
  Dy  Dy6  1  0.540880  0.459120  0.447314  1
  Ho  Ho7  1  0.918324  0.459072  0.446902  1
  Ho  Ho8  1  0.540928  0.081676  0.446902  1
  Ho  Ho9  1  0.458949  0.541051  0.946933  1
  Ho  Ho10  1  0.081945  0.541045  0.946965  1
  Ho  Ho11  1  0.458955  0.918055  0.946965  1
  Tm  Tm12  1  0.333264  0.666736  0.457740  1
  Tm  Tm13  1  0.666730  0.333270  0.957612  1
  Rh  Rh14  1  0.809138  0.190862  0.180732  1
  Rh  Rh15  1  0.381516  0.190479  0.180377  1
  Rh  Rh16  1  0.809521  0.618484  0.180377  1
  Rh  Rh17  1  0.190877  0.809123  0.680667  1
  Rh  Rh18  1  0.618337  0.809331  0.680743  1
  Rh  Rh19  1  0.190669  0.381663  0.680743  1
