# generated using pymatgen
data_Tm3In3HgIr2
_symmetry_space_group_name_H-M   'P 1'
_cell_length_a   7.78256500
_cell_length_b   7.78256475
_cell_length_c   3.80658800
_cell_angle_alpha   90.00000000
_cell_angle_beta   90.00000000
_cell_angle_gamma   119.99999680
_symmetry_Int_Tables_number   1
_chemical_formula_structural   Tm3In3HgIr2
_chemical_formula_sum   'Tm3 In3 Hg1 Ir2'
_cell_volume   199.66963282
_cell_formula_units_Z   1
loop_
 _symmetry_equiv_pos_site_id
 _symmetry_equiv_pos_as_xyz
  1  'x, y, z'
loop_
 _atom_site_type_symbol
 _atom_site_label
 _atom_site_symmetry_multiplicity
 _atom_site_fract_x
 _atom_site_fract_y
 _atom_site_fract_z
 _atom_site_occupancy
  Tm  Tm0  1  0.966458  0.381387  0.500000  1
  Tm  Tm1  1  0.618613  0.585072  0.500000  1
  Tm  Tm2  1  0.414928  0.033542  0.500000  1
  In  In3  1  0.259208  0.257945  0.000000  1
  In  In4  1  0.998737  0.740792  0.000000  1
  In  In5  1  0.742055  0.001263  0.000000  1
  Hg  Hg6  1  0.333333  0.666667  0.000000  1
  Ir  Ir7  1  0.000000  0.000000  0.500000  1
  Ir  Ir8  1  0.666667  0.333333  0.000000  1
