# generated using pymatgen
data_MgU8S17
_symmetry_space_group_name_H-M   'P 1'
_cell_length_a   7.84585235
_cell_length_b   7.84988349
_cell_length_c   10.46320364
_cell_angle_alpha   80.17159999
_cell_angle_beta   80.15833831
_cell_angle_gamma   64.41620049
_symmetry_Int_Tables_number   1
_chemical_formula_structural   MgU8S17
_chemical_formula_sum   'Mg1 U8 S17'
_cell_volume   569.26911080
_cell_formula_units_Z   1
loop_
 _symmetry_equiv_pos_site_id
 _symmetry_equiv_pos_as_xyz
  1  'x, y, z'
loop_
 _atom_site_type_symbol
 _atom_site_label
 _atom_site_symmetry_multiplicity
 _atom_site_fract_x
 _atom_site_fract_y
 _atom_site_fract_z
 _atom_site_occupancy
  Mg  Mg0  1  0.000000  0.000000  0.000000  1
  U  U1  1  0.817271  0.302426  0.300647  1
  U  U2  1  0.302586  0.817247  0.300444  1
  U  U3  1  0.182729  0.697574  0.699353  1
  U  U4  1  0.697414  0.182753  0.699556  1
  U  U5  1  0.797315  0.797150  0.458520  1
  U  U6  1  0.202685  0.202850  0.541480  1
  U  U7  1  0.319536  0.320174  0.014063  1
  U  U8  1  0.680464  0.679826  0.985937  1
  S  S9  1  0.178944  0.567333  0.465939  1
  S  S10  1  0.567336  0.179033  0.466126  1
  S  S11  1  0.821056  0.432667  0.534061  1
  S  S12  1  0.432664  0.820967  0.533874  1
  S  S13  1  0.942921  0.329660  0.038220  1
  S  S14  1  0.329951  0.942294  0.038351  1
  S  S15  1  0.057079  0.670340  0.961780  1
  S  S16  1  0.670049  0.057706  0.961649  1
  S  S17  1  0.941051  0.941106  0.234547  1
  S  S18  1  0.058949  0.058894  0.765453  1
  S  S19  1  0.787741  0.787924  0.720638  1
  S  S20  1  0.212259  0.212076  0.279362  1
  S  S21  1  0.699358  0.698682  0.246521  1
  S  S22  1  0.300642  0.301318  0.753479  1
  S  S23  1  0.479434  0.479839  0.170819  1
  S  S24  1  0.520566  0.520161  0.829181  1
  S  S25  1  0.000000  0.000000  0.500000  1
