# generated using pymatgen
data_Er3Fe2Co7P6
_symmetry_space_group_name_H-M   'P 1'
_cell_length_a   3.68052100
_cell_length_b   10.51815000
_cell_length_c   12.06630500
_cell_angle_alpha   90.00000000
_cell_angle_beta   90.00000000
_cell_angle_gamma   90.00000000
_symmetry_Int_Tables_number   1
_chemical_formula_structural   Er3Fe2Co7P6
_chemical_formula_sum   'Er6 Fe4 Co14 P12'
_cell_volume   467.11408067
_cell_formula_units_Z   2
loop_
 _symmetry_equiv_pos_site_id
 _symmetry_equiv_pos_as_xyz
  1  'x, y, z'
loop_
 _atom_site_type_symbol
 _atom_site_label
 _atom_site_symmetry_multiplicity
 _atom_site_fract_x
 _atom_site_fract_y
 _atom_site_fract_z
 _atom_site_occupancy
  Er  Er0  1  0.750000  0.250000  0.477124  1
  Er  Er1  1  0.250000  0.750000  0.522876  1
  Er  Er2  1  0.250000  0.930859  0.795807  1
  Er  Er3  1  0.250000  0.569141  0.795807  1
  Er  Er4  1  0.750000  0.069141  0.204193  1
  Er  Er5  1  0.750000  0.430859  0.204193  1
  Fe  Fe6  1  0.250000  0.250000  0.843773  1
  Fe  Fe7  1  0.750000  0.750000  0.156227  1
  Fe  Fe8  1  0.750000  0.250000  0.012162  1
  Fe  Fe9  1  0.250000  0.750000  0.987838  1
  Co  Co10  1  0.250000  0.250000  0.299392  1
  Co  Co11  1  0.750000  0.750000  0.700608  1
  Co  Co12  1  0.250000  0.418220  0.005863  1
  Co  Co13  1  0.250000  0.081780  0.005863  1
  Co  Co14  1  0.750000  0.581780  0.994137  1
  Co  Co15  1  0.750000  0.918220  0.994137  1
  Co  Co16  1  0.250000  0.453250  0.569493  1
  Co  Co17  1  0.250000  0.046750  0.569493  1
  Co  Co18  1  0.750000  0.546750  0.430507  1
  Co  Co19  1  0.750000  0.953250  0.430507  1
  Co  Co20  1  0.250000  0.871356  0.291030  1
  Co  Co21  1  0.250000  0.628644  0.291030  1
  Co  Co22  1  0.750000  0.128644  0.708970  1
  Co  Co23  1  0.750000  0.371356  0.708970  1
  P  P24  1  0.250000  0.250000  0.116577  1
  P  P25  1  0.750000  0.750000  0.883423  1
  P  P26  1  0.250000  0.250000  0.656955  1
  P  P27  1  0.750000  0.750000  0.343045  1
  P  P28  1  0.250000  0.439171  0.383113  1
  P  P29  1  0.250000  0.060829  0.383113  1
  P  P30  1  0.750000  0.560829  0.616887  1
  P  P31  1  0.750000  0.939171  0.616887  1
  P  P32  1  0.250000  0.902500  0.106891  1
  P  P33  1  0.250000  0.597500  0.106891  1
  P  P34  1  0.750000  0.097500  0.893109  1
  P  P35  1  0.750000  0.402500  0.893109  1
