# generated using pymatgen
data_Tb3DyTmIr3
_symmetry_space_group_name_H-M   'P 1'
_cell_length_a   10.90835000
_cell_length_b   10.90619600
_cell_length_c   6.36999500
_cell_angle_alpha   90.00000000
_cell_angle_beta   90.00000000
_cell_angle_gamma   90.00000000
_symmetry_Int_Tables_number   1
_chemical_formula_structural   Tb3DyTmIr3
_chemical_formula_sum   'Tb12 Dy4 Tm4 Ir12'
_cell_volume   757.82940714
_cell_formula_units_Z   4
loop_
 _symmetry_equiv_pos_site_id
 _symmetry_equiv_pos_as_xyz
  1  'x, y, z'
loop_
 _atom_site_type_symbol
 _atom_site_label
 _atom_site_symmetry_multiplicity
 _atom_site_fract_x
 _atom_site_fract_y
 _atom_site_fract_z
 _atom_site_occupancy
  Tb  Tb0  1  0.290322  0.087748  0.377338  1
  Tb  Tb1  1  0.290322  0.912252  0.877338  1
  Tb  Tb2  1  0.709678  0.087748  0.877338  1
  Tb  Tb3  1  0.709678  0.912252  0.377338  1
  Tb  Tb4  1  0.587708  0.790368  0.877454  1
  Tb  Tb5  1  0.587708  0.209632  0.377454  1
  Tb  Tb6  1  0.412292  0.790368  0.377454  1
  Tb  Tb7  1  0.412292  0.209632  0.877454  1
  Tb  Tb8  1  0.209451  0.412354  0.622526  1
  Tb  Tb9  1  0.209451  0.587646  0.122526  1
  Tb  Tb10  1  0.790549  0.412354  0.122526  1
  Tb  Tb11  1  0.790549  0.587646  0.622526  1
  Dy  Dy12  1  0.912477  0.709453  0.122386  1
  Dy  Dy13  1  0.912477  0.290547  0.622386  1
  Dy  Dy14  1  0.087523  0.709453  0.622386  1
  Dy  Dy15  1  0.087523  0.290547  0.122386  1
  Tm  Tm16  1  0.000000  0.000000  0.500107  1
  Tm  Tm17  1  0.000000  0.000000  0.000107  1
  Tm  Tm18  1  0.500000  0.500000  0.000082  1
  Tm  Tm19  1  0.500000  0.500000  0.500082  1
  Ir  Ir20  1  0.848010  0.152342  0.250236  1
  Ir  Ir21  1  0.848010  0.847658  0.750236  1
  Ir  Ir22  1  0.151990  0.152342  0.750236  1
  Ir  Ir23  1  0.151990  0.847658  0.250236  1
  Ir  Ir24  1  0.652342  0.347758  0.749911  1
  Ir  Ir25  1  0.652342  0.652242  0.249911  1
  Ir  Ir26  1  0.347658  0.347758  0.249911  1
  Ir  Ir27  1  0.347658  0.652242  0.749911  1
  Ir  Ir28  1  0.500000  0.000000  0.121798  1
  Ir  Ir29  1  0.500000  0.000000  0.621798  1
  Ir  Ir30  1  0.000000  0.500000  0.878310  1
  Ir  Ir31  1  0.000000  0.500000  0.378310  1
