# generated using pymatgen
data_NaAg3(RhO3)2
_symmetry_space_group_name_H-M   'P 1'
_cell_length_a   5.44310762
_cell_length_b   5.44771417
_cell_length_c   6.61354538
_cell_angle_alpha   74.10219986
_cell_angle_beta   97.87873772
_cell_angle_gamma   120.02799214
_symmetry_Int_Tables_number   1
_chemical_formula_structural   NaAg3(RhO3)2
_chemical_formula_sum   'Na1 Ag3 Rh2 O6'
_cell_volume   163.29265664
_cell_formula_units_Z   1
loop_
 _symmetry_equiv_pos_site_id
 _symmetry_equiv_pos_as_xyz
  1  'x, y, z'
loop_
 _atom_site_type_symbol
 _atom_site_label
 _atom_site_symmetry_multiplicity
 _atom_site_fract_x
 _atom_site_fract_y
 _atom_site_fract_z
 _atom_site_occupancy
  Na  Na0  1  0.333333  0.166667  0.500000  1
  Ag  Ag1  1  0.687622  0.343810  0.000000  1
  Ag  Ag2  1  0.333333  0.666667  0.000000  1
  Ag  Ag3  1  0.979045  0.989523  0.000000  1
  Rh  Rh4  1  0.999653  0.499826  0.500000  1
  Rh  Rh5  1  0.667014  0.833507  0.500000  1
  O  O6  1  0.333333  0.734845  0.669959  1
  O  O7  1  0.960223  0.110805  0.669214  1
  O  O8  1  0.706444  0.483915  0.669214  1
  O  O9  1  0.706444  0.222528  0.330786  1
  O  O10  1  0.333333  0.598489  0.330041  1
  O  O11  1  0.960223  0.849418  0.330786  1
