# generated using pymatgen
data_Th10SnGe2Bi5
_symmetry_space_group_name_H-M   'P 1'
_cell_length_a   9.68522600
_cell_length_b   9.68511147
_cell_length_c   6.58376400
_cell_angle_alpha   90.00000000
_cell_angle_beta   90.00000000
_cell_angle_gamma   119.99960452
_symmetry_Int_Tables_number   1
_chemical_formula_structural   Th10SnGe2Bi5
_chemical_formula_sum   'Th10 Sn1 Ge2 Bi5'
_cell_volume   534.83645333
_cell_formula_units_Z   1
loop_
 _symmetry_equiv_pos_site_id
 _symmetry_equiv_pos_as_xyz
  1  'x, y, z'
loop_
 _atom_site_type_symbol
 _atom_site_label
 _atom_site_symmetry_multiplicity
 _atom_site_fract_x
 _atom_site_fract_y
 _atom_site_fract_z
 _atom_site_occupancy
  Th  Th0  1  0.000000  0.738806  0.750000  1
  Th  Th1  1  0.259846  0.259685  0.750000  1
  Th  Th2  1  0.330537  0.666212  0.498638  1
  Th  Th3  1  0.669463  0.335674  0.498638  1
  Th  Th4  1  0.742621  0.738891  0.250000  1
  Th  Th5  1  0.740154  0.999839  0.750000  1
  Th  Th6  1  0.000000  0.262081  0.250000  1
  Th  Th7  1  0.257379  0.996269  0.250000  1
  Th  Th8  1  0.330537  0.666212  0.001362  1
  Th  Th9  1  0.669463  0.335674  0.001362  1
  Sn  Sn10  1  0.000000  0.610848  0.250000  1
  Ge  Ge11  1  0.000000  0.000539  0.999636  1
  Ge  Ge12  1  0.000000  0.000539  0.500364  1
  Bi  Bi13  1  0.611352  0.611097  0.750000  1
  Bi  Bi14  1  0.000000  0.389845  0.750000  1
  Bi  Bi15  1  0.388648  0.999745  0.750000  1
  Bi  Bi16  1  0.611649  0.999848  0.250000  1
  Bi  Bi17  1  0.388351  0.388199  0.250000  1
