# generated using pymatgen
data_Tm8Ta11Si16Ru
_symmetry_space_group_name_H-M   'P 1'
_cell_length_a   6.76821249
_cell_length_b   7.01539916
_cell_length_c   13.26108200
_cell_angle_alpha   90.00000000
_cell_angle_beta   90.00000000
_cell_angle_gamma   89.81931651
_symmetry_Int_Tables_number   1
_chemical_formula_structural   Tm8Ta11Si16Ru
_chemical_formula_sum   'Tm8 Ta11 Si16 Ru1'
_cell_volume   629.65574832
_cell_formula_units_Z   1
loop_
 _symmetry_equiv_pos_site_id
 _symmetry_equiv_pos_as_xyz
  1  'x, y, z'
loop_
 _atom_site_type_symbol
 _atom_site_label
 _atom_site_symmetry_multiplicity
 _atom_site_fract_x
 _atom_site_fract_y
 _atom_site_fract_z
 _atom_site_occupancy
  Tm  Tm0  1  0.004104  0.172329  0.095392  1
  Tm  Tm1  1  0.996472  0.828849  0.905813  1
  Tm  Tm2  1  0.498760  0.673075  0.905618  1
  Tm  Tm3  1  0.996472  0.828849  0.594187  1
  Tm  Tm4  1  0.503850  0.328161  0.094833  1
  Tm  Tm5  1  0.004104  0.172329  0.404608  1
  Tm  Tm6  1  0.503850  0.328161  0.405167  1
  Tm  Tm7  1  0.498760  0.673075  0.594382  1
  Ta  Ta8  1  0.840360  0.510108  0.250000  1
  Ta  Ta9  1  0.341173  0.991469  0.250000  1
  Ta  Ta10  1  0.658993  0.006719  0.750000  1
  Ta  Ta11  1  0.331592  0.169937  0.626426  1
  Ta  Ta12  1  0.666786  0.826316  0.374969  1
  Ta  Ta13  1  0.165988  0.672565  0.376355  1
  Ta  Ta14  1  0.666786  0.826316  0.125031  1
  Ta  Ta15  1  0.831942  0.327072  0.626634  1
  Ta  Ta16  1  0.331592  0.169937  0.873574  1
  Ta  Ta17  1  0.831942  0.327072  0.873366  1
  Ta  Ta18  1  0.165988  0.672565  0.123645  1
  Si  Si19  1  0.037830  0.119434  0.750000  1
  Si  Si20  1  0.965398  0.881316  0.250000  1
  Si  Si21  1  0.463371  0.619782  0.250000  1
  Si  Si22  1  0.526430  0.382374  0.750000  1
  Si  Si23  1  0.290994  0.863190  0.750000  1
  Si  Si24  1  0.708396  0.131380  0.250000  1
  Si  Si25  1  0.208609  0.369649  0.250000  1
  Si  Si26  1  0.800186  0.628458  0.750000  1
  Si  Si27  1  0.163899  0.462189  0.543506  1
  Si  Si28  1  0.835574  0.536035  0.459956  1
  Si  Si29  1  0.335398  0.963526  0.458801  1
  Si  Si30  1  0.835574  0.536035  0.040044  1
  Si  Si31  1  0.663458  0.036433  0.541467  1
  Si  Si32  1  0.163899  0.462189  0.956494  1
  Si  Si33  1  0.663458  0.036433  0.958533  1
  Si  Si34  1  0.335398  0.963526  0.041199  1
  Ru  Ru35  1  0.162613  0.503147  0.750000  1
