# generated using pymatgen
data_GeAs5W4
_symmetry_space_group_name_H-M   'P 1'
_cell_length_a   7.01786273
_cell_length_b   7.01786366
_cell_length_c   9.81181447
_cell_angle_alpha   56.23654356
_cell_angle_beta   56.23653968
_cell_angle_gamma   26.57267281
_symmetry_Int_Tables_number   1
_chemical_formula_structural   GeAs5W4
_chemical_formula_sum   'Ge1 As5 W4'
_cell_volume   177.45483060
_cell_formula_units_Z   1
loop_
 _symmetry_equiv_pos_site_id
 _symmetry_equiv_pos_as_xyz
  1  'x, y, z'
loop_
 _atom_site_type_symbol
 _atom_site_label
 _atom_site_symmetry_multiplicity
 _atom_site_fract_x
 _atom_site_fract_y
 _atom_site_fract_z
 _atom_site_occupancy
  Ge  Ge0  1  0.104675  0.104675  0.371737  1
  As  As1  1  0.896493  0.896493  0.626914  1
  As  As2  1  0.417413  0.417413  0.316707  1
  As  As3  1  0.583327  0.583327  0.682158  1
  As  As4  1  0.871621  0.871621  0.049661  1
  As  As5  1  0.125206  0.125206  0.953083  1
  W  W6  1  0.345342  0.345342  0.870256  1
  W  W7  1  0.654431  0.654431  0.126220  1
  W  W8  1  0.246249  0.246249  0.629109  1
  W  W9  1  0.755243  0.755243  0.374154  1
