# generated using pymatgen
data_Ac20Si15Au
_symmetry_space_group_name_H-M   'P 1'
_cell_length_a   8.31350603
_cell_length_b   8.30374627
_cell_length_c   16.38564811
_cell_angle_alpha   89.62910551
_cell_angle_beta   89.95410843
_cell_angle_gamma   89.94955613
_symmetry_Int_Tables_number   1
_chemical_formula_structural   Ac20Si15Au
_chemical_formula_sum   'Ac20 Si15 Au1'
_cell_volume   1131.12996003
_cell_formula_units_Z   1
loop_
 _symmetry_equiv_pos_site_id
 _symmetry_equiv_pos_as_xyz
  1  'x, y, z'
loop_
 _atom_site_type_symbol
 _atom_site_label
 _atom_site_symmetry_multiplicity
 _atom_site_fract_x
 _atom_site_fract_y
 _atom_site_fract_z
 _atom_site_occupancy
  Ac  Ac0  1  0.473120  0.373716  0.127767  1
  Ac  Ac1  1  0.968871  0.130912  0.625538  1
  Ac  Ac2  1  0.875992  0.027345  0.877355  1
  Ac  Ac3  1  0.122050  0.971005  0.378021  1
  Ac  Ac4  1  0.528318  0.623257  0.627756  1
  Ac  Ac5  1  0.377845  0.476170  0.873070  1
  Ac  Ac6  1  0.621755  0.524014  0.371094  1
  Ac  Ac7  1  0.027304  0.873968  0.121640  1
  Ac  Ac8  1  0.626895  0.987110  0.445766  1
  Ac  Ac9  1  0.380465  0.012067  0.945141  1
  Ac  Ac10  1  0.979492  0.617540  0.550703  1
  Ac  Ac11  1  0.486013  0.878010  0.196667  1
  Ac  Ac12  1  0.519963  0.129361  0.700686  1
  Ac  Ac13  1  0.878170  0.487727  0.803882  1
  Ac  Ac14  1  0.120096  0.509746  0.302903  1
  Ac  Ac15  1  0.016786  0.377762  0.052025  1
  Ac  Ac16  1  0.310263  0.308305  0.502332  1
  Ac  Ac17  1  0.191097  0.812952  0.746013  1
  Ac  Ac18  1  0.809978  0.189338  0.249361  1
  Ac  Ac19  1  0.692160  0.691838  0.999291  1
  Si  Si20  1  0.710657  0.081199  0.060165  1
  Si  Si21  1  0.917222  0.289659  0.438959  1
  Si  Si22  1  0.416565  0.206140  0.311147  1
  Si  Si23  1  0.581072  0.791426  0.809758  1
  Si  Si24  1  0.209534  0.420338  0.691427  1
  Si  Si25  1  0.790306  0.581429  0.189047  1
  Si  Si26  1  0.082580  0.709020  0.939607  1
  Si  Si27  1  0.801908  0.831420  0.709785  1
  Si  Si28  1  0.194509  0.168836  0.210464  1
  Si  Si29  1  0.828113  0.801682  0.290299  1
  Si  Si30  1  0.324267  0.686936  0.457848  1
  Si  Si31  1  0.671008  0.302974  0.960920  1
  Si  Si32  1  0.696266  0.330472  0.538257  1
  Si  Si33  1  0.305337  0.670596  0.039406  1
  Si  Si34  1  0.170605  0.199793  0.792431  1
  Au  Au35  1  0.293416  0.925936  0.563470  1
