# generated using pymatgen
data_Y3In3CuAu2
_symmetry_space_group_name_H-M   'P 1'
_cell_length_a   7.76586700
_cell_length_b   7.76586629
_cell_length_c   3.89770100
_cell_angle_alpha   90.00000000
_cell_angle_beta   90.00000000
_cell_angle_gamma   120.00000727
_symmetry_Int_Tables_number   1
_chemical_formula_structural   Y3In3CuAu2
_chemical_formula_sum   'Y3 In3 Cu1 Au2'
_cell_volume   203.57243799
_cell_formula_units_Z   1
loop_
 _symmetry_equiv_pos_site_id
 _symmetry_equiv_pos_as_xyz
  1  'x, y, z'
loop_
 _atom_site_type_symbol
 _atom_site_label
 _atom_site_symmetry_multiplicity
 _atom_site_fract_x
 _atom_site_fract_y
 _atom_site_fract_z
 _atom_site_occupancy
  Y  Y0  1  0.000000  0.595595  0.500000  1
  Y  Y1  1  0.595595  0.000000  0.500000  1
  Y  Y2  1  0.404405  0.404405  0.500000  1
  In  In3  1  0.000000  0.247306  0.000000  1
  In  In4  1  0.247306  0.000000  0.000000  1
  In  In5  1  0.752694  0.752694  0.000000  1
  Cu  Cu6  1  0.000000  0.000000  0.500000  1
  Au  Au7  1  0.666667  0.333333  0.000000  1
  Au  Au8  1  0.333333  0.666667  0.000000  1
