# generated using pymatgen
data_Tm2LuCo(P3Rh4)2
_symmetry_space_group_name_H-M   'P 1'
_cell_length_a   3.83996000
_cell_length_b   11.10306800
_cell_length_c   12.72654700
_cell_angle_alpha   90.00000000
_cell_angle_beta   90.00000000
_cell_angle_gamma   90.00000000
_symmetry_Int_Tables_number   1
_chemical_formula_structural   Tm2LuCo(P3Rh4)2
_chemical_formula_sum   'Tm4 Lu2 Co2 P12 Rh16'
_cell_volume   542.60062016
_cell_formula_units_Z   2
loop_
 _symmetry_equiv_pos_site_id
 _symmetry_equiv_pos_as_xyz
  1  'x, y, z'
loop_
 _atom_site_type_symbol
 _atom_site_label
 _atom_site_symmetry_multiplicity
 _atom_site_fract_x
 _atom_site_fract_y
 _atom_site_fract_z
 _atom_site_occupancy
  Tm  Tm0  1  0.000000  0.500000  0.522084  1
  Tm  Tm1  1  0.500000  0.000000  0.477921  1
  Tm  Tm2  1  0.000000  0.684992  0.797991  1
  Tm  Tm3  1  0.000000  0.315008  0.797991  1
  Lu  Lu4  1  0.500000  0.814980  0.202042  1
  Lu  Lu5  1  0.500000  0.185020  0.202042  1
  Co  Co6  1  0.000000  0.500000  0.978492  1
  Co  Co7  1  0.500000  0.000000  0.021628  1
  P  P8  1  0.500000  0.500000  0.880294  1
  P  P9  1  0.000000  0.000000  0.119841  1
  P  P10  1  0.500000  0.500000  0.352640  1
  P  P11  1  0.000000  0.000000  0.647356  1
  P  P12  1  0.500000  0.316324  0.619783  1
  P  P13  1  0.500000  0.683676  0.619783  1
  P  P14  1  0.000000  0.183665  0.380067  1
  P  P15  1  0.000000  0.816335  0.380067  1
  P  P16  1  0.500000  0.852879  0.895351  1
  P  P17  1  0.500000  0.147121  0.895351  1
  P  P18  1  0.000000  0.647247  0.104725  1
  P  P19  1  0.000000  0.352753  0.104725  1
  Rh  Rh20  1  0.500000  0.500000  0.167915  1
  Rh  Rh21  1  0.000000  0.000000  0.832078  1
  Rh  Rh22  1  0.500000  0.500000  0.702294  1
  Rh  Rh23  1  0.000000  0.000000  0.297443  1
  Rh  Rh24  1  0.500000  0.336496  0.993058  1
  Rh  Rh25  1  0.500000  0.663504  0.993058  1
  Rh  Rh26  1  0.000000  0.163458  0.007180  1
  Rh  Rh27  1  0.000000  0.836542  0.007180  1
  Rh  Rh28  1  0.500000  0.295077  0.430907  1
  Rh  Rh29  1  0.500000  0.704923  0.430907  1
  Rh  Rh30  1  0.000000  0.204893  0.569039  1
  Rh  Rh31  1  0.000000  0.795107  0.569039  1
  Rh  Rh32  1  0.500000  0.872177  0.712193  1
  Rh  Rh33  1  0.500000  0.127823  0.712193  1
  Rh  Rh34  1  0.000000  0.628091  0.287672  1
  Rh  Rh35  1  0.000000  0.371909  0.287672  1
