# generated using pymatgen
data_Ho2Lu2CrOsC4
_symmetry_space_group_name_H-M   'P 1'
_cell_length_a   4.99557600
_cell_length_b   6.44800118
_cell_length_c   9.62711855
_cell_angle_alpha   90.33226178
_cell_angle_beta   90.00000000
_cell_angle_gamma   90.00000000
_symmetry_Int_Tables_number   1
_chemical_formula_structural   Ho2Lu2CrOsC4
_chemical_formula_sum   'Ho4 Lu4 Cr2 Os2 C8'
_cell_volume   310.09852182
_cell_formula_units_Z   2
loop_
 _symmetry_equiv_pos_site_id
 _symmetry_equiv_pos_as_xyz
  1  'x, y, z'
loop_
 _atom_site_type_symbol
 _atom_site_label
 _atom_site_symmetry_multiplicity
 _atom_site_fract_x
 _atom_site_fract_y
 _atom_site_fract_z
 _atom_site_occupancy
  Ho  Ho0  1  0.250000  0.532757  0.213937  1
  Ho  Ho1  1  0.750000  0.467243  0.786063  1
  Ho  Ho2  1  0.750000  0.971905  0.715081  1
  Ho  Ho3  1  0.250000  0.028095  0.284919  1
  Lu  Lu4  1  0.250000  0.677904  0.559789  1
  Lu  Lu5  1  0.750000  0.322096  0.440211  1
  Lu  Lu6  1  0.750000  0.827115  0.055719  1
  Lu  Lu7  1  0.250000  0.172885  0.944281  1
  Cr  Cr8  1  0.250000  0.725068  0.863593  1
  Cr  Cr9  1  0.750000  0.274932  0.136407  1
  Os  Os10  1  0.750000  0.776070  0.364038  1
  Os  Os11  1  0.250000  0.223930  0.635962  1
  C  C12  1  0.250000  0.461851  0.765404  1
  C  C13  1  0.750000  0.538149  0.234596  1
  C  C14  1  0.750000  0.049048  0.257154  1
  C  C15  1  0.250000  0.950952  0.742846  1
  C  C16  1  0.250000  0.820218  0.042610  1
  C  C17  1  0.750000  0.179782  0.957390  1
  C  C18  1  0.750000  0.672644  0.550555  1
  C  C19  1  0.250000  0.327356  0.449445  1
