# generated using pymatgen
data_La2Al9CoPt2
_symmetry_space_group_name_H-M   'P 1'
_cell_length_a   7.64987357
_cell_length_b   7.64987193
_cell_length_c   9.59257600
_cell_angle_alpha   90.09526243
_cell_angle_beta   90.09526241
_cell_angle_gamma   119.46072804
_symmetry_Int_Tables_number   1
_chemical_formula_structural   La2Al9CoPt2
_chemical_formula_sum   'La4 Al18 Co2 Pt4'
_cell_volume   488.77205436
_cell_formula_units_Z   2
loop_
 _symmetry_equiv_pos_site_id
 _symmetry_equiv_pos_as_xyz
  1  'x, y, z'
loop_
 _atom_site_type_symbol
 _atom_site_label
 _atom_site_symmetry_multiplicity
 _atom_site_fract_x
 _atom_site_fract_y
 _atom_site_fract_z
 _atom_site_occupancy
  La  La0  1  0.004056  0.330722  0.749973  1
  La  La1  1  0.333251  0.007351  0.749485  1
  La  La2  1  0.992649  0.666749  0.250515  1
  La  La3  1  0.669278  0.995944  0.250027  1
  Al  Al4  1  0.657854  0.988257  0.927901  1
  Al  Al5  1  0.998070  0.674293  0.571464  1
  Al  Al6  1  0.129528  0.128675  0.255812  1
  Al  Al7  1  0.658562  0.665490  0.048149  1
  Al  Al8  1  0.327967  0.328626  0.549048  1
  Al  Al9  1  0.334510  0.341438  0.951851  1
  Al  Al10  1  0.671374  0.672033  0.450952  1
  Al  Al11  1  0.333345  0.992203  0.071888  1
  Al  Al12  1  0.003793  0.326517  0.428344  1
  Al  Al13  1  0.340662  0.548190  0.242613  1
  Al  Al14  1  0.011743  0.342146  0.072099  1
  Al  Al15  1  0.539495  0.339894  0.249764  1
  Al  Al16  1  0.660106  0.460505  0.750236  1
  Al  Al17  1  0.871325  0.870472  0.744188  1
  Al  Al18  1  0.007797  0.666655  0.928112  1
  Al  Al19  1  0.673483  0.996207  0.571656  1
  Al  Al20  1  0.325707  0.001930  0.428536  1
  Al  Al21  1  0.451810  0.659338  0.757387  1
  Co  Co22  1  0.000042  0.999958  0.500000  1
  Co  Co23  1  0.331199  0.668801  0.000000  1
  Pt  Pt24  1  0.671099  0.328901  0.500000  1
  Pt  Pt25  1  0.671466  0.328534  0.000000  1
  Pt  Pt26  1  0.329237  0.670763  0.500000  1
  Pt  Pt27  1  0.000594  0.999406  0.000000  1
