# generated using pymatgen
data_PrNd3Ga5Ir9
_symmetry_space_group_name_H-M   'P 1'
_cell_length_a   12.43106660
_cell_length_b   12.43106735
_cell_length_c   12.43106678
_cell_angle_alpha   26.14887718
_cell_angle_beta   26.14888260
_cell_angle_gamma   26.14887607
_symmetry_Int_Tables_number   1
_chemical_formula_structural   PrNd3Ga5Ir9
_chemical_formula_sum   'Pr1 Nd3 Ga5 Ir9'
_cell_volume   328.71486254
_cell_formula_units_Z   1
loop_
 _symmetry_equiv_pos_site_id
 _symmetry_equiv_pos_as_xyz
  1  'x, y, z'
loop_
 _atom_site_type_symbol
 _atom_site_label
 _atom_site_symmetry_multiplicity
 _atom_site_fract_x
 _atom_site_fract_y
 _atom_site_fract_z
 _atom_site_occupancy
  Pr  Pr0  1  0.950708  0.950708  0.950708  1
  Nd  Nd1  1  0.049180  0.049180  0.049180  1
  Nd  Nd2  1  0.853409  0.853409  0.853409  1
  Nd  Nd3  1  0.146503  0.146503  0.146503  1
  Ga  Ga4  1  0.499990  0.499990  0.499990  1
  Ga  Ga5  1  0.721575  0.721575  0.721575  1
  Ga  Ga6  1  0.278477  0.278477  0.278477  1
  Ga  Ga7  1  0.610926  0.610926  0.610926  1
  Ga  Ga8  1  0.389112  0.389112  0.389112  1
  Ir  Ir9  1  0.500076  0.500076  0.000087  1
  Ir  Ir10  1  0.000087  0.500076  0.500076  1
  Ir  Ir11  1  0.500076  0.000087  0.500076  1
  Ir  Ir12  1  0.387020  0.895996  0.387020  1
  Ir  Ir13  1  0.387020  0.387020  0.895996  1
  Ir  Ir14  1  0.895996  0.387020  0.387020  1
  Ir  Ir15  1  0.612918  0.104009  0.612918  1
  Ir  Ir16  1  0.612918  0.612918  0.104009  1
  Ir  Ir17  1  0.104009  0.612918  0.612918  1
