# generated using pymatgen
data_CeHf(BrO3)8
_symmetry_space_group_name_H-M   'P 1'
_cell_length_a   8.47319600
_cell_length_b   8.47319600
_cell_length_c   8.08991700
_cell_angle_alpha   90.00000000
_cell_angle_beta   90.00000000
_cell_angle_gamma   90.00000000
_symmetry_Int_Tables_number   1
_chemical_formula_structural   CeHf(BrO3)8
_chemical_formula_sum   'Ce1 Hf1 Br8 O24'
_cell_volume   580.81599919
_cell_formula_units_Z   1
loop_
 _symmetry_equiv_pos_site_id
 _symmetry_equiv_pos_as_xyz
  1  'x, y, z'
loop_
 _atom_site_type_symbol
 _atom_site_label
 _atom_site_symmetry_multiplicity
 _atom_site_fract_x
 _atom_site_fract_y
 _atom_site_fract_z
 _atom_site_occupancy
  Ce  Ce0  1  0.250000  0.250000  0.057524  1
  Hf  Hf1  1  0.750000  0.750000  0.947192  1
  Br  Br2  1  0.985176  0.542845  0.253654  1
  Br  Br3  1  0.542845  0.514824  0.253654  1
  Br  Br4  1  0.957155  0.985176  0.253654  1
  Br  Br5  1  0.514824  0.957155  0.253654  1
  Br  Br6  1  0.500621  0.026252  0.745578  1
  Br  Br7  1  0.026252  0.999379  0.745578  1
  Br  Br8  1  0.473749  0.500621  0.745578  1
  Br  Br9  1  0.999379  0.473749  0.745578  1
  O  O10  1  0.668991  0.540891  0.085333  1
  O  O11  1  0.959110  0.668991  0.085333  1
  O  O12  1  0.540891  0.831010  0.085333  1
  O  O13  1  0.831010  0.959110  0.085333  1
  O  O14  1  0.328457  0.026686  0.216313  1
  O  O15  1  0.026686  0.171543  0.216313  1
  O  O16  1  0.473314  0.328457  0.216313  1
  O  O17  1  0.171543  0.473314  0.216313  1
  O  O18  1  0.668180  0.492164  0.406151  1
  O  O19  1  0.007837  0.668180  0.406151  1
  O  O20  1  0.492164  0.831820  0.406151  1
  O  O21  1  0.831820  0.007837  0.406151  1
  O  O22  1  0.147162  0.970624  0.590829  1
  O  O23  1  0.529376  0.147162  0.590829  1
  O  O24  1  0.970624  0.352838  0.590829  1
  O  O25  1  0.352838  0.529376  0.590829  1
  O  O26  1  0.813100  0.543051  0.793806  1
  O  O27  1  0.543051  0.686899  0.793806  1
  O  O28  1  0.956950  0.813100  0.793806  1
  O  O29  1  0.686899  0.956950  0.793806  1
  O  O30  1  0.155677  0.031879  0.907157  1
  O  O31  1  0.468121  0.155677  0.907157  1
  O  O32  1  0.031879  0.344323  0.907157  1
  O  O33  1  0.344323  0.468121  0.907157  1
