# generated using pymatgen
data_Yb6UWO12
_symmetry_space_group_name_H-M   'P 1'
_cell_length_a   6.60335269
_cell_length_b   6.60335268
_cell_length_c   6.60335275
_cell_angle_alpha   92.39360024
_cell_angle_beta   92.39359847
_cell_angle_gamma   92.39359898
_symmetry_Int_Tables_number   1
_chemical_formula_structural   Yb6UWO12
_chemical_formula_sum   'Yb6 U1 W1 O12'
_cell_volume   287.15899763
_cell_formula_units_Z   1
loop_
 _symmetry_equiv_pos_site_id
 _symmetry_equiv_pos_as_xyz
  1  'x, y, z'
loop_
 _atom_site_type_symbol
 _atom_site_label
 _atom_site_symmetry_multiplicity
 _atom_site_fract_x
 _atom_site_fract_y
 _atom_site_fract_z
 _atom_site_occupancy
  Yb  Yb0  1  0.932135  0.436601  0.740379  1
  Yb  Yb1  1  0.740379  0.932135  0.436601  1
  Yb  Yb2  1  0.563399  0.259621  0.067865  1
  Yb  Yb3  1  0.436601  0.740379  0.932135  1
  Yb  Yb4  1  0.259621  0.067865  0.563399  1
  Yb  Yb5  1  0.067865  0.563399  0.259621  1
  U  U6  1  0.000000  0.000000  0.000000  1
  W  W7  1  0.500000  0.500000  0.500000  1
  O  O8  1  0.923568  0.299891  0.064463  1
  O  O9  1  0.935537  0.076432  0.700109  1
  O  O10  1  0.783684  0.581176  0.455545  1
  O  O11  1  0.700109  0.935537  0.076432  1
  O  O12  1  0.581176  0.455545  0.783684  1
  O  O13  1  0.544455  0.216316  0.418824  1
  O  O14  1  0.455545  0.783684  0.581176  1
  O  O15  1  0.418824  0.544455  0.216316  1
  O  O16  1  0.299891  0.064463  0.923568  1
  O  O17  1  0.216316  0.418824  0.544455  1
  O  O18  1  0.064463  0.923568  0.299891  1
  O  O19  1  0.076432  0.700109  0.935537  1
