# generated using pymatgen
data_Ti8Al15Fe5Rh2
_symmetry_space_group_name_H-M   'P 1'
_cell_length_a   8.52997214
_cell_length_b   8.52997152
_cell_length_c   8.52997122
_cell_angle_alpha   119.93498210
_cell_angle_beta   119.99496909
_cell_angle_gamma   90.06068379
_symmetry_Int_Tables_number   1
_chemical_formula_structural   Ti8Al15Fe5Rh2
_chemical_formula_sum   'Ti8 Al15 Fe5 Rh2'
_cell_volume   439.09369111
_cell_formula_units_Z   1
loop_
 _symmetry_equiv_pos_site_id
 _symmetry_equiv_pos_as_xyz
  1  'x, y, z'
loop_
 _atom_site_type_symbol
 _atom_site_label
 _atom_site_symmetry_multiplicity
 _atom_site_fract_x
 _atom_site_fract_y
 _atom_site_fract_z
 _atom_site_occupancy
  Ti  Ti0  1  0.783238  0.286930  0.064298  1
  Ti  Ti1  1  0.222632  0.286930  0.503692  1
  Ti  Ti2  1  0.214462  0.714462  0.500000  1
  Ti  Ti3  1  0.222632  0.718940  0.935702  1
  Ti  Ti4  1  0.783238  0.718940  0.496308  1
  Ti  Ti5  1  0.778915  0.278915  0.500000  1
  Ti  Ti6  1  0.376942  0.124892  0.747950  1
  Ti  Ti7  1  0.376942  0.628993  0.252050  1
  Al  Al8  1  0.996716  0.496716  0.500000  1
  Al  Al9  1  0.157505  0.349202  0.191696  1
  Al  Al10  1  0.157505  0.965809  0.808304  1
  Al  Al11  1  0.152855  0.344181  0.808674  1
  Al  Al12  1  0.535506  0.344181  0.191326  1
  Al  Al13  1  0.842582  0.648003  0.805422  1
  Al  Al14  1  0.842582  0.037160  0.194578  1
  Al  Al15  1  0.842627  0.656701  0.185926  1
  Al  Al16  1  0.470775  0.656701  0.814074  1
  Al  Al17  1  0.381344  0.124817  0.256527  1
  Al  Al18  1  0.868291  0.124817  0.743473  1
  Al  Al19  1  0.622293  0.873928  0.251635  1
  Al  Al20  1  0.622293  0.370658  0.748365  1
  Al  Al21  1  0.616930  0.874627  0.742303  1
  Al  Al22  1  0.132323  0.874627  0.257697  1
  Fe  Fe23  1  0.003592  0.000167  0.503195  1
  Fe  Fe24  1  0.496973  0.000167  0.996576  1
  Fe  Fe25  1  0.496530  0.496530  0.000000  1
  Fe  Fe26  1  0.496973  0.500397  0.496805  1
  Fe  Fe27  1  0.003592  0.500397  0.003424  1
  Rh  Rh28  1  0.999516  0.999516  0.000000  1
  Rh  Rh29  1  0.501693  0.001693  0.500000  1
