# generated using pymatgen
data_Tm4Zn3In5
_symmetry_space_group_name_H-M   'P 1'
_cell_length_a   4.72377100
_cell_length_b   7.15401449
_cell_length_c   8.18577871
_cell_angle_alpha   89.95503947
_cell_angle_beta   90.00000000
_cell_angle_gamma   90.00000000
_symmetry_Int_Tables_number   1
_chemical_formula_structural   Tm4Zn3In5
_chemical_formula_sum   'Tm4 Zn3 In5'
_cell_volume   276.62951609
_cell_formula_units_Z   1
loop_
 _symmetry_equiv_pos_site_id
 _symmetry_equiv_pos_as_xyz
  1  'x, y, z'
loop_
 _atom_site_type_symbol
 _atom_site_label
 _atom_site_symmetry_multiplicity
 _atom_site_fract_x
 _atom_site_fract_y
 _atom_site_fract_z
 _atom_site_occupancy
  Tm  Tm0  1  0.500000  0.493748  0.744044  1
  Tm  Tm1  1  0.500000  0.981434  0.747816  1
  Tm  Tm2  1  0.000000  0.501128  0.256906  1
  Tm  Tm3  1  0.000000  0.990713  0.253225  1
  Zn  Zn4  1  0.500000  0.788513  0.417408  1
  Zn  Zn5  1  0.000000  0.790234  0.917567  1
  Zn  Zn6  1  0.000000  0.301574  0.579068  1
  In  In7  1  0.500000  0.728917  0.082167  1
  In  In8  1  0.500000  0.214291  0.430000  1
  In  In9  1  0.000000  0.206345  0.901068  1
  In  In10  1  0.000000  0.719624  0.585343  1
  In  In11  1  0.500000  0.283479  0.085387  1
