# generated using pymatgen
data_Tl3Cd(Pd2Au)4
_symmetry_space_group_name_H-M   'P 1'
_cell_length_a   5.98582500
_cell_length_b   5.98127464
_cell_length_c   7.94298400
_cell_angle_alpha   90.00049812
_cell_angle_beta   90.00012443
_cell_angle_gamma   89.97340816
_symmetry_Int_Tables_number   1
_chemical_formula_structural   Tl3Cd(Pd2Au)4
_chemical_formula_sum   'Tl3 Cd1 Pd8 Au4'
_cell_volume   284.38153969
_cell_formula_units_Z   1
loop_
 _symmetry_equiv_pos_site_id
 _symmetry_equiv_pos_as_xyz
  1  'x, y, z'
loop_
 _atom_site_type_symbol
 _atom_site_label
 _atom_site_symmetry_multiplicity
 _atom_site_fract_x
 _atom_site_fract_y
 _atom_site_fract_z
 _atom_site_occupancy
  Tl  Tl0  1  0.249823  0.250005  0.999985  1
  Tl  Tl1  1  0.750220  0.749998  0.999986  1
  Tl  Tl2  1  0.749836  0.750009  0.500007  1
  Cd  Cd3  1  0.250195  0.249994  0.500016  1
  Pd  Pd4  1  0.499550  0.000399  0.251088  1
  Pd  Pd5  1  0.499522  0.499570  0.251062  1
  Pd  Pd6  1  0.000463  0.000448  0.251286  1
  Pd  Pd7  1  0.000443  0.499557  0.251296  1
  Pd  Pd8  1  0.000449  0.000471  0.748734  1
  Pd  Pd9  1  0.000428  0.499553  0.748703  1
  Pd  Pd10  1  0.499569  0.000419  0.748911  1
  Pd  Pd11  1  0.499555  0.499572  0.748919  1
  Au  Au12  1  0.749991  0.249997  0.000013  1
  Au  Au13  1  0.249999  0.750003  0.999983  1
  Au  Au14  1  0.749939  0.250007  0.499988  1
  Au  Au15  1  0.250017  0.749995  0.500026  1
