# generated using pymatgen
data_TbCeB4(OsRu)2
_symmetry_space_group_name_H-M   'P 1'
_cell_length_a   6.70341823
_cell_length_b   5.97541512
_cell_length_c   5.58071551
_cell_angle_alpha   70.81760264
_cell_angle_beta   57.34187420
_cell_angle_gamma   51.84052634
_symmetry_Int_Tables_number   1
_chemical_formula_structural   TbCeB4(OsRu)2
_chemical_formula_sum   'Tb1 Ce1 B4 Os2 Ru2'
_cell_volume   147.97591071
_cell_formula_units_Z   1
loop_
 _symmetry_equiv_pos_site_id
 _symmetry_equiv_pos_as_xyz
  1  'x, y, z'
loop_
 _atom_site_type_symbol
 _atom_site_label
 _atom_site_symmetry_multiplicity
 _atom_site_fract_x
 _atom_site_fract_y
 _atom_site_fract_z
 _atom_site_occupancy
  Tb  Tb0  1  0.250000  0.250000  0.250000  1
  Ce  Ce1  1  0.000000  0.000000  0.000000  1
  B  B2  1  0.563557  0.936443  0.563557  1
  B  B3  1  0.936443  0.563557  0.936443  1
  B  B4  1  0.313673  0.686327  0.313673  1
  B  B5  1  0.686327  0.313673  0.686327  1
  Os  Os6  1  0.612131  0.612131  0.887869  1
  Os  Os7  1  0.887869  0.887869  0.612131  1
  Ru  Ru8  1  0.362266  0.362266  0.637734  1
  Ru  Ru9  1  0.637734  0.637734  0.362266  1
