# generated using pymatgen
data_Er5TmBi2Mo
_symmetry_space_group_name_H-M   'P 1'
_cell_length_a   8.23168300
_cell_length_b   8.23168315
_cell_length_c   4.34749300
_cell_angle_alpha   90.00000000
_cell_angle_beta   90.00000000
_cell_angle_gamma   119.99937673
_symmetry_Int_Tables_number   1
_chemical_formula_structural   Er5TmBi2Mo
_chemical_formula_sum   'Er5 Tm1 Bi2 Mo1'
_cell_volume   255.12295339
_cell_formula_units_Z   1
loop_
 _symmetry_equiv_pos_site_id
 _symmetry_equiv_pos_as_xyz
  1  'x, y, z'
loop_
 _atom_site_type_symbol
 _atom_site_label
 _atom_site_symmetry_multiplicity
 _atom_site_fract_x
 _atom_site_fract_y
 _atom_site_fract_z
 _atom_site_occupancy
  Er  Er0  1  0.235510  0.999906  0.500000  1
  Er  Er1  1  0.999906  0.235510  0.500000  1
  Er  Er2  1  0.612671  0.999867  0.000000  1
  Er  Er3  1  0.999867  0.612671  0.000000  1
  Er  Er4  1  0.387512  0.387512  0.000000  1
  Tm  Tm5  1  0.764710  0.764710  0.500000  1
  Bi  Bi6  1  0.333523  0.666664  0.500000  1
  Bi  Bi7  1  0.666664  0.333523  0.500000  1
  Mo  Mo8  1  0.999637  0.999637  0.000000  1
