# generated using pymatgen
data_Lu20AlBi9Au2
_symmetry_space_group_name_H-M   'P 1'
_cell_length_a   8.01351233
_cell_length_b   9.30038100
_cell_length_c   11.75501656
_cell_angle_alpha   90.00000000
_cell_angle_beta   89.80899213
_cell_angle_gamma   90.00000000
_symmetry_Int_Tables_number   1
_chemical_formula_structural   Lu20AlBi9Au2
_chemical_formula_sum   'Lu20 Al1 Bi9 Au2'
_cell_volume   876.08144381
_cell_formula_units_Z   1
loop_
 _symmetry_equiv_pos_site_id
 _symmetry_equiv_pos_as_xyz
  1  'x, y, z'
loop_
 _atom_site_type_symbol
 _atom_site_label
 _atom_site_symmetry_multiplicity
 _atom_site_fract_x
 _atom_site_fract_y
 _atom_site_fract_z
 _atom_site_occupancy
  Lu  Lu0  1  0.032552  0.250000  0.507688  1
  Lu  Lu1  1  0.959481  0.750000  0.492648  1
  Lu  Lu2  1  0.458398  0.750000  0.007028  1
  Lu  Lu3  1  0.519987  0.250000  0.990963  1
  Lu  Lu4  1  0.348047  0.250000  0.292645  1
  Lu  Lu5  1  0.649252  0.750000  0.700961  1
  Lu  Lu6  1  0.146572  0.750000  0.797493  1
  Lu  Lu7  1  0.845991  0.250000  0.217438  1
  Lu  Lu8  1  0.195524  0.250000  0.775870  1
  Lu  Lu9  1  0.820581  0.750000  0.211696  1
  Lu  Lu10  1  0.323369  0.750000  0.288153  1
  Lu  Lu11  1  0.680575  0.250000  0.711725  1
  Lu  Lu12  1  0.190938  0.047074  0.060536  1
  Lu  Lu13  1  0.814059  0.927926  0.944405  1
  Lu  Lu14  1  0.316627  0.937572  0.554890  1
  Lu  Lu15  1  0.814059  0.572074  0.944405  1
  Lu  Lu16  1  0.683834  0.054911  0.445861  1
  Lu  Lu17  1  0.190938  0.452926  0.060536  1
  Lu  Lu18  1  0.683834  0.445089  0.445861  1
  Lu  Lu19  1  0.316627  0.562428  0.554890  1
  Al  Al20  1  0.404761  0.250000  0.540780  1
  Bi  Bi21  1  0.907959  0.250000  0.955787  1
  Bi  Bi22  1  0.058847  0.000965  0.322607  1
  Bi  Bi23  1  0.943906  0.999710  0.677769  1
  Bi  Bi24  1  0.444271  0.998855  0.822004  1
  Bi  Bi25  1  0.943906  0.500290  0.677769  1
  Bi  Bi26  1  0.561023  0.002774  0.176778  1
  Bi  Bi27  1  0.058847  0.499035  0.322607  1
  Bi  Bi28  1  0.561023  0.497226  0.176778  1
  Bi  Bi29  1  0.444271  0.501145  0.822004  1
  Au  Au30  1  0.589737  0.750000  0.460817  1
  Au  Au31  1  0.090203  0.750000  0.038608  1
