# generated using pymatgen
data_Y8Si12Pt3Rh
_symmetry_space_group_name_H-M   'P 1'
_cell_length_a   8.14933300
_cell_length_b   8.14933290
_cell_length_c   8.16243600
_cell_angle_alpha   90.00000000
_cell_angle_beta   90.00000000
_cell_angle_gamma   120.00000446
_symmetry_Int_Tables_number   1
_chemical_formula_structural   Y8Si12Pt3Rh
_chemical_formula_sum   'Y8 Si12 Pt3 Rh1'
_cell_volume   469.45560094
_cell_formula_units_Z   1
loop_
 _symmetry_equiv_pos_site_id
 _symmetry_equiv_pos_as_xyz
  1  'x, y, z'
loop_
 _atom_site_type_symbol
 _atom_site_label
 _atom_site_symmetry_multiplicity
 _atom_site_fract_x
 _atom_site_fract_y
 _atom_site_fract_z
 _atom_site_occupancy
  Y  Y0  1  0.000000  0.000000  0.250531  1
  Y  Y1  1  0.000000  0.000000  0.749171  1
  Y  Y2  1  0.999478  0.499738  0.252012  1
  Y  Y3  1  0.500262  0.499738  0.252012  1
  Y  Y4  1  0.501035  0.002070  0.748023  1
  Y  Y5  1  0.500262  0.000522  0.252012  1
  Y  Y6  1  0.501035  0.498965  0.748023  1
  Y  Y7  1  0.997930  0.498965  0.748023  1
  Si  Si8  1  0.165779  0.331559  0.001377  1
  Si  Si9  1  0.668441  0.834221  0.001377  1
  Si  Si10  1  0.164829  0.329658  0.499726  1
  Si  Si11  1  0.330828  0.165414  0.998233  1
  Si  Si12  1  0.165779  0.834221  0.001377  1
  Si  Si13  1  0.670342  0.835171  0.499726  1
  Si  Si14  1  0.834586  0.669172  0.998233  1
  Si  Si15  1  0.335600  0.167800  0.500518  1
  Si  Si16  1  0.164829  0.835171  0.499726  1
  Si  Si17  1  0.832200  0.664400  0.500518  1
  Si  Si18  1  0.834586  0.165414  0.998233  1
  Si  Si19  1  0.832200  0.167800  0.500518  1
  Pt  Pt20  1  0.333333  0.666667  0.998539  1
  Pt  Pt21  1  0.333333  0.666667  0.502487  1
  Pt  Pt22  1  0.666667  0.333333  0.002592  1
  Rh  Rh23  1  0.666667  0.333333  0.497014  1
