# generated using pymatgen
data_Rb3NaGa4(SnSe4)4
_symmetry_space_group_name_H-M   'P 1'
_cell_length_a   13.36574861
_cell_length_b   7.61002949
_cell_length_c   18.71798709
_cell_angle_alpha   81.56230085
_cell_angle_beta   92.67348343
_cell_angle_gamma   92.47621421
_symmetry_Int_Tables_number   1
_chemical_formula_structural   Rb3NaGa4(SnSe4)4
_chemical_formula_sum   'Rb6 Na2 Ga8 Sn8 Se32'
_cell_volume   1879.94500201
_cell_formula_units_Z   2
loop_
 _symmetry_equiv_pos_site_id
 _symmetry_equiv_pos_as_xyz
  1  'x, y, z'
loop_
 _atom_site_type_symbol
 _atom_site_label
 _atom_site_symmetry_multiplicity
 _atom_site_fract_x
 _atom_site_fract_y
 _atom_site_fract_z
 _atom_site_occupancy
  Rb  Rb0  1  0.940491  0.203577  0.176260  1
  Rb  Rb1  1  0.059509  0.796423  0.823740  1
  Rb  Rb2  1  0.598906  0.247546  0.044772  1
  Rb  Rb3  1  0.401094  0.752454  0.955228  1
  Rb  Rb4  1  0.099993  0.748740  0.449189  1
  Rb  Rb5  1  0.900007  0.251260  0.550811  1
  Na  Na6  1  0.471710  0.728027  0.304937  1
  Na  Na7  1  0.528290  0.271973  0.695063  1
  Ga  Ga8  1  0.749721  0.979849  0.343158  1
  Ga  Ga9  1  0.250279  0.020151  0.656842  1
  Ga  Ga10  1  0.260830  0.017018  0.161926  1
  Ga  Ga11  1  0.739170  0.982982  0.838074  1
  Ga  Ga12  1  0.748744  0.462632  0.360396  1
  Ga  Ga13  1  0.251256  0.537368  0.639604  1
  Ga  Ga14  1  0.258591  0.533175  0.143087  1
  Ga  Ga15  1  0.741409  0.466825  0.856913  1
  Sn  Sn16  1  0.710125  0.743216  0.182263  1
  Sn  Sn17  1  0.289875  0.256784  0.817737  1
  Sn  Sn18  1  0.215841  0.259058  0.318536  1
  Sn  Sn19  1  0.784159  0.740942  0.681464  1
  Sn  Sn20  1  0.811545  0.716189  0.013398  1
  Sn  Sn21  1  0.188455  0.283811  0.986602  1
  Sn  Sn22  1  0.326184  0.306895  0.488835  1
  Sn  Sn23  1  0.673816  0.693105  0.511165  1
  Se  Se24  1  0.180756  0.953066  0.280174  1
  Se  Se25  1  0.819244  0.046934  0.719826  1
  Se  Se26  1  0.676287  0.045909  0.217611  1
  Se  Se27  1  0.323713  0.954091  0.782389  1
  Se  Se28  1  0.856931  0.728493  0.349468  1
  Se  Se29  1  0.143069  0.271507  0.650532  1
  Se  Se30  1  0.367116  0.283555  0.154732  1
  Se  Se31  1  0.632884  0.716445  0.845268  1
  Se  Se32  1  0.629118  0.751853  0.051590  1
  Se  Se33  1  0.370882  0.248147  0.948410  1
  Se  Se34  1  0.140920  0.239731  0.446802  1
  Se  Se35  1  0.859080  0.760269  0.553198  1
  Se  Se36  1  0.622758  0.482717  0.259508  1
  Se  Se37  1  0.377242  0.517283  0.740492  1
  Se  Se38  1  0.130216  0.506790  0.233979  1
  Se  Se39  1  0.869784  0.493210  0.766021  1
  Se  Se40  1  0.599774  0.934568  0.415770  1
  Se  Se41  1  0.400226  0.065432  0.584230  1
  Se  Se42  1  0.120310  0.018984  0.071992  1
  Se  Se43  1  0.879690  0.981016  0.928008  1
  Se  Se44  1  0.891307  0.709008  0.143771  1
  Se  Se45  1  0.108693  0.290992  0.856229  1
  Se  Se46  1  0.399997  0.322043  0.361971  1
  Se  Se47  1  0.600003  0.677957  0.638029  1
  Se  Se48  1  0.376134  0.783680  0.152740  1
  Se  Se49  1  0.623866  0.216320  0.847260  1
  Se  Se50  1  0.864548  0.224798  0.361257  1
  Se  Se51  1  0.135452  0.775202  0.638743  1
  Se  Se52  1  0.655699  0.385967  0.472413  1
  Se  Se53  1  0.344301  0.614033  0.527587  1
  Se  Se54  1  0.165722  0.588811  0.023980  1
  Se  Se55  1  0.834278  0.411189  0.976020  1
