# generated using pymatgen
data_CdSi6(Pd10Pb)2
_symmetry_space_group_name_H-M   'P 1'
_cell_length_a   8.71195222
_cell_length_b   8.71195282
_cell_length_c   8.71195300
_cell_angle_alpha   60.00000313
_cell_angle_beta   60.00000083
_cell_angle_gamma   60.00000285
_symmetry_Int_Tables_number   1
_chemical_formula_structural   CdSi6(Pd10Pb)2
_chemical_formula_sum   'Cd1 Si6 Pd20 Pb2'
_cell_volume   467.55375373
_cell_formula_units_Z   1
loop_
 _symmetry_equiv_pos_site_id
 _symmetry_equiv_pos_as_xyz
  1  'x, y, z'
loop_
 _atom_site_type_symbol
 _atom_site_label
 _atom_site_symmetry_multiplicity
 _atom_site_fract_x
 _atom_site_fract_y
 _atom_site_fract_z
 _atom_site_occupancy
  Cd  Cd0  1  0.000000  0.000000  0.000000  1
  Si  Si1  1  0.729990  0.270010  0.270010  1
  Si  Si2  1  0.270010  0.729990  0.729990  1
  Si  Si3  1  0.270010  0.729990  0.270010  1
  Si  Si4  1  0.729990  0.270010  0.729990  1
  Si  Si5  1  0.270010  0.270010  0.729990  1
  Si  Si6  1  0.729990  0.729990  0.270010  1
  Pd  Pd7  1  0.383128  0.383128  0.383128  1
  Pd  Pd8  1  0.616872  0.616872  0.616872  1
  Pd  Pd9  1  0.383128  0.383128  0.850618  1
  Pd  Pd10  1  0.383128  0.850618  0.383128  1
  Pd  Pd11  1  0.616872  0.616872  0.149382  1
  Pd  Pd12  1  0.616872  0.149382  0.616872  1
  Pd  Pd13  1  0.850618  0.383128  0.383128  1
  Pd  Pd14  1  0.149382  0.616872  0.616872  1
  Pd  Pd15  1  0.341785  0.000000  0.000000  1
  Pd  Pd16  1  0.658215  0.000000  0.000000  1
  Pd  Pd17  1  0.000000  0.341785  0.658215  1
  Pd  Pd18  1  0.000000  0.658215  0.341785  1
  Pd  Pd19  1  0.000000  0.341785  0.000000  1
  Pd  Pd20  1  0.658215  0.000000  0.341785  1
  Pd  Pd21  1  0.000000  0.658215  0.000000  1
  Pd  Pd22  1  0.341785  0.000000  0.658215  1
  Pd  Pd23  1  0.000000  0.000000  0.341785  1
  Pd  Pd24  1  0.000000  0.000000  0.658215  1
  Pd  Pd25  1  0.658215  0.341785  0.000000  1
  Pd  Pd26  1  0.341785  0.658215  0.000000  1
  Pb  Pb27  1  0.250000  0.250000  0.250000  1
  Pb  Pb28  1  0.750000  0.750000  0.750000  1
