# generated using pymatgen
data_Tc2RuO8
_symmetry_space_group_name_H-M   'P 1'
_cell_length_a   5.65159800
_cell_length_b   5.65159675
_cell_length_c   6.19061400
_cell_angle_alpha   90.00000000
_cell_angle_beta   90.00000000
_cell_angle_gamma   120.00000730
_symmetry_Int_Tables_number   1
_chemical_formula_structural   Tc2RuO8
_chemical_formula_sum   'Tc2 Ru1 O8'
_cell_volume   171.24060557
_cell_formula_units_Z   1
loop_
 _symmetry_equiv_pos_site_id
 _symmetry_equiv_pos_as_xyz
  1  'x, y, z'
loop_
 _atom_site_type_symbol
 _atom_site_label
 _atom_site_symmetry_multiplicity
 _atom_site_fract_x
 _atom_site_fract_y
 _atom_site_fract_z
 _atom_site_occupancy
  Tc  Tc0  1  0.666667  0.333333  0.717915  1
  Tc  Tc1  1  0.333333  0.666667  0.282085  1
  Ru  Ru2  1  0.000000  0.000000  0.000000  1
  O  O3  1  0.327344  0.170637  0.813806  1
  O  O4  1  0.170637  0.843293  0.186194  1
  O  O5  1  0.156707  0.327344  0.186194  1
  O  O6  1  0.666667  0.333333  0.438963  1
  O  O7  1  0.333333  0.666667  0.561037  1
  O  O8  1  0.843293  0.672656  0.813806  1
  O  O9  1  0.829363  0.156707  0.813806  1
  O  O10  1  0.672656  0.829363  0.186194  1
