# generated using pymatgen
data_Rb4(InAu3)5
_symmetry_space_group_name_H-M   'P 1'
_cell_length_a   6.04115913
_cell_length_b   7.33246310
_cell_length_c   14.21460031
_cell_angle_alpha   90.28848550
_cell_angle_beta   89.75234962
_cell_angle_gamma   90.15632691
_symmetry_Int_Tables_number   1
_chemical_formula_structural   Rb4(InAu3)5
_chemical_formula_sum   'Rb4 In5 Au15'
_cell_volume   629.64195860
_cell_formula_units_Z   1
loop_
 _symmetry_equiv_pos_site_id
 _symmetry_equiv_pos_as_xyz
  1  'x, y, z'
loop_
 _atom_site_type_symbol
 _atom_site_label
 _atom_site_symmetry_multiplicity
 _atom_site_fract_x
 _atom_site_fract_y
 _atom_site_fract_z
 _atom_site_occupancy
  Rb  Rb0  1  0.264051  0.106309  0.084624  1
  Rb  Rb1  1  0.241968  0.387898  0.577665  1
  Rb  Rb2  1  0.751220  0.889669  0.921514  1
  Rb  Rb3  1  0.742641  0.612926  0.418064  1
  In  In4  1  0.995433  0.381627  0.848837  1
  In  In5  1  0.003340  0.113969  0.348925  1
  In  In6  1  0.498010  0.390175  0.851173  1
  In  In7  1  0.497434  0.882874  0.650371  1
  In  In8  1  0.000786  0.612659  0.151861  1
  Au  Au9  1  0.003244  0.887190  0.649109  1
  Au  Au10  1  0.499469  0.612856  0.149146  1
  Au  Au11  1  0.506059  0.117921  0.349433  1
  Au  Au12  1  0.253550  0.090903  0.790886  1
  Au  Au13  1  0.247174  0.410470  0.288692  1
  Au  Au14  1  0.755821  0.909397  0.210661  1
  Au  Au15  1  0.746291  0.592016  0.713005  1
  Au  Au16  1  0.239880  0.706038  0.796682  1
  Au  Au17  1  0.254954  0.796446  0.295349  1
  Au  Au18  1  0.751183  0.294767  0.203852  1
  Au  Au19  1  0.738170  0.206133  0.701795  1
  Au  Au20  1  0.240617  0.599555  0.986212  1
  Au  Au21  1  0.260066  0.906448  0.485041  1
  Au  Au22  1  0.751000  0.399967  0.013761  1
  Au  Au23  1  0.757640  0.091785  0.513345  1
