# generated using pymatgen
data_Dy5Lu3P12Ir15Ru
_symmetry_space_group_name_H-M   'P 1'
_cell_length_a   12.95500569
_cell_length_b   12.98154665
_cell_length_c   3.99456400
_cell_angle_alpha   90.00000000
_cell_angle_beta   90.00000000
_cell_angle_gamma   120.49486004
_symmetry_Int_Tables_number   1
_chemical_formula_structural   Dy5Lu3P12Ir15Ru
_chemical_formula_sum   'Dy5 Lu3 P12 Ir15 Ru1'
_cell_volume   578.86429894
_cell_formula_units_Z   1
loop_
 _symmetry_equiv_pos_site_id
 _symmetry_equiv_pos_as_xyz
  1  'x, y, z'
loop_
 _atom_site_type_symbol
 _atom_site_label
 _atom_site_symmetry_multiplicity
 _atom_site_fract_x
 _atom_site_fract_y
 _atom_site_fract_z
 _atom_site_occupancy
  Dy  Dy0  1  0.333700  0.667138  0.500000  1
  Dy  Dy1  1  0.667345  0.333844  0.500000  1
  Dy  Dy2  1  0.000661  0.812615  0.000000  1
  Dy  Dy3  1  0.185289  0.185931  0.000000  1
  Dy  Dy4  1  0.812602  0.999883  0.000000  1
  Lu  Lu5  1  0.000577  0.444347  0.500000  1
  Lu  Lu6  1  0.554146  0.554547  0.500000  1
  Lu  Lu7  1  0.446849  0.003762  0.500000  1
  P  P8  1  0.999470  0.648545  0.500000  1
  P  P9  1  0.348253  0.349089  0.500000  1
  P  P10  1  0.646708  0.992356  0.500000  1
  P  P11  1  0.520409  0.692447  0.000000  1
  P  P12  1  0.314578  0.830344  0.000000  1
  P  P13  1  0.172247  0.482086  0.000000  1
  P  P14  1  0.481413  0.173088  0.000000  1
  P  P15  1  0.689764  0.517000  0.000000  1
  P  P16  1  0.828963  0.312273  0.000000  1
  P  P17  1  0.997353  0.174888  0.500000  1
  P  P18  1  0.819839  0.822542  0.500000  1
  P  P19  1  0.175023  0.998404  0.500000  1
  Ir  Ir20  1  0.519097  0.875685  0.000000  1
  Ir  Ir21  1  0.137418  0.642017  0.000000  1
  Ir  Ir22  1  0.359182  0.492830  0.000000  1
  Ir  Ir23  1  0.490817  0.358796  0.000000  1
  Ir  Ir24  1  0.870624  0.513398  0.000000  1
  Ir  Ir25  1  0.640657  0.139488  0.000000  1
  Ir  Ir26  1  0.998603  0.274622  0.000000  1
  Ir  Ir27  1  0.727081  0.724273  0.000000  1
  Ir  Ir28  1  0.274778  0.999819  0.000000  1
  Ir  Ir29  1  0.190861  0.820224  0.500000  1
  Ir  Ir30  1  0.178483  0.369590  0.500000  1
  Ir  Ir31  1  0.368796  0.179449  0.500000  1
  Ir  Ir32  1  0.807444  0.627751  0.500000  1
  Ir  Ir33  1  0.817108  0.186211  0.500000  1
  Ir  Ir34  1  0.998208  0.998409  0.500000  1
  Ru  Ru35  1  0.625654  0.802311  0.500000  1
