# generated using pymatgen
data_Er4TmRu3
_symmetry_space_group_name_H-M   'P 1'
_cell_length_a   10.70938800
_cell_length_b   10.70938800
_cell_length_c   6.31281800
_cell_angle_alpha   90.00000000
_cell_angle_beta   90.00000000
_cell_angle_gamma   90.00000000
_symmetry_Int_Tables_number   1
_chemical_formula_structural   Er4TmRu3
_chemical_formula_sum   'Er16 Tm4 Ru12'
_cell_volume   724.02335453
_cell_formula_units_Z   4
loop_
 _symmetry_equiv_pos_site_id
 _symmetry_equiv_pos_as_xyz
  1  'x, y, z'
loop_
 _atom_site_type_symbol
 _atom_site_label
 _atom_site_symmetry_multiplicity
 _atom_site_fract_x
 _atom_site_fract_y
 _atom_site_fract_z
 _atom_site_occupancy
  Er  Er0  1  0.291477  0.086381  0.375999  1
  Er  Er1  1  0.291477  0.913619  0.875999  1
  Er  Er2  1  0.708523  0.086381  0.875999  1
  Er  Er3  1  0.708523  0.913619  0.375999  1
  Er  Er4  1  0.586381  0.791477  0.875999  1
  Er  Er5  1  0.586381  0.208523  0.375999  1
  Er  Er6  1  0.413619  0.791477  0.375999  1
  Er  Er7  1  0.413619  0.208523  0.875999  1
  Er  Er8  1  0.208523  0.413619  0.624001  1
  Er  Er9  1  0.208523  0.586381  0.124001  1
  Er  Er10  1  0.791477  0.413619  0.124001  1
  Er  Er11  1  0.791477  0.586381  0.624001  1
  Er  Er12  1  0.913619  0.708523  0.124001  1
  Er  Er13  1  0.913619  0.291477  0.624001  1
  Er  Er14  1  0.086381  0.708523  0.624001  1
  Er  Er15  1  0.086381  0.291477  0.124001  1
  Tm  Tm16  1  0.000000  0.000000  0.500000  1
  Tm  Tm17  1  0.000000  0.000000  0.000000  1
  Tm  Tm18  1  0.500000  0.500000  0.000000  1
  Tm  Tm19  1  0.500000  0.500000  0.500000  1
  Ru  Ru20  1  0.846937  0.153063  0.250000  1
  Ru  Ru21  1  0.846937  0.846937  0.750000  1
  Ru  Ru22  1  0.153063  0.153063  0.750000  1
  Ru  Ru23  1  0.153063  0.846937  0.250000  1
  Ru  Ru24  1  0.653063  0.346937  0.750000  1
  Ru  Ru25  1  0.653063  0.653063  0.250000  1
  Ru  Ru26  1  0.346937  0.346937  0.250000  1
  Ru  Ru27  1  0.346937  0.653063  0.750000  1
  Ru  Ru28  1  0.500000  0.000000  0.125846  1
  Ru  Ru29  1  0.500000  0.000000  0.625846  1
  Ru  Ru30  1  0.000000  0.500000  0.874154  1
  Ru  Ru31  1  0.000000  0.500000  0.374154  1
