# generated using pymatgen
data_Sr5Zn6
_symmetry_space_group_name_H-M   'P 1'
_cell_length_a   17.48347586
_cell_length_b   17.48347621
_cell_length_c   4.68852000
_cell_angle_alpha   90.00000000
_cell_angle_beta   90.00000000
_cell_angle_gamma   166.91060996
_symmetry_Int_Tables_number   1
_chemical_formula_structural   Sr5Zn6
_chemical_formula_sum   'Sr5 Zn6'
_cell_volume   324.56660151
_cell_formula_units_Z   1
loop_
 _symmetry_equiv_pos_site_id
 _symmetry_equiv_pos_as_xyz
  1  'x, y, z'
loop_
 _atom_site_type_symbol
 _atom_site_label
 _atom_site_symmetry_multiplicity
 _atom_site_fract_x
 _atom_site_fract_y
 _atom_site_fract_z
 _atom_site_occupancy
  Sr  Sr0  1  0.000000  0.000000  0.000000  1
  Sr  Sr1  1  0.616867  0.383131  0.000000  1
  Sr  Sr2  1  0.383131  0.616867  0.000000  1
  Sr  Sr3  1  0.806897  0.193101  0.500001  1
  Sr  Sr4  1  0.193101  0.806897  0.500001  1
  Zn  Zn5  1  0.723780  0.276218  0.000000  1
  Zn  Zn6  1  0.276218  0.723780  0.000000  1
  Zn  Zn7  1  0.913044  0.086955  0.500001  1
  Zn  Zn8  1  0.537781  0.462217  0.500001  1
  Zn  Zn9  1  0.462217  0.537781  0.500001  1
  Zn  Zn10  1  0.086955  0.913044  0.500001  1
