# generated using pymatgen
data_Sr5Cd(RhO6)2
_symmetry_space_group_name_H-M   'P 1'
_cell_length_a   5.81957668
_cell_length_b   6.05431551
_cell_length_c   8.30437637
_cell_angle_alpha   90.42752680
_cell_angle_beta   90.53445929
_cell_angle_gamma   90.08204870
_symmetry_Int_Tables_number   1
_chemical_formula_structural   Sr5Cd(RhO6)2
_chemical_formula_sum   'Sr5 Cd1 Rh2 O12'
_cell_volume   292.57148357
_cell_formula_units_Z   1
loop_
 _symmetry_equiv_pos_site_id
 _symmetry_equiv_pos_as_xyz
  1  'x, y, z'
loop_
 _atom_site_type_symbol
 _atom_site_label
 _atom_site_symmetry_multiplicity
 _atom_site_fract_x
 _atom_site_fract_y
 _atom_site_fract_z
 _atom_site_occupancy
  Sr  Sr0  1  0.483894  0.554709  0.257774  1
  Sr  Sr1  1  0.985406  0.939435  0.741381  1
  Sr  Sr2  1  0.516106  0.445291  0.742226  1
  Sr  Sr3  1  0.014594  0.060565  0.258619  1
  Sr  Sr4  1  0.500000  0.000000  0.000000  1
  Cd  Cd5  1  0.000000  0.500000  0.500000  1
  Rh  Rh6  1  0.000000  0.500000  0.000000  1
  Rh  Rh7  1  0.500000  0.000000  0.500000  1
  O  O8  1  0.225709  0.813633  0.453232  1
  O  O9  1  0.728653  0.675049  0.951265  1
  O  O10  1  0.774291  0.186367  0.546768  1
  O  O11  1  0.271347  0.324951  0.048735  1
  O  O12  1  0.680558  0.728684  0.557068  1
  O  O13  1  0.168080  0.769179  0.059215  1
  O  O14  1  0.319442  0.271316  0.442932  1
  O  O15  1  0.831920  0.230821  0.940785  1
  O  O16  1  0.597654  0.963649  0.279183  1
  O  O17  1  0.100670  0.537713  0.770240  1
  O  O18  1  0.402346  0.036351  0.720817  1
  O  O19  1  0.899330  0.462287  0.229760  1
