# generated using pymatgen
data_Ce3ErAs6Ru7
_symmetry_space_group_name_H-M   'P 1'
_cell_length_a   7.28340575
_cell_length_b   7.28523979
_cell_length_c   7.28523976
_cell_angle_alpha   109.47632266
_cell_angle_beta   109.46612338
_cell_angle_gamma   109.46611067
_symmetry_Int_Tables_number   1
_chemical_formula_structural   Ce3ErAs6Ru7
_chemical_formula_sum   'Ce3 Er1 As6 Ru7'
_cell_volume   297.59639811
_cell_formula_units_Z   1
loop_
 _symmetry_equiv_pos_site_id
 _symmetry_equiv_pos_as_xyz
  1  'x, y, z'
loop_
 _atom_site_type_symbol
 _atom_site_label
 _atom_site_symmetry_multiplicity
 _atom_site_fract_x
 _atom_site_fract_y
 _atom_site_fract_z
 _atom_site_occupancy
  Ce  Ce0  1  0.000000  0.000000  0.500000  1
  Ce  Ce1  1  0.000000  0.500000  0.000000  1
  Ce  Ce2  1  0.500000  0.500000  0.500000  1
  Er  Er3  1  0.500000  0.000000  0.000000  1
  As  As4  1  0.320170  0.000000  0.315407  1
  As  As5  1  0.995237  0.315407  0.315407  1
  As  As6  1  0.004763  0.684593  0.684593  1
  As  As7  1  0.320170  0.315407  0.000000  1
  As  As8  1  0.679830  0.684593  0.000000  1
  As  As9  1  0.679830  0.000000  0.684593  1
  Ru  Ru10  1  0.750507  0.501014  0.250507  1
  Ru  Ru11  1  0.500000  0.749493  0.250507  1
  Ru  Ru12  1  0.500000  0.250507  0.749493  1
  Ru  Ru13  1  0.750507  0.250507  0.501014  1
  Ru  Ru14  1  0.249493  0.749493  0.498986  1
  Ru  Ru15  1  0.249493  0.498986  0.749493  1
  Ru  Ru16  1  0.000000  0.000000  0.000000  1
