# generated using pymatgen
data_Nd4Ho6Sn7Au
_symmetry_space_group_name_H-M   'P 1'
_cell_length_a   7.83022700
_cell_length_b   8.29309000
_cell_length_c   15.35050500
_cell_angle_alpha   90.00000000
_cell_angle_beta   90.00000000
_cell_angle_gamma   90.00000000
_symmetry_Int_Tables_number   1
_chemical_formula_structural   Nd4Ho6Sn7Au
_chemical_formula_sum   'Nd8 Ho12 Sn14 Au2'
_cell_volume   996.81232357
_cell_formula_units_Z   2
loop_
 _symmetry_equiv_pos_site_id
 _symmetry_equiv_pos_as_xyz
  1  'x, y, z'
loop_
 _atom_site_type_symbol
 _atom_site_label
 _atom_site_symmetry_multiplicity
 _atom_site_fract_x
 _atom_site_fract_y
 _atom_site_fract_z
 _atom_site_occupancy
  Nd  Nd0  1  0.509010  0.315084  0.905384  1
  Nd  Nd1  1  0.009010  0.184916  0.594616  1
  Nd  Nd2  1  0.490453  0.680117  0.405721  1
  Nd  Nd3  1  0.990453  0.819883  0.094279  1
  Nd  Nd4  1  0.490453  0.680117  0.094279  1
  Nd  Nd5  1  0.990453  0.819883  0.405721  1
  Nd  Nd6  1  0.509010  0.315084  0.594616  1
  Nd  Nd7  1  0.009010  0.184916  0.905384  1
  Ho  Ho8  1  0.346608  0.831399  0.869762  1
  Ho  Ho9  1  0.846608  0.668601  0.630238  1
  Ho  Ho10  1  0.650352  0.165908  0.375823  1
  Ho  Ho11  1  0.150352  0.334092  0.124177  1
  Ho  Ho12  1  0.650352  0.165908  0.124177  1
  Ho  Ho13  1  0.150352  0.334092  0.375823  1
  Ho  Ho14  1  0.346608  0.831399  0.630238  1
  Ho  Ho15  1  0.846608  0.668601  0.869762  1
  Ho  Ho16  1  0.196174  0.500435  0.750000  1
  Ho  Ho17  1  0.696174  0.999565  0.750000  1
  Ho  Ho18  1  0.816042  0.501029  0.250000  1
  Ho  Ho19  1  0.316042  0.998971  0.250000  1
  Sn  Sn20  1  0.312353  0.039231  0.038301  1
  Sn  Sn21  1  0.812353  0.460769  0.461699  1
  Sn  Sn22  1  0.690019  0.961034  0.542108  1
  Sn  Sn23  1  0.190019  0.538966  0.957892  1
  Sn  Sn24  1  0.690019  0.961034  0.957892  1
  Sn  Sn25  1  0.190019  0.538966  0.542108  1
  Sn  Sn26  1  0.312353  0.039231  0.461699  1
  Sn  Sn27  1  0.812353  0.460769  0.038301  1
  Sn  Sn28  1  0.451582  0.379251  0.250000  1
  Sn  Sn29  1  0.951582  0.120749  0.250000  1
  Sn  Sn30  1  0.305892  0.136306  0.750000  1
  Sn  Sn31  1  0.805892  0.363694  0.750000  1
  Sn  Sn32  1  0.683042  0.854641  0.250000  1
  Sn  Sn33  1  0.183042  0.645359  0.250000  1
  Au  Au34  1  0.549679  0.625189  0.750000  1
  Au  Au35  1  0.049679  0.874811  0.750000  1
