# generated using pymatgen
data_Ti8Al14GeOs4Rh3
_symmetry_space_group_name_H-M   'P 1'
_cell_length_a   8.65135087
_cell_length_b   8.64428315
_cell_length_c   8.67057671
_cell_angle_alpha   119.89976671
_cell_angle_beta   119.84679158
_cell_angle_gamma   90.08811067
_symmetry_Int_Tables_number   1
_chemical_formula_structural   Ti8Al14GeOs4Rh3
_chemical_formula_sum   'Ti8 Al14 Ge1 Os4 Rh3'
_cell_volume   459.90793243
_cell_formula_units_Z   1
loop_
 _symmetry_equiv_pos_site_id
 _symmetry_equiv_pos_as_xyz
  1  'x, y, z'
loop_
 _atom_site_type_symbol
 _atom_site_label
 _atom_site_symmetry_multiplicity
 _atom_site_fract_x
 _atom_site_fract_y
 _atom_site_fract_z
 _atom_site_occupancy
  Ti  Ti0  1  0.785337  0.290436  0.077706  1
  Ti  Ti1  1  0.220159  0.298033  0.506137  1
  Ti  Ti2  1  0.211536  0.710959  0.508542  1
  Ti  Ti3  1  0.221617  0.717336  0.922813  1
  Ti  Ti4  1  0.793123  0.714827  0.496511  1
  Ti  Ti5  1  0.779252  0.279404  0.489610  1
  Ti  Ti6  1  0.375912  0.121601  0.743516  1
  Ti  Ti7  1  0.383234  0.634869  0.260053  1
  Al  Al8  1  0.153006  0.341180  0.183133  1
  Al  Al9  1  0.156522  0.975559  0.818241  1
  Al  Al10  1  0.151528  0.344265  0.810210  1
  Al  Al11  1  0.528916  0.343078  0.187748  1
  Al  Al12  1  0.845551  0.654465  0.809887  1
  Al  Al13  1  0.846506  0.030554  0.187613  1
  Al  Al14  1  0.842172  0.656078  0.181474  1
  Al  Al15  1  0.479999  0.659803  0.820075  1
  Al  Al16  1  0.379362  0.120719  0.259707  1
  Al  Al17  1  0.859162  0.120867  0.739401  1
  Al  Al18  1  0.620457  0.876312  0.256299  1
  Al  Al19  1  0.620658  0.362798  0.742767  1
  Al  Al20  1  0.618849  0.877607  0.740594  1
  Al  Al21  1  0.138073  0.879073  0.260125  1
  Ge  Ge22  1  0.997016  0.496266  0.500330  1
  Os  Os23  1  0.999809  0.998620  0.501108  1
  Os  Os24  1  0.499464  0.000873  0.000432  1
  Os  Os25  1  0.497489  0.497705  0.999443  1
  Os  Os26  1  0.496860  0.498882  0.497927  1
  Rh  Rh27  1  0.000451  0.500011  0.000319  1
  Rh  Rh28  1  0.999074  0.999180  0.998830  1
  Rh  Rh29  1  0.498904  0.998636  0.499450  1
