# generated using pymatgen
data_LiFe3Cl8
_symmetry_space_group_name_H-M   'P 1'
_cell_length_a   6.25836092
_cell_length_b   7.07916598
_cell_length_c   11.12599600
_cell_angle_alpha   92.82731129
_cell_angle_beta   81.92079453
_cell_angle_gamma   68.35818355
_symmetry_Int_Tables_number   1
_chemical_formula_structural   LiFe3Cl8
_chemical_formula_sum   'Li1 Fe3 Cl8'
_cell_volume   450.88192588
_cell_formula_units_Z   1
loop_
 _symmetry_equiv_pos_site_id
 _symmetry_equiv_pos_as_xyz
  1  'x, y, z'
loop_
 _atom_site_type_symbol
 _atom_site_label
 _atom_site_symmetry_multiplicity
 _atom_site_fract_x
 _atom_site_fract_y
 _atom_site_fract_z
 _atom_site_occupancy
  Li  Li0  1  0.343924  0.471688  0.373252  1
  Fe  Fe1  1  0.718470  0.479123  0.856711  1
  Fe  Fe2  1  0.753541  0.477458  0.605070  1
  Fe  Fe3  1  0.534199  0.493503  0.104201  1
  Cl  Cl4  1  0.739007  0.217673  0.722101  1
  Cl  Cl5  1  0.834430  0.690894  0.740520  1
  Cl  Cl6  1  0.401614  0.627997  0.561479  1
  Cl  Cl7  1  0.340747  0.643757  0.950652  1
  Cl  Cl8  1  0.920437  0.371681  0.011195  1
  Cl  Cl9  1  0.044568  0.347469  0.449033  1
  Cl  Cl10  1  0.452427  0.240356  0.177333  1
  Cl  Cl11  1  0.447660  0.726307  0.260996  1
