# generated using pymatgen
data_Li7In(SiPd3)2
_symmetry_space_group_name_H-M   'P 1'
_cell_length_a   6.96907139
_cell_length_b   6.96907086
_cell_length_c   6.96907016
_cell_angle_alpha   60.49621036
_cell_angle_beta   60.49620907
_cell_angle_gamma   60.49621437
_symmetry_Int_Tables_number   1
_chemical_formula_structural   Li7In(SiPd3)2
_chemical_formula_sum   'Li7 In1 Si2 Pd6'
_cell_volume   242.02095138
_cell_formula_units_Z   1
loop_
 _symmetry_equiv_pos_site_id
 _symmetry_equiv_pos_as_xyz
  1  'x, y, z'
loop_
 _atom_site_type_symbol
 _atom_site_label
 _atom_site_symmetry_multiplicity
 _atom_site_fract_x
 _atom_site_fract_y
 _atom_site_fract_z
 _atom_site_occupancy
  Li  Li0  1  0.727338  0.727338  0.727338  1
  Li  Li1  1  0.571923  0.825560  0.341038  1
  Li  Li2  1  0.341038  0.571923  0.825560  1
  Li  Li3  1  0.825560  0.341038  0.571923  1
  Li  Li4  1  0.661846  0.156813  0.441556  1
  Li  Li5  1  0.156813  0.441556  0.661846  1
  Li  Li6  1  0.441556  0.661846  0.156813  1
  In  In7  1  0.282468  0.282468  0.282468  1
  Si  Si8  1  0.895572  0.895572  0.895572  1
  Si  Si9  1  0.098038  0.098038  0.098038  1
  Pd  Pd10  1  0.901041  0.495899  0.103033  1
  Pd  Pd11  1  0.103033  0.901041  0.495899  1
  Pd  Pd12  1  0.495899  0.103033  0.901041  1
  Pd  Pd13  1  0.249145  0.005520  0.743211  1
  Pd  Pd14  1  0.743211  0.249145  0.005520  1
  Pd  Pd15  1  0.005520  0.743211  0.249145  1
