# generated using pymatgen
data_Y3MgCoP6Rh7
_symmetry_space_group_name_H-M   'P 1'
_cell_length_a   3.90460600
_cell_length_b   11.18571600
_cell_length_c   12.85052800
_cell_angle_alpha   90.00000000
_cell_angle_beta   90.00000000
_cell_angle_gamma   90.00000000
_symmetry_Int_Tables_number   1
_chemical_formula_structural   Y3MgCoP6Rh7
_chemical_formula_sum   'Y6 Mg2 Co2 P12 Rh14'
_cell_volume   561.25726826
_cell_formula_units_Z   2
loop_
 _symmetry_equiv_pos_site_id
 _symmetry_equiv_pos_as_xyz
  1  'x, y, z'
loop_
 _atom_site_type_symbol
 _atom_site_label
 _atom_site_symmetry_multiplicity
 _atom_site_fract_x
 _atom_site_fract_y
 _atom_site_fract_z
 _atom_site_occupancy
  Y  Y0  1  0.000000  0.500000  0.520713  1
  Y  Y1  1  0.500000  0.000000  0.479287  1
  Y  Y2  1  0.500000  0.821390  0.202048  1
  Y  Y3  1  0.500000  0.178610  0.202048  1
  Y  Y4  1  0.000000  0.678610  0.797952  1
  Y  Y5  1  0.000000  0.321390  0.797952  1
  Mg  Mg6  1  0.500000  0.500000  0.159268  1
  Mg  Mg7  1  0.000000  0.000000  0.840732  1
  Co  Co8  1  0.000000  0.500000  0.987850  1
  Co  Co9  1  0.500000  0.000000  0.012150  1
  P  P10  1  0.500000  0.500000  0.884515  1
  P  P11  1  0.000000  0.000000  0.115485  1
  P  P12  1  0.500000  0.500000  0.355223  1
  P  P13  1  0.000000  0.000000  0.644777  1
  P  P14  1  0.500000  0.313567  0.618485  1
  P  P15  1  0.500000  0.686433  0.618485  1
  P  P16  1  0.000000  0.186433  0.381515  1
  P  P17  1  0.000000  0.813567  0.381515  1
  P  P18  1  0.500000  0.844945  0.894122  1
  P  P19  1  0.500000  0.155055  0.894122  1
  P  P20  1  0.000000  0.655055  0.105878  1
  P  P21  1  0.000000  0.344945  0.105878  1
  Rh  Rh22  1  0.500000  0.500000  0.704341  1
  Rh  Rh23  1  0.000000  0.000000  0.295659  1
  Rh  Rh24  1  0.500000  0.335420  0.996715  1
  Rh  Rh25  1  0.500000  0.664580  0.996715  1
  Rh  Rh26  1  0.000000  0.164580  0.003285  1
  Rh  Rh27  1  0.000000  0.835420  0.003285  1
  Rh  Rh28  1  0.500000  0.293073  0.431369  1
  Rh  Rh29  1  0.500000  0.706927  0.431369  1
  Rh  Rh30  1  0.000000  0.206927  0.568631  1
  Rh  Rh31  1  0.000000  0.793073  0.568631  1
  Rh  Rh32  1  0.500000  0.873885  0.711861  1
  Rh  Rh33  1  0.500000  0.126115  0.711861  1
  Rh  Rh34  1  0.000000  0.626115  0.288139  1
  Rh  Rh35  1  0.000000  0.373885  0.288139  1
