# generated using pymatgen
data_CeMg2Rh3
_symmetry_space_group_name_H-M   'P 1'
_cell_length_a   8.03637900
_cell_length_b   8.03637893
_cell_length_c   5.56952300
_cell_angle_alpha   90.00000000
_cell_angle_beta   90.00000000
_cell_angle_gamma   120.00000440
_symmetry_Int_Tables_number   1
_chemical_formula_structural   CeMg2Rh3
_chemical_formula_sum   'Ce3 Mg6 Rh9'
_cell_volume   311.50816226
_cell_formula_units_Z   3
loop_
 _symmetry_equiv_pos_site_id
 _symmetry_equiv_pos_as_xyz
  1  'x, y, z'
loop_
 _atom_site_type_symbol
 _atom_site_label
 _atom_site_symmetry_multiplicity
 _atom_site_fract_x
 _atom_site_fract_y
 _atom_site_fract_z
 _atom_site_occupancy
  Ce  Ce0  1  0.333448  0.000000  0.892113  1
  Ce  Ce1  1  0.000000  0.333448  0.892113  1
  Ce  Ce2  1  0.666552  0.666552  0.892113  1
  Mg  Mg3  1  0.666896  0.000000  0.239487  1
  Mg  Mg4  1  0.333103  0.333104  0.239487  1
  Mg  Mg5  1  0.000000  0.666896  0.239487  1
  Mg  Mg6  1  0.000000  0.000000  0.544368  1
  Mg  Mg7  1  0.666666  0.333333  0.544904  1
  Mg  Mg8  1  0.333334  0.666667  0.544904  1
  Rh  Rh9  1  0.000000  0.000000  0.061438  1
  Rh  Rh10  1  0.666666  0.333333  0.062117  1
  Rh  Rh11  1  0.333334  0.666667  0.062117  1
  Rh  Rh12  1  0.333499  0.000000  0.392091  1
  Rh  Rh13  1  0.000000  0.333499  0.392091  1
  Rh  Rh14  1  0.666502  0.666501  0.392091  1
  Rh  Rh15  1  0.666871  0.000000  0.722311  1
  Rh  Rh16  1  0.333130  0.333130  0.722311  1
  Rh  Rh17  1  0.000000  0.666870  0.722311  1
