# generated using pymatgen
data_Ba12TbY3(Ga4O15)2
_symmetry_space_group_name_H-M   'P 1'
_cell_length_a   6.04859602
_cell_length_b   8.05983761
_cell_length_c   18.71139945
_cell_angle_alpha   88.74929288
_cell_angle_beta   89.99115437
_cell_angle_gamma   89.99996862
_symmetry_Int_Tables_number   1
_chemical_formula_structural   Ba12TbY3(Ga4O15)2
_chemical_formula_sum   'Ba12 Tb1 Y3 Ga8 O30'
_cell_volume   911.97651857
_cell_formula_units_Z   1
loop_
 _symmetry_equiv_pos_site_id
 _symmetry_equiv_pos_as_xyz
  1  'x, y, z'
loop_
 _atom_site_type_symbol
 _atom_site_label
 _atom_site_symmetry_multiplicity
 _atom_site_fract_x
 _atom_site_fract_y
 _atom_site_fract_z
 _atom_site_occupancy
  Ba  Ba0  1  0.754469  0.500107  0.079183  1
  Ba  Ba1  1  0.246317  0.499750  0.921079  1
  Ba  Ba2  1  0.754219  0.499997  0.420995  1
  Ba  Ba3  1  0.245698  0.500084  0.578882  1
  Ba  Ba4  1  0.750428  0.972832  0.090377  1
  Ba  Ba5  1  0.249998  0.027103  0.909774  1
  Ba  Ba6  1  0.750168  0.026896  0.409946  1
  Ba  Ba7  1  0.249885  0.973135  0.590022  1
  Ba  Ba8  1  0.724996  0.999924  0.749777  1
  Ba  Ba9  1  0.274879  0.000114  0.250164  1
  Ba  Ba10  1  0.669487  0.499960  0.749655  1
  Ba  Ba11  1  0.330019  0.500067  0.250025  1
  Tb  Tb12  1  0.748047  0.752838  0.910126  1
  Y  Y13  1  0.252303  0.247054  0.089868  1
  Y  Y14  1  0.747902  0.247129  0.589679  1
  Y  Y15  1  0.252088  0.752812  0.410280  1
  Ga  Ga16  1  0.745722  0.754814  0.557930  1
  Ga  Ga17  1  0.254173  0.245228  0.442023  1
  Ga  Ga18  1  0.746188  0.245186  0.942095  1
  Ga  Ga19  1  0.254286  0.754798  0.058213  1
  Ga  Ga20  1  0.773825  0.770602  0.266555  1
  Ga  Ga21  1  0.226064  0.229426  0.733512  1
  Ga  Ga22  1  0.773813  0.229449  0.233621  1
  Ga  Ga23  1  0.225679  0.770374  0.766127  1
  O  O24  1  0.196203  0.999945  0.749914  1
  O  O25  1  0.803657  0.000017  0.250060  1
  O  O26  1  0.514043  0.766200  0.002888  1
  O  O27  1  0.485632  0.233743  0.997193  1
  O  O28  1  0.514263  0.233771  0.497268  1
  O  O29  1  0.485773  0.766249  0.502680  1
  O  O30  1  0.766561  0.952605  0.608478  1
  O  O31  1  0.233470  0.047456  0.391478  1
  O  O32  1  0.766980  0.047735  0.891315  1
  O  O33  1  0.233796  0.952375  0.108897  1
  O  O34  1  0.017166  0.767270  0.991564  1
  O  O35  1  0.983223  0.232652  0.008871  1
  O  O36  1  0.016835  0.232728  0.508729  1
  O  O37  1  0.983024  0.767263  0.491209  1
  O  O38  1  0.333260  0.689605  0.682668  1
  O  O39  1  0.667788  0.311227  0.317045  1
  O  O40  1  0.331640  0.311139  0.817009  1
  O  O41  1  0.667987  0.688731  0.183151  1
  O  O42  1  0.446829  0.751716  0.837231  1
  O  O43  1  0.551666  0.248096  0.162794  1
  O  O44  1  0.448326  0.248148  0.662733  1
  O  O45  1  0.551557  0.751966  0.337328  1
  O  O46  1  0.954127  0.723772  0.807955  1
  O  O47  1  0.044862  0.276013  0.191202  1
  O  O48  1  0.955173  0.275998  0.691033  1
  O  O49  1  0.044930  0.724011  0.308953  1
  O  O50  1  0.757149  0.532798  0.590175  1
  O  O51  1  0.242963  0.467175  0.409800  1
  O  O52  1  0.757200  0.467123  0.909887  1
  O  O53  1  0.243266  0.532794  0.090585  1
