# generated using pymatgen
data_TbTm3(ZnGa)4
_symmetry_space_group_name_H-M   'P 1'
_cell_length_a   4.42021800
_cell_length_b   7.11415996
_cell_length_c   7.60642100
_cell_angle_alpha   90.02979894
_cell_angle_beta   90.00000000
_cell_angle_gamma   90.00000000
_symmetry_Int_Tables_number   1
_chemical_formula_structural   TbTm3(ZnGa)4
_chemical_formula_sum   'Tb1 Tm3 Zn4 Ga4'
_cell_volume   239.19253149
_cell_formula_units_Z   1
loop_
 _symmetry_equiv_pos_site_id
 _symmetry_equiv_pos_as_xyz
  1  'x, y, z'
loop_
 _atom_site_type_symbol
 _atom_site_label
 _atom_site_symmetry_multiplicity
 _atom_site_fract_x
 _atom_site_fract_y
 _atom_site_fract_z
 _atom_site_occupancy
  Tb  Tb0  1  0.250000  0.998949  0.753229  1
  Tm  Tm1  1  0.250000  0.499089  0.747125  1
  Tm  Tm2  1  0.750000  0.998265  0.247852  1
  Tm  Tm3  1  0.750000  0.498223  0.251887  1
  Zn  Zn4  1  0.250000  0.788151  0.415429  1
  Zn  Zn5  1  0.250000  0.290668  0.083995  1
  Zn  Zn6  1  0.750000  0.285383  0.583169  1
  Zn  Zn7  1  0.750000  0.776818  0.917280  1
  Ga  Ga8  1  0.250000  0.214579  0.415536  1
  Ga  Ga9  1  0.250000  0.711924  0.084267  1
  Ga  Ga10  1  0.750000  0.716065  0.581386  1
  Ga  Ga11  1  0.750000  0.221884  0.918843  1
