# generated using pymatgen
data_La8Si13Au3
_symmetry_space_group_name_H-M   'P 1'
_cell_length_a   8.34769601
_cell_length_b   8.34765879
_cell_length_c   8.86052600
_cell_angle_alpha   89.99973405
_cell_angle_beta   90.00010057
_cell_angle_gamma   120.00634975
_symmetry_Int_Tables_number   1
_chemical_formula_structural   La8Si13Au3
_chemical_formula_sum   'La8 Si13 Au3'
_cell_volume   534.67965464
_cell_formula_units_Z   1
loop_
 _symmetry_equiv_pos_site_id
 _symmetry_equiv_pos_as_xyz
  1  'x, y, z'
loop_
 _atom_site_type_symbol
 _atom_site_label
 _atom_site_symmetry_multiplicity
 _atom_site_fract_x
 _atom_site_fract_y
 _atom_site_fract_z
 _atom_site_occupancy
  La  La0  1  0.999990  0.000002  0.753642  1
  La  La1  1  0.999990  0.000002  0.246395  1
  La  La2  1  0.495887  0.504104  0.756928  1
  La  La3  1  0.495874  0.991773  0.756916  1
  La  La4  1  0.008236  0.504127  0.756912  1
  La  La5  1  0.496480  0.503497  0.243059  1
  La  La6  1  0.007038  0.503514  0.243071  1
  La  La7  1  0.496475  0.992974  0.243068  1
  Si  Si8  1  0.836408  0.163590  0.999748  1
  Si  Si9  1  0.836382  0.672816  0.999750  1
  Si  Si10  1  0.327182  0.163617  0.999749  1
  Si  Si11  1  0.836195  0.163810  0.500342  1
  Si  Si12  1  0.836191  0.672403  0.500343  1
  Si  Si13  1  0.327601  0.163812  0.500343  1
  Si  Si14  1  0.163098  0.836900  0.499678  1
  Si  Si15  1  0.673835  0.836921  0.499677  1
  Si  Si16  1  0.163078  0.326162  0.499678  1
  Si  Si17  1  0.166585  0.833410  0.000414  1
  Si  Si18  1  0.666821  0.833397  0.000417  1
  Si  Si19  1  0.166603  0.333179  0.000416  1
  Si  Si20  1  0.333351  0.666664  0.000662  1
  Au  Au21  1  0.666681  0.333327  0.998602  1
  Au  Au22  1  0.666680  0.333324  0.501106  1
  Au  Au23  1  0.333338  0.666674  0.499079  1
