# generated using pymatgen
data_Ho2Tm2Cd2Si3Ge
_symmetry_space_group_name_H-M   'P 1'
_cell_length_a   7.15661850
_cell_length_b   7.15661822
_cell_length_c   4.16538700
_cell_angle_alpha   90.00000000
_cell_angle_beta   90.00000000
_cell_angle_gamma   89.88376099
_symmetry_Int_Tables_number   1
_chemical_formula_structural   Ho2Tm2Cd2Si3Ge
_chemical_formula_sum   'Ho2 Tm2 Cd2 Si3 Ge1'
_cell_volume   213.33896312
_cell_formula_units_Z   1
loop_
 _symmetry_equiv_pos_site_id
 _symmetry_equiv_pos_as_xyz
  1  'x, y, z'
loop_
 _atom_site_type_symbol
 _atom_site_label
 _atom_site_symmetry_multiplicity
 _atom_site_fract_x
 _atom_site_fract_y
 _atom_site_fract_z
 _atom_site_occupancy
  Ho  Ho0  1  0.680004  0.177513  0.500000  1
  Ho  Ho1  1  0.322487  0.819996  0.500000  1
  Tm  Tm2  1  0.175152  0.324848  0.500000  1
  Tm  Tm3  1  0.823389  0.676611  0.500000  1
  Cd  Cd4  1  0.501201  0.502889  0.000000  1
  Cd  Cd5  1  0.997111  0.998799  0.000000  1
  Si  Si6  1  0.117260  0.617381  0.000000  1
  Si  Si7  1  0.882619  0.382740  0.000000  1
  Si  Si8  1  0.621028  0.878972  0.000000  1
  Ge  Ge9  1  0.379750  0.120250  0.000000  1
