# generated using pymatgen
data_Yb5Th3(SiPt)8
_symmetry_space_group_name_H-M   'P 1'
_cell_length_a   5.83014168
_cell_length_b   7.81077058
_cell_length_c   10.64641400
_cell_angle_alpha   88.25069955
_cell_angle_beta   90.04355553
_cell_angle_gamma   90.22859808
_symmetry_Int_Tables_number   1
_chemical_formula_structural   Yb5Th3(SiPt)8
_chemical_formula_sum   'Yb5 Th3 Si8 Pt8'
_cell_volume   484.58542954
_cell_formula_units_Z   1
loop_
 _symmetry_equiv_pos_site_id
 _symmetry_equiv_pos_as_xyz
  1  'x, y, z'
loop_
 _atom_site_type_symbol
 _atom_site_label
 _atom_site_symmetry_multiplicity
 _atom_site_fract_x
 _atom_site_fract_y
 _atom_site_fract_z
 _atom_site_occupancy
  Yb  Yb0  1  0.876071  0.824563  0.364530  1
  Yb  Yb1  1  0.134730  0.474085  0.137665  1
  Yb  Yb2  1  0.635418  0.030167  0.865207  1
  Yb  Yb3  1  0.864438  0.528989  0.865474  1
  Yb  Yb4  1  0.362958  0.968521  0.137547  1
  Th  Th5  1  0.627201  0.326439  0.365122  1
  Th  Th6  1  0.122907  0.172564  0.635927  1
  Th  Th7  1  0.375026  0.673760  0.633624  1
  Si  Si8  1  0.626079  0.031842  0.579539  1
  Si  Si9  1  0.135469  0.463954  0.423486  1
  Si  Si10  1  0.368095  0.965275  0.418781  1
  Si  Si11  1  0.873099  0.532349  0.581379  1
  Si  Si12  1  0.873002  0.131999  0.138390  1
  Si  Si13  1  0.369576  0.370680  0.858260  1
  Si  Si14  1  0.131614  0.869861  0.858061  1
  Si  Si15  1  0.628993  0.634779  0.140192  1
  Pt  Pt16  1  0.896170  0.843694  0.056813  1
  Pt  Pt17  1  0.391903  0.656596  0.941266  1
  Pt  Pt18  1  0.109552  0.157019  0.940915  1
  Pt  Pt19  1  0.602467  0.343668  0.059815  1
  Pt  Pt20  1  0.892361  0.821207  0.668275  1
  Pt  Pt21  1  0.395562  0.677862  0.331772  1
  Pt  Pt22  1  0.104978  0.180140  0.330347  1
  Pt  Pt23  1  0.602330  0.319981  0.667614  1
