# generated using pymatgen
data_Dy4ReRu7
_symmetry_space_group_name_H-M   'P 1'
_cell_length_a   5.26548090
_cell_length_b   5.44290785
_cell_length_c   8.92567200
_cell_angle_alpha   90.00000000
_cell_angle_beta   90.00000000
_cell_angle_gamma   121.12106165
_symmetry_Int_Tables_number   1
_chemical_formula_structural   Dy4ReRu7
_chemical_formula_sum   'Dy4 Re1 Ru7'
_cell_volume   218.98927836
_cell_formula_units_Z   1
loop_
 _symmetry_equiv_pos_site_id
 _symmetry_equiv_pos_as_xyz
  1  'x, y, z'
loop_
 _atom_site_type_symbol
 _atom_site_label
 _atom_site_symmetry_multiplicity
 _atom_site_fract_x
 _atom_site_fract_y
 _atom_site_fract_z
 _atom_site_occupancy
  Dy  Dy0  1  0.326642  0.663322  0.432379  1
  Dy  Dy1  1  0.652555  0.326277  0.565567  1
  Dy  Dy2  1  0.652555  0.326277  0.934433  1
  Dy  Dy3  1  0.326642  0.663322  0.067621  1
  Re  Re4  1  0.694506  0.847253  0.750000  1
  Ru  Ru5  1  0.971549  0.985775  0.500081  1
  Ru  Ru6  1  0.971549  0.985775  0.999919  1
  Ru  Ru7  1  0.837704  0.167523  0.250000  1
  Ru  Ru8  1  0.837704  0.670181  0.250000  1
  Ru  Ru9  1  0.361473  0.180737  0.250000  1
  Ru  Ru10  1  0.183560  0.822841  0.750000  1
  Ru  Ru11  1  0.183560  0.360719  0.750000  1
