# generated using pymatgen
data_Dy11Zn(In3Ru)3
_symmetry_space_group_name_H-M   'P 1'
_cell_length_a   3.75798200
_cell_length_b   13.06514837
_cell_length_c   12.99824153
_cell_angle_alpha   111.41137355
_cell_angle_beta   90.00000000
_cell_angle_gamma   90.00000000
_symmetry_Int_Tables_number   1
_chemical_formula_structural   Dy11Zn(In3Ru)3
_chemical_formula_sum   'Dy11 Zn1 In9 Ru3'
_cell_volume   594.14926785
_cell_formula_units_Z   1
loop_
 _symmetry_equiv_pos_site_id
 _symmetry_equiv_pos_as_xyz
  1  'x, y, z'
loop_
 _atom_site_type_symbol
 _atom_site_label
 _atom_site_symmetry_multiplicity
 _atom_site_fract_x
 _atom_site_fract_y
 _atom_site_fract_z
 _atom_site_occupancy
  Dy  Dy0  1  0.000000  0.933550  0.584525  1
  Dy  Dy1  1  0.000000  0.085101  0.421331  1
  Dy  Dy2  1  0.000000  0.579978  0.920053  1
  Dy  Dy3  1  0.000000  0.416583  0.080218  1
  Dy  Dy4  1  0.000000  0.162791  0.838656  1
  Dy  Dy5  1  0.000000  0.837567  0.161880  1
  Dy  Dy6  1  0.000000  0.374042  0.624974  1
  Dy  Dy7  1  0.000000  0.615258  0.359958  1
  Dy  Dy8  1  0.000000  0.679690  0.696247  1
  Dy  Dy9  1  0.000000  0.311265  0.311627  1
  Dy  Dy10  1  0.000000  0.000543  0.000174  1
  Zn  Zn11  1  0.500000  0.750209  0.548797  1
  In  In12  1  0.500000  0.161931  0.632612  1
  In  In13  1  0.500000  0.846850  0.369765  1
  In  In14  1  0.500000  0.630517  0.158837  1
  In  In15  1  0.500000  0.367902  0.842325  1
  In  In16  1  0.500000  0.930149  0.781945  1
  In  In17  1  0.500000  0.072723  0.218709  1
  In  In18  1  0.500000  0.779253  0.923818  1
  In  In19  1  0.500000  0.217890  0.075098  1
  In  In20  1  0.500000  0.500845  0.498344  1
  Ru  Ru21  1  0.500000  0.252868  0.450241  1
  Ru  Ru22  1  0.500000  0.546566  0.750482  1
  Ru  Ru23  1  0.500000  0.445928  0.249386  1
