# generated using pymatgen
data_La2Cu5Ni3Pt2
_symmetry_space_group_name_H-M   'P 1'
_cell_length_a   4.03788700
_cell_length_b   5.33156139
_cell_length_c   8.82157550
_cell_angle_alpha   93.63493784
_cell_angle_beta   90.00000000
_cell_angle_gamma   90.00000000
_symmetry_Int_Tables_number   1
_chemical_formula_structural   La2Cu5Ni3Pt2
_chemical_formula_sum   'La2 Cu5 Ni3 Pt2'
_cell_volume   189.53095927
_cell_formula_units_Z   1
loop_
 _symmetry_equiv_pos_site_id
 _symmetry_equiv_pos_as_xyz
  1  'x, y, z'
loop_
 _atom_site_type_symbol
 _atom_site_label
 _atom_site_symmetry_multiplicity
 _atom_site_fract_x
 _atom_site_fract_y
 _atom_site_fract_z
 _atom_site_occupancy
  La  La0  1  0.000000  0.500000  0.000000  1
  La  La1  1  0.000000  0.000000  0.500000  1
  Cu  Cu2  1  0.000000  0.477131  0.336305  1
  Cu  Cu3  1  0.000000  0.977485  0.840141  1
  Cu  Cu4  1  0.000000  0.022515  0.159859  1
  Cu  Cu5  1  0.000000  0.522869  0.663695  1
  Cu  Cu6  1  0.500000  0.500000  0.500000  1
  Ni  Ni7  1  0.500000  0.000000  0.000000  1
  Ni  Ni8  1  0.500000  0.249566  0.248528  1
  Ni  Ni9  1  0.500000  0.750434  0.751472  1
  Pt  Pt10  1  0.500000  0.752520  0.249411  1
  Pt  Pt11  1  0.500000  0.247480  0.750589  1
