# generated using pymatgen
data_Pr3Y2(In2Ir)2
_symmetry_space_group_name_H-M   'P 1'
_cell_length_a   3.83079800
_cell_length_b   8.16556000
_cell_length_c   18.41779100
_cell_angle_alpha   90.00000000
_cell_angle_beta   90.00000000
_cell_angle_gamma   90.00000000
_symmetry_Int_Tables_number   1
_chemical_formula_structural   Pr3Y2(In2Ir)2
_chemical_formula_sum   'Pr6 Y4 In8 Ir4'
_cell_volume   576.11975422
_cell_formula_units_Z   2
loop_
 _symmetry_equiv_pos_site_id
 _symmetry_equiv_pos_as_xyz
  1  'x, y, z'
loop_
 _atom_site_type_symbol
 _atom_site_label
 _atom_site_symmetry_multiplicity
 _atom_site_fract_x
 _atom_site_fract_y
 _atom_site_fract_z
 _atom_site_occupancy
  Pr  Pr0  1  0.000000  0.239532  0.218537  1
  Pr  Pr1  1  0.000000  0.760468  0.781463  1
  Pr  Pr2  1  0.000000  0.260468  0.718537  1
  Pr  Pr3  1  0.000000  0.739532  0.281463  1
  Pr  Pr4  1  0.000000  0.000000  0.000000  1
  Pr  Pr5  1  0.000000  0.500000  0.500000  1
  Y  Y6  1  0.000000  0.113895  0.409811  1
  Y  Y7  1  0.000000  0.886105  0.590189  1
  Y  Y8  1  0.000000  0.386105  0.909811  1
  Y  Y9  1  0.000000  0.613895  0.090189  1
  In  In10  1  0.500000  0.420027  0.349033  1
  In  In11  1  0.500000  0.579973  0.650967  1
  In  In12  1  0.500000  0.079973  0.849033  1
  In  In13  1  0.500000  0.920027  0.150967  1
  In  In14  1  0.500000  0.301830  0.064346  1
  In  In15  1  0.500000  0.698170  0.935654  1
  In  In16  1  0.500000  0.198170  0.564346  1
  In  In17  1  0.500000  0.801830  0.435654  1
  Ir  Ir18  1  0.500000  0.017954  0.306332  1
  Ir  Ir19  1  0.500000  0.982046  0.693668  1
  Ir  Ir20  1  0.500000  0.482046  0.806332  1
  Ir  Ir21  1  0.500000  0.517954  0.193668  1
