# generated using pymatgen
data_Hf8Ga6Tc2B
_symmetry_space_group_name_H-M   'P 1'
_cell_length_a   7.89505700
_cell_length_b   7.89505681
_cell_length_c   5.34973000
_cell_angle_alpha   90.00000000
_cell_angle_beta   90.00000000
_cell_angle_gamma   119.99999659
_symmetry_Int_Tables_number   1
_chemical_formula_structural   Hf8Ga6Tc2B
_chemical_formula_sum   'Hf8 Ga6 Tc2 B1'
_cell_volume   288.78394165
_cell_formula_units_Z   1
loop_
 _symmetry_equiv_pos_site_id
 _symmetry_equiv_pos_as_xyz
  1  'x, y, z'
loop_
 _atom_site_type_symbol
 _atom_site_label
 _atom_site_symmetry_multiplicity
 _atom_site_fract_x
 _atom_site_fract_y
 _atom_site_fract_z
 _atom_site_occupancy
  Hf  Hf0  1  0.666667  0.333333  0.000000  1
  Hf  Hf1  1  0.333333  0.666667  0.000000  1
  Hf  Hf2  1  0.000000  0.756833  0.252594  1
  Hf  Hf3  1  0.243167  0.243167  0.252594  1
  Hf  Hf4  1  0.756833  0.000000  0.252594  1
  Hf  Hf5  1  0.000000  0.243167  0.747406  1
  Hf  Hf6  1  0.756833  0.756833  0.747406  1
  Hf  Hf7  1  0.243167  0.000000  0.747406  1
  Ga  Ga8  1  0.000000  0.401793  0.267766  1
  Ga  Ga9  1  0.598207  0.598207  0.267766  1
  Ga  Ga10  1  0.401793  0.000000  0.267766  1
  Ga  Ga11  1  0.000000  0.598207  0.732234  1
  Ga  Ga12  1  0.401793  0.401793  0.732234  1
  Ga  Ga13  1  0.598207  0.000000  0.732234  1
  Tc  Tc14  1  0.333333  0.666667  0.500000  1
  Tc  Tc15  1  0.666667  0.333333  0.500000  1
  B  B16  1  0.000000  0.000000  0.500000  1
