# generated using pymatgen
data_Tb3Y3(Er2Pb3)2
_symmetry_space_group_name_H-M   'P 1'
_cell_length_a   9.05103800
_cell_length_b   9.05103727
_cell_length_c   6.62170400
_cell_angle_alpha   90.00000000
_cell_angle_beta   90.00000000
_cell_angle_gamma   120.00000265
_symmetry_Int_Tables_number   1
_chemical_formula_structural   Tb3Y3(Er2Pb3)2
_chemical_formula_sum   'Tb3 Y3 Er4 Pb6'
_cell_volume   469.78281397
_cell_formula_units_Z   1
loop_
 _symmetry_equiv_pos_site_id
 _symmetry_equiv_pos_as_xyz
  1  'x, y, z'
loop_
 _atom_site_type_symbol
 _atom_site_label
 _atom_site_symmetry_multiplicity
 _atom_site_fract_x
 _atom_site_fract_y
 _atom_site_fract_z
 _atom_site_occupancy
  Tb  Tb0  1  0.760598  0.760598  0.750000  1
  Tb  Tb1  1  0.239402  0.000000  0.750000  1
  Tb  Tb2  1  0.000000  0.239402  0.750000  1
  Y  Y3  1  0.239457  0.239457  0.250000  1
  Y  Y4  1  0.760543  0.000000  0.250000  1
  Y  Y5  1  0.000000  0.760543  0.250000  1
  Er  Er6  1  0.666667  0.333333  0.000017  1
  Er  Er7  1  0.333333  0.666667  0.000017  1
  Er  Er8  1  0.333333  0.666667  0.499983  1
  Er  Er9  1  0.666667  0.333333  0.499983  1
  Pb  Pb10  1  0.394777  0.394777  0.750000  1
  Pb  Pb11  1  0.605223  0.000000  0.750000  1
  Pb  Pb12  1  0.000000  0.605223  0.750000  1
  Pb  Pb13  1  0.605471  0.605471  0.250000  1
  Pb  Pb14  1  0.394529  0.000000  0.250000  1
  Pb  Pb15  1  0.000000  0.394529  0.250000  1
