# generated using pymatgen
data_Lu12Tl2Tc3
_symmetry_space_group_name_H-M   'P 1'
_cell_length_a   8.29902671
_cell_length_b   8.29902702
_cell_length_c   8.29902693
_cell_angle_alpha   108.92764452
_cell_angle_beta   108.92764839
_cell_angle_gamma   110.56391820
_symmetry_Int_Tables_number   1
_chemical_formula_structural   Lu12Tl2Tc3
_chemical_formula_sum   'Lu12 Tl2 Tc3'
_cell_volume   439.88679205
_cell_formula_units_Z   1
loop_
 _symmetry_equiv_pos_site_id
 _symmetry_equiv_pos_as_xyz
  1  'x, y, z'
loop_
 _atom_site_type_symbol
 _atom_site_label
 _atom_site_symmetry_multiplicity
 _atom_site_fract_x
 _atom_site_fract_y
 _atom_site_fract_z
 _atom_site_occupancy
  Lu  Lu0  1  0.307454  0.307454  0.614909  1
  Lu  Lu1  1  0.692546  0.692546  0.385091  1
  Lu  Lu2  1  0.692546  0.307454  0.000000  1
  Lu  Lu3  1  0.307454  0.692546  0.000000  1
  Lu  Lu4  1  0.188370  0.427413  0.239044  1
  Lu  Lu5  1  0.811630  0.572587  0.760956  1
  Lu  Lu6  1  0.188370  0.949326  0.760956  1
  Lu  Lu7  1  0.949326  0.188370  0.760956  1
  Lu  Lu8  1  0.811630  0.050674  0.239044  1
  Lu  Lu9  1  0.050674  0.811630  0.239044  1
  Lu  Lu10  1  0.427413  0.188370  0.239044  1
  Lu  Lu11  1  0.572587  0.811630  0.760956  1
  Tl  Tl12  1  0.000000  0.500000  0.500000  1
  Tl  Tl13  1  0.500000  0.000000  0.500000  1
  Tc  Tc14  1  0.368301  0.368301  0.000000  1
  Tc  Tc15  1  0.631699  0.631699  0.000000  1
  Tc  Tc16  1  0.000000  0.000000  0.000000  1
