# generated using pymatgen
data_Er12Ni4AgPb
_symmetry_space_group_name_H-M   'P 1'
_cell_length_a   8.28233872
_cell_length_b   8.28233853
_cell_length_c   8.28233915
_cell_angle_alpha   112.52194019
_cell_angle_beta   109.32920746
_cell_angle_gamma   106.61667750
_symmetry_Int_Tables_number   1
_chemical_formula_structural   Er12Ni4AgPb
_chemical_formula_sum   'Er12 Ni4 Ag1 Pb1'
_cell_volume   436.19134967
_cell_formula_units_Z   1
loop_
 _symmetry_equiv_pos_site_id
 _symmetry_equiv_pos_as_xyz
  1  'x, y, z'
loop_
 _atom_site_type_symbol
 _atom_site_label
 _atom_site_symmetry_multiplicity
 _atom_site_fract_x
 _atom_site_fract_y
 _atom_site_fract_z
 _atom_site_occupancy
  Er  Er0  1  0.323014  0.130224  0.807210  1
  Er  Er1  1  0.676986  0.484197  0.807210  1
  Er  Er2  1  0.424267  0.724657  0.699609  1
  Er  Er3  1  0.575733  0.275343  0.300391  1
  Er  Er4  1  0.974951  0.275343  0.699609  1
  Er  Er5  1  0.025049  0.724657  0.300391  1
  Er  Er6  1  0.323014  0.515803  0.192790  1
  Er  Er7  1  0.676986  0.869776  0.192790  1
  Er  Er8  1  0.180419  0.792925  0.973346  1
  Er  Er9  1  0.819581  0.792925  0.612506  1
  Er  Er10  1  0.180419  0.207075  0.387494  1
  Er  Er11  1  0.819581  0.207075  0.026654  1
  Ni  Ni12  1  0.874208  0.874208  0.000000  1
  Ni  Ni13  1  0.125792  0.125792  0.000000  1
  Ni  Ni14  1  0.643500  0.500000  0.143500  1
  Ni  Ni15  1  0.356500  0.500000  0.856500  1
  Ag  Ag16  1  0.000000  0.500000  0.500000  1
  Pb  Pb17  1  0.500000  0.000000  0.500000  1
