# generated using pymatgen
data_Sc4Os3
_symmetry_space_group_name_H-M   'P 1'
_cell_length_a   4.62254783
_cell_length_b   4.61926252
_cell_length_c   7.28052270
_cell_angle_alpha   90.02005170
_cell_angle_beta   71.52276585
_cell_angle_gamma   60.06517008
_symmetry_Int_Tables_number   1
_chemical_formula_structural   Sc4Os3
_chemical_formula_sum   'Sc4 Os3'
_cell_volume   125.37675113
_cell_formula_units_Z   1
loop_
 _symmetry_equiv_pos_site_id
 _symmetry_equiv_pos_as_xyz
  1  'x, y, z'
loop_
 _atom_site_type_symbol
 _atom_site_label
 _atom_site_symmetry_multiplicity
 _atom_site_fract_x
 _atom_site_fract_y
 _atom_site_fract_z
 _atom_site_occupancy
  Sc  Sc0  1  0.862015  0.051070  0.039454  1
  Sc  Sc1  1  0.027584  0.469116  0.291821  1
  Sc  Sc2  1  0.706402  0.629501  0.773789  1
  Sc  Sc3  1  0.184673  0.891658  0.557061  1
  Os  Os4  1  0.444656  0.759903  0.165517  1
  Os  Os5  1  0.320747  0.321826  0.852436  1
  Os  Os6  1  0.568661  0.199667  0.480368  1
