# generated using pymatgen
data_Ho5Th3MgHgRu2
_symmetry_space_group_name_H-M   'P 1'
_cell_length_a   9.66865878
_cell_length_b   9.74630689
_cell_length_c   9.76953063
_cell_angle_alpha   59.26437476
_cell_angle_beta   60.15491057
_cell_angle_gamma   60.20775101
_symmetry_Int_Tables_number   1
_chemical_formula_structural   Ho5Th3MgHgRu2
_chemical_formula_sum   'Ho10 Th6 Mg2 Hg2 Ru4'
_cell_volume   649.02888051
_cell_formula_units_Z   2
loop_
 _symmetry_equiv_pos_site_id
 _symmetry_equiv_pos_as_xyz
  1  'x, y, z'
loop_
 _atom_site_type_symbol
 _atom_site_label
 _atom_site_symmetry_multiplicity
 _atom_site_fract_x
 _atom_site_fract_y
 _atom_site_fract_z
 _atom_site_occupancy
  Ho  Ho0  1  0.189939  0.808634  0.190777  1
  Ho  Ho1  1  0.809850  0.188451  0.810449  1
  Ho  Ho2  1  0.189357  0.189403  0.810645  1
  Ho  Ho3  1  0.806837  0.806306  0.192322  1
  Ho  Ho4  1  0.931779  0.567325  0.568907  1
  Ho  Ho5  1  0.565262  0.932462  0.934936  1
  Ho  Ho6  1  0.560381  0.937464  0.564791  1
  Ho  Ho7  1  0.935002  0.562099  0.939801  1
  Ho  Ho8  1  0.560290  0.563464  0.940269  1
  Ho  Ho9  1  0.936475  0.936686  0.563298  1
  Th  Th10  1  0.341118  0.350269  0.349734  1
  Th  Th11  1  0.352030  0.343171  0.955356  1
  Th  Th12  1  0.353627  0.952925  0.343040  1
  Th  Th13  1  0.953853  0.352329  0.351330  1
  Th  Th14  1  0.815469  0.183132  0.187090  1
  Th  Th15  1  0.182026  0.816542  0.816309  1
  Mg  Mg16  1  0.579098  0.267630  0.576647  1
  Mg  Mg17  1  0.268718  0.578192  0.573357  1
  Hg  Hg18  1  0.587034  0.581933  0.588299  1
  Hg  Hg19  1  0.582142  0.585148  0.242014  1
  Ru  Ru20  1  0.128984  0.147405  0.147691  1
  Ru  Ru21  1  0.147813  0.128132  0.574613  1
  Ru  Ru22  1  0.147491  0.573059  0.129255  1
  Ru  Ru23  1  0.575423  0.147834  0.149067  1
