# generated using pymatgen
data_Ca4As2O7
_symmetry_space_group_name_H-M   'P 1'
_cell_length_a   4.79653426
_cell_length_b   4.79546510
_cell_length_c   9.53939451
_cell_angle_alpha   78.94205625
_cell_angle_beta   110.26152609
_cell_angle_gamma   94.17932511
_symmetry_Int_Tables_number   1
_chemical_formula_structural   Ca4As2O7
_chemical_formula_sum   'Ca4 As2 O7'
_cell_volume   202.01730244
_cell_formula_units_Z   1
loop_
 _symmetry_equiv_pos_site_id
 _symmetry_equiv_pos_as_xyz
  1  'x, y, z'
loop_
 _atom_site_type_symbol
 _atom_site_label
 _atom_site_symmetry_multiplicity
 _atom_site_fract_x
 _atom_site_fract_y
 _atom_site_fract_z
 _atom_site_occupancy
  Ca  Ca0  1  0.738530  0.617209  0.581152  1
  Ca  Ca1  1  0.174953  0.462741  0.172816  1
  Ca  Ca2  1  0.965107  0.045551  0.876439  1
  Ca  Ca3  1  0.460286  0.550239  0.876482  1
  As  As4  1  0.231052  0.099919  0.590978  1
  As  As5  1  0.714768  0.962417  0.212692  1
  O  O6  1  0.385265  0.150415  0.087752  1
  O  O7  1  0.259872  0.720186  0.605184  1
  O  O8  1  0.433682  0.103073  0.791301  1
  O  O9  1  0.556850  0.694307  0.319583  1
  O  O10  1  0.960808  0.549159  0.872354  1
  O  O11  1  0.865695  0.114830  0.605225  1
  O  O12  1  0.779981  0.759792  0.087324  1
