# generated using pymatgen
data_LiLu(Si7Rh3)2
_symmetry_space_group_name_H-M   'P 1'
_cell_length_a   7.93681434
_cell_length_b   7.93681460
_cell_length_c   7.93681571
_cell_angle_alpha   57.16423174
_cell_angle_beta   57.16422934
_cell_angle_gamma   57.16423092
_symmetry_Int_Tables_number   1
_chemical_formula_structural   LiLu(Si7Rh3)2
_chemical_formula_sum   'Li1 Lu1 Si14 Rh6'
_cell_volume   330.43096810
_cell_formula_units_Z   1
loop_
 _symmetry_equiv_pos_site_id
 _symmetry_equiv_pos_as_xyz
  1  'x, y, z'
loop_
 _atom_site_type_symbol
 _atom_site_label
 _atom_site_symmetry_multiplicity
 _atom_site_fract_x
 _atom_site_fract_y
 _atom_site_fract_z
 _atom_site_occupancy
  Li  Li0  1  0.500000  0.500000  0.500000  1
  Lu  Lu1  1  0.000000  0.000000  0.000000  1
  Si  Si2  1  0.750353  0.750353  0.750353  1
  Si  Si3  1  0.249647  0.249647  0.249647  1
  Si  Si4  1  0.849385  0.069241  0.670326  1
  Si  Si5  1  0.670326  0.849385  0.069241  1
  Si  Si6  1  0.069241  0.670326  0.849385  1
  Si  Si7  1  0.647830  0.825283  0.433816  1
  Si  Si8  1  0.433816  0.647830  0.825283  1
  Si  Si9  1  0.825283  0.433816  0.647830  1
  Si  Si10  1  0.174717  0.566184  0.352170  1
  Si  Si11  1  0.566184  0.352170  0.174717  1
  Si  Si12  1  0.352170  0.174717  0.566184  1
  Si  Si13  1  0.930759  0.329674  0.150615  1
  Si  Si14  1  0.329674  0.150615  0.930759  1
  Si  Si15  1  0.150615  0.930759  0.329674  1
  Rh  Rh16  1  0.069500  0.426350  0.751950  1
  Rh  Rh17  1  0.248050  0.930500  0.573650  1
  Rh  Rh18  1  0.573650  0.248050  0.930500  1
  Rh  Rh19  1  0.930500  0.573650  0.248050  1
  Rh  Rh20  1  0.426350  0.751950  0.069500  1
  Rh  Rh21  1  0.751950  0.069500  0.426350  1
