# generated using pymatgen
data_DyHo5(Lu2In3)2
_symmetry_space_group_name_H-M   'P 1'
_cell_length_a   9.05799166
_cell_length_b   9.05799077
_cell_length_c   9.06619461
_cell_angle_alpha   96.47629861
_cell_angle_beta   96.46497225
_cell_angle_gamma   140.75138453
_symmetry_Int_Tables_number   1
_chemical_formula_structural   DyHo5(Lu2In3)2
_chemical_formula_sum   'Dy1 Ho5 Lu4 In6'
_cell_volume   443.34226414
_cell_formula_units_Z   1
loop_
 _symmetry_equiv_pos_site_id
 _symmetry_equiv_pos_as_xyz
  1  'x, y, z'
loop_
 _atom_site_type_symbol
 _atom_site_label
 _atom_site_symmetry_multiplicity
 _atom_site_fract_x
 _atom_site_fract_y
 _atom_site_fract_z
 _atom_site_occupancy
  Dy  Dy0  1  0.081538  0.781213  0.862752  1
  Ho  Ho1  1  0.718034  0.418700  0.136734  1
  Ho  Ho2  1  0.282147  0.580561  0.862707  1
  Ho  Ho3  1  0.581740  0.718265  0.300004  1
  Ho  Ho4  1  0.217987  0.081755  0.299741  1
  Ho  Ho5  1  0.917730  0.218072  0.135802  1
  Lu  Lu6  1  0.750165  0.249944  0.500298  1
  Lu  Lu7  1  0.250354  0.750133  0.500298  1
  Lu  Lu8  1  0.782492  0.918810  0.701303  1
  Lu  Lu9  1  0.417972  0.282850  0.700822  1
  In  In10  1  0.839007  0.661986  0.500993  1
  In  In11  1  0.339913  0.839426  0.179339  1
  In  In12  1  0.749465  0.749487  0.998531  1
  In  In13  1  0.660565  0.160659  0.821224  1
  In  In14  1  0.161847  0.339072  0.500918  1
  In  In15  1  0.249045  0.249067  0.998531  1
