# generated using pymatgen
data_La2UFe2Si7
_symmetry_space_group_name_H-M   'P 1'
_cell_length_a   12.42565324
_cell_length_b   12.42565262
_cell_length_c   4.15873700
_cell_angle_alpha   90.00000000
_cell_angle_beta   90.00000000
_cell_angle_gamma   160.83398482
_symmetry_Int_Tables_number   1
_chemical_formula_structural   La2UFe2Si7
_chemical_formula_sum   'La2 U1 Fe2 Si7'
_cell_volume   210.80421447
_cell_formula_units_Z   1
loop_
 _symmetry_equiv_pos_site_id
 _symmetry_equiv_pos_as_xyz
  1  'x, y, z'
loop_
 _atom_site_type_symbol
 _atom_site_label
 _atom_site_symmetry_multiplicity
 _atom_site_fract_x
 _atom_site_fract_y
 _atom_site_fract_z
 _atom_site_occupancy
  La  La0  1  0.317828  0.682172  0.000000  1
  La  La1  1  0.682172  0.317828  0.000000  1
  U  U2  1  0.000000  0.000000  0.500000  1
  Fe  Fe3  1  0.121568  0.878432  0.500000  1
  Fe  Fe4  1  0.878432  0.121568  0.500000  1
  Si  Si5  1  0.220486  0.779514  0.500000  1
  Si  Si6  1  0.779514  0.220486  0.500000  1
  Si  Si7  1  0.083123  0.916877  0.000000  1
  Si  Si8  1  0.916877  0.083123  0.000000  1
  Si  Si9  1  0.416562  0.583438  0.500000  1
  Si  Si10  1  0.500000  0.500000  0.000000  1
  Si  Si11  1  0.583438  0.416562  0.500000  1
