# generated using pymatgen
data_Y5Nb3(Ni4As3)4
_symmetry_space_group_name_H-M   'P 1'
_cell_length_a   12.68529700
_cell_length_b   12.68529685
_cell_length_c   3.89415200
_cell_angle_alpha   90.00000000
_cell_angle_beta   90.00000000
_cell_angle_gamma   120.00000299
_symmetry_Int_Tables_number   1
_chemical_formula_structural   Y5Nb3(Ni4As3)4
_chemical_formula_sum   'Y5 Nb3 Ni16 As12'
_cell_volume   542.68121979
_cell_formula_units_Z   1
loop_
 _symmetry_equiv_pos_site_id
 _symmetry_equiv_pos_as_xyz
  1  'x, y, z'
loop_
 _atom_site_type_symbol
 _atom_site_label
 _atom_site_symmetry_multiplicity
 _atom_site_fract_x
 _atom_site_fract_y
 _atom_site_fract_z
 _atom_site_occupancy
  Y  Y0  1  0.185300  0.185300  0.500000  1
  Y  Y1  1  0.814700  0.000000  0.500000  1
  Y  Y2  1  0.000000  0.814700  0.500000  1
  Y  Y3  1  0.333333  0.666667  0.000000  1
  Y  Y4  1  0.666667  0.333333  0.000000  1
  Nb  Nb5  1  0.562158  0.562158  0.000000  1
  Nb  Nb6  1  0.437842  0.000000  0.000000  1
  Nb  Nb7  1  0.000000  0.437842  0.000000  1
  Ni  Ni8  1  0.721130  0.721130  0.500000  1
  Ni  Ni9  1  0.278870  0.000000  0.500000  1
  Ni  Ni10  1  0.000000  0.278870  0.500000  1
  Ni  Ni11  1  0.182193  0.375343  0.000000  1
  Ni  Ni12  1  0.624657  0.806850  0.000000  1
  Ni  Ni13  1  0.193150  0.817807  0.000000  1
  Ni  Ni14  1  0.806850  0.624657  0.000000  1
  Ni  Ni15  1  0.817807  0.193150  0.000000  1
  Ni  Ni16  1  0.375343  0.182193  0.000000  1
  Ni  Ni17  1  0.361119  0.483111  0.500000  1
  Ni  Ni18  1  0.516889  0.878009  0.500000  1
  Ni  Ni19  1  0.121991  0.638881  0.500000  1
  Ni  Ni20  1  0.878009  0.516889  0.500000  1
  Ni  Ni21  1  0.638881  0.121991  0.500000  1
  Ni  Ni22  1  0.483111  0.361119  0.500000  1
  Ni  Ni23  1  0.000000  0.000000  0.000000  1
  As  As24  1  0.821986  0.821986  0.000000  1
  As  As25  1  0.178014  0.000000  0.000000  1
  As  As26  1  0.000000  0.178014  0.000000  1
  As  As27  1  0.169284  0.480006  0.500000  1
  As  As28  1  0.519994  0.689278  0.500000  1
  As  As29  1  0.310722  0.830716  0.500000  1
  As  As30  1  0.689278  0.519994  0.500000  1
  As  As31  1  0.830716  0.310722  0.500000  1
  As  As32  1  0.480006  0.169284  0.500000  1
  As  As33  1  0.360911  0.360911  0.000000  1
  As  As34  1  0.639089  0.000000  0.000000  1
  As  As35  1  0.000000  0.639089  0.000000  1
