# generated using pymatgen
data_Tb5Pr15Si16
_symmetry_space_group_name_H-M   'P 1'
_cell_length_a   7.84449324
_cell_length_b   7.84459609
_cell_length_c   15.20686139
_cell_angle_alpha   89.86135771
_cell_angle_beta   90.11431247
_cell_angle_gamma   89.97062837
_symmetry_Int_Tables_number   1
_chemical_formula_structural   Tb5Pr15Si16
_chemical_formula_sum   'Tb5 Pr15 Si16'
_cell_volume   935.77809198
_cell_formula_units_Z   1
loop_
 _symmetry_equiv_pos_site_id
 _symmetry_equiv_pos_as_xyz
  1  'x, y, z'
loop_
 _atom_site_type_symbol
 _atom_site_label
 _atom_site_symmetry_multiplicity
 _atom_site_fract_x
 _atom_site_fract_y
 _atom_site_fract_z
 _atom_site_occupancy
  Tb  Tb0  1  0.309231  0.310385  0.999911  1
  Tb  Tb1  1  0.690490  0.690229  0.500706  1
  Tb  Tb2  1  0.811130  0.189650  0.750426  1
  Tb  Tb3  1  0.190036  0.810026  0.248978  1
  Tb  Tb4  1  0.127209  0.982079  0.877491  1
  Pr  Pr5  1  0.873159  0.021694  0.377563  1
  Pr  Pr6  1  0.626149  0.519627  0.872123  1
  Pr  Pr7  1  0.373629  0.478788  0.372359  1
  Pr  Pr8  1  0.022124  0.872927  0.623257  1
  Pr  Pr9  1  0.978315  0.126663  0.122010  1
  Pr  Pr10  1  0.478162  0.372446  0.629215  1
  Pr  Pr11  1  0.520399  0.628260  0.125783  1
  Pr  Pr12  1  0.377713  0.011436  0.446851  1
  Pr  Pr13  1  0.623497  0.987460  0.947178  1
  Pr  Pr14  1  0.877241  0.487751  0.302827  1
  Pr  Pr15  1  0.122839  0.513064  0.803004  1
  Pr  Pr16  1  0.986749  0.623697  0.051192  1
  Pr  Pr17  1  0.012423  0.377173  0.554171  1
  Pr  Pr18  1  0.511535  0.122886  0.196239  1
  Pr  Pr19  1  0.489166  0.876435  0.698445  1
  Si  Si20  1  0.283645  0.923847  0.059227  1
  Si  Si21  1  0.712999  0.077531  0.563083  1
  Si  Si22  1  0.788151  0.579207  0.688816  1
  Si  Si23  1  0.212273  0.422892  0.187085  1
  Si  Si24  1  0.077820  0.712490  0.437622  1
  Si  Si25  1  0.924213  0.283371  0.936442  1
  Si  Si26  1  0.419854  0.209910  0.814509  1
  Si  Si27  1  0.577873  0.786992  0.311927  1
  Si  Si28  1  0.189441  0.167982  0.708143  1
  Si  Si29  1  0.808911  0.829209  0.204780  1
  Si  Si30  1  0.690449  0.329078  0.043728  1
  Si  Si31  1  0.310127  0.670223  0.544912  1
  Si  Si32  1  0.834593  0.810210  0.797902  1
  Si  Si33  1  0.171394  0.189858  0.294042  1
  Si  Si34  1  0.670885  0.309648  0.456437  1
  Si  Si35  1  0.326173  0.694871  0.951616  1
