# generated using pymatgen
data_Rb8Dy2Tm4BBr20
_symmetry_space_group_name_H-M   'P 1'
_cell_length_a   12.24421901
_cell_length_b   12.27087752
_cell_length_c   12.27087690
_cell_angle_alpha   59.85632155
_cell_angle_beta   60.07184433
_cell_angle_gamma   60.07184083
_symmetry_Int_Tables_number   1
_chemical_formula_structural   Rb8Dy2Tm4BBr20
_chemical_formula_sum   'Rb8 Dy2 Tm4 B1 Br20'
_cell_volume   1303.65670549
_cell_formula_units_Z   1
loop_
 _symmetry_equiv_pos_site_id
 _symmetry_equiv_pos_as_xyz
  1  'x, y, z'
loop_
 _atom_site_type_symbol
 _atom_site_label
 _atom_site_symmetry_multiplicity
 _atom_site_fract_x
 _atom_site_fract_y
 _atom_site_fract_z
 _atom_site_occupancy
  Rb  Rb0  1  0.360074  0.359425  0.359425  1
  Rb  Rb1  1  0.639926  0.640575  0.640575  1
  Rb  Rb2  1  0.359425  0.360074  0.921078  1
  Rb  Rb3  1  0.359425  0.921078  0.360074  1
  Rb  Rb4  1  0.640575  0.639926  0.078922  1
  Rb  Rb5  1  0.640575  0.078922  0.639926  1
  Rb  Rb6  1  0.921078  0.359425  0.359425  1
  Rb  Rb7  1  0.078922  0.640575  0.640575  1
  Dy  Dy8  1  0.849910  0.150090  0.150090  1
  Dy  Dy9  1  0.150090  0.849910  0.849910  1
  Tm  Tm10  1  0.148976  0.851024  0.148976  1
  Tm  Tm11  1  0.851024  0.148976  0.851024  1
  Tm  Tm12  1  0.148976  0.148976  0.851024  1
  Tm  Tm13  1  0.851024  0.851024  0.148976  1
  B  B14  1  0.000000  0.000000  0.000000  1
  Br  Br15  1  0.324877  0.000000  0.000000  1
  Br  Br16  1  0.675123  0.000000  0.000000  1
  Br  Br17  1  0.000000  0.324877  0.675123  1
  Br  Br18  1  0.000000  0.675123  0.324877  1
  Br  Br19  1  0.002976  0.327626  0.997024  1
  Br  Br20  1  0.672374  0.997024  0.327626  1
  Br  Br21  1  0.997024  0.672374  0.002976  1
  Br  Br22  1  0.327626  0.002976  0.672374  1
  Br  Br23  1  0.002976  0.997024  0.327626  1
  Br  Br24  1  0.997024  0.002976  0.672374  1
  Br  Br25  1  0.672374  0.327626  0.997024  1
  Br  Br26  1  0.327626  0.672374  0.002976  1
  Br  Br27  1  0.681719  0.318281  0.318281  1
  Br  Br28  1  0.318281  0.681719  0.681719  1
  Br  Br29  1  0.314868  0.685132  0.314868  1
  Br  Br30  1  0.685132  0.314868  0.685132  1
  Br  Br31  1  0.314868  0.314868  0.685132  1
  Br  Br32  1  0.685132  0.685132  0.314868  1
  Br  Br33  1  0.250000  0.250000  0.250000  1
  Br  Br34  1  0.750000  0.750000  0.750000  1
