# generated using pymatgen
data_YbHo3Tc3B16W
_symmetry_space_group_name_H-M   'P 1'
_cell_length_a   3.58335300
_cell_length_b   5.98513764
_cell_length_c   11.57591515
_cell_angle_alpha   90.05396448
_cell_angle_beta   90.00000000
_cell_angle_gamma   90.00000000
_symmetry_Int_Tables_number   1
_chemical_formula_structural   YbHo3Tc3B16W
_chemical_formula_sum   'Yb1 Ho3 Tc3 B16 W1'
_cell_volume   248.26693226
_cell_formula_units_Z   1
loop_
 _symmetry_equiv_pos_site_id
 _symmetry_equiv_pos_as_xyz
  1  'x, y, z'
loop_
 _atom_site_type_symbol
 _atom_site_label
 _atom_site_symmetry_multiplicity
 _atom_site_fract_x
 _atom_site_fract_y
 _atom_site_fract_z
 _atom_site_occupancy
  Yb  Yb0  1  0.000000  0.126561  0.151926  1
  Ho  Ho1  1  0.000000  0.871746  0.848878  1
  Ho  Ho2  1  0.000000  0.627804  0.350029  1
  Ho  Ho3  1  0.000000  0.373049  0.648328  1
  Tc  Tc4  1  0.000000  0.134565  0.413608  1
  Tc  Tc5  1  0.000000  0.867022  0.585999  1
  Tc  Tc6  1  0.000000  0.630402  0.084453  1
  B  B7  1  0.500000  0.478464  0.193725  1
  B  B8  1  0.500000  0.525651  0.805632  1
  B  B9  1  0.500000  0.976547  0.307702  1
  B  B10  1  0.500000  0.022048  0.691386  1
  B  B11  1  0.500000  0.285744  0.314795  1
  B  B12  1  0.500000  0.714216  0.684065  1
  B  B13  1  0.500000  0.786587  0.185542  1
  B  B14  1  0.500000  0.209107  0.812827  1
  B  B15  1  0.500000  0.364264  0.468338  1
  B  B16  1  0.500000  0.636001  0.530910  1
  B  B17  1  0.500000  0.865384  0.033679  1
  B  B18  1  0.500000  0.131470  0.969376  1
  B  B19  1  0.500000  0.386292  0.049753  1
  B  B20  1  0.500000  0.616886  0.954146  1
  B  B21  1  0.500000  0.887043  0.452341  1
  B  B22  1  0.500000  0.113274  0.546866  1
  W  W23  1  0.000000  0.369875  0.915695  1
