# generated using pymatgen
data_Tb3Lu4Co4Tc2Sn23
_symmetry_space_group_name_H-M   'P 1'
_cell_length_a   9.71256780
_cell_length_b   9.72524375
_cell_length_c   9.99819982
_cell_angle_alpha   89.83402897
_cell_angle_beta   90.11517194
_cell_angle_gamma   119.60551117
_symmetry_Int_Tables_number   1
_chemical_formula_structural   Tb3Lu4Co4Tc2Sn23
_chemical_formula_sum   'Tb3 Lu4 Co4 Tc2 Sn23'
_cell_volume   821.10325299
_cell_formula_units_Z   1
loop_
 _symmetry_equiv_pos_site_id
 _symmetry_equiv_pos_as_xyz
  1  'x, y, z'
loop_
 _atom_site_type_symbol
 _atom_site_label
 _atom_site_symmetry_multiplicity
 _atom_site_fract_x
 _atom_site_fract_y
 _atom_site_fract_z
 _atom_site_occupancy
  Tb  Tb0  1  0.000000  0.000000  0.000000  1
  Tb  Tb1  1  0.039739  0.517407  0.305571  1
  Tb  Tb2  1  0.960261  0.482593  0.694429  1
  Lu  Lu3  1  0.481299  0.518660  0.307270  1
  Lu  Lu4  1  0.518701  0.481340  0.692730  1
  Lu  Lu5  1  0.483607  0.961686  0.305407  1
  Lu  Lu6  1  0.516393  0.038314  0.694593  1
  Co  Co7  1  0.828825  0.659283  0.198271  1
  Co  Co8  1  0.171175  0.340717  0.801729  1
  Co  Co9  1  0.341341  0.170590  0.198506  1
  Co  Co10  1  0.658659  0.829410  0.801494  1
  Tc  Tc11  1  0.833784  0.164086  0.203100  1
  Tc  Tc12  1  0.166216  0.835914  0.796900  1
  Sn  Sn13  1  0.347914  0.001276  0.004248  1
  Sn  Sn14  1  0.652086  0.998724  0.995752  1
  Sn  Sn15  1  0.001172  0.347734  0.995858  1
  Sn  Sn16  1  0.998828  0.652266  0.004142  1
  Sn  Sn17  1  0.651222  0.651318  0.999993  1
  Sn  Sn18  1  0.348778  0.348682  0.000007  1
  Sn  Sn19  1  0.333983  0.666723  0.816417  1
  Sn  Sn20  1  0.666017  0.333277  0.183583  1
  Sn  Sn21  1  0.000000  0.000000  0.500000  1
  Sn  Sn22  1  0.777545  0.217999  0.460652  1
  Sn  Sn23  1  0.222455  0.782001  0.539348  1
  Sn  Sn24  1  0.780021  0.563884  0.452702  1
  Sn  Sn25  1  0.219979  0.436116  0.547298  1
  Sn  Sn26  1  0.435901  0.217969  0.452762  1
  Sn  Sn27  1  0.564099  0.782031  0.547238  1
  Sn  Sn28  1  0.335210  0.667503  0.121453  1
  Sn  Sn29  1  0.664790  0.332497  0.878547  1
  Sn  Sn30  1  0.118352  0.883151  0.272947  1
  Sn  Sn31  1  0.881648  0.116849  0.727053  1
  Sn  Sn32  1  0.129645  0.239419  0.270395  1
  Sn  Sn33  1  0.870355  0.760581  0.729605  1
  Sn  Sn34  1  0.759065  0.870157  0.270245  1
  Sn  Sn35  1  0.240935  0.129843  0.729755  1
