# generated using pymatgen
data_DyHf5(Be2Ir5)2
_symmetry_space_group_name_H-M   'P 1'
_cell_length_a   9.55124219
_cell_length_b   9.55124219
_cell_length_c   3.32013600
_cell_angle_alpha   90.00000000
_cell_angle_beta   90.00000000
_cell_angle_gamma   89.76436784
_symmetry_Int_Tables_number   1
_chemical_formula_structural   DyHf5(Be2Ir5)2
_chemical_formula_sum   'Dy1 Hf5 Be4 Ir10'
_cell_volume   302.88092046
_cell_formula_units_Z   1
loop_
 _symmetry_equiv_pos_site_id
 _symmetry_equiv_pos_as_xyz
  1  'x, y, z'
loop_
 _atom_site_type_symbol
 _atom_site_label
 _atom_site_symmetry_multiplicity
 _atom_site_fract_x
 _atom_site_fract_y
 _atom_site_fract_z
 _atom_site_occupancy
  Dy  Dy0  1  0.175353  0.675353  0.000000  1
  Hf  Hf1  1  0.324952  0.174581  0.000000  1
  Hf  Hf2  1  0.824456  0.324456  0.000000  1
  Hf  Hf3  1  0.499532  0.499772  0.000000  1
  Hf  Hf4  1  0.674581  0.824952  0.000000  1
  Hf  Hf5  1  0.999772  0.999532  0.000000  1
  Be  Be6  1  0.383696  0.883696  0.000000  1
  Be  Be7  1  0.117459  0.377211  0.000000  1
  Be  Be8  1  0.877211  0.617459  0.000000  1
  Be  Be9  1  0.620339  0.120339  0.000000  1
  Ir  Ir10  1  0.221643  0.938682  0.500000  1
  Ir  Ir11  1  0.919942  0.783555  0.500000  1
  Ir  Ir12  1  0.438682  0.721643  0.500000  1
  Ir  Ir13  1  0.573589  0.284421  0.500000  1
  Ir  Ir14  1  0.714315  0.570114  0.500000  1
  Ir  Ir15  1  0.283555  0.419942  0.500000  1
  Ir  Ir16  1  0.070114  0.214315  0.500000  1
  Ir  Ir17  1  0.993037  0.493037  0.500000  1
  Ir  Ir18  1  0.503350  0.003350  0.500000  1
  Ir  Ir19  1  0.784421  0.073589  0.500000  1
