# generated using pymatgen
data_Dy5Tm11In4Ir3Ru
_symmetry_space_group_name_H-M   'P 1'
_cell_length_a   9.59826305
_cell_length_b   9.58713805
_cell_length_c   9.58713738
_cell_angle_alpha   60.10721829
_cell_angle_beta   60.00041810
_cell_angle_gamma   60.00041463
_symmetry_Int_Tables_number   1
_chemical_formula_structural   Dy5Tm11In4Ir3Ru
_chemical_formula_sum   'Dy5 Tm11 In4 Ir3 Ru1'
_cell_volume   624.32251055
_cell_formula_units_Z   1
loop_
 _symmetry_equiv_pos_site_id
 _symmetry_equiv_pos_as_xyz
  1  'x, y, z'
loop_
 _atom_site_type_symbol
 _atom_site_label
 _atom_site_symmetry_multiplicity
 _atom_site_fract_x
 _atom_site_fract_y
 _atom_site_fract_z
 _atom_site_occupancy
  Dy  Dy0  1  0.806161  0.193540  0.193540  1
  Dy  Dy1  1  0.812131  0.187556  0.811117  1
  Dy  Dy2  1  0.191964  0.807716  0.190906  1
  Dy  Dy3  1  0.812131  0.811117  0.187556  1
  Dy  Dy4  1  0.191964  0.190906  0.807716  1
  Tm  Tm5  1  0.598597  0.596906  0.596906  1
  Tm  Tm6  1  0.597726  0.599815  0.206861  1
  Tm  Tm7  1  0.597726  0.206861  0.599815  1
  Tm  Tm8  1  0.207058  0.597959  0.597959  1
  Tm  Tm9  1  0.060152  0.439955  0.439955  1
  Tm  Tm10  1  0.438285  0.058751  0.058751  1
  Tm  Tm11  1  0.439581  0.059973  0.441077  1
  Tm  Tm12  1  0.058214  0.439869  0.057881  1
  Tm  Tm13  1  0.439581  0.441077  0.059973  1
  Tm  Tm14  1  0.058214  0.057881  0.439869  1
  Tm  Tm15  1  0.191336  0.808465  0.808465  1
  In  In16  1  0.832944  0.832390  0.832390  1
  In  In17  1  0.832468  0.832307  0.502683  1
  In  In18  1  0.832468  0.502683  0.832307  1
  In  In19  1  0.501385  0.832353  0.832353  1
  Ir  Ir20  1  0.390154  0.392667  0.828811  1
  Ir  Ir21  1  0.390154  0.828811  0.392667  1
  Ir  Ir22  1  0.829001  0.390628  0.390628  1
  Ru  Ru23  1  0.390606  0.389813  0.389813  1
