# generated using pymatgen
data_Pa2Co2Sb
_symmetry_space_group_name_H-M   'P 1'
_cell_length_a   7.18778500
_cell_length_b   7.18778500
_cell_length_c   3.54966600
_cell_angle_alpha   90.00000000
_cell_angle_beta   90.00000000
_cell_angle_gamma   90.00000000
_symmetry_Int_Tables_number   1
_chemical_formula_structural   Pa2Co2Sb
_chemical_formula_sum   'Pa4 Co4 Sb2'
_cell_volume   183.39084302
_cell_formula_units_Z   2
loop_
 _symmetry_equiv_pos_site_id
 _symmetry_equiv_pos_as_xyz
  1  'x, y, z'
loop_
 _atom_site_type_symbol
 _atom_site_label
 _atom_site_symmetry_multiplicity
 _atom_site_fract_x
 _atom_site_fract_y
 _atom_site_fract_z
 _atom_site_occupancy
  Pa  Pa0  1  0.672728  0.172729  0.500000  1
  Pa  Pa1  1  0.172729  0.327272  0.500000  1
  Pa  Pa2  1  0.827272  0.672728  0.500000  1
  Pa  Pa3  1  0.327272  0.827272  0.500000  1
  Co  Co4  1  0.370426  0.129575  0.000000  1
  Co  Co5  1  0.870425  0.370426  0.000000  1
  Co  Co6  1  0.129575  0.629575  0.000000  1
  Co  Co7  1  0.629575  0.870425  0.000000  1
  Sb  Sb8  1  0.000000  0.000000  0.000000  1
  Sb  Sb9  1  0.500000  0.500000  0.000000  1
