# generated using pymatgen
data_Sr3Ga4Ni3Ru
_symmetry_space_group_name_H-M   'P 1'
_cell_length_a   6.61092718
_cell_length_b   6.61092861
_cell_length_c   6.69127500
_cell_angle_alpha   109.71760501
_cell_angle_beta   109.71760945
_cell_angle_gamma   109.22371630
_symmetry_Int_Tables_number   1
_chemical_formula_structural   Sr3Ga4Ni3Ru
_chemical_formula_sum   'Sr3 Ga4 Ni3 Ru1'
_cell_volume   224.43066494
_cell_formula_units_Z   1
loop_
 _symmetry_equiv_pos_site_id
 _symmetry_equiv_pos_as_xyz
  1  'x, y, z'
loop_
 _atom_site_type_symbol
 _atom_site_label
 _atom_site_symmetry_multiplicity
 _atom_site_fract_x
 _atom_site_fract_y
 _atom_site_fract_z
 _atom_site_occupancy
  Sr  Sr0  1  0.503407  0.000000  0.500196  1
  Sr  Sr1  1  0.000000  0.503407  0.500196  1
  Sr  Sr2  1  0.496593  0.496593  0.996789  1
  Ga  Ga3  1  0.000000  0.000000  0.613044  1
  Ga  Ga4  1  0.393952  0.393952  0.393556  1
  Ga  Ga5  1  0.000000  0.606048  0.999604  1
  Ga  Ga6  1  0.606048  0.000000  0.999604  1
  Ni  Ni7  1  0.760301  0.760301  0.757896  1
  Ni  Ni8  1  0.239699  0.000000  0.997593  1
  Ni  Ni9  1  0.000000  0.239699  0.997593  1
  Ru  Ru10  1  0.000000  0.000000  0.243927  1
