# generated using pymatgen
data_Nd9Th(Ga2Ru3)2
_symmetry_space_group_name_H-M   'P 1'
_cell_length_a   8.56343428
_cell_length_b   8.51619485
_cell_length_c   8.51619477
_cell_angle_alpha   108.95790286
_cell_angle_beta   109.83575708
_cell_angle_gamma   109.39491908
_symmetry_Int_Tables_number   1
_chemical_formula_structural   Nd9Th(Ga2Ru3)2
_chemical_formula_sum   'Nd9 Th1 Ga4 Ru6'
_cell_volume   479.40071210
_cell_formula_units_Z   1
loop_
 _symmetry_equiv_pos_site_id
 _symmetry_equiv_pos_as_xyz
  1  'x, y, z'
loop_
 _atom_site_type_symbol
 _atom_site_label
 _atom_site_symmetry_multiplicity
 _atom_site_fract_x
 _atom_site_fract_y
 _atom_site_fract_z
 _atom_site_occupancy
  Nd  Nd0  1  0.750000  0.812566  0.062566  1
  Nd  Nd1  1  0.439055  0.250872  0.688585  1
  Nd  Nd2  1  0.686092  0.438255  0.249504  1
  Nd  Nd3  1  0.060946  0.749531  0.811818  1
  Nd  Nd4  1  0.813908  0.063412  0.752162  1
  Nd  Nd5  1  0.220338  0.217831  0.220157  1
  Nd  Nd6  1  0.502664  0.000095  0.282602  1
  Nd  Nd7  1  0.279662  0.499821  0.997493  1
  Nd  Nd8  1  0.997337  0.279940  0.497433  1
  Th  Th9  1  0.250000  0.691828  0.441829  1
  Ga  Ga10  1  0.502532  0.005437  0.913767  1
  Ga  Ga11  1  0.592420  0.590270  0.589862  1
  Ga  Ga12  1  0.907580  0.497443  0.997849  1
  Ga  Ga13  1  0.997469  0.911236  0.502907  1
  Ru  Ru14  1  0.250001  0.123903  0.873903  1
  Ru  Ru15  1  0.750000  0.376755  0.626755  1
  Ru  Ru16  1  0.876726  0.251213  0.125985  1
  Ru  Ru17  1  0.129426  0.859298  0.260468  1
  Ru  Ru18  1  0.623273  0.749259  0.374485  1
  Ru  Ru19  1  0.370573  0.631041  0.729872  1
