# generated using pymatgen
data_Gd3Tm(ZnPt)4
_symmetry_space_group_name_H-M   'P 1'
_cell_length_a   4.30246700
_cell_length_b   6.96005681
_cell_length_c   8.21881600
_cell_angle_alpha   89.85989801
_cell_angle_beta   90.00000000
_cell_angle_gamma   90.00000000
_symmetry_Int_Tables_number   1
_chemical_formula_structural   Gd3Tm(ZnPt)4
_chemical_formula_sum   'Gd3 Tm1 Zn4 Pt4'
_cell_volume   246.11511795
_cell_formula_units_Z   1
loop_
 _symmetry_equiv_pos_site_id
 _symmetry_equiv_pos_as_xyz
  1  'x, y, z'
loop_
 _atom_site_type_symbol
 _atom_site_label
 _atom_site_symmetry_multiplicity
 _atom_site_fract_x
 _atom_site_fract_y
 _atom_site_fract_z
 _atom_site_occupancy
  Gd  Gd0  1  0.750000  0.464054  0.815597  1
  Gd  Gd1  1  0.750000  0.963326  0.686077  1
  Gd  Gd2  1  0.250000  0.036056  0.313293  1
  Tm  Tm3  1  0.250000  0.537374  0.185446  1
  Zn  Zn4  1  0.250000  0.640950  0.561032  1
  Zn  Zn5  1  0.750000  0.360189  0.436610  1
  Zn  Zn6  1  0.750000  0.858037  0.062791  1
  Zn  Zn7  1  0.250000  0.140749  0.938360  1
  Pt  Pt8  1  0.250000  0.753156  0.882167  1
  Pt  Pt9  1  0.750000  0.249174  0.121237  1
  Pt  Pt10  1  0.750000  0.741311  0.377518  1
  Pt  Pt11  1  0.250000  0.255626  0.619870  1
