# generated using pymatgen
data_Ce2HoSn2Hg3
_symmetry_space_group_name_H-M   'P 1'
_cell_length_a   6.44299700
_cell_length_b   6.44299655
_cell_length_c   10.64172900
_cell_angle_alpha   90.00000000
_cell_angle_beta   90.00000000
_cell_angle_gamma   102.32682352
_symmetry_Int_Tables_number   1
_chemical_formula_structural   Ce2HoSn2Hg3
_chemical_formula_sum   'Ce4 Ho2 Sn4 Hg6'
_cell_volume   431.57717137
_cell_formula_units_Z   2
loop_
 _symmetry_equiv_pos_site_id
 _symmetry_equiv_pos_as_xyz
  1  'x, y, z'
loop_
 _atom_site_type_symbol
 _atom_site_label
 _atom_site_symmetry_multiplicity
 _atom_site_fract_x
 _atom_site_fract_y
 _atom_site_fract_z
 _atom_site_occupancy
  Ce  Ce0  1  0.201840  0.798160  0.500000  1
  Ce  Ce1  1  0.201840  0.798160  0.000000  1
  Ce  Ce2  1  0.798160  0.201840  0.500000  1
  Ce  Ce3  1  0.798160  0.201840  0.000000  1
  Ho  Ho4  1  0.631814  0.631814  0.250000  1
  Ho  Ho5  1  0.368186  0.368186  0.750000  1
  Sn  Sn6  1  0.317105  0.317105  0.046563  1
  Sn  Sn7  1  0.682895  0.682895  0.953437  1
  Sn  Sn8  1  0.317105  0.317105  0.453437  1
  Sn  Sn9  1  0.682895  0.682895  0.546563  1
  Hg  Hg10  1  0.010797  0.010797  0.250000  1
  Hg  Hg11  1  0.989203  0.989203  0.750000  1
  Hg  Hg12  1  0.507251  0.070315  0.250000  1
  Hg  Hg13  1  0.929685  0.492749  0.750000  1
  Hg  Hg14  1  0.492749  0.929685  0.750000  1
  Hg  Hg15  1  0.070315  0.507251  0.250000  1
