# generated using pymatgen
data_Dy3Er2Tm2P12Ir17
_symmetry_space_group_name_H-M   'P 1'
_cell_length_a   12.70039500
_cell_length_b   12.98514246
_cell_length_c   3.97622700
_cell_angle_alpha   90.00000000
_cell_angle_beta   90.00000000
_cell_angle_gamma   119.27721440
_symmetry_Int_Tables_number   1
_chemical_formula_structural   Dy3Er2Tm2P12Ir17
_chemical_formula_sum   'Dy3 Er2 Tm2 P12 Ir17'
_cell_volume   571.98281049
_cell_formula_units_Z   1
loop_
 _symmetry_equiv_pos_site_id
 _symmetry_equiv_pos_as_xyz
  1  'x, y, z'
loop_
 _atom_site_type_symbol
 _atom_site_label
 _atom_site_symmetry_multiplicity
 _atom_site_fract_x
 _atom_site_fract_y
 _atom_site_fract_z
 _atom_site_occupancy
  Dy  Dy0  1  0.329811  0.662028  0.500000  1
  Dy  Dy1  1  0.667784  0.337972  0.500000  1
  Dy  Dy2  1  0.810867  0.000000  0.000000  1
  Er  Er3  1  0.002321  0.816347  0.000000  1
  Er  Er4  1  0.185974  0.183653  0.000000  1
  Tm  Tm5  1  0.995996  0.443928  0.500000  1
  Tm  Tm6  1  0.552068  0.556072  0.500000  1
  P  P7  1  0.009757  0.658406  0.500000  1
  P  P8  1  0.351351  0.341594  0.500000  1
  P  P9  1  0.644150  0.000000  0.500000  1
  P  P10  1  0.516484  0.690598  0.000000  1
  P  P11  1  0.309203  0.824500  0.000000  1
  P  P12  1  0.166666  0.480616  0.000000  1
  P  P13  1  0.484702  0.175500  0.000000  1
  P  P14  1  0.686050  0.519384  0.000000  1
  P  P15  1  0.825886  0.309402  0.000000  1
  P  P16  1  0.999676  0.174529  0.500000  1
  P  P17  1  0.825147  0.825471  0.500000  1
  P  P18  1  0.181502  0.000000  0.500000  1
  Ir  Ir19  1  0.504385  0.866025  0.000000  1
  Ir  Ir20  1  0.121623  0.645432  0.000000  1
  Ir  Ir21  1  0.357757  0.501515  0.000000  1
  Ir  Ir22  1  0.476191  0.354568  0.000000  1
  Ir  Ir23  1  0.856244  0.498485  0.000000  1
  Ir  Ir24  1  0.638360  0.133975  0.000000  1
  Ir  Ir25  1  0.464997  0.000000  0.500000  1
  Ir  Ir26  1  0.996756  0.272233  0.000000  1
  Ir  Ir27  1  0.724524  0.727767  0.000000  1
  Ir  Ir28  1  0.286681  0.000000  0.000000  1
  Ir  Ir29  1  0.624029  0.810558  0.500000  1
  Ir  Ir30  1  0.208295  0.828541  0.500000  1
  Ir  Ir31  1  0.180652  0.363717  0.500000  1
  Ir  Ir32  1  0.379754  0.171459  0.500000  1
  Ir  Ir33  1  0.816936  0.636283  0.500000  1
  Ir  Ir34  1  0.813472  0.189442  0.500000  1
  Ir  Ir35  1  0.003946  0.000000  0.500000  1
