# generated using pymatgen
data_Y4Co3Ni5(PRu)12
_symmetry_space_group_name_H-M   'P 1'
_cell_length_a   3.80602100
_cell_length_b   10.70182129
_cell_length_c   12.11354863
_cell_angle_alpha   89.92477139
_cell_angle_beta   90.00000000
_cell_angle_gamma   90.00000000
_symmetry_Int_Tables_number   1
_chemical_formula_structural   Y4Co3Ni5(PRu)12
_chemical_formula_sum   'Y4 Co3 Ni5 P12 Ru12'
_cell_volume   493.40084320
_cell_formula_units_Z   1
loop_
 _symmetry_equiv_pos_site_id
 _symmetry_equiv_pos_as_xyz
  1  'x, y, z'
loop_
 _atom_site_type_symbol
 _atom_site_label
 _atom_site_symmetry_multiplicity
 _atom_site_fract_x
 _atom_site_fract_y
 _atom_site_fract_z
 _atom_site_occupancy
  Y  Y0  1  0.250000  0.912781  0.207426  1
  Y  Y1  1  0.750000  0.087239  0.793132  1
  Y  Y2  1  0.750000  0.412610  0.293310  1
  Y  Y3  1  0.250000  0.587029  0.706606  1
  Co  Co4  1  0.750000  0.962079  0.571213  1
  Co  Co5  1  0.750000  0.537443  0.068128  1
  Co  Co6  1  0.250000  0.463020  0.931626  1
  Ni  Ni7  1  0.250000  0.609973  0.197908  1
  Ni  Ni8  1  0.750000  0.389757  0.801901  1
  Ni  Ni9  1  0.750000  0.108923  0.301354  1
  Ni  Ni10  1  0.250000  0.888562  0.698835  1
  Ni  Ni11  1  0.250000  0.038579  0.430342  1
  P  P12  1  0.250000  0.076690  0.610259  1
  P  P13  1  0.750000  0.919675  0.392284  1
  P  P14  1  0.750000  0.577529  0.890258  1
  P  P15  1  0.250000  0.422587  0.109335  1
  P  P16  1  0.250000  0.231260  0.374225  1
  P  P17  1  0.750000  0.770275  0.624888  1
  P  P18  1  0.750000  0.729845  0.125385  1
  P  P19  1  0.250000  0.270586  0.874489  1
  P  P20  1  0.250000  0.898454  0.890091  1
  P  P21  1  0.750000  0.101294  0.110869  1
  P  P22  1  0.750000  0.398639  0.610145  1
  P  P23  1  0.250000  0.601743  0.389843  1
  Ru  Ru24  1  0.250000  0.792584  0.486374  1
  Ru  Ru25  1  0.750000  0.210577  0.510763  1
  Ru  Ru26  1  0.750000  0.292427  0.012451  1
  Ru  Ru27  1  0.250000  0.707500  0.987143  1
  Ru  Ru28  1  0.250000  0.094228  0.986766  1
  Ru  Ru29  1  0.750000  0.905917  0.012958  1
  Ru  Ru30  1  0.750000  0.594282  0.513504  1
  Ru  Ru31  1  0.250000  0.407023  0.487135  1
  Ru  Ru32  1  0.250000  0.277008  0.681718  1
  Ru  Ru33  1  0.750000  0.721475  0.317656  1
  Ru  Ru34  1  0.750000  0.777036  0.818026  1
  Ru  Ru35  1  0.250000  0.223370  0.181653  1
