# generated using pymatgen
data_CaGe3Pd5
_symmetry_space_group_name_H-M   'P 1'
_cell_length_a   4.08027900
_cell_length_b   7.48927300
_cell_length_c   20.33193200
_cell_angle_alpha   90.00000000
_cell_angle_beta   90.00000000
_cell_angle_gamma   90.00000000
_symmetry_Int_Tables_number   1
_chemical_formula_structural   CaGe3Pd5
_chemical_formula_sum   'Ca4 Ge12 Pd20'
_cell_volume   621.30975233
_cell_formula_units_Z   4
loop_
 _symmetry_equiv_pos_site_id
 _symmetry_equiv_pos_as_xyz
  1  'x, y, z'
loop_
 _atom_site_type_symbol
 _atom_site_label
 _atom_site_symmetry_multiplicity
 _atom_site_fract_x
 _atom_site_fract_y
 _atom_site_fract_z
 _atom_site_occupancy
  Ca  Ca0  1  0.750000  0.378542  0.356658  1
  Ca  Ca1  1  0.750000  0.121458  0.856658  1
  Ca  Ca2  1  0.250000  0.621458  0.643342  1
  Ca  Ca3  1  0.250000  0.878542  0.143342  1
  Ge  Ge4  1  0.250000  0.373677  0.240365  1
  Ge  Ge5  1  0.750000  0.147646  0.077171  1
  Ge  Ge6  1  0.750000  0.906852  0.585138  1
  Ge  Ge7  1  0.750000  0.873677  0.259635  1
  Ge  Ge8  1  0.750000  0.593148  0.085138  1
  Ge  Ge9  1  0.250000  0.852354  0.922829  1
  Ge  Ge10  1  0.250000  0.126323  0.740365  1
  Ge  Ge11  1  0.250000  0.406852  0.914862  1
  Ge  Ge12  1  0.250000  0.093148  0.414862  1
  Ge  Ge13  1  0.750000  0.352354  0.577171  1
  Ge  Ge14  1  0.750000  0.626323  0.759635  1
  Ge  Ge15  1  0.250000  0.647646  0.422829  1
  Pd  Pd16  1  0.750000  0.123547  0.487795  1
  Pd  Pd17  1  0.250000  0.823119  0.799584  1
  Pd  Pd18  1  0.250000  0.676881  0.299584  1
  Pd  Pd19  1  0.750000  0.639046  0.883813  1
  Pd  Pd20  1  0.250000  0.139046  0.616187  1
  Pd  Pd21  1  0.250000  0.127040  0.994749  1
  Pd  Pd22  1  0.750000  0.176881  0.200416  1
  Pd  Pd23  1  0.250000  0.360954  0.116187  1
  Pd  Pd24  1  0.750000  0.860954  0.383813  1
  Pd  Pd25  1  0.250000  0.432198  0.794427  1
  Pd  Pd26  1  0.250000  0.876453  0.512205  1
  Pd  Pd27  1  0.750000  0.627040  0.505251  1
  Pd  Pd28  1  0.750000  0.376453  0.987795  1
  Pd  Pd29  1  0.250000  0.372960  0.494749  1
  Pd  Pd30  1  0.250000  0.067802  0.294427  1
  Pd  Pd31  1  0.750000  0.567802  0.205573  1
  Pd  Pd32  1  0.750000  0.932198  0.705573  1
  Pd  Pd33  1  0.750000  0.323119  0.700416  1
  Pd  Pd34  1  0.750000  0.872960  0.005251  1
  Pd  Pd35  1  0.250000  0.623547  0.012205  1
