# generated using pymatgen
data_HfUI9
_symmetry_space_group_name_H-M   'P 1'
_cell_length_a   13.97105300
_cell_length_b   8.14665489
_cell_length_c   11.07925694
_cell_angle_alpha   75.46089879
_cell_angle_beta   90.00000000
_cell_angle_gamma   90.00000000
_symmetry_Int_Tables_number   1
_chemical_formula_structural   HfUI9
_chemical_formula_sum   'Hf2 U2 I18'
_cell_volume   1220.62968376
_cell_formula_units_Z   2
loop_
 _symmetry_equiv_pos_site_id
 _symmetry_equiv_pos_as_xyz
  1  'x, y, z'
loop_
 _atom_site_type_symbol
 _atom_site_label
 _atom_site_symmetry_multiplicity
 _atom_site_fract_x
 _atom_site_fract_y
 _atom_site_fract_z
 _atom_site_occupancy
  Hf  Hf0  1  0.250000  0.756280  0.472862  1
  Hf  Hf1  1  0.750000  0.243720  0.527138  1
  U  U2  1  0.250000  0.647954  0.845793  1
  U  U3  1  0.750000  0.352046  0.154207  1
  I  I4  1  0.608519  0.439972  0.332238  1
  I  I5  1  0.108519  0.560028  0.667762  1
  I  I6  1  0.391481  0.560028  0.667762  1
  I  I7  1  0.891481  0.439972  0.332238  1
  I  I8  1  0.750000  0.693997  0.002899  1
  I  I9  1  0.250000  0.306003  0.997101  1
  I  I10  1  0.750000  0.510166  0.632669  1
  I  I11  1  0.250000  0.489834  0.367331  1
  I  I12  1  0.750000  0.016978  0.344870  1
  I  I13  1  0.250000  0.983022  0.655130  1
  I  I14  1  0.900318  0.244073  0.015368  1
  I  I15  1  0.400318  0.755927  0.984632  1
  I  I16  1  0.099682  0.755927  0.984632  1
  I  I17  1  0.599682  0.244073  0.015368  1
  I  I18  1  0.899438  0.061713  0.647730  1
  I  I19  1  0.399438  0.938287  0.352270  1
  I  I20  1  0.100562  0.938287  0.352270  1
  I  I21  1  0.600562  0.061713  0.647730  1
