# generated using pymatgen
data_La4Al24IrPt8
_symmetry_space_group_name_H-M   'P 1'
_cell_length_a   7.58212332
_cell_length_b   7.64255068
_cell_length_c   13.42459015
_cell_angle_alpha   84.58604173
_cell_angle_beta   79.20234165
_cell_angle_gamma   59.99392419
_symmetry_Int_Tables_number   1
_chemical_formula_structural   La4Al24IrPt8
_chemical_formula_sum   'La4 Al24 Ir1 Pt8'
_cell_volume   661.72266024
_cell_formula_units_Z   1
loop_
 _symmetry_equiv_pos_site_id
 _symmetry_equiv_pos_as_xyz
  1  'x, y, z'
loop_
 _atom_site_type_symbol
 _atom_site_label
 _atom_site_symmetry_multiplicity
 _atom_site_fract_x
 _atom_site_fract_y
 _atom_site_fract_z
 _atom_site_occupancy
  La  La0  1  0.394372  0.168016  0.807970  1
  La  La1  1  0.605628  0.831984  0.192030  1
  La  La2  1  0.733477  0.498578  0.808272  1
  La  La3  1  0.266523  0.501422  0.191728  1
  Al  Al4  1  0.689181  0.830958  0.947659  1
  Al  Al5  1  0.310819  0.169042  0.052341  1
  Al  Al6  1  0.147228  0.831694  0.558845  1
  Al  Al7  1  0.852772  0.168306  0.441155  1
  Al  Al8  1  0.479923  0.166247  0.557030  1
  Al  Al9  1  0.520077  0.833753  0.442970  1
  Al  Al10  1  0.213093  0.165472  0.332456  1
  Al  Al11  1  0.786907  0.834528  0.667544  1
  Al  Al12  1  0.435846  0.509141  0.667150  1
  Al  Al13  1  0.564154  0.490859  0.332850  1
  Al  Al14  1  0.110667  0.157750  0.664589  1
  Al  Al15  1  0.889333  0.842250  0.335411  1
  Al  Al16  1  0.346723  0.501791  0.948132  1
  Al  Al17  1  0.653277  0.498209  0.051868  1
  Al  Al18  1  0.013981  0.168960  0.959391  1
  Al  Al19  1  0.986019  0.831040  0.040609  1
  Al  Al20  1  0.185957  0.498932  0.442731  1
  Al  Al21  1  0.814043  0.501068  0.557269  1
  Al  Al22  1  0.737776  0.163692  0.183361  1
  Al  Al23  1  0.262224  0.836308  0.816639  1
  Al  Al24  1  0.061367  0.632923  0.817614  1
  Al  Al25  1  0.938633  0.367077  0.182386  1
  Al  Al26  1  0.860389  0.037119  0.816288  1
  Al  Al27  1  0.139611  0.962881  0.183713  1
  Ir  Ir28  1  0.000000  0.500000  0.000000  1
  Pt  Pt29  1  0.120674  0.494916  0.636416  1
  Pt  Pt30  1  0.879326  0.505084  0.363584  1
  Pt  Pt31  1  0.658884  0.170414  0.999916  1
  Pt  Pt32  1  0.341116  0.829586  0.000084  1
  Pt  Pt33  1  0.539439  0.166868  0.363737  1
  Pt  Pt34  1  0.460561  0.833132  0.636263  1
  Pt  Pt35  1  0.781407  0.172213  0.634714  1
  Pt  Pt36  1  0.218593  0.827787  0.365286  1
