# generated using pymatgen
data_HoTa4(NbCl9)2
_symmetry_space_group_name_H-M   'P 1'
_cell_length_a   10.14830177
_cell_length_b   10.14450778
_cell_length_c   10.14464803
_cell_angle_alpha   55.97465511
_cell_angle_beta   55.97300076
_cell_angle_gamma   55.98776919
_symmetry_Int_Tables_number   1
_chemical_formula_structural   HoTa4(NbCl9)2
_chemical_formula_sum   'Ho1 Ta4 Nb2 Cl18'
_cell_volume   669.68309327
_cell_formula_units_Z   1
loop_
 _symmetry_equiv_pos_site_id
 _symmetry_equiv_pos_as_xyz
  1  'x, y, z'
loop_
 _atom_site_type_symbol
 _atom_site_label
 _atom_site_symmetry_multiplicity
 _atom_site_fract_x
 _atom_site_fract_y
 _atom_site_fract_z
 _atom_site_occupancy
  Ho  Ho0  1  0.999347  0.000263  0.000385  1
  Ta  Ta1  1  0.408969  0.301293  0.648848  1
  Ta  Ta2  1  0.351094  0.591328  0.698477  1
  Ta  Ta3  1  0.699422  0.350598  0.591184  1
  Ta  Ta4  1  0.301122  0.649562  0.408120  1
  Nb  Nb5  1  0.650025  0.408522  0.300038  1
  Nb  Nb6  1  0.591911  0.699595  0.349865  1
  Cl  Cl7  1  0.566550  0.160185  0.444861  1
  Cl  Cl8  1  0.224245  0.371040  0.907585  1
  Cl  Cl9  1  0.908957  0.223188  0.373094  1
  Cl  Cl10  1  0.368276  0.908226  0.224260  1
  Cl  Cl11  1  0.777210  0.629930  0.089677  1
  Cl  Cl12  1  0.092589  0.775510  0.629028  1
  Cl  Cl13  1  0.704730  0.958661  0.159371  1
  Cl  Cl14  1  0.955287  0.160958  0.703729  1
  Cl  Cl15  1  0.161536  0.702952  0.955278  1
  Cl  Cl16  1  0.296404  0.045034  0.838760  1
  Cl  Cl17  1  0.044209  0.838259  0.297297  1
  Cl  Cl18  1  0.841127  0.295025  0.041437  1
  Cl  Cl19  1  0.557815  0.431659  0.837937  1
  Cl  Cl20  1  0.162178  0.442048  0.568442  1
  Cl  Cl21  1  0.439165  0.570396  0.162115  1
  Cl  Cl22  1  0.429479  0.837943  0.560929  1
  Cl  Cl23  1  0.839592  0.555233  0.433486  1
  Cl  Cl24  1  0.628765  0.092590  0.775797  1
