# generated using pymatgen
data_Nd4C5
_symmetry_space_group_name_H-M   'P 1'
_cell_length_a   3.86331200
_cell_length_b   6.90658900
_cell_length_c   12.45416300
_cell_angle_alpha   90.00000000
_cell_angle_beta   90.00000000
_cell_angle_gamma   90.00000000
_symmetry_Int_Tables_number   1
_chemical_formula_structural   Nd4C5
_chemical_formula_sum   'Nd8 C10'
_cell_volume   332.30581508
_cell_formula_units_Z   2
loop_
 _symmetry_equiv_pos_site_id
 _symmetry_equiv_pos_as_xyz
  1  'x, y, z'
loop_
 _atom_site_type_symbol
 _atom_site_label
 _atom_site_symmetry_multiplicity
 _atom_site_fract_x
 _atom_site_fract_y
 _atom_site_fract_z
 _atom_site_occupancy
  Nd  Nd0  1  0.000000  0.253576  0.541987  1
  Nd  Nd1  1  0.000000  0.746424  0.458013  1
  Nd  Nd2  1  0.000000  0.753576  0.958013  1
  Nd  Nd3  1  0.000000  0.246424  0.041987  1
  Nd  Nd4  1  0.500000  0.106866  0.802834  1
  Nd  Nd5  1  0.500000  0.893134  0.197166  1
  Nd  Nd6  1  0.500000  0.606866  0.697166  1
  Nd  Nd7  1  0.500000  0.393134  0.302834  1
  C  C8  1  0.500000  0.500000  0.500000  1
  C  C9  1  0.500000  0.000000  0.000000  1
  C  C10  1  0.000000  0.360082  0.737288  1
  C  C11  1  0.000000  0.639918  0.262712  1
  C  C12  1  0.000000  0.860082  0.762712  1
  C  C13  1  0.000000  0.139918  0.237288  1
  C  C14  1  0.000000  0.402069  0.840590  1
  C  C15  1  0.000000  0.597931  0.159410  1
  C  C16  1  0.000000  0.097931  0.340590  1
  C  C17  1  0.000000  0.902069  0.659410  1
