# generated using pymatgen
data_HoTm3MnB12Rh
_symmetry_space_group_name_H-M   'P 1'
_cell_length_a   3.58405800
_cell_length_b   9.05914162
_cell_length_c   11.43183400
_cell_angle_alpha   90.16084300
_cell_angle_beta   90.00000000
_cell_angle_gamma   90.00000000
_symmetry_Int_Tables_number   1
_chemical_formula_structural   HoTm3MnB12Rh
_chemical_formula_sum   'Ho2 Tm6 Mn2 B24 Rh2'
_cell_volume   371.17291400
_cell_formula_units_Z   2
loop_
 _symmetry_equiv_pos_site_id
 _symmetry_equiv_pos_as_xyz
  1  'x, y, z'
loop_
 _atom_site_type_symbol
 _atom_site_label
 _atom_site_symmetry_multiplicity
 _atom_site_fract_x
 _atom_site_fract_y
 _atom_site_fract_z
 _atom_site_occupancy
  Ho  Ho0  1  0.500000  0.317716  0.410101  1
  Ho  Ho1  1  0.500000  0.682284  0.589899  1
  Tm  Tm2  1  0.500000  0.171994  0.918034  1
  Tm  Tm3  1  0.500000  0.828006  0.081966  1
  Tm  Tm4  1  0.500000  0.439788  0.126123  1
  Tm  Tm5  1  0.500000  0.560212  0.873877  1
  Tm  Tm6  1  0.500000  0.052114  0.629949  1
  Tm  Tm7  1  0.500000  0.947886  0.370051  1
  Mn  Mn8  1  0.500000  0.139262  0.180319  1
  Mn  Mn9  1  0.500000  0.860738  0.819681  1
  B  B10  1  0.000000  0.107285  0.470777  1
  B  B11  1  0.000000  0.892715  0.529223  1
  B  B12  1  0.000000  0.390701  0.970009  1
  B  B13  1  0.000000  0.609299  0.029991  1
  B  B14  1  0.000000  0.131812  0.313144  1
  B  B15  1  0.000000  0.868188  0.686856  1
  B  B16  1  0.000000  0.367625  0.817465  1
  B  B17  1  0.000000  0.632375  0.182535  1
  B  B18  1  0.000000  0.053653  0.067707  1
  B  B19  1  0.000000  0.946347  0.932293  1
  B  B20  1  0.000000  0.446006  0.566407  1
  B  B21  1  0.000000  0.553994  0.433593  1
  B  B22  1  0.000000  0.482205  0.286342  1
  B  B23  1  0.000000  0.517795  0.713658  1
  B  B24  1  0.000000  0.014875  0.788639  1
  B  B25  1  0.000000  0.985125  0.211361  1
  B  B26  1  0.000000  0.246053  0.081292  1
  B  B27  1  0.000000  0.753947  0.918708  1
  B  B28  1  0.000000  0.249227  0.579204  1
  B  B29  1  0.000000  0.750773  0.420796  1
  B  B30  1  0.000000  0.290507  0.233042  1
  B  B31  1  0.000000  0.709493  0.766958  1
  B  B32  1  0.000000  0.206896  0.735411  1
  B  B33  1  0.000000  0.793104  0.264589  1
  Rh  Rh34  1  0.500000  0.361192  0.679216  1
  Rh  Rh35  1  0.500000  0.638808  0.320784  1
