# generated using pymatgen
data_CeNd15(TmSn4)4
_symmetry_space_group_name_H-M   'P 1'
_cell_length_a   8.22284567
_cell_length_b   8.37698567
_cell_length_c   15.91758900
_cell_angle_alpha   90.01636048
_cell_angle_beta   89.97692239
_cell_angle_gamma   89.98400861
_symmetry_Int_Tables_number   1
_chemical_formula_structural   CeNd15(TmSn4)4
_chemical_formula_sum   'Ce1 Nd15 Tm4 Sn16'
_cell_volume   1096.44569955
_cell_formula_units_Z   1
loop_
 _symmetry_equiv_pos_site_id
 _symmetry_equiv_pos_as_xyz
  1  'x, y, z'
loop_
 _atom_site_type_symbol
 _atom_site_label
 _atom_site_symmetry_multiplicity
 _atom_site_fract_x
 _atom_site_fract_y
 _atom_site_fract_z
 _atom_site_occupancy
  Ce  Ce0  1  0.018198  0.182647  0.403898  1
  Nd  Nd1  1  0.365763  0.838484  0.121190  1
  Nd  Nd2  1  0.132735  0.337812  0.620448  1
  Nd  Nd3  1  0.482293  0.680711  0.902014  1
  Nd  Nd4  1  0.866486  0.661861  0.121259  1
  Nd  Nd5  1  0.133932  0.338098  0.878866  1
  Nd  Nd6  1  0.482261  0.680696  0.597781  1
  Nd  Nd7  1  0.632817  0.161485  0.620962  1
  Nd  Nd8  1  0.865669  0.661593  0.379156  1
  Nd  Nd9  1  0.017332  0.180921  0.098151  1
  Nd  Nd10  1  0.982388  0.818876  0.902011  1
  Nd  Nd11  1  0.633357  0.161919  0.878835  1
  Nd  Nd12  1  0.517741  0.319436  0.098109  1
  Nd  Nd13  1  0.366720  0.837730  0.379054  1
  Nd  Nd14  1  0.982133  0.819338  0.597960  1
  Nd  Nd15  1  0.518981  0.318928  0.401802  1
  Tm  Tm16  1  0.198583  0.501170  0.250105  1
  Tm  Tm17  1  0.699214  0.998285  0.249818  1
  Tm  Tm18  1  0.301124  0.001725  0.749961  1
  Tm  Tm19  1  0.800930  0.498213  0.749803  1
  Sn  Sn20  1  0.792414  0.464374  0.544047  1
  Sn  Sn21  1  0.710170  0.967428  0.454854  1
  Sn  Sn22  1  0.675872  0.852404  0.749902  1
  Sn  Sn23  1  0.206801  0.532423  0.454639  1
  Sn  Sn24  1  0.293226  0.034915  0.955518  1
  Sn  Sn25  1  0.825675  0.351462  0.251194  1
  Sn  Sn26  1  0.793229  0.465113  0.955508  1
  Sn  Sn27  1  0.563000  0.614977  0.249942  1
  Sn  Sn28  1  0.206955  0.535213  0.044349  1
  Sn  Sn29  1  0.436444  0.384827  0.749742  1
  Sn  Sn30  1  0.175848  0.647526  0.749689  1
  Sn  Sn31  1  0.936524  0.115057  0.749748  1
  Sn  Sn32  1  0.292156  0.035339  0.543500  1
  Sn  Sn33  1  0.706903  0.964855  0.044406  1
  Sn  Sn34  1  0.323465  0.147870  0.250635  1
  Sn  Sn35  1  0.062667  0.886290  0.251146  1
