# generated using pymatgen
data_Cs12Na8Ta3NbP12
_symmetry_space_group_name_H-M   'P 1'
_cell_length_a   10.48043260
_cell_length_b   10.48043270
_cell_length_c   16.78872345
_cell_angle_alpha   89.99135882
_cell_angle_beta   89.99135994
_cell_angle_gamma   141.94202009
_symmetry_Int_Tables_number   1
_chemical_formula_structural   Cs12Na8Ta3NbP12
_chemical_formula_sum   'Cs12 Na8 Ta3 Nb1 P12'
_cell_volume   1136.78923666
_cell_formula_units_Z   1
loop_
 _symmetry_equiv_pos_site_id
 _symmetry_equiv_pos_as_xyz
  1  'x, y, z'
loop_
 _atom_site_type_symbol
 _atom_site_label
 _atom_site_symmetry_multiplicity
 _atom_site_fract_x
 _atom_site_fract_y
 _atom_site_fract_z
 _atom_site_occupancy
  Cs  Cs0  1  0.944732  0.612585  0.827705  1
  Cs  Cs1  1  0.555147  0.887310  0.327757  1
  Cs  Cs2  1  0.387415  0.055268  0.172295  1
  Cs  Cs3  1  0.055024  0.387386  0.172329  1
  Cs  Cs4  1  0.887309  0.555144  0.327730  1
  Cs  Cs5  1  0.444856  0.112691  0.672270  1
  Cs  Cs6  1  0.612614  0.944976  0.827671  1
  Cs  Cs7  1  0.279641  0.279632  0.314222  1
  Cs  Cs8  1  0.779639  0.779513  0.185746  1
  Cs  Cs9  1  0.220487  0.220361  0.814254  1
  Cs  Cs10  1  0.720368  0.720359  0.685778  1
  Cs  Cs11  1  0.112690  0.444853  0.672243  1
  Na  Na12  1  0.921472  0.078528  0.000000  1
  Na  Na13  1  0.578543  0.421457  0.500000  1
  Na  Na14  1  0.078510  0.921490  0.000000  1
  Na  Na15  1  0.421460  0.578540  0.500000  1
  Na  Na16  1  0.755665  0.244335  0.000000  1
  Na  Na17  1  0.744299  0.255701  0.500000  1
  Na  Na18  1  0.244276  0.755724  0.000000  1
  Na  Na19  1  0.255683  0.744317  0.500000  1
  Ta  Ta20  1  0.918269  0.081731  0.500000  1
  Ta  Ta21  1  0.418537  0.581463  0.000000  1
  Ta  Ta22  1  0.081737  0.918263  0.500000  1
  Nb  Nb23  1  0.582137  0.417863  0.000000  1
  P  P24  1  0.858593  0.553575  0.086381  1
  P  P25  1  0.446425  0.141407  0.913619  1
  P  P26  1  0.643196  0.947455  0.585787  1
  P  P27  1  0.947467  0.643218  0.585773  1
  P  P28  1  0.143658  0.447644  0.914370  1
  P  P29  1  0.552356  0.856342  0.085630  1
  P  P30  1  0.356782  0.052533  0.414227  1
  P  P31  1  0.192675  0.192700  0.580809  1
  P  P32  1  0.692565  0.694075  0.918873  1
  P  P33  1  0.305925  0.307435  0.081127  1
  P  P34  1  0.052545  0.356804  0.414213  1
  P  P35  1  0.807300  0.807325  0.419191  1
