# generated using pymatgen
data_SmHo4Bi3C
_symmetry_space_group_name_H-M   'P 1'
_cell_length_a   6.47590700
_cell_length_b   9.20442605
_cell_length_c   9.20427001
_cell_angle_alpha   120.00055117
_cell_angle_beta   90.00047541
_cell_angle_gamma   89.99904735
_symmetry_Int_Tables_number   1
_chemical_formula_structural   SmHo4Bi3C
_chemical_formula_sum   'Sm2 Ho8 Bi6 C2'
_cell_volume   475.13266173
_cell_formula_units_Z   2
loop_
 _symmetry_equiv_pos_site_id
 _symmetry_equiv_pos_as_xyz
  1  'x, y, z'
loop_
 _atom_site_type_symbol
 _atom_site_label
 _atom_site_symmetry_multiplicity
 _atom_site_fract_x
 _atom_site_fract_y
 _atom_site_fract_z
 _atom_site_occupancy
  Sm  Sm0  1  0.499997  0.333337  0.666672  1
  Sm  Sm1  1  0.499997  0.666664  0.333328  1
  Ho  Ho2  1  0.999998  0.666661  0.333325  1
  Ho  Ho3  1  0.999998  0.333337  0.666675  1
  Ho  Ho4  1  0.750329  0.205695  0.000000  1
  Ho  Ho5  1  0.750317  0.794262  0.794260  1
  Ho  Ho6  1  0.750317  0.000002  0.205740  1
  Ho  Ho7  1  0.249678  0.794305  0.000000  1
  Ho  Ho8  1  0.249682  0.205740  0.205741  1
  Ho  Ho9  1  0.249682  0.999998  0.794259  1
  Bi  Bi10  1  0.755195  0.601250  0.000000  1
  Bi  Bi11  1  0.755193  0.398767  0.398753  1
  Bi  Bi12  1  0.755193  0.000013  0.601247  1
  Bi  Bi13  1  0.244808  0.398752  0.000000  1
  Bi  Bi14  1  0.244808  0.601233  0.601249  1
  Bi  Bi15  1  0.244808  0.999984  0.398751  1
  C  C16  1  0.500001  0.000000  0.000000  1
  C  C17  1  0.000003  0.000000  0.000000  1
