# generated using pymatgen
data_PrGaHgPd3
_symmetry_space_group_name_H-M   'P 1'
_cell_length_a   5.58413991
_cell_length_b   5.58413972
_cell_length_c   5.29969907
_cell_angle_alpha   58.20809643
_cell_angle_beta   58.20809967
_cell_angle_gamma   60.00000191
_symmetry_Int_Tables_number   1
_chemical_formula_structural   PrGaHgPd3
_chemical_formula_sum   'Pr1 Ga1 Hg1 Pd3'
_cell_volume   113.58972143
_cell_formula_units_Z   1
loop_
 _symmetry_equiv_pos_site_id
 _symmetry_equiv_pos_as_xyz
  1  'x, y, z'
loop_
 _atom_site_type_symbol
 _atom_site_label
 _atom_site_symmetry_multiplicity
 _atom_site_fract_x
 _atom_site_fract_y
 _atom_site_fract_z
 _atom_site_occupancy
  Pr  Pr0  1  0.246331  0.246331  0.261008  1
  Ga  Ga1  1  0.629606  0.629606  0.111183  1
  Hg  Hg2  1  0.993648  0.993648  0.019057  1
  Pd  Pd3  1  0.627124  0.126168  0.619584  1
  Pd  Pd4  1  0.126168  0.627124  0.619584  1
  Pd  Pd5  1  0.627124  0.627124  0.619584  1
