# generated using pymatgen
data_Tb5Yb4DyIr4
_symmetry_space_group_name_H-M   'P 1'
_cell_length_a   6.54374322
_cell_length_b   7.28709756
_cell_length_c   8.53868605
_cell_angle_alpha   97.05093496
_cell_angle_beta   112.53093836
_cell_angle_gamma   89.99999492
_symmetry_Int_Tables_number   1
_chemical_formula_structural   Tb5Yb4DyIr4
_chemical_formula_sum   'Tb5 Yb4 Dy1 Ir4'
_cell_volume   372.75259951
_cell_formula_units_Z   1
loop_
 _symmetry_equiv_pos_site_id
 _symmetry_equiv_pos_as_xyz
  1  'x, y, z'
loop_
 _atom_site_type_symbol
 _atom_site_label
 _atom_site_symmetry_multiplicity
 _atom_site_fract_x
 _atom_site_fract_y
 _atom_site_fract_z
 _atom_site_occupancy
  Tb  Tb0  1  0.209536  0.183924  0.561310  1
  Tb  Tb1  1  0.648226  0.316076  0.438690  1
  Tb  Tb2  1  0.790461  0.816057  0.438654  1
  Tb  Tb3  1  0.351808  0.683943  0.561346  1
  Tb  Tb4  1  0.431907  0.250000  0.000000  1
  Yb  Yb5  1  0.793117  0.080654  0.816013  1
  Yb  Yb6  1  0.977104  0.419346  0.183987  1
  Yb  Yb7  1  0.206867  0.919304  0.183980  1
  Yb  Yb8  1  0.022886  0.580696  0.816020  1
  Dy  Dy9  1  0.568001  0.750000  0.000000  1
  Ir  Ir10  1  0.589030  0.427957  0.773370  1
  Ir  Ir11  1  0.815660  0.072043  0.226630  1
  Ir  Ir12  1  0.411020  0.572210  0.226643  1
  Ir  Ir13  1  0.184377  0.927790  0.773357  1
