# generated using pymatgen
data_Sm3YPd3RuO14
_symmetry_space_group_name_H-M   'P 1'
_cell_length_a   7.30029715
_cell_length_b   7.30029681
_cell_length_c   7.34670456
_cell_angle_alpha   60.20873327
_cell_angle_beta   60.20873544
_cell_angle_gamma   59.99999858
_symmetry_Int_Tables_number   1
_chemical_formula_structural   Sm3YPd3RuO14
_chemical_formula_sum   'Sm3 Y1 Pd3 Ru1 O14'
_cell_volume   277.72927156
_cell_formula_units_Z   1
loop_
 _symmetry_equiv_pos_site_id
 _symmetry_equiv_pos_as_xyz
  1  'x, y, z'
loop_
 _atom_site_type_symbol
 _atom_site_label
 _atom_site_symmetry_multiplicity
 _atom_site_fract_x
 _atom_site_fract_y
 _atom_site_fract_z
 _atom_site_occupancy
  Sm  Sm0  1  0.125000  0.625000  0.125000  1
  Sm  Sm1  1  0.625000  0.125000  0.125000  1
  Sm  Sm2  1  0.125000  0.125000  0.125000  1
  Y  Y3  1  0.125000  0.125000  0.625000  1
  Pd  Pd4  1  0.625000  0.125000  0.625000  1
  Pd  Pd5  1  0.125000  0.625000  0.625000  1
  Pd  Pd6  1  0.625000  0.625000  0.625000  1
  Ru  Ru7  1  0.625000  0.625000  0.125000  1
  O  O8  1  0.002332  0.002332  0.993005  1
  O  O9  1  0.247668  0.247668  0.256995  1
  O  O10  1  0.285496  0.285496  0.714788  1
  O  O11  1  0.541450  0.541450  0.961955  1
  O  O12  1  0.714220  0.285496  0.714788  1
  O  O13  1  0.708550  0.294856  0.288045  1
  O  O14  1  0.285496  0.714220  0.714788  1
  O  O15  1  0.294856  0.708550  0.288045  1
  O  O16  1  0.708550  0.708550  0.288045  1
  O  O17  1  0.964504  0.535780  0.535212  1
  O  O18  1  0.541450  0.955144  0.961955  1
  O  O19  1  0.964504  0.964504  0.535212  1
  O  O20  1  0.955144  0.541450  0.961955  1
  O  O21  1  0.535780  0.964504  0.535212  1
