# generated using pymatgen
data_Ca3V(PO3)8
_symmetry_space_group_name_H-M   'P 1'
_cell_length_a   7.65802471
_cell_length_b   7.71896808
_cell_length_c   10.56063863
_cell_angle_alpha   66.81202802
_cell_angle_beta   66.46983518
_cell_angle_gamma   70.32778837
_symmetry_Int_Tables_number   1
_chemical_formula_structural   Ca3V(PO3)8
_chemical_formula_sum   'Ca3 V1 P8 O24'
_cell_volume   514.05433598
_cell_formula_units_Z   1
loop_
 _symmetry_equiv_pos_site_id
 _symmetry_equiv_pos_as_xyz
  1  'x, y, z'
loop_
 _atom_site_type_symbol
 _atom_site_label
 _atom_site_symmetry_multiplicity
 _atom_site_fract_x
 _atom_site_fract_y
 _atom_site_fract_z
 _atom_site_occupancy
  Ca  Ca0  1  0.000000  0.500000  0.500000  1
  Ca  Ca1  1  0.535986  0.455888  0.754359  1
  Ca  Ca2  1  0.464014  0.544112  0.245641  1
  V  V3  1  0.500000  0.000000  0.000000  1
  P  P4  1  0.801333  0.822202  0.693366  1
  P  P5  1  0.185805  0.190350  0.813125  1
  P  P6  1  0.198667  0.177798  0.306634  1
  P  P7  1  0.814195  0.809650  0.186875  1
  P  P8  1  0.766038  0.215364  0.476284  1
  P  P9  1  0.778084  0.229768  0.023504  1
  P  P10  1  0.233962  0.784636  0.523716  1
  P  P11  1  0.221916  0.770232  0.976496  1
  O  O12  1  0.031546  0.809769  0.653846  1
  O  O13  1  0.197231  0.965514  0.844471  1
  O  O14  1  0.968454  0.190231  0.346154  1
  O  O15  1  0.802769  0.034486  0.155529  1
  O  O16  1  0.741930  0.995508  0.558878  1
  O  O17  1  0.000150  0.252088  0.941135  1
  O  O18  1  0.258070  0.004492  0.441122  1
  O  O19  1  0.999850  0.747912  0.058865  1
  O  O20  1  0.698121  0.868220  0.832360  1
  O  O21  1  0.154610  0.298724  0.670018  1
  O  O22  1  0.301879  0.131780  0.167640  1
  O  O23  1  0.845390  0.701276  0.329982  1
  O  O24  1  0.777426  0.642912  0.680763  1
  O  O25  1  0.360553  0.208055  0.837998  1
  O  O26  1  0.222574  0.357088  0.319237  1
  O  O27  1  0.639447  0.791945  0.162002  1
  O  O28  1  0.789128  0.296879  0.576853  1
  O  O29  1  0.694809  0.197744  0.927469  1
  O  O30  1  0.210872  0.703121  0.423147  1
  O  O31  1  0.305191  0.802256  0.072531  1
  O  O32  1  0.393676  0.680366  0.589415  1
  O  O33  1  0.324772  0.605365  0.916977  1
  O  O34  1  0.606324  0.319634  0.410585  1
  O  O35  1  0.675228  0.394635  0.083023  1
