# generated using pymatgen
data_Hf3Sc5Nb11Si16Ru
_symmetry_space_group_name_H-M   'P 1'
_cell_length_a   6.68181651
_cell_length_b   6.88255003
_cell_length_c   13.04295192
_cell_angle_alpha   90.09172902
_cell_angle_beta   90.04789775
_cell_angle_gamma   90.14561057
_symmetry_Int_Tables_number   1
_chemical_formula_structural   Hf3Sc5Nb11Si16Ru
_chemical_formula_sum   'Hf3 Sc5 Nb11 Si16 Ru1'
_cell_volume   599.81552632
_cell_formula_units_Z   1
loop_
 _symmetry_equiv_pos_site_id
 _symmetry_equiv_pos_as_xyz
  1  'x, y, z'
loop_
 _atom_site_type_symbol
 _atom_site_label
 _atom_site_symmetry_multiplicity
 _atom_site_fract_x
 _atom_site_fract_y
 _atom_site_fract_z
 _atom_site_occupancy
  Hf  Hf0  1  0.498745  0.675158  0.596321  1
  Hf  Hf1  1  0.996332  0.828669  0.904357  1
  Hf  Hf2  1  0.498281  0.325801  0.094857  1
  Sc  Sc3  1  0.003890  0.175355  0.404910  1
  Sc  Sc4  1  0.498170  0.327818  0.404741  1
  Sc  Sc5  1  0.001909  0.172679  0.093624  1
  Sc  Sc6  1  0.495880  0.671948  0.906576  1
  Sc  Sc7  1  0.000605  0.823516  0.594260  1
  Nb  Nb8  1  0.167247  0.326104  0.874910  1
  Nb  Nb9  1  0.334711  0.828843  0.123779  1
  Nb  Nb10  1  0.832213  0.671333  0.379176  1
  Nb  Nb11  1  0.337964  0.832311  0.377464  1
  Nb  Nb12  1  0.835546  0.673094  0.124045  1
  Nb  Nb13  1  0.664846  0.169905  0.873128  1
  Nb  Nb14  1  0.166324  0.332878  0.623831  1
  Nb  Nb15  1  0.837449  0.501102  0.748918  1
  Nb  Nb16  1  0.335424  0.003150  0.749127  1
  Nb  Nb17  1  0.161890  0.504782  0.249637  1
  Nb  Nb18  1  0.661884  0.997064  0.250539  1
  Si  Si19  1  0.670189  0.967865  0.463664  1
  Si  Si20  1  0.168864  0.534219  0.037974  1
  Si  Si21  1  0.330444  0.033979  0.959945  1
  Si  Si22  1  0.825956  0.455318  0.544067  1
  Si  Si23  1  0.336571  0.037308  0.542145  1
  Si  Si24  1  0.830302  0.466373  0.959241  1
  Si  Si25  1  0.669698  0.965590  0.039005  1
  Si  Si26  1  0.169423  0.536507  0.460641  1
  Si  Si27  1  0.467238  0.383983  0.745441  1
  Si  Si28  1  0.957701  0.118903  0.747101  1
  Si  Si29  1  0.538231  0.613981  0.250422  1
  Si  Si30  1  0.039352  0.885473  0.251314  1
  Si  Si31  1  0.702957  0.862238  0.750127  1
  Si  Si32  1  0.205729  0.639040  0.751749  1
  Si  Si33  1  0.294889  0.138746  0.249994  1
  Si  Si34  1  0.794440  0.361704  0.250301  1
  Ru  Ru35  1  0.668705  0.157262  0.622670  1
