# generated using pymatgen
data_Pr2Fe3B8Os5
_symmetry_space_group_name_H-M   'P 1'
_cell_length_a   7.44960892
_cell_length_b   7.39126228
_cell_length_c   3.96473921
_cell_angle_alpha   90.22999031
_cell_angle_beta   90.29935241
_cell_angle_gamma   90.80033839
_symmetry_Int_Tables_number   1
_chemical_formula_structural   Pr2Fe3B8Os5
_chemical_formula_sum   'Pr2 Fe3 B8 Os5'
_cell_volume   218.28042323
_cell_formula_units_Z   1
loop_
 _symmetry_equiv_pos_site_id
 _symmetry_equiv_pos_as_xyz
  1  'x, y, z'
loop_
 _atom_site_type_symbol
 _atom_site_label
 _atom_site_symmetry_multiplicity
 _atom_site_fract_x
 _atom_site_fract_y
 _atom_site_fract_z
 _atom_site_occupancy
  Pr  Pr0  1  0.997663  0.001505  0.930809  1
  Pr  Pr1  1  0.507369  0.498749  0.409260  1
  Fe  Fe2  1  0.882314  0.626912  0.624567  1
  Fe  Fe3  1  0.116740  0.620164  0.124182  1
  Fe  Fe4  1  0.871426  0.391759  0.121772  1
  B  B5  1  0.815113  0.662538  0.121376  1
  B  B6  1  0.196927  0.335060  0.119086  1
  B  B7  1  0.835722  0.316352  0.620760  1
  B  B8  1  0.156674  0.686048  0.623506  1
  B  B9  1  0.729599  0.825918  0.401144  1
  B  B10  1  0.275910  0.167332  0.397374  1
  B  B11  1  0.674319  0.230220  0.902585  1
  B  B12  1  0.322972  0.773348  0.898854  1
  Os  Os13  1  0.397440  0.149927  0.896194  1
  Os  Os14  1  0.606116  0.842267  0.895838  1
  Os  Os15  1  0.344004  0.887840  0.394912  1
  Os  Os16  1  0.655134  0.104332  0.396995  1
  Os  Os17  1  0.114557  0.379730  0.620783  1
