# generated using pymatgen
data_Ca2Tm5Hf(Si4Mo3)4
_symmetry_space_group_name_H-M   'P 1'
_cell_length_a   6.70873700
_cell_length_b   6.90189727
_cell_length_c   12.87858013
_cell_angle_alpha   90.07193217
_cell_angle_beta   89.90541918
_cell_angle_gamma   90.26047101
_symmetry_Int_Tables_number   1
_chemical_formula_structural   Ca2Tm5Hf(Si4Mo3)4
_chemical_formula_sum   'Ca2 Tm5 Hf1 Si16 Mo12'
_cell_volume   596.30963190
_cell_formula_units_Z   1
loop_
 _symmetry_equiv_pos_site_id
 _symmetry_equiv_pos_as_xyz
  1  'x, y, z'
loop_
 _atom_site_type_symbol
 _atom_site_label
 _atom_site_symmetry_multiplicity
 _atom_site_fract_x
 _atom_site_fract_y
 _atom_site_fract_z
 _atom_site_occupancy
  Ca  Ca0  1  0.996653  0.165079  0.090386  1
  Ca  Ca1  1  0.003239  0.834891  0.908911  1
  Tm  Tm2  1  0.503087  0.667205  0.906751  1
  Tm  Tm3  1  0.004960  0.830831  0.593535  1
  Tm  Tm4  1  0.497320  0.331125  0.093981  1
  Tm  Tm5  1  0.997161  0.169270  0.406663  1
  Tm  Tm6  1  0.496843  0.332349  0.407539  1
  Hf  Hf7  1  0.505407  0.670907  0.597109  1
  Si  Si8  1  0.034035  0.133137  0.749449  1
  Si  Si9  1  0.964438  0.867577  0.250380  1
  Si  Si10  1  0.465212  0.629076  0.250653  1
  Si  Si11  1  0.534232  0.371557  0.747453  1
  Si  Si12  1  0.303480  0.867072  0.749497  1
  Si  Si13  1  0.697844  0.130494  0.250200  1
  Si  Si14  1  0.196272  0.366108  0.249836  1
  Si  Si15  1  0.802372  0.634487  0.749859  1
  Si  Si16  1  0.168773  0.460876  0.545076  1
  Si  Si17  1  0.835681  0.542483  0.456296  1
  Si  Si18  1  0.337453  0.956404  0.456528  1
  Si  Si19  1  0.840410  0.540546  0.047816  1
  Si  Si20  1  0.662074  0.038477  0.545326  1
  Si  Si21  1  0.158577  0.459239  0.951460  1
  Si  Si22  1  0.657041  0.041479  0.952096  1
  Si  Si23  1  0.342319  0.959110  0.047016  1
  Mo  Mo24  1  0.168311  0.502986  0.745991  1
  Mo  Mo25  1  0.833582  0.499607  0.253014  1
  Mo  Mo26  1  0.334146  0.000336  0.252835  1
  Mo  Mo27  1  0.665247  0.995486  0.745905  1
  Mo  Mo28  1  0.331210  0.164958  0.623960  1
  Mo  Mo29  1  0.665674  0.832181  0.377002  1
  Mo  Mo30  1  0.170685  0.663800  0.376642  1
  Mo  Mo31  1  0.665179  0.831148  0.126035  1
  Mo  Mo32  1  0.828266  0.339635  0.623309  1
  Mo  Mo33  1  0.334526  0.168826  0.872404  1
  Mo  Mo34  1  0.826962  0.336488  0.872418  1
  Mo  Mo35  1  0.171332  0.664766  0.126668  1
