# generated using pymatgen
data_Ac8Ho3Er9Sn16
_symmetry_space_group_name_H-M   'P 1'
_cell_length_a   8.21859433
_cell_length_b   8.36280637
_cell_length_c   15.80602500
_cell_angle_alpha   89.99621125
_cell_angle_beta   90.01621567
_cell_angle_gamma   89.98327714
_symmetry_Int_Tables_number   1
_chemical_formula_structural   Ac8Ho3Er9Sn16
_chemical_formula_sum   'Ac8 Ho3 Er9 Sn16'
_cell_volume   1086.35611530
_cell_formula_units_Z   1
loop_
 _symmetry_equiv_pos_site_id
 _symmetry_equiv_pos_as_xyz
  1  'x, y, z'
loop_
 _atom_site_type_symbol
 _atom_site_label
 _atom_site_symmetry_multiplicity
 _atom_site_fract_x
 _atom_site_fract_y
 _atom_site_fract_z
 _atom_site_occupancy
  Ac  Ac0  1  0.515868  0.323023  0.904911  1
  Ac  Ac1  1  0.015730  0.176908  0.595088  1
  Ac  Ac2  1  0.484240  0.676837  0.404783  1
  Ac  Ac3  1  0.984211  0.823075  0.095145  1
  Ac  Ac4  1  0.484083  0.676829  0.095144  1
  Ac  Ac5  1  0.984080  0.823159  0.404764  1
  Ac  Ac6  1  0.516018  0.323180  0.595140  1
  Ac  Ac7  1  0.016076  0.176876  0.904965  1
  Ho  Ho8  1  0.360566  0.837582  0.876162  1
  Ho  Ho9  1  0.860575  0.662435  0.623960  1
  Ho  Ho10  1  0.639424  0.162544  0.375852  1
  Er  Er11  1  0.139259  0.337655  0.124257  1
  Er  Er12  1  0.639432  0.162214  0.124118  1
  Er  Er13  1  0.139559  0.337574  0.375789  1
  Er  Er14  1  0.360327  0.837653  0.624112  1
  Er  Er15  1  0.860506  0.662374  0.875839  1
  Er  Er16  1  0.196085  0.505495  0.749942  1
  Er  Er17  1  0.696028  0.994540  0.750103  1
  Er  Er18  1  0.803953  0.494473  0.249819  1
  Er  Er19  1  0.303758  0.005694  0.249973  1
  Sn  Sn20  1  0.309331  0.045747  0.044924  1
  Sn  Sn21  1  0.809875  0.454641  0.455226  1
  Sn  Sn22  1  0.689992  0.954641  0.544633  1
  Sn  Sn23  1  0.190178  0.545064  0.955620  1
  Sn  Sn24  1  0.691307  0.954690  0.955581  1
  Sn  Sn25  1  0.191240  0.545314  0.544415  1
  Sn  Sn26  1  0.309034  0.045306  0.455508  1
  Sn  Sn27  1  0.809447  0.454441  0.044557  1
  Sn  Sn28  1  0.560370  0.631646  0.750005  1
  Sn  Sn29  1  0.060479  0.868489  0.750011  1
  Sn  Sn30  1  0.439301  0.368524  0.249878  1
  Sn  Sn31  1  0.939657  0.131637  0.249923  1
  Sn  Sn32  1  0.324570  0.135362  0.749875  1
  Sn  Sn33  1  0.824562  0.364708  0.750120  1
  Sn  Sn34  1  0.675415  0.864604  0.249853  1
  Sn  Sn35  1  0.175463  0.635066  0.250005  1
