# generated using pymatgen
data_HfZr2Al3CoAu2
_symmetry_space_group_name_H-M   'P 1'
_cell_length_a   6.73261900
_cell_length_b   6.81464264
_cell_length_c   4.07177400
_cell_angle_alpha   90.00000000
_cell_angle_beta   90.00000000
_cell_angle_gamma   120.40382840
_symmetry_Int_Tables_number   1
_chemical_formula_structural   HfZr2Al3CoAu2
_chemical_formula_sum   'Hf1 Zr2 Al3 Co1 Au2'
_cell_volume   161.12382005
_cell_formula_units_Z   1
loop_
 _symmetry_equiv_pos_site_id
 _symmetry_equiv_pos_as_xyz
  1  'x, y, z'
loop_
 _atom_site_type_symbol
 _atom_site_label
 _atom_site_symmetry_multiplicity
 _atom_site_fract_x
 _atom_site_fract_y
 _atom_site_fract_z
 _atom_site_occupancy
  Hf  Hf0  1  0.000000  0.610322  0.500000  1
  Zr  Zr1  1  0.392793  0.393598  0.500000  1
  Zr  Zr2  1  0.607207  0.000805  0.500000  1
  Al  Al3  1  0.763967  0.765091  0.000000  1
  Al  Al4  1  0.236033  0.001124  0.000000  1
  Al  Al5  1  0.000000  0.232293  0.000000  1
  Co  Co6  1  0.000000  0.994489  0.500000  1
  Au  Au7  1  0.672462  0.337369  0.000000  1
  Au  Au8  1  0.327538  0.664908  0.000000  1
