# generated using pymatgen
data_Y3Ho5Ti12Si15Ge
_symmetry_space_group_name_H-M   'P 1'
_cell_length_a   7.06022462
_cell_length_b   7.05220314
_cell_length_c   12.95625501
_cell_angle_alpha   89.99614691
_cell_angle_beta   89.93206919
_cell_angle_gamma   89.96895041
_symmetry_Int_Tables_number   1
_chemical_formula_structural   Y3Ho5Ti12Si15Ge
_chemical_formula_sum   'Y3 Ho5 Ti12 Si15 Ge1'
_cell_volume   645.09317821
_cell_formula_units_Z   1
loop_
 _symmetry_equiv_pos_site_id
 _symmetry_equiv_pos_as_xyz
  1  'x, y, z'
loop_
 _atom_site_type_symbol
 _atom_site_label
 _atom_site_symmetry_multiplicity
 _atom_site_fract_x
 _atom_site_fract_y
 _atom_site_fract_z
 _atom_site_occupancy
  Y  Y0  1  0.341499  0.001616  0.465649  1
  Y  Y1  1  0.498777  0.840077  0.717099  1
  Y  Y2  1  0.502526  0.159431  0.216711  1
  Ho  Ho3  1  0.840949  0.497685  0.283285  1
  Ho  Ho4  1  0.159080  0.502821  0.783887  1
  Ho  Ho5  1  0.659939  0.997150  0.967171  1
  Ho  Ho6  1  0.999988  0.342795  0.532253  1
  Ho  Ho7  1  0.998048  0.659029  0.033479  1
  Ti  Ti8  1  0.326179  0.326518  0.000085  1
  Ti  Ti9  1  0.173432  0.826060  0.249901  1
  Ti  Ti10  1  0.823340  0.174335  0.750568  1
  Ti  Ti11  1  0.673662  0.673319  0.499877  1
  Ti  Ti12  1  0.152040  0.008914  0.877630  1
  Ti  Ti13  1  0.491625  0.651343  0.126353  1
  Ti  Ti14  1  0.510360  0.349558  0.626626  1
  Ti  Ti15  1  0.652391  0.492222  0.874233  1
  Ti  Ti16  1  0.348013  0.508914  0.373508  1
  Ti  Ti17  1  0.848103  0.991670  0.376271  1
  Ti  Ti18  1  0.008669  0.151576  0.123694  1
  Ti  Ti19  1  0.988708  0.845100  0.622575  1
  Si  Si20  1  0.369265  0.702838  0.934455  1
  Si  Si21  1  0.630398  0.297824  0.434170  1
  Si  Si22  1  0.703209  0.369632  0.065923  1
  Si  Si23  1  0.297270  0.629933  0.565692  1
  Si  Si24  1  0.797562  0.868918  0.184222  1
  Si  Si25  1  0.129898  0.202900  0.315731  1
  Si  Si26  1  0.870270  0.797820  0.815977  1
  Si  Si27  1  0.291001  0.952076  0.065081  1
  Si  Si28  1  0.548413  0.789976  0.314510  1
  Si  Si29  1  0.455399  0.209886  0.816765  1
  Si  Si30  1  0.791711  0.547070  0.685431  1
  Si  Si31  1  0.208752  0.452743  0.185217  1
  Si  Si32  1  0.709241  0.047962  0.564739  1
  Si  Si33  1  0.952612  0.291045  0.935174  1
  Si  Si34  1  0.047369  0.709241  0.434657  1
  Ge  Ge35  1  0.200299  0.130004  0.681401  1
