# generated using pymatgen
data_Tb19NdSi15Ag
_symmetry_space_group_name_H-M   'P 1'
_cell_length_a   7.55540923
_cell_length_b   7.74083253
_cell_length_c   14.76988210
_cell_angle_alpha   89.72702097
_cell_angle_beta   89.47581296
_cell_angle_gamma   90.12141821
_symmetry_Int_Tables_number   1
_chemical_formula_structural   Tb19NdSi15Ag
_chemical_formula_sum   'Tb19 Nd1 Si15 Ag1'
_cell_volume   863.77090748
_cell_formula_units_Z   1
loop_
 _symmetry_equiv_pos_site_id
 _symmetry_equiv_pos_as_xyz
  1  'x, y, z'
loop_
 _atom_site_type_symbol
 _atom_site_label
 _atom_site_symmetry_multiplicity
 _atom_site_fract_x
 _atom_site_fract_y
 _atom_site_fract_z
 _atom_site_occupancy
  Tb  Tb0  1  0.140531  0.510546  0.747714  1
  Tb  Tb1  1  0.814016  0.323940  0.624052  1
  Tb  Tb2  1  0.460662  0.685759  0.897885  1
  Tb  Tb3  1  0.959945  0.814697  0.897673  1
  Tb  Tb4  1  0.187816  0.680268  0.121491  1
  Tb  Tb5  1  0.690160  0.822912  0.121294  1
  Tb  Tb6  1  0.310097  0.175926  0.877448  1
  Tb  Tb7  1  0.189914  0.675848  0.379116  1
  Tb  Tb8  1  0.039529  0.184184  0.100989  1
  Tb  Tb9  1  0.314690  0.178195  0.622725  1
  Tb  Tb10  1  0.856995  0.490423  0.250630  1
  Tb  Tb11  1  0.359714  0.009836  0.250229  1
  Tb  Tb12  1  0.529280  0.313405  0.396722  1
  Tb  Tb13  1  0.813148  0.320250  0.878016  1
  Tb  Tb14  1  0.966244  0.821676  0.602968  1
  Tb  Tb15  1  0.465243  0.683950  0.602775  1
  Tb  Tb16  1  0.040206  0.178074  0.397939  1
  Tb  Tb17  1  0.683431  0.827292  0.377552  1
  Tb  Tb18  1  0.638211  0.992861  0.749572  1
  Nd  Nd19  1  0.536083  0.317637  0.098064  1
  Si  Si20  1  0.482158  0.608615  0.248580  1
  Si  Si21  1  0.239961  0.375817  0.249064  1
  Si  Si22  1  0.515824  0.394471  0.752499  1
  Si  Si23  1  0.637993  0.022950  0.955723  1
  Si  Si24  1  0.013785  0.105263  0.750811  1
  Si  Si25  1  0.755256  0.627202  0.751474  1
  Si  Si26  1  0.746647  0.123899  0.249768  1
  Si  Si27  1  0.359074  0.970741  0.460153  1
  Si  Si28  1  0.985156  0.891489  0.249044  1
  Si  Si29  1  0.360515  0.969704  0.040173  1
  Si  Si30  1  0.642163  0.026690  0.543452  1
  Si  Si31  1  0.142734  0.471268  0.958431  1
  Si  Si32  1  0.152452  0.473627  0.544502  1
  Si  Si33  1  0.865863  0.529364  0.039931  1
  Si  Si34  1  0.255548  0.873889  0.751266  1
  Ag  Ag35  1  0.848958  0.527332  0.460274  1
