# generated using pymatgen
data_MnCr2(SeO3)4
_symmetry_space_group_name_H-M   'P 1'
_cell_length_a   8.08227300
_cell_length_b   8.14878162
_cell_length_c   8.26050700
_cell_angle_alpha   87.87257777
_cell_angle_beta   90.00000000
_cell_angle_gamma   90.00000000
_symmetry_Int_Tables_number   1
_chemical_formula_structural   MnCr2(SeO3)4
_chemical_formula_sum   'Mn2 Cr4 Se8 O24'
_cell_volume   543.66760274
_cell_formula_units_Z   2
loop_
 _symmetry_equiv_pos_site_id
 _symmetry_equiv_pos_as_xyz
  1  'x, y, z'
loop_
 _atom_site_type_symbol
 _atom_site_label
 _atom_site_symmetry_multiplicity
 _atom_site_fract_x
 _atom_site_fract_y
 _atom_site_fract_z
 _atom_site_occupancy
  Mn  Mn0  1  0.605165  0.341729  0.161835  1
  Mn  Mn1  1  0.394835  0.841729  0.161835  1
  Cr  Cr2  1  0.755669  0.752399  0.001943  1
  Cr  Cr3  1  0.743091  0.245326  0.508329  1
  Cr  Cr4  1  0.244331  0.252399  0.001943  1
  Cr  Cr5  1  0.256909  0.745326  0.508329  1
  Se  Se6  1  0.086421  0.549815  0.186353  1
  Se  Se7  1  0.913579  0.049815  0.186353  1
  Se  Se8  1  0.572673  0.453746  0.813126  1
  Se  Se9  1  0.317426  0.167341  0.421101  1
  Se  Se10  1  0.057749  0.419120  0.685074  1
  Se  Se11  1  0.427327  0.953746  0.813126  1
  Se  Se12  1  0.682574  0.667341  0.421101  1
  Se  Se13  1  0.942251  0.919120  0.685074  1
  O  O14  1  0.975122  0.712908  0.106319  1
  O  O15  1  0.306624  0.013453  0.980876  1
  O  O16  1  0.164323  0.253705  0.775940  1
  O  O17  1  0.674721  0.457316  0.375037  1
  O  O18  1  0.755883  0.164721  0.276953  1
  O  O19  1  0.197905  0.492444  0.019467  1
  O  O20  1  0.223866  0.514439  0.588317  1
  O  O21  1  0.633929  0.749669  0.226674  1
  O  O22  1  0.724204  0.345642  0.722870  1
  O  O23  1  0.325279  0.957316  0.375037  1
  O  O24  1  0.978311  0.315477  0.519327  1
  O  O25  1  0.481764  0.295544  0.933166  1
  O  O26  1  0.835677  0.753705  0.775940  1
  O  O27  1  0.504833  0.695904  0.523191  1
  O  O28  1  0.275796  0.845642  0.722870  1
  O  O29  1  0.244117  0.664721  0.276953  1
  O  O30  1  0.366071  0.249669  0.226674  1
  O  O31  1  0.024878  0.212908  0.106319  1
  O  O32  1  0.021689  0.815477  0.519327  1
  O  O33  1  0.518236  0.795544  0.933166  1
  O  O34  1  0.693376  0.513452  0.980876  1
  O  O35  1  0.776134  0.014439  0.588317  1
  O  O36  1  0.495167  0.195904  0.523191  1
  O  O37  1  0.802095  0.992444  0.019467  1
