# generated using pymatgen
data_Lu4Mg(ZnTe)2
_symmetry_space_group_name_H-M   'P 1'
_cell_length_a   8.54771306
_cell_length_b   8.54771435
_cell_length_c   7.55554900
_cell_angle_alpha   90.00000000
_cell_angle_beta   90.00000000
_cell_angle_gamma   127.68656843
_symmetry_Int_Tables_number   1
_chemical_formula_structural   Lu4Mg(ZnTe)2
_chemical_formula_sum   'Lu8 Mg2 Zn4 Te4'
_cell_volume   436.86155330
_cell_formula_units_Z   2
loop_
 _symmetry_equiv_pos_site_id
 _symmetry_equiv_pos_as_xyz
  1  'x, y, z'
loop_
 _atom_site_type_symbol
 _atom_site_label
 _atom_site_symmetry_multiplicity
 _atom_site_fract_x
 _atom_site_fract_y
 _atom_site_fract_z
 _atom_site_occupancy
  Lu  Lu0  1  0.785917  0.541821  0.163910  1
  Lu  Lu1  1  0.458179  0.214083  0.836090  1
  Lu  Lu2  1  0.958179  0.714083  0.663910  1
  Lu  Lu3  1  0.285917  0.041821  0.336090  1
  Lu  Lu4  1  0.214083  0.458179  0.836090  1
  Lu  Lu5  1  0.541821  0.785917  0.163910  1
  Lu  Lu6  1  0.041821  0.285917  0.336090  1
  Lu  Lu7  1  0.714083  0.958179  0.663910  1
  Mg  Mg8  1  0.000000  0.000000  0.000000  1
  Mg  Mg9  1  0.500000  0.500000  0.500000  1
  Zn  Zn10  1  0.870180  0.870180  0.371906  1
  Zn  Zn11  1  0.129820  0.129820  0.628094  1
  Zn  Zn12  1  0.629820  0.629820  0.871906  1
  Zn  Zn13  1  0.370180  0.370180  0.128094  1
  Te  Te14  1  0.206358  0.793642  0.000000  1
  Te  Te15  1  0.706358  0.293642  0.500000  1
  Te  Te16  1  0.793642  0.206358  0.000000  1
  Te  Te17  1  0.293642  0.706358  0.500000  1
