# generated using pymatgen
data_Pr3Sm3Hg8
_symmetry_space_group_name_H-M   'P 1'
_cell_length_a   8.54534980
_cell_length_b   8.54534976
_cell_length_c   8.54534994
_cell_angle_alpha   113.72062495
_cell_angle_beta   113.72062839
_cell_angle_gamma   113.72064028
_symmetry_Int_Tables_number   1
_chemical_formula_structural   Pr3Sm3Hg8
_chemical_formula_sum   'Pr3 Sm3 Hg8'
_cell_volume   386.84399140
_cell_formula_units_Z   1
loop_
 _symmetry_equiv_pos_site_id
 _symmetry_equiv_pos_as_xyz
  1  'x, y, z'
loop_
 _atom_site_type_symbol
 _atom_site_label
 _atom_site_symmetry_multiplicity
 _atom_site_fract_x
 _atom_site_fract_y
 _atom_site_fract_z
 _atom_site_occupancy
  Pr  Pr0  1  0.991953  0.601962  0.734515  1
  Pr  Pr1  1  0.734515  0.991953  0.601962  1
  Pr  Pr2  1  0.601962  0.734515  0.991953  1
  Sm  Sm3  1  0.006712  0.401831  0.269853  1
  Sm  Sm4  1  0.269853  0.006712  0.401831  1
  Sm  Sm5  1  0.401831  0.269853  0.006712  1
  Hg  Hg6  1  0.012331  0.012331  0.012331  1
  Hg  Hg7  1  0.499678  0.499678  0.499678  1
  Hg  Hg8  1  0.916041  0.756309  0.439982  1
  Hg  Hg9  1  0.439982  0.916041  0.756309  1
  Hg  Hg10  1  0.756309  0.439982  0.916041  1
  Hg  Hg11  1  0.082056  0.237999  0.548779  1
  Hg  Hg12  1  0.548779  0.082056  0.237999  1
  Hg  Hg13  1  0.237999  0.548779  0.082056  1
