# generated using pymatgen
data_Lu8Re2B24MoRh
_symmetry_space_group_name_H-M   'P 1'
_cell_length_a   3.61317300
_cell_length_b   9.08106597
_cell_length_c   11.43927563
_cell_angle_alpha   90.13841568
_cell_angle_beta   90.00000000
_cell_angle_gamma   90.00000000
_symmetry_Int_Tables_number   1
_chemical_formula_structural   Lu8Re2B24MoRh
_chemical_formula_sum   'Lu8 Re2 B24 Mo1 Rh1'
_cell_volume   375.33826645
_cell_formula_units_Z   1
loop_
 _symmetry_equiv_pos_site_id
 _symmetry_equiv_pos_as_xyz
  1  'x, y, z'
loop_
 _atom_site_type_symbol
 _atom_site_label
 _atom_site_symmetry_multiplicity
 _atom_site_fract_x
 _atom_site_fract_y
 _atom_site_fract_z
 _atom_site_occupancy
  Lu  Lu0  1  0.000000  0.319269  0.409201  1
  Lu  Lu1  1  0.000000  0.682859  0.586043  1
  Lu  Lu2  1  0.000000  0.823723  0.086076  1
  Lu  Lu3  1  0.000000  0.173737  0.918963  1
  Lu  Lu4  1  0.000000  0.945987  0.371774  1
  Lu  Lu5  1  0.000000  0.056669  0.629476  1
  Lu  Lu6  1  0.000000  0.442462  0.127159  1
  Lu  Lu7  1  0.000000  0.558175  0.871190  1
  Re  Re8  1  0.000000  0.138684  0.178771  1
  Re  Re9  1  0.000000  0.861657  0.819674  1
  B  B10  1  0.500000  0.551023  0.436207  1
  B  B11  1  0.500000  0.445648  0.566289  1
  B  B12  1  0.500000  0.052671  0.066549  1
  B  B13  1  0.500000  0.946831  0.933858  1
  B  B14  1  0.500000  0.752750  0.422007  1
  B  B15  1  0.500000  0.250094  0.579189  1
  B  B16  1  0.500000  0.249294  0.080202  1
  B  B17  1  0.500000  0.749644  0.919320  1
  B  B18  1  0.500000  0.795304  0.264288  1
  B  B19  1  0.500000  0.207673  0.735806  1
  B  B20  1  0.500000  0.292413  0.234038  1
  B  B21  1  0.500000  0.706793  0.764044  1
  B  B22  1  0.500000  0.630720  0.182956  1
  B  B23  1  0.500000  0.367884  0.817120  1
  B  B24  1  0.500000  0.131077  0.314816  1
  B  B25  1  0.500000  0.869476  0.684039  1
  B  B26  1  0.500000  0.981758  0.212582  1
  B  B27  1  0.500000  0.018802  0.787901  1
  B  B28  1  0.500000  0.477338  0.287108  1
  B  B29  1  0.500000  0.517546  0.712331  1
  B  B30  1  0.500000  0.601566  0.026976  1
  B  B31  1  0.500000  0.397307  0.970644  1
  B  B32  1  0.500000  0.104176  0.472171  1
  B  B33  1  0.500000  0.900326  0.528974  1
  Mo  Mo34  1  0.000000  0.637693  0.322356  1
  Rh  Rh35  1  0.000000  0.360974  0.679904  1
