# generated using pymatgen
data_Tb3(Sn2Rh)2
_symmetry_space_group_name_H-M   'P 1'
_cell_length_a   7.52617300
_cell_length_b   7.52617274
_cell_length_c   4.23786700
_cell_angle_alpha   90.00000000
_cell_angle_beta   90.00000000
_cell_angle_gamma   119.99999675
_symmetry_Int_Tables_number   1
_chemical_formula_structural   Tb3(Sn2Rh)2
_chemical_formula_sum   'Tb3 Sn4 Rh2'
_cell_volume   207.88652884
_cell_formula_units_Z   1
loop_
 _symmetry_equiv_pos_site_id
 _symmetry_equiv_pos_as_xyz
  1  'x, y, z'
loop_
 _atom_site_type_symbol
 _atom_site_label
 _atom_site_symmetry_multiplicity
 _atom_site_fract_x
 _atom_site_fract_y
 _atom_site_fract_z
 _atom_site_occupancy
  Tb  Tb0  1  0.393786  0.415236  0.500000  1
  Tb  Tb1  1  0.021450  0.606215  0.500000  1
  Tb  Tb2  1  0.584764  0.978550  0.500000  1
  Sn  Sn3  1  0.019861  0.257548  0.000000  1
  Sn  Sn4  1  0.666667  0.333334  0.000000  1
  Sn  Sn5  1  0.742451  0.762313  0.000000  1
  Sn  Sn6  1  0.237688  0.980139  0.000000  1
  Rh  Rh7  1  0.333334  0.666667  0.000000  1
  Rh  Rh8  1  0.000000  0.000000  0.500000  1
