# generated using pymatgen
data_DyNp7VSe17
_symmetry_space_group_name_H-M   'P 1'
_cell_length_a   8.18034053
_cell_length_b   8.19768680
_cell_length_c   10.87105633
_cell_angle_alpha   80.62167929
_cell_angle_beta   80.62134588
_cell_angle_gamma   65.21151572
_symmetry_Int_Tables_number   1
_chemical_formula_structural   DyNp7VSe17
_chemical_formula_sum   'Dy1 Np7 V1 Se17'
_cell_volume   649.34066696
_cell_formula_units_Z   1
loop_
 _symmetry_equiv_pos_site_id
 _symmetry_equiv_pos_as_xyz
  1  'x, y, z'
loop_
 _atom_site_type_symbol
 _atom_site_label
 _atom_site_symmetry_multiplicity
 _atom_site_fract_x
 _atom_site_fract_y
 _atom_site_fract_z
 _atom_site_occupancy
  Dy  Dy0  1  0.816232  0.305235  0.299013  1
  Np  Np1  1  0.300777  0.820259  0.297300  1
  Np  Np2  1  0.180272  0.699324  0.701268  1
  Np  Np3  1  0.697357  0.182471  0.702202  1
  Np  Np4  1  0.204251  0.205543  0.542314  1
  Np  Np5  1  0.795257  0.796090  0.455688  1
  Np  Np6  1  0.681902  0.677455  0.981952  1
  Np  Np7  1  0.319259  0.319397  0.019462  1
  V  V8  1  0.001990  0.998454  0.999387  1
  Se  Se9  1  0.821970  0.432262  0.537940  1
  Se  Se10  1  0.432854  0.821059  0.536235  1
  Se  Se11  1  0.178000  0.567411  0.464265  1
  Se  Se12  1  0.568521  0.175913  0.466697  1
  Se  Se13  1  0.943842  0.322000  0.024985  1
  Se  Se14  1  0.323547  0.944580  0.027689  1
  Se  Se15  1  0.055578  0.677526  0.971776  1
  Se  Se16  1  0.677942  0.055955  0.972681  1
  Se  Se17  1  0.215752  0.210823  0.277968  1
  Se  Se18  1  0.787939  0.786969  0.722145  1
  Se  Se19  1  0.060034  0.059075  0.772489  1
  Se  Se20  1  0.940380  0.939743  0.226797  1
  Se  Se21  1  0.300431  0.302049  0.756520  1
  Se  Se22  1  0.695941  0.702608  0.242956  1
  Se  Se23  1  0.521263  0.521727  0.829937  1
  Se  Se24  1  0.475504  0.480978  0.167742  1
  Se  Se25  1  0.003203  0.995094  0.502593  1
