# generated using pymatgen
data_Tb3Ce(Pt2Pb)2
_symmetry_space_group_name_H-M   'P 1'
_cell_length_a   8.02528937
_cell_length_b   8.02528937
_cell_length_c   3.60143700
_cell_angle_alpha   90.00000000
_cell_angle_beta   90.00000000
_cell_angle_gamma   89.50999268
_symmetry_Int_Tables_number   1
_chemical_formula_structural   Tb3Ce(Pt2Pb)2
_chemical_formula_sum   'Tb3 Ce1 Pt4 Pb2'
_cell_volume   231.94303807
_cell_formula_units_Z   1
loop_
 _symmetry_equiv_pos_site_id
 _symmetry_equiv_pos_as_xyz
  1  'x, y, z'
loop_
 _atom_site_type_symbol
 _atom_site_label
 _atom_site_symmetry_multiplicity
 _atom_site_fract_x
 _atom_site_fract_y
 _atom_site_fract_z
 _atom_site_occupancy
  Tb  Tb0  1  0.831525  0.333029  0.499999  1
  Tb  Tb1  1  0.166971  0.668475  0.499999  1
  Tb  Tb2  1  0.669360  0.830640  0.499999  1
  Ce  Ce3  1  0.331253  0.168747  0.499999  1
  Pt  Pt4  1  0.625642  0.128434  0.000000  1
  Pt  Pt5  1  0.129900  0.370100  0.000000  1
  Pt  Pt6  1  0.873971  0.626029  0.000000  1
  Pt  Pt7  1  0.371566  0.874358  0.000000  1
  Pb  Pb8  1  0.996986  0.997173  0.000000  1
  Pb  Pb9  1  0.502827  0.503014  0.000000  1
