# generated using pymatgen
data_Yb(TiPd4)3
_symmetry_space_group_name_H-M   'P 1'
_cell_length_a   5.62118700
_cell_length_b   5.62118697
_cell_length_c   9.10230300
_cell_angle_alpha   90.00000000
_cell_angle_beta   90.00000000
_cell_angle_gamma   119.99999427
_symmetry_Int_Tables_number   1
_chemical_formula_structural   Yb(TiPd4)3
_chemical_formula_sum   'Yb1 Ti3 Pd12'
_cell_volume   249.07951391
_cell_formula_units_Z   1
loop_
 _symmetry_equiv_pos_site_id
 _symmetry_equiv_pos_as_xyz
  1  'x, y, z'
loop_
 _atom_site_type_symbol
 _atom_site_label
 _atom_site_symmetry_multiplicity
 _atom_site_fract_x
 _atom_site_fract_y
 _atom_site_fract_z
 _atom_site_occupancy
  Yb  Yb0  1  0.333333  0.666667  0.250000  1
  Ti  Ti1  1  0.000000  0.000000  0.497108  1
  Ti  Ti2  1  0.000000  0.000000  0.002892  1
  Ti  Ti3  1  0.666667  0.333333  0.750000  1
  Pd  Pd4  1  0.503317  0.496683  0.507424  1
  Pd  Pd5  1  0.503317  0.006633  0.507424  1
  Pd  Pd6  1  0.993367  0.496683  0.507424  1
  Pd  Pd7  1  0.503317  0.496683  0.992576  1
  Pd  Pd8  1  0.503317  0.006633  0.992576  1
  Pd  Pd9  1  0.993367  0.496683  0.992576  1
  Pd  Pd10  1  0.833118  0.666237  0.250000  1
  Pd  Pd11  1  0.333763  0.166882  0.250000  1
  Pd  Pd12  1  0.833118  0.166882  0.250000  1
  Pd  Pd13  1  0.164942  0.329883  0.750000  1
  Pd  Pd14  1  0.670117  0.835058  0.750000  1
  Pd  Pd15  1  0.164942  0.835058  0.750000  1
