# generated using pymatgen
data_LaYbDy(ZnPt)4
_symmetry_space_group_name_H-M   'P 1'
_cell_length_a   8.22704262
_cell_length_b   8.22704250
_cell_length_c   8.22704256
_cell_angle_alpha   151.10900757
_cell_angle_beta   125.70600540
_cell_angle_gamma   62.66664089
_symmetry_Int_Tables_number   1
_chemical_formula_structural   LaYbDy(ZnPt)4
_chemical_formula_sum   'La1 Yb1 Dy1 Zn4 Pt4'
_cell_volume   216.54809886
_cell_formula_units_Z   1
loop_
 _symmetry_equiv_pos_site_id
 _symmetry_equiv_pos_as_xyz
  1  'x, y, z'
loop_
 _atom_site_type_symbol
 _atom_site_label
 _atom_site_symmetry_multiplicity
 _atom_site_fract_x
 _atom_site_fract_y
 _atom_site_fract_z
 _atom_site_occupancy
  La  La0  1  0.500237  0.000237  0.500000  1
  Yb  Yb1  1  0.874130  0.874130  0.000000  1
  Dy  Dy2  1  0.125712  0.125712  0.000000  1
  Zn  Zn3  1  0.480032  0.675958  0.804073  1
  Zn  Zn4  1  0.871885  0.675958  0.195927  1
  Zn  Zn5  1  0.125215  0.324498  0.800716  1
  Zn  Zn6  1  0.523781  0.324498  0.199284  1
  Pt  Pt7  1  0.276046  0.776046  0.500000  1
  Pt  Pt8  1  0.721539  0.221539  0.500000  1
  Pt  Pt9  1  0.810647  0.500712  0.309936  1
  Pt  Pt10  1  0.190776  0.500712  0.690064  1
