# generated using pymatgen
data_Dy3SnPt2RhPb2
_symmetry_space_group_name_H-M   'P 1'
_cell_length_a   7.79432189
_cell_length_b   7.74543325
_cell_length_c   3.83625200
_cell_angle_alpha   90.00000000
_cell_angle_beta   90.00000000
_cell_angle_gamma   119.79272021
_symmetry_Int_Tables_number   1
_chemical_formula_structural   Dy3SnPt2RhPb2
_chemical_formula_sum   'Dy3 Sn1 Pt2 Rh1 Pb2'
_cell_volume   200.98568868
_cell_formula_units_Z   1
loop_
 _symmetry_equiv_pos_site_id
 _symmetry_equiv_pos_as_xyz
  1  'x, y, z'
loop_
 _atom_site_type_symbol
 _atom_site_label
 _atom_site_symmetry_multiplicity
 _atom_site_fract_x
 _atom_site_fract_y
 _atom_site_fract_z
 _atom_site_occupancy
  Dy  Dy0  1  0.400165  0.404334  0.500000  1
  Dy  Dy1  1  0.599835  0.004170  0.500000  1
  Dy  Dy2  1  0.000000  0.593199  0.500000  1
  Sn  Sn3  1  0.000000  0.259881  0.000000  1
  Pt  Pt4  1  0.673945  0.329911  0.000000  1
  Pt  Pt5  1  0.326055  0.655967  0.000000  1
  Rh  Rh6  1  0.000000  0.011561  0.500000  1
  Pb  Pb7  1  0.739237  0.740107  0.000000  1
  Pb  Pb8  1  0.260763  0.000870  0.000000  1
