# generated using pymatgen
data_Sm2DyY3CoI10
_symmetry_space_group_name_H-M   'P 1'
_cell_length_a   7.75593171
_cell_length_b   9.75924982
_cell_length_c   9.71968108
_cell_angle_alpha   106.92008366
_cell_angle_beta   96.50998511
_cell_angle_gamma   104.91032043
_symmetry_Int_Tables_number   1
_chemical_formula_structural   Sm2DyY3CoI10
_chemical_formula_sum   'Sm2 Dy1 Y3 Co1 I10'
_cell_volume   665.90475444
_cell_formula_units_Z   1
loop_
 _symmetry_equiv_pos_site_id
 _symmetry_equiv_pos_as_xyz
  1  'x, y, z'
loop_
 _atom_site_type_symbol
 _atom_site_label
 _atom_site_symmetry_multiplicity
 _atom_site_fract_x
 _atom_site_fract_y
 _atom_site_fract_z
 _atom_site_occupancy
  Sm  Sm0  1  0.888915  0.959061  0.229502  1
  Sm  Sm1  1  0.111031  0.040821  0.770444  1
  Dy  Dy2  1  0.030025  0.718669  0.915666  1
  Y  Y3  1  0.969816  0.282338  0.084475  1
  Y  Y4  1  0.656456  0.877438  0.836602  1
  Y  Y5  1  0.343561  0.122537  0.163422  1
  Co  Co6  1  0.999960  0.999336  0.999791  1
  I  I7  1  0.649750  0.550475  0.728761  1
  I  I8  1  0.350743  0.449589  0.271462  1
  I  I9  1  0.738853  0.911742  0.540363  1
  I  I10  1  0.261130  0.088300  0.459640  1
  I  I11  1  0.085123  0.374292  0.820716  1
  I  I12  1  0.914903  0.625589  0.179147  1
  I  I13  1  0.452075  0.815936  0.092022  1
  I  I14  1  0.547730  0.184017  0.907853  1
  I  I15  1  0.223390  0.741294  0.655560  1
  I  I16  1  0.776540  0.258564  0.344575  1
