# generated using pymatgen
data_DyErAlSi2
_symmetry_space_group_name_H-M   'P 1'
_cell_length_a   5.57078437
_cell_length_b   5.57078547
_cell_length_c   5.57078476
_cell_angle_alpha   136.85788631
_cell_angle_beta   118.58681813
_cell_angle_gamma   77.98606047
_symmetry_Int_Tables_number   1
_chemical_formula_structural   DyErAlSi2
_chemical_formula_sum   'Dy1 Er1 Al1 Si2'
_cell_volume   100.90464965
_cell_formula_units_Z   1
loop_
 _symmetry_equiv_pos_site_id
 _symmetry_equiv_pos_as_xyz
  1  'x, y, z'
loop_
 _atom_site_type_symbol
 _atom_site_label
 _atom_site_symmetry_multiplicity
 _atom_site_fract_x
 _atom_site_fract_y
 _atom_site_fract_z
 _atom_site_occupancy
  Dy  Dy0  1  0.710855  0.210855  0.500000  1
  Er  Er1  1  0.289278  0.789278  0.500000  1
  Al  Al2  1  0.000118  0.000118  0.000000  1
  Si  Si3  1  0.289850  0.499875  0.789976  1
  Si  Si4  1  0.709899  0.499875  0.210024  1
