# generated using pymatgen
data_ErThU(GaRu)3
_symmetry_space_group_name_H-M   'P 1'
_cell_length_a   6.82865953
_cell_length_b   6.94297665
_cell_length_c   4.08679100
_cell_angle_alpha   90.00000000
_cell_angle_beta   90.00000000
_cell_angle_gamma   116.41320761
_symmetry_Int_Tables_number   1
_chemical_formula_structural   ErThU(GaRu)3
_chemical_formula_sum   'Er1 Th1 U1 Ga3 Ru3'
_cell_volume   173.53303351
_cell_formula_units_Z   1
loop_
 _symmetry_equiv_pos_site_id
 _symmetry_equiv_pos_as_xyz
  1  'x, y, z'
loop_
 _atom_site_type_symbol
 _atom_site_label
 _atom_site_symmetry_multiplicity
 _atom_site_fract_x
 _atom_site_fract_y
 _atom_site_fract_z
 _atom_site_occupancy
  Er  Er0  1  0.416750  0.010058  0.500000  1
  Th  Th1  1  0.009244  0.417483  0.500000  1
  U  U2  1  0.613411  0.615284  0.500000  1
  Ga  Ga3  1  0.737034  0.018122  0.000000  1
  Ga  Ga4  1  0.031336  0.762907  0.000000  1
  Ga  Ga5  1  0.218222  0.201461  0.000000  1
  Ru  Ru6  1  0.370731  0.623762  0.000000  1
  Ru  Ru7  1  0.648702  0.384945  0.000000  1
  Ru  Ru8  1  0.954573  0.965978  0.500000  1
