# generated using pymatgen
data_Hf4Zn2In2FeCu
_symmetry_space_group_name_H-M   'P 1'
_cell_length_a   7.26742018
_cell_length_b   7.26741910
_cell_length_c   6.86896469
_cell_angle_alpha   90.32584005
_cell_angle_beta   90.32583861
_cell_angle_gamma   91.13154884
_symmetry_Int_Tables_number   1
_chemical_formula_structural   Hf4Zn2In2FeCu
_chemical_formula_sum   'Hf8 Zn4 In4 Fe2 Cu2'
_cell_volume   362.70432234
_cell_formula_units_Z   2
loop_
 _symmetry_equiv_pos_site_id
 _symmetry_equiv_pos_as_xyz
  1  'x, y, z'
loop_
 _atom_site_type_symbol
 _atom_site_label
 _atom_site_symmetry_multiplicity
 _atom_site_fract_x
 _atom_site_fract_y
 _atom_site_fract_z
 _atom_site_occupancy
  Hf  Hf0  1  0.167872  0.167872  0.017251  1
  Hf  Hf1  1  0.832128  0.832128  0.982749  1
  Hf  Hf2  1  0.646673  0.353327  0.500000  1
  Hf  Hf3  1  0.353327  0.646673  0.500000  1
  Hf  Hf4  1  0.670445  0.329555  0.000000  1
  Hf  Hf5  1  0.329555  0.670445  0.000000  1
  Hf  Hf6  1  0.793274  0.793274  0.514721  1
  Hf  Hf7  1  0.206726  0.206726  0.485279  1
  Zn  Zn8  1  0.881176  0.125940  0.716831  1
  Zn  Zn9  1  0.874060  0.118824  0.283169  1
  Zn  Zn10  1  0.118824  0.874060  0.283169  1
  Zn  Zn11  1  0.125940  0.881176  0.716831  1
  In  In12  1  0.502818  0.004559  0.247112  1
  In  In13  1  0.497182  0.995441  0.752888  1
  In  In14  1  0.004559  0.502818  0.247112  1
  In  In15  1  0.995441  0.497182  0.752888  1
  Fe  Fe16  1  0.378866  0.378866  0.231084  1
  Fe  Fe17  1  0.621134  0.621134  0.768916  1
  Cu  Cu18  1  0.628957  0.628957  0.212313  1
  Cu  Cu19  1  0.371043  0.371043  0.787687  1
