# generated using pymatgen
data_Dy4IrRu6W
_symmetry_space_group_name_H-M   'P 1'
_cell_length_a   5.49660791
_cell_length_b   5.19557012
_cell_length_c   9.06278120
_cell_angle_alpha   89.86007646
_cell_angle_beta   89.98945447
_cell_angle_gamma   121.94443153
_symmetry_Int_Tables_number   1
_chemical_formula_structural   Dy4IrRu6W
_chemical_formula_sum   'Dy4 Ir1 Ru6 W1'
_cell_volume   219.61950466
_cell_formula_units_Z   1
loop_
 _symmetry_equiv_pos_site_id
 _symmetry_equiv_pos_as_xyz
  1  'x, y, z'
loop_
 _atom_site_type_symbol
 _atom_site_label
 _atom_site_symmetry_multiplicity
 _atom_site_fract_x
 _atom_site_fract_y
 _atom_site_fract_z
 _atom_site_occupancy
  Dy  Dy0  1  0.673102  0.345974  0.563317  1
  Dy  Dy1  1  0.335854  0.671984  0.431540  1
  Dy  Dy2  1  0.335175  0.670989  0.069245  1
  Dy  Dy3  1  0.673619  0.347515  0.936758  1
  Ir  Ir4  1  0.009463  0.018164  0.498405  1
  Ru  Ru5  1  0.010947  0.022651  0.000947  1
  Ru  Ru6  1  0.169852  0.816789  0.749139  1
  Ru  Ru7  1  0.646359  0.817608  0.749055  1
  Ru  Ru8  1  0.822772  0.646054  0.248845  1
  Ru  Ru9  1  0.832861  0.163026  0.250088  1
  Ru  Ru10  1  0.333055  0.165534  0.250482  1
  W  W11  1  0.156940  0.313713  0.752179  1
