# generated using pymatgen
data_Zr4TaGe3N
_symmetry_space_group_name_H-M   'P 1'
_cell_length_a   7.96139000
_cell_length_b   7.96139051
_cell_length_c   5.58055400
_cell_angle_alpha   90.00000000
_cell_angle_beta   90.00000000
_cell_angle_gamma   120.00000619
_symmetry_Int_Tables_number   1
_chemical_formula_structural   Zr4TaGe3N
_chemical_formula_sum   'Zr8 Ta2 Ge6 N2'
_cell_volume   306.32732978
_cell_formula_units_Z   2
loop_
 _symmetry_equiv_pos_site_id
 _symmetry_equiv_pos_as_xyz
  1  'x, y, z'
loop_
 _atom_site_type_symbol
 _atom_site_label
 _atom_site_symmetry_multiplicity
 _atom_site_fract_x
 _atom_site_fract_y
 _atom_site_fract_z
 _atom_site_occupancy
  Zr  Zr0  1  0.233650  0.000000  0.750780  1
  Zr  Zr1  1  0.766350  0.000000  0.249220  1
  Zr  Zr2  1  0.000000  0.233650  0.750780  1
  Zr  Zr3  1  0.000000  0.766350  0.249220  1
  Zr  Zr4  1  0.766350  0.766350  0.750780  1
  Zr  Zr5  1  0.233650  0.233650  0.249220  1
  Zr  Zr6  1  0.333333  0.666667  0.500000  1
  Zr  Zr7  1  0.666667  0.333333  0.500000  1
  Ta  Ta8  1  0.666667  0.333333  0.000000  1
  Ta  Ta9  1  0.333333  0.666667  0.000000  1
  Ge  Ge10  1  0.593372  0.000000  0.761281  1
  Ge  Ge11  1  0.406628  0.000000  0.238719  1
  Ge  Ge12  1  0.000000  0.593372  0.761281  1
  Ge  Ge13  1  0.000000  0.406628  0.238719  1
  Ge  Ge14  1  0.406628  0.406628  0.761281  1
  Ge  Ge15  1  0.593372  0.593372  0.238719  1
  N  N16  1  0.000000  0.000000  0.500000  1
  N  N17  1  0.000000  0.000000  0.000000  1
