# generated using pymatgen
data_Tm5Co19(SiP)6
_symmetry_space_group_name_H-M   'P 1'
_cell_length_a   12.00450300
_cell_length_b   12.00450500
_cell_length_c   3.67062200
_cell_angle_alpha   90.00000000
_cell_angle_beta   90.00000000
_cell_angle_gamma   120.00000276
_symmetry_Int_Tables_number   1
_chemical_formula_structural   Tm5Co19(SiP)6
_chemical_formula_sum   'Tm5 Co19 Si6 P6'
_cell_volume   458.09834644
_cell_formula_units_Z   1
loop_
 _symmetry_equiv_pos_site_id
 _symmetry_equiv_pos_as_xyz
  1  'x, y, z'
loop_
 _atom_site_type_symbol
 _atom_site_label
 _atom_site_symmetry_multiplicity
 _atom_site_fract_x
 _atom_site_fract_y
 _atom_site_fract_z
 _atom_site_occupancy
  Tm  Tm0  1  0.666667  0.333333  0.000000  1
  Tm  Tm1  1  0.333333  0.666667  0.000000  1
  Tm  Tm2  1  0.815881  0.815881  0.500000  1
  Tm  Tm3  1  0.184119  0.000000  0.500000  1
  Tm  Tm4  1  0.000000  0.184119  0.500000  1
  Co  Co5  1  0.877812  0.354248  0.500000  1
  Co  Co6  1  0.645752  0.523565  0.500000  1
  Co  Co7  1  0.476435  0.122188  0.500000  1
  Co  Co8  1  0.354248  0.877812  0.500000  1
  Co  Co9  1  0.523565  0.645752  0.500000  1
  Co  Co10  1  0.122188  0.476435  0.500000  1
  Co  Co11  1  0.447894  0.447894  0.000000  1
  Co  Co12  1  0.552106  0.000000  0.000000  1
  Co  Co13  1  0.000000  0.552106  0.000000  1
  Co  Co14  1  0.805899  0.178664  0.000000  1
  Co  Co15  1  0.821336  0.627235  0.000000  1
  Co  Co16  1  0.372765  0.194101  0.000000  1
  Co  Co17  1  0.178664  0.805899  0.000000  1
  Co  Co18  1  0.627235  0.821336  0.000000  1
  Co  Co19  1  0.194101  0.372765  0.000000  1
  Co  Co20  1  0.277198  0.277198  0.500000  1
  Co  Co21  1  0.722802  0.000000  0.500000  1
  Co  Co22  1  0.000000  0.722802  0.500000  1
  Co  Co23  1  0.000000  0.000000  0.000000  1
  Si  Si24  1  0.680410  0.159684  0.500000  1
  Si  Si25  1  0.840316  0.520727  0.500000  1
  Si  Si26  1  0.479273  0.319590  0.500000  1
  Si  Si27  1  0.159684  0.680410  0.500000  1
  Si  Si28  1  0.520727  0.840316  0.500000  1
  Si  Si29  1  0.319590  0.479273  0.500000  1
  P  P30  1  0.179932  0.179932  0.000000  1
  P  P31  1  0.820068  0.000000  0.000000  1
  P  P32  1  0.000000  0.820068  0.000000  1
  P  P33  1  0.633023  0.633023  0.000000  1
  P  P34  1  0.366977  0.000000  0.000000  1
  P  P35  1  0.000000  0.366977  0.000000  1
