# generated using pymatgen
data_Dy2ErHg5
_symmetry_space_group_name_H-M   'P 1'
_cell_length_a   6.34691231
_cell_length_b   6.34691175
_cell_length_c   10.16474600
_cell_angle_alpha   90.00000000
_cell_angle_beta   90.00000000
_cell_angle_gamma   104.62462867
_symmetry_Int_Tables_number   1
_chemical_formula_structural   Dy2ErHg5
_chemical_formula_sum   'Dy4 Er2 Hg10'
_cell_volume   396.20292363
_cell_formula_units_Z   2
loop_
 _symmetry_equiv_pos_site_id
 _symmetry_equiv_pos_as_xyz
  1  'x, y, z'
loop_
 _atom_site_type_symbol
 _atom_site_label
 _atom_site_symmetry_multiplicity
 _atom_site_fract_x
 _atom_site_fract_y
 _atom_site_fract_z
 _atom_site_occupancy
  Dy  Dy0  1  0.213198  0.786802  0.500000  1
  Dy  Dy1  1  0.213198  0.786802  0.000000  1
  Dy  Dy2  1  0.786802  0.213198  0.500000  1
  Dy  Dy3  1  0.786802  0.213198  0.000000  1
  Er  Er4  1  0.579442  0.579442  0.250000  1
  Er  Er5  1  0.420558  0.420558  0.750000  1
  Hg  Hg6  1  0.974643  0.974643  0.250000  1
  Hg  Hg7  1  0.025357  0.025357  0.750000  1
  Hg  Hg8  1  0.295753  0.295753  0.033573  1
  Hg  Hg9  1  0.704247  0.704247  0.966427  1
  Hg  Hg10  1  0.295753  0.295753  0.466427  1
  Hg  Hg11  1  0.704247  0.704247  0.533573  1
  Hg  Hg12  1  0.481398  0.040717  0.250000  1
  Hg  Hg13  1  0.959283  0.518602  0.750000  1
  Hg  Hg14  1  0.518602  0.959283  0.750000  1
  Hg  Hg15  1  0.040717  0.481398  0.250000  1
