# generated using pymatgen
data_HfSc8Re4P
_symmetry_space_group_name_H-M   'P 1'
_cell_length_a   8.64462889
_cell_length_b   8.64464886
_cell_length_c   8.56956294
_cell_angle_alpha   90.08148658
_cell_angle_beta   89.91818321
_cell_angle_gamma   120.20411993
_symmetry_Int_Tables_number   1
_chemical_formula_structural   HfSc8Re4P
_chemical_formula_sum   'Hf2 Sc16 Re8 P2'
_cell_volume   553.45902233
_cell_formula_units_Z   2
loop_
 _symmetry_equiv_pos_site_id
 _symmetry_equiv_pos_as_xyz
  1  'x, y, z'
loop_
 _atom_site_type_symbol
 _atom_site_label
 _atom_site_symmetry_multiplicity
 _atom_site_fract_x
 _atom_site_fract_y
 _atom_site_fract_z
 _atom_site_occupancy
  Hf  Hf0  1  0.196385  0.392473  0.047106  1
  Hf  Hf1  1  0.607529  0.803616  0.047108  1
  Sc  Sc2  1  0.197661  0.802336  0.451695  1
  Sc  Sc3  1  0.197348  0.394945  0.450461  1
  Sc  Sc4  1  0.605053  0.802656  0.450463  1
  Sc  Sc5  1  0.802296  0.197705  0.549123  1
  Sc  Sc6  1  0.802835  0.605479  0.549484  1
  Sc  Sc7  1  0.394520  0.197165  0.549484  1
  Sc  Sc8  1  0.802154  0.197848  0.951006  1
  Sc  Sc9  1  0.803542  0.605745  0.950657  1
  Sc  Sc10  1  0.394257  0.196458  0.950660  1
  Sc  Sc11  1  0.198260  0.801737  0.048830  1
  Sc  Sc12  1  0.538032  0.461964  0.249965  1
  Sc  Sc13  1  0.538781  0.076518  0.250154  1
  Sc  Sc14  1  0.923479  0.461213  0.250151  1
  Sc  Sc15  1  0.461004  0.538998  0.752186  1
  Sc  Sc16  1  0.461338  0.921797  0.751198  1
  Sc  Sc17  1  0.078202  0.538661  0.751197  1
  Re  Re18  1  0.891145  0.108852  0.248910  1
  Re  Re19  1  0.891348  0.784998  0.249246  1
  Re  Re20  1  0.215000  0.108650  0.249247  1
  Re  Re21  1  0.107148  0.892852  0.749844  1
  Re  Re22  1  0.107956  0.216763  0.751984  1
  Re  Re23  1  0.783244  0.892052  0.751983  1
  Re  Re24  1  0.999587  0.000411  0.499374  1
  Re  Re25  1  0.001055  0.998944  0.999701  1
  P  P26  1  0.334283  0.665720  0.248521  1
  P  P27  1  0.666557  0.333445  0.750263  1
