# generated using pymatgen
data_Yb3Y5(Pt2Pb)4
_symmetry_space_group_name_H-M   'P 1'
_cell_length_a   7.88238942
_cell_length_b   7.88238942
_cell_length_c   7.33252100
_cell_angle_alpha   90.00000000
_cell_angle_beta   90.00000000
_cell_angle_gamma   90.38901420
_symmetry_Int_Tables_number   1
_chemical_formula_structural   Yb3Y5(Pt2Pb)4
_chemical_formula_sum   'Yb3 Y5 Pt8 Pb4'
_cell_volume   455.57415575
_cell_formula_units_Z   1
loop_
 _symmetry_equiv_pos_site_id
 _symmetry_equiv_pos_as_xyz
  1  'x, y, z'
loop_
 _atom_site_type_symbol
 _atom_site_label
 _atom_site_symmetry_multiplicity
 _atom_site_fract_x
 _atom_site_fract_y
 _atom_site_fract_z
 _atom_site_occupancy
  Yb  Yb0  1  0.662272  0.662272  0.500000  1
  Yb  Yb1  1  0.839516  0.160439  0.000000  1
  Yb  Yb2  1  0.160439  0.839516  0.000000  1
  Y  Y3  1  0.676506  0.676506  0.000000  1
  Y  Y4  1  0.338953  0.338953  0.500000  1
  Y  Y5  1  0.823327  0.175199  0.500000  1
  Y  Y6  1  0.323497  0.323497  0.000000  1
  Y  Y7  1  0.175199  0.823327  0.500000  1
  Pt  Pt8  1  0.873902  0.873902  0.734206  1
  Pt  Pt9  1  0.128711  0.128711  0.732404  1
  Pt  Pt10  1  0.626009  0.372544  0.764307  1
  Pt  Pt11  1  0.626009  0.372544  0.235693  1
  Pt  Pt12  1  0.372544  0.626009  0.235693  1
  Pt  Pt13  1  0.128711  0.128711  0.267596  1
  Pt  Pt14  1  0.873902  0.873902  0.265794  1
  Pt  Pt15  1  0.372544  0.626009  0.764307  1
  Pb  Pb16  1  0.501008  0.997973  0.751484  1
  Pb  Pb17  1  0.501008  0.997973  0.248516  1
  Pb  Pb18  1  0.997973  0.501008  0.751484  1
  Pb  Pb19  1  0.997973  0.501008  0.248516  1
