# generated using pymatgen
data_YbTh2(SnRu)3
_symmetry_space_group_name_H-M   'P 1'
_cell_length_a   7.64177461
_cell_length_b   7.64177365
_cell_length_c   4.08598300
_cell_angle_alpha   90.00000000
_cell_angle_beta   90.00000000
_cell_angle_gamma   122.98107381
_symmetry_Int_Tables_number   1
_chemical_formula_structural   YbTh2(SnRu)3
_chemical_formula_sum   'Yb1 Th2 Sn3 Ru3'
_cell_volume   200.15639973
_cell_formula_units_Z   1
loop_
 _symmetry_equiv_pos_site_id
 _symmetry_equiv_pos_as_xyz
  1  'x, y, z'
loop_
 _atom_site_type_symbol
 _atom_site_label
 _atom_site_symmetry_multiplicity
 _atom_site_fract_x
 _atom_site_fract_y
 _atom_site_fract_z
 _atom_site_occupancy
  Yb  Yb0  1  0.406956  0.406956  0.500000  1
  Th  Th1  1  0.584277  0.997636  0.500000  1
  Th  Th2  1  0.997636  0.584277  0.500000  1
  Sn  Sn3  1  0.728871  0.728871  0.000000  1
  Sn  Sn4  1  0.253000  0.018369  0.000000  1
  Sn  Sn5  1  0.018369  0.253000  0.000000  1
  Ru  Ru6  1  0.697147  0.328273  0.000000  1
  Ru  Ru7  1  0.328273  0.697147  0.000000  1
  Ru  Ru8  1  0.985471  0.985471  0.500000  1
