# generated using pymatgen
data_V4TeOsO12
_symmetry_space_group_name_H-M   'P 1'
_cell_length_a   4.62533595
_cell_length_b   4.62532789
_cell_length_c   9.31686300
_cell_angle_alpha   90.00034598
_cell_angle_beta   89.99982769
_cell_angle_gamma   90.00116436
_symmetry_Int_Tables_number   1
_chemical_formula_structural   V4TeOsO12
_chemical_formula_sum   'V4 Te1 Os1 O12'
_cell_volume   199.32212845
_cell_formula_units_Z   1
loop_
 _symmetry_equiv_pos_site_id
 _symmetry_equiv_pos_as_xyz
  1  'x, y, z'
loop_
 _atom_site_type_symbol
 _atom_site_label
 _atom_site_symmetry_multiplicity
 _atom_site_fract_x
 _atom_site_fract_y
 _atom_site_fract_z
 _atom_site_occupancy
  V  V0  1  0.500022  0.499984  0.167635  1
  V  V1  1  0.999986  0.999989  0.336089  1
  V  V2  1  0.000018  0.000017  0.663864  1
  V  V3  1  0.499981  0.500015  0.832436  1
  Te  Te4  1  0.000005  0.999999  0.999990  1
  Os  Os5  1  0.499993  0.499998  0.499985  1
  O  O6  1  0.297655  0.297650  0.000007  1
  O  O7  1  0.202909  0.797085  0.500002  1
  O  O8  1  0.797080  0.202914  0.500001  1
  O  O9  1  0.702354  0.702351  0.000008  1
  O  O10  1  0.695238  0.695243  0.660597  1
  O  O11  1  0.304755  0.304758  0.660595  1
  O  O12  1  0.695246  0.695249  0.339398  1
  O  O13  1  0.193419  0.806578  0.163081  1
  O  O14  1  0.806581  0.193418  0.163081  1
  O  O15  1  0.806564  0.193438  0.836915  1
  O  O16  1  0.193441  0.806559  0.836914  1
  O  O17  1  0.304746  0.304746  0.339399  1
