# generated using pymatgen
data_Zr6Mn2Ni18P13
_symmetry_space_group_name_H-M   'P 1'
_cell_length_a   12.49190811
_cell_length_b   12.52989828
_cell_length_c   3.64238900
_cell_angle_alpha   90.00000000
_cell_angle_beta   90.00000000
_cell_angle_gamma   120.06299458
_symmetry_Int_Tables_number   1
_chemical_formula_structural   Zr6Mn2Ni18P13
_chemical_formula_sum   'Zr6 Mn2 Ni18 P13'
_cell_volume   493.42057404
_cell_formula_units_Z   1
loop_
 _symmetry_equiv_pos_site_id
 _symmetry_equiv_pos_as_xyz
  1  'x, y, z'
loop_
 _atom_site_type_symbol
 _atom_site_label
 _atom_site_symmetry_multiplicity
 _atom_site_fract_x
 _atom_site_fract_y
 _atom_site_fract_z
 _atom_site_occupancy
  Zr  Zr0  1  0.282066  0.474922  0.000000  1
  Zr  Zr1  1  0.190006  0.715353  0.000000  1
  Zr  Zr2  1  0.527282  0.809685  0.000000  1
  Zr  Zr3  1  0.474411  0.190883  0.500000  1
  Zr  Zr4  1  0.807587  0.281795  0.500000  1
  Zr  Zr5  1  0.717476  0.525949  0.500000  1
  Mn  Mn6  1  0.583872  0.020126  0.500000  1
  Mn  Mn7  1  0.155666  0.075205  0.500000  1
  Ni  Ni8  1  0.755764  0.079429  0.000000  1
  Ni  Ni9  1  0.104621  0.201438  0.000000  1
  Ni  Ni10  1  0.323550  0.245432  0.000000  1
  Ni  Ni11  1  0.666488  0.332064  0.000000  1
  Ni  Ni12  1  0.020690  0.439620  0.000000  1
  Ni  Ni13  1  0.561675  0.582421  0.000000  1
  Ni  Ni14  1  0.921121  0.675388  0.000000  1
  Ni  Ni15  1  0.094728  0.893274  0.000000  1
  Ni  Ni16  1  0.802012  0.905070  0.000000  1
  Ni  Ni17  1  0.418455  0.980688  0.000000  1
  Ni  Ni18  1  0.919940  0.081107  0.500000  1
  Ni  Ni19  1  0.071048  0.323019  0.500000  1
  Ni  Ni20  1  0.435711  0.414905  0.500000  1
  Ni  Ni21  1  0.978371  0.564504  0.500000  1
  Ni  Ni22  1  0.333365  0.667296  0.500000  1
  Ni  Ni23  1  0.676980  0.749282  0.500000  1
  Ni  Ni24  1  0.918289  0.839583  0.500000  1
  Ni  Ni25  1  0.255133  0.927108  0.500000  1
  P  P26  1  0.001413  0.000704  0.000000  1
  P  P27  1  0.285674  0.053787  0.000000  1
  P  P28  1  0.614525  0.138506  0.000000  1
  P  P29  1  0.946977  0.235473  0.000000  1
  P  P30  1  0.526662  0.386176  0.000000  1
  P  P31  1  0.859721  0.473765  0.000000  1
  P  P32  1  0.766961  0.713179  0.000000  1
  P  P33  1  0.231990  0.285432  0.500000  1
  P  P34  1  0.140204  0.527239  0.500000  1
  P  P35  1  0.472734  0.613580  0.500000  1
  P  P36  1  0.053821  0.768369  0.500000  1
  P  P37  1  0.389664  0.860030  0.500000  1
  P  P38  1  0.713351  0.948225  0.500000  1
