# generated using pymatgen
data_Y3Cu2Ni7
_symmetry_space_group_name_H-M   'P 1'
_cell_length_a   8.62793938
_cell_length_b   8.62793953
_cell_length_c   8.62793923
_cell_angle_alpha   33.82977482
_cell_angle_beta   33.82977205
_cell_angle_gamma   33.82977384
_symmetry_Int_Tables_number   1
_chemical_formula_structural   Y3Cu2Ni7
_chemical_formula_sum   'Y3 Cu2 Ni7'
_cell_volume   177.39632878
_cell_formula_units_Z   1
loop_
 _symmetry_equiv_pos_site_id
 _symmetry_equiv_pos_as_xyz
  1  'x, y, z'
loop_
 _atom_site_type_symbol
 _atom_site_label
 _atom_site_symmetry_multiplicity
 _atom_site_fract_x
 _atom_site_fract_y
 _atom_site_fract_z
 _atom_site_occupancy
  Y  Y0  1  0.000000  0.000000  0.000000  1
  Y  Y1  1  0.861033  0.861033  0.861033  1
  Y  Y2  1  0.138967  0.138967  0.138967  1
  Cu  Cu3  1  0.666573  0.666573  0.666573  1
  Cu  Cu4  1  0.333427  0.333427  0.333427  1
  Ni  Ni5  1  0.416399  0.416399  0.918260  1
  Ni  Ni6  1  0.918260  0.416399  0.416399  1
  Ni  Ni7  1  0.416399  0.918260  0.416399  1
  Ni  Ni8  1  0.500000  0.500000  0.500000  1
  Ni  Ni9  1  0.583601  0.081740  0.583601  1
  Ni  Ni10  1  0.081740  0.583601  0.583601  1
  Ni  Ni11  1  0.583601  0.583601  0.081740  1
