# generated using pymatgen
data_NdY3(CCl)2
_symmetry_space_group_name_H-M   'P 1'
_cell_length_a   3.69113800
_cell_length_b   3.69113726
_cell_length_c   13.85998900
_cell_angle_alpha   90.00000000
_cell_angle_beta   90.00000000
_cell_angle_gamma   119.99998871
_symmetry_Int_Tables_number   1
_chemical_formula_structural   NdY3(CCl)2
_chemical_formula_sum   'Nd1 Y3 C2 Cl2'
_cell_volume   163.53625362
_cell_formula_units_Z   1
loop_
 _symmetry_equiv_pos_site_id
 _symmetry_equiv_pos_as_xyz
  1  'x, y, z'
loop_
 _atom_site_type_symbol
 _atom_site_label
 _atom_site_symmetry_multiplicity
 _atom_site_fract_x
 _atom_site_fract_y
 _atom_site_fract_z
 _atom_site_occupancy
  Nd  Nd0  1  0.333333  0.666667  0.095327  1
  Y  Y1  1  0.666667  0.333333  0.593425  1
  Y  Y2  1  0.666667  0.333333  0.903554  1
  Y  Y3  1  0.333333  0.666667  0.408772  1
  C  C4  1  0.000000  0.000000  0.990609  1
  C  C5  1  0.000000  0.000000  0.501421  1
  Cl  Cl6  1  0.333333  0.666667  0.746953  1
  Cl  Cl7  1  0.666667  0.333333  0.259938  1
