# generated using pymatgen
data_Pr16Cd4OsPt3
_symmetry_space_group_name_H-M   'P 1'
_cell_length_a   10.11850567
_cell_length_b   10.11850537
_cell_length_c   10.11850515
_cell_angle_alpha   59.74297537
_cell_angle_beta   59.74297722
_cell_angle_gamma   59.74297507
_symmetry_Int_Tables_number   1
_chemical_formula_structural   Pr16Cd4OsPt3
_chemical_formula_sum   'Pr16 Cd4 Os1 Pt3'
_cell_volume   728.26899325
_cell_formula_units_Z   1
loop_
 _symmetry_equiv_pos_site_id
 _symmetry_equiv_pos_as_xyz
  1  'x, y, z'
loop_
 _atom_site_type_symbol
 _atom_site_label
 _atom_site_symmetry_multiplicity
 _atom_site_fract_x
 _atom_site_fract_y
 _atom_site_fract_z
 _atom_site_occupancy
  Pr  Pr0  1  0.350509  0.350509  0.350509  1
  Pr  Pr1  1  0.347766  0.347766  0.951929  1
  Pr  Pr2  1  0.347766  0.951929  0.347766  1
  Pr  Pr3  1  0.951929  0.347766  0.347766  1
  Pr  Pr4  1  0.815382  0.189353  0.189353  1
  Pr  Pr5  1  0.189668  0.808212  0.808212  1
  Pr  Pr6  1  0.189353  0.815382  0.189353  1
  Pr  Pr7  1  0.808212  0.189668  0.808212  1
  Pr  Pr8  1  0.189353  0.189353  0.815382  1
  Pr  Pr9  1  0.808212  0.808212  0.189668  1
  Pr  Pr10  1  0.937630  0.563816  0.563816  1
  Pr  Pr11  1  0.557323  0.938320  0.938320  1
  Pr  Pr12  1  0.563816  0.937630  0.563816  1
  Pr  Pr13  1  0.938320  0.557323  0.938320  1
  Pr  Pr14  1  0.563816  0.563816  0.937630  1
  Pr  Pr15  1  0.938320  0.938320  0.557323  1
  Cd  Cd16  1  0.579759  0.579759  0.579759  1
  Cd  Cd17  1  0.579942  0.579942  0.259137  1
  Cd  Cd18  1  0.579942  0.259137  0.579942  1
  Cd  Cd19  1  0.259137  0.579942  0.579942  1
  Os  Os20  1  0.142863  0.142863  0.142863  1
  Pt  Pt21  1  0.144170  0.144170  0.572645  1
  Pt  Pt22  1  0.144170  0.572645  0.144170  1
  Pt  Pt23  1  0.572645  0.144170  0.144170  1
