# generated using pymatgen
data_Tm2ZnB2Ir4Ru
_symmetry_space_group_name_H-M   'P 1'
_cell_length_a   9.60189800
_cell_length_b   9.60189800
_cell_length_c   3.08409900
_cell_angle_alpha   90.00000000
_cell_angle_beta   90.00000000
_cell_angle_gamma   90.00000000
_symmetry_Int_Tables_number   1
_chemical_formula_structural   Tm2ZnB2Ir4Ru
_chemical_formula_sum   'Tm4 Zn2 B4 Ir8 Ru2'
_cell_volume   284.34296445
_cell_formula_units_Z   2
loop_
 _symmetry_equiv_pos_site_id
 _symmetry_equiv_pos_as_xyz
  1  'x, y, z'
loop_
 _atom_site_type_symbol
 _atom_site_label
 _atom_site_symmetry_multiplicity
 _atom_site_fract_x
 _atom_site_fract_y
 _atom_site_fract_z
 _atom_site_occupancy
  Tm  Tm0  1  0.325120  0.825120  0.000000  1
  Tm  Tm1  1  0.674880  0.174880  0.000000  1
  Tm  Tm2  1  0.174880  0.325120  0.000000  1
  Tm  Tm3  1  0.825120  0.674880  0.000000  1
  Zn  Zn4  1  0.500000  0.500000  0.000000  1
  Zn  Zn5  1  0.000000  0.000000  0.000000  1
  B  B6  1  0.122137  0.622137  0.000000  1
  B  B7  1  0.877863  0.377863  0.000000  1
  B  B8  1  0.377863  0.122137  0.000000  1
  B  B9  1  0.622137  0.877863  0.000000  1
  Ir  Ir10  1  0.569016  0.718307  0.500000  1
  Ir  Ir11  1  0.430984  0.281693  0.500000  1
  Ir  Ir12  1  0.930984  0.218307  0.500000  1
  Ir  Ir13  1  0.069016  0.781693  0.500000  1
  Ir  Ir14  1  0.781693  0.930984  0.500000  1
  Ir  Ir15  1  0.218307  0.069016  0.500000  1
  Ir  Ir16  1  0.281693  0.569016  0.500000  1
  Ir  Ir17  1  0.718307  0.430984  0.500000  1
  Ru  Ru18  1  0.000000  0.500000  0.500000  1
  Ru  Ru19  1  0.500000  0.000000  0.500000  1
