# generated using pymatgen
data_Na2Ni8P7Ir4
_symmetry_space_group_name_H-M   'P 1'
_cell_length_a   9.27131060
_cell_length_b   9.23506660
_cell_length_c   3.69175700
_cell_angle_alpha   90.00000000
_cell_angle_beta   90.00000000
_cell_angle_gamma   119.54978950
_symmetry_Int_Tables_number   1
_chemical_formula_structural   Na2Ni8P7Ir4
_chemical_formula_sum   'Na2 Ni8 P7 Ir4'
_cell_volume   274.97759373
_cell_formula_units_Z   1
loop_
 _symmetry_equiv_pos_site_id
 _symmetry_equiv_pos_as_xyz
  1  'x, y, z'
loop_
 _atom_site_type_symbol
 _atom_site_label
 _atom_site_symmetry_multiplicity
 _atom_site_fract_x
 _atom_site_fract_y
 _atom_site_fract_z
 _atom_site_occupancy
  Na  Na0  1  0.665746  0.331287  0.000000  1
  Na  Na1  1  0.331567  0.665424  0.500000  1
  Ni  Ni2  1  0.063066  0.635597  0.000000  1
  Ni  Ni3  1  0.576080  0.940548  0.000000  1
  Ni  Ni4  1  0.367099  0.428193  0.000000  1
  Ni  Ni5  1  0.273686  0.117879  0.000000  1
  Ni  Ni6  1  0.837366  0.723639  0.000000  1
  Ni  Ni7  1  0.887140  0.154915  0.000000  1
  Ni  Ni8  1  0.789780  0.919210  0.500000  1
  Ni  Ni9  1  0.131764  0.214644  0.500000  1
  P  P10  1  0.298319  0.878723  0.000000  1
  P  P11  1  0.580870  0.704070  0.000000  1
  P  P12  1  0.122032  0.414926  0.000000  1
  P  P13  1  0.402404  0.289995  0.500000  1
  P  P14  1  0.881356  0.591559  0.500000  1
  P  P15  1  0.713122  0.113620  0.500000  1
  P  P16  1  0.001015  0.999040  0.000000  1
  Ir  Ir17  1  0.435009  0.046340  0.500000  1
  Ir  Ir18  1  0.611685  0.567929  0.500000  1
  Ir  Ir19  1  0.954920  0.385440  0.500000  1
  Ir  Ir20  1  0.075973  0.877022  0.500000  1
