# generated using pymatgen
data_Tb6Er14Bi11Sb
_symmetry_space_group_name_H-M   'P 1'
_cell_length_a   8.21332250
_cell_length_b   9.48184412
_cell_length_c   11.99008178
_cell_angle_alpha   89.96652761
_cell_angle_beta   90.03987254
_cell_angle_gamma   90.00195222
_symmetry_Int_Tables_number   1
_chemical_formula_structural   Tb6Er14Bi11Sb
_chemical_formula_sum   'Tb6 Er14 Bi11 Sb1'
_cell_volume   933.75653210
_cell_formula_units_Z   1
loop_
 _symmetry_equiv_pos_site_id
 _symmetry_equiv_pos_as_xyz
  1  'x, y, z'
loop_
 _atom_site_type_symbol
 _atom_site_label
 _atom_site_symmetry_multiplicity
 _atom_site_fract_x
 _atom_site_fract_y
 _atom_site_fract_z
 _atom_site_occupancy
  Tb  Tb0  1  0.690046  0.934823  0.058124  1
  Tb  Tb1  1  0.192606  0.563274  0.440523  1
  Tb  Tb2  1  0.313959  0.250088  0.218818  1
  Tb  Tb3  1  0.813553  0.249959  0.281173  1
  Tb  Tb4  1  0.682334  0.749784  0.783659  1
  Tb  Tb5  1  0.188169  0.750208  0.720550  1
  Er  Er6  1  0.353766  0.749902  0.213961  1
  Er  Er7  1  0.853251  0.749965  0.283211  1
  Er  Er8  1  0.647714  0.249784  0.783128  1
  Er  Er9  1  0.147239  0.250249  0.717054  1
  Er  Er10  1  0.690080  0.567365  0.058271  1
  Er  Er11  1  0.192847  0.934609  0.440291  1
  Er  Er12  1  0.308822  0.061270  0.940889  1
  Er  Er13  1  0.807606  0.435291  0.559157  1
  Er  Er14  1  0.307921  0.439070  0.940326  1
  Er  Er15  1  0.806613  0.064377  0.559730  1
  Er  Er16  1  0.475888  0.249967  0.488430  1
  Er  Er17  1  0.976660  0.250055  0.011103  1
  Er  Er18  1  0.524980  0.750035  0.512054  1
  Er  Er19  1  0.027807  0.749911  0.988060  1
  Bi  Bi20  1  0.906146  0.750650  0.542172  1
  Bi  Bi21  1  0.593667  0.252648  0.040729  1
  Bi  Bi22  1  0.093282  0.247359  0.459343  1
  Bi  Bi23  1  0.565589  0.994440  0.326513  1
  Bi  Bi24  1  0.065464  0.505182  0.173139  1
  Bi  Bi25  1  0.434175  0.494239  0.673915  1
  Bi  Bi26  1  0.933885  0.005130  0.826092  1
  Bi  Bi27  1  0.433939  0.005772  0.673658  1
  Bi  Bi28  1  0.933690  0.494896  0.826335  1
  Bi  Bi29  1  0.566486  0.505662  0.326228  1
  Bi  Bi30  1  0.066339  0.994719  0.173411  1
  Sb  Sb31  1  0.405479  0.749319  0.959954  1
