# generated using pymatgen
data_Er4TmLuGa10
_symmetry_space_group_name_H-M   'P 1'
_cell_length_a   6.04532200
_cell_length_b   9.56777600
_cell_length_c   11.43026700
_cell_angle_alpha   90.00000000
_cell_angle_beta   90.00000000
_cell_angle_gamma   90.00000000
_symmetry_Int_Tables_number   1
_chemical_formula_structural   Er4TmLuGa10
_chemical_formula_sum   'Er8 Tm2 Lu2 Ga20'
_cell_volume   661.12992084
_cell_formula_units_Z   2
loop_
 _symmetry_equiv_pos_site_id
 _symmetry_equiv_pos_as_xyz
  1  'x, y, z'
loop_
 _atom_site_type_symbol
 _atom_site_label
 _atom_site_symmetry_multiplicity
 _atom_site_fract_x
 _atom_site_fract_y
 _atom_site_fract_z
 _atom_site_occupancy
  Er  Er0  1  0.890681  0.509990  0.351863  1
  Er  Er1  1  0.609319  0.990010  0.851863  1
  Er  Er2  1  0.108954  0.009647  0.648292  1
  Er  Er3  1  0.391046  0.490353  0.148292  1
  Er  Er4  1  0.108954  0.490353  0.648292  1
  Er  Er5  1  0.391046  0.009647  0.148292  1
  Er  Er6  1  0.890681  0.990010  0.351863  1
  Er  Er7  1  0.609319  0.509990  0.851863  1
  Tm  Tm8  1  0.151393  0.250000  0.926139  1
  Tm  Tm9  1  0.348607  0.250000  0.426139  1
  Lu  Lu10  1  0.848193  0.750000  0.073971  1
  Lu  Lu11  1  0.651807  0.750000  0.573971  1
  Ga  Ga12  1  0.874995  0.052086  0.090538  1
  Ga  Ga13  1  0.625005  0.447914  0.590538  1
  Ga  Ga14  1  0.125072  0.552593  0.909438  1
  Ga  Ga15  1  0.374928  0.947407  0.409438  1
  Ga  Ga16  1  0.125072  0.947407  0.909438  1
  Ga  Ga17  1  0.374928  0.552593  0.409438  1
  Ga  Ga18  1  0.874995  0.447914  0.090538  1
  Ga  Ga19  1  0.625005  0.052086  0.590538  1
  Ga  Ga20  1  0.171809  0.750000  0.251072  1
  Ga  Ga21  1  0.328191  0.750000  0.751072  1
  Ga  Ga22  1  0.827458  0.250000  0.748757  1
  Ga  Ga23  1  0.672542  0.250000  0.248757  1
  Ga  Ga24  1  0.374406  0.750000  0.005580  1
  Ga  Ga25  1  0.125594  0.750000  0.505580  1
  Ga  Ga26  1  0.626347  0.250000  0.994454  1
  Ga  Ga27  1  0.873653  0.250000  0.494454  1
  Ga  Ga28  1  0.604782  0.750000  0.298589  1
  Ga  Ga29  1  0.895218  0.750000  0.798589  1
  Ga  Ga30  1  0.395389  0.250000  0.701176  1
  Ga  Ga31  1  0.104611  0.250000  0.201176  1
