# generated using pymatgen
data_Ce2HoTm2Ir3
_symmetry_space_group_name_H-M   'P 1'
_cell_length_a   10.95928600
_cell_length_b   10.95319600
_cell_length_c   6.28681700
_cell_angle_alpha   90.00000000
_cell_angle_beta   90.00000000
_cell_angle_gamma   90.00000000
_symmetry_Int_Tables_number   1
_chemical_formula_structural   Ce2HoTm2Ir3
_chemical_formula_sum   'Ce8 Ho4 Tm8 Ir12'
_cell_volume   754.66453087
_cell_formula_units_Z   4
loop_
 _symmetry_equiv_pos_site_id
 _symmetry_equiv_pos_as_xyz
  1  'x, y, z'
loop_
 _atom_site_type_symbol
 _atom_site_label
 _atom_site_symmetry_multiplicity
 _atom_site_fract_x
 _atom_site_fract_y
 _atom_site_fract_z
 _atom_site_occupancy
  Ce  Ce0  1  0.592237  0.790660  0.882583  1
  Ce  Ce1  1  0.592237  0.209340  0.382583  1
  Ce  Ce2  1  0.407763  0.790660  0.382583  1
  Ce  Ce3  1  0.407763  0.209340  0.882583  1
  Ce  Ce4  1  0.206385  0.409810  0.617168  1
  Ce  Ce5  1  0.206385  0.590190  0.117168  1
  Ce  Ce6  1  0.793615  0.409810  0.117168  1
  Ce  Ce7  1  0.793615  0.590190  0.617168  1
  Ho  Ho8  1  0.288522  0.087941  0.377019  1
  Ho  Ho9  1  0.288522  0.912059  0.877019  1
  Ho  Ho10  1  0.711478  0.087941  0.877019  1
  Ho  Ho11  1  0.711478  0.912059  0.377019  1
  Tm  Tm12  1  0.914166  0.712847  0.120059  1
  Tm  Tm13  1  0.914166  0.287153  0.620059  1
  Tm  Tm14  1  0.085834  0.712847  0.620059  1
  Tm  Tm15  1  0.085834  0.287153  0.120059  1
  Tm  Tm16  1  0.000000  0.000000  0.497545  1
  Tm  Tm17  1  0.000000  0.000000  0.997545  1
  Tm  Tm18  1  0.500000  0.500000  0.005600  1
  Tm  Tm19  1  0.500000  0.500000  0.505600  1
  Ir  Ir20  1  0.848806  0.152431  0.248789  1
  Ir  Ir21  1  0.848806  0.847569  0.748789  1
  Ir  Ir22  1  0.151194  0.152431  0.748789  1
  Ir  Ir23  1  0.151194  0.847569  0.248789  1
  Ir  Ir24  1  0.655838  0.345194  0.752845  1
  Ir  Ir25  1  0.655838  0.654806  0.252845  1
  Ir  Ir26  1  0.344162  0.345194  0.252845  1
  Ir  Ir27  1  0.344162  0.654806  0.752845  1
  Ir  Ir28  1  0.500000  0.000000  0.119416  1
  Ir  Ir29  1  0.500000  0.000000  0.619416  1
  Ir  Ir30  1  0.000000  0.500000  0.880511  1
  Ir  Ir31  1  0.000000  0.500000  0.380511  1
