# generated using pymatgen
data_NaCaPuSe3
_symmetry_space_group_name_H-M   'P 1'
_cell_length_a   7.48925673
_cell_length_b   7.48925725
_cell_length_c   7.39364700
_cell_angle_alpha   80.69929910
_cell_angle_beta   80.69929846
_cell_angle_gamma   120.59501068
_symmetry_Int_Tables_number   1
_chemical_formula_structural   NaCaPuSe3
_chemical_formula_sum   'Na2 Ca2 Pu2 Se6'
_cell_volume   337.44763031
_cell_formula_units_Z   2
loop_
 _symmetry_equiv_pos_site_id
 _symmetry_equiv_pos_as_xyz
  1  'x, y, z'
loop_
 _atom_site_type_symbol
 _atom_site_label
 _atom_site_symmetry_multiplicity
 _atom_site_fract_x
 _atom_site_fract_y
 _atom_site_fract_z
 _atom_site_occupancy
  Na  Na0  1  0.000000  0.000000  0.000000  1
  Na  Na1  1  0.500000  0.500000  0.500000  1
  Ca  Ca2  1  0.836928  0.163072  0.500000  1
  Ca  Ca3  1  0.163072  0.836928  0.500000  1
  Pu  Pu4  1  0.335364  0.664636  0.000000  1
  Pu  Pu5  1  0.664636  0.335364  0.000000  1
  Se  Se6  1  0.568116  0.928238  0.242352  1
  Se  Se7  1  0.740390  0.740390  0.755057  1
  Se  Se8  1  0.431884  0.071762  0.757648  1
  Se  Se9  1  0.071762  0.431884  0.757648  1
  Se  Se10  1  0.928238  0.568116  0.242352  1
  Se  Se11  1  0.259610  0.259610  0.244943  1
