# generated using pymatgen
data_CaNd3(Ga12Pd)2
_symmetry_space_group_name_H-M   'P 1'
_cell_length_a   6.20812328
_cell_length_b   6.20812328
_cell_length_c   15.45295600
_cell_angle_alpha   90.00000000
_cell_angle_beta   90.00000000
_cell_angle_gamma   89.64805456
_symmetry_Int_Tables_number   1
_chemical_formula_structural   CaNd3(Ga12Pd)2
_chemical_formula_sum   'Ca1 Nd3 Ga24 Pd2'
_cell_volume   595.55796828
_cell_formula_units_Z   1
loop_
 _symmetry_equiv_pos_site_id
 _symmetry_equiv_pos_as_xyz
  1  'x, y, z'
loop_
 _atom_site_type_symbol
 _atom_site_label
 _atom_site_symmetry_multiplicity
 _atom_site_fract_x
 _atom_site_fract_y
 _atom_site_fract_z
 _atom_site_occupancy
  Ca  Ca0  1  0.750000  0.250000  0.246690  1
  Nd  Nd1  1  0.250000  0.750000  0.242247  1
  Nd  Nd2  1  0.250000  0.750000  0.756344  1
  Nd  Nd3  1  0.750000  0.250000  0.756904  1
  Ga  Ga4  1  0.250000  0.250000  0.185698  1
  Ga  Ga5  1  0.750000  0.750000  0.185698  1
  Ga  Ga6  1  0.750000  0.750000  0.813346  1
  Ga  Ga7  1  0.250000  0.250000  0.813346  1
  Ga  Ga8  1  0.250000  0.250000  0.346258  1
  Ga  Ga9  1  0.750000  0.750000  0.346258  1
  Ga  Ga10  1  0.750000  0.750000  0.653248  1
  Ga  Ga11  1  0.250000  0.250000  0.653248  1
  Ga  Ga12  1  0.499051  0.999051  0.911880  1
  Ga  Ga13  1  0.000722  0.999278  0.910683  1
  Ga  Ga14  1  0.499278  0.500722  0.910683  1
  Ga  Ga15  1  0.000949  0.500949  0.911880  1
  Ga  Ga16  1  0.501647  0.001647  0.088300  1
  Ga  Ga17  1  0.998506  0.001494  0.089243  1
  Ga  Ga18  1  0.501494  0.498506  0.089243  1
  Ga  Ga19  1  0.998353  0.498353  0.088300  1
  Ga  Ga20  1  0.580286  0.080286  0.431891  1
  Ga  Ga21  1  0.079744  0.920256  0.431309  1
  Ga  Ga22  1  0.420256  0.579744  0.431309  1
  Ga  Ga23  1  0.919714  0.419714  0.431891  1
  Ga  Ga24  1  0.415021  0.915021  0.569113  1
  Ga  Ga25  1  0.916309  0.083691  0.569167  1
  Ga  Ga26  1  0.583691  0.416309  0.569167  1
  Ga  Ga27  1  0.084979  0.584979  0.569113  1
  Pd  Pd28  1  0.750000  0.250000  0.998015  1
  Pd  Pd29  1  0.250000  0.750000  0.999527  1
