# generated using pymatgen
data_Mn2Se3ClO12
_symmetry_space_group_name_H-M   'P 1'
_cell_length_a   5.23398047
_cell_length_b   7.05512739
_cell_length_c   7.50743764
_cell_angle_alpha   88.47845980
_cell_angle_beta   92.81556759
_cell_angle_gamma   92.74146884
_symmetry_Int_Tables_number   1
_chemical_formula_structural   Mn2Se3ClO12
_chemical_formula_sum   'Mn2 Se3 Cl1 O12'
_cell_volume   276.48968723
_cell_formula_units_Z   1
loop_
 _symmetry_equiv_pos_site_id
 _symmetry_equiv_pos_as_xyz
  1  'x, y, z'
loop_
 _atom_site_type_symbol
 _atom_site_label
 _atom_site_symmetry_multiplicity
 _atom_site_fract_x
 _atom_site_fract_y
 _atom_site_fract_z
 _atom_site_occupancy
  Mn  Mn0  1  0.503998  0.495198  0.506327  1
  Mn  Mn1  1  0.009011  0.985507  0.999338  1
  Se  Se2  1  0.988857  0.671644  0.304786  1
  Se  Se3  1  0.015969  0.326874  0.696593  1
  Se  Se4  1  0.492838  0.809693  0.794244  1
  Cl  Cl5  1  0.503823  0.217618  0.183057  1
  O  O6  1  0.562544  0.570797  0.743608  1
  O  O7  1  0.941424  0.095020  0.762776  1
  O  O8  1  0.433869  0.414491  0.245755  1
  O  O9  1  0.061701  0.906116  0.246337  1
  O  O10  1  0.220107  0.766138  0.901873  1
  O  O11  1  0.286326  0.280328  0.580721  1
  O  O12  1  0.210891  0.653600  0.488122  1
  O  O13  1  0.308464  0.185364  0.025534  1
  O  O14  1  0.792048  0.336643  0.513950  1
  O  O15  1  0.699081  0.829632  0.985024  1
  O  O16  1  0.714068  0.709324  0.418364  1
  O  O17  1  0.754982  0.246013  0.103592  1
