# generated using pymatgen
data_TbHo7TaTi11Si16
_symmetry_space_group_name_H-M   'P 1'
_cell_length_a   7.03184438
_cell_length_b   7.03226285
_cell_length_c   12.94158245
_cell_angle_alpha   89.97422061
_cell_angle_beta   90.01281271
_cell_angle_gamma   90.01667382
_symmetry_Int_Tables_number   1
_chemical_formula_structural   TbHo7TaTi11Si16
_chemical_formula_sum   'Tb1 Ho7 Ta1 Ti11 Si16'
_cell_volume   639.95827127
_cell_formula_units_Z   1
loop_
 _symmetry_equiv_pos_site_id
 _symmetry_equiv_pos_as_xyz
  1  'x, y, z'
loop_
 _atom_site_type_symbol
 _atom_site_label
 _atom_site_symmetry_multiplicity
 _atom_site_fract_x
 _atom_site_fract_y
 _atom_site_fract_z
 _atom_site_occupancy
  Tb  Tb0  1  0.997135  0.660064  0.033261  1
  Ho  Ho1  1  0.339867  0.002463  0.466599  1
  Ho  Ho2  1  0.497321  0.839757  0.716682  1
  Ho  Ho3  1  0.502228  0.159373  0.216500  1
  Ho  Ho4  1  0.839798  0.497293  0.283352  1
  Ho  Ho5  1  0.159567  0.502258  0.783490  1
  Ho  Ho6  1  0.659502  0.997909  0.966770  1
  Ho  Ho7  1  0.002529  0.339835  0.533221  1
  Ta  Ta8  1  0.327228  0.326802  0.000009  1
  Ti  Ti9  1  0.173309  0.827149  0.250108  1
  Ti  Ti10  1  0.827002  0.173285  0.749965  1
  Ti  Ti11  1  0.672745  0.672801  0.499949  1
  Ti  Ti12  1  0.154125  0.008649  0.876572  1
  Ti  Ti13  1  0.491510  0.652031  0.125709  1
  Ti  Ti14  1  0.507969  0.348104  0.626305  1
  Ti  Ti15  1  0.651932  0.491406  0.874329  1
  Ti  Ti16  1  0.348136  0.508091  0.373693  1
  Ti  Ti17  1  0.847218  0.992281  0.376341  1
  Ti  Ti18  1  0.008691  0.154150  0.123446  1
  Ti  Ti19  1  0.992241  0.847212  0.623608  1
  Si  Si20  1  0.202215  0.129855  0.684429  1
  Si  Si21  1  0.370615  0.702405  0.934363  1
  Si  Si22  1  0.629877  0.297650  0.434655  1
  Si  Si23  1  0.701969  0.369546  0.065514  1
  Si  Si24  1  0.297721  0.629876  0.565285  1
  Si  Si25  1  0.797202  0.870490  0.185070  1
  Si  Si26  1  0.129835  0.201999  0.315559  1
  Si  Si27  1  0.869972  0.797574  0.815136  1
  Si  Si28  1  0.291915  0.953703  0.065083  1
  Si  Si29  1  0.546663  0.791808  0.315022  1
  Si  Si30  1  0.453997  0.207621  0.814137  1
  Si  Si31  1  0.791744  0.546803  0.684968  1
  Si  Si32  1  0.207920  0.453646  0.186130  1
  Si  Si33  1  0.708765  0.046345  0.564707  1
  Si  Si34  1  0.953185  0.290930  0.934891  1
  Si  Si35  1  0.046348  0.708835  0.435141  1
