# generated using pymatgen
data_Ni2HgBrO4
_symmetry_space_group_name_H-M   'P 1'
_cell_length_a   5.48689188
_cell_length_b   6.34695658
_cell_length_c   7.06818046
_cell_angle_alpha   63.32157926
_cell_angle_beta   105.10791027
_cell_angle_gamma   90.00601816
_symmetry_Int_Tables_number   1
_chemical_formula_structural   Ni2HgBrO4
_chemical_formula_sum   'Ni4 Hg2 Br2 O8'
_cell_volume   210.38356877
_cell_formula_units_Z   2
loop_
 _symmetry_equiv_pos_site_id
 _symmetry_equiv_pos_as_xyz
  1  'x, y, z'
loop_
 _atom_site_type_symbol
 _atom_site_label
 _atom_site_symmetry_multiplicity
 _atom_site_fract_x
 _atom_site_fract_y
 _atom_site_fract_z
 _atom_site_occupancy
  Ni  Ni0  1  0.499441  0.751476  0.498661  1
  Ni  Ni1  1  0.999464  0.000685  0.497974  1
  Ni  Ni2  1  0.500524  0.249312  0.502021  1
  Ni  Ni3  1  0.000548  0.498548  0.501324  1
  Hg  Hg4  1  0.999991  0.497808  0.999844  1
  Hg  Hg5  1  0.500016  0.752189  0.000160  1
  Br  Br6  1  0.000003  0.995035  0.999869  1
  Br  Br7  1  0.499991  0.254977  0.000104  1
  O  O8  1  0.111442  0.831448  0.333695  1
  O  O9  1  0.611330  0.084518  0.333776  1
  O  O10  1  0.113788  0.331169  0.337938  1
  O  O11  1  0.613853  0.580620  0.338249  1
  O  O12  1  0.886150  0.669374  0.661756  1
  O  O13  1  0.386215  0.918827  0.662066  1
  O  O14  1  0.888681  0.165473  0.666240  1
  O  O15  1  0.388564  0.418539  0.666322  1
