# generated using pymatgen
data_Tb2NdSm(SbAu)4
_symmetry_space_group_name_H-M   'P 1'
_cell_length_a   4.61687500
_cell_length_b   4.61687435
_cell_length_c   16.47441200
_cell_angle_alpha   90.00000000
_cell_angle_beta   90.00000000
_cell_angle_gamma   120.00001180
_symmetry_Int_Tables_number   1
_chemical_formula_structural   Tb2NdSm(SbAu)4
_chemical_formula_sum   'Tb2 Nd1 Sm1 Sb4 Au4'
_cell_volume   304.11418291
_cell_formula_units_Z   1
loop_
 _symmetry_equiv_pos_site_id
 _symmetry_equiv_pos_as_xyz
  1  'x, y, z'
loop_
 _atom_site_type_symbol
 _atom_site_label
 _atom_site_symmetry_multiplicity
 _atom_site_fract_x
 _atom_site_fract_y
 _atom_site_fract_z
 _atom_site_occupancy
  Tb  Tb0  1  0.000000  0.000000  0.251259  1
  Tb  Tb1  1  0.000000  0.000000  0.748741  1
  Nd  Nd2  1  0.000000  0.000000  0.000000  1
  Sm  Sm3  1  0.000000  0.000000  0.500000  1
  Sb  Sb4  1  0.333333  0.666667  0.390360  1
  Sb  Sb5  1  0.666667  0.333333  0.609640  1
  Sb  Sb6  1  0.666667  0.333333  0.887553  1
  Sb  Sb7  1  0.333333  0.666667  0.112447  1
  Au  Au8  1  0.666667  0.333333  0.339026  1
  Au  Au9  1  0.333333  0.666667  0.660974  1
  Au  Au10  1  0.333333  0.666667  0.836018  1
  Au  Au11  1  0.666667  0.333333  0.163982  1
