# generated using pymatgen
data_CaSm2Pt9
_symmetry_space_group_name_H-M   'P 1'
_cell_length_a   9.44057281
_cell_length_b   9.44057219
_cell_length_c   9.44057200
_cell_angle_alpha   33.37723211
_cell_angle_beta   33.37723782
_cell_angle_gamma   33.37723417
_symmetry_Int_Tables_number   1
_chemical_formula_structural   CaSm2Pt9
_chemical_formula_sum   'Ca1 Sm2 Pt9'
_cell_volume   226.76198327
_cell_formula_units_Z   1
loop_
 _symmetry_equiv_pos_site_id
 _symmetry_equiv_pos_as_xyz
  1  'x, y, z'
loop_
 _atom_site_type_symbol
 _atom_site_label
 _atom_site_symmetry_multiplicity
 _atom_site_fract_x
 _atom_site_fract_y
 _atom_site_fract_z
 _atom_site_occupancy
  Ca  Ca0  1  0.860196  0.860196  0.860196  1
  Sm  Sm1  1  0.996855  0.996855  0.996855  1
  Sm  Sm2  1  0.141540  0.141540  0.141540  1
  Pt  Pt3  1  0.586378  0.586378  0.081552  1
  Pt  Pt4  1  0.333005  0.333005  0.333005  1
  Pt  Pt5  1  0.918493  0.413969  0.413970  1
  Pt  Pt6  1  0.413969  0.918493  0.413970  1
  Pt  Pt7  1  0.500358  0.500358  0.500358  1
  Pt  Pt8  1  0.586379  0.081551  0.586378  1
  Pt  Pt9  1  0.081551  0.586379  0.586378  1
  Pt  Pt10  1  0.667303  0.667303  0.667303  1
  Pt  Pt11  1  0.413970  0.413970  0.918493  1
