# generated using pymatgen
data_Er6Lu4Si5Ge
_symmetry_space_group_name_H-M   'P 1'
_cell_length_a   8.33245500
_cell_length_b   8.33355538
_cell_length_c   6.22324400
_cell_angle_alpha   90.00000000
_cell_angle_beta   90.00000000
_cell_angle_gamma   119.99563614
_symmetry_Int_Tables_number   1
_chemical_formula_structural   Er6Lu4Si5Ge
_chemical_formula_sum   'Er6 Lu4 Si5 Ge1'
_cell_volume   374.25693722
_cell_formula_units_Z   1
loop_
 _symmetry_equiv_pos_site_id
 _symmetry_equiv_pos_as_xyz
  1  'x, y, z'
loop_
 _atom_site_type_symbol
 _atom_site_label
 _atom_site_symmetry_multiplicity
 _atom_site_fract_x
 _atom_site_fract_y
 _atom_site_fract_z
 _atom_site_occupancy
  Er  Er0  1  0.758327  0.000000  0.750000  1
  Er  Er1  1  0.757300  0.757218  0.250000  1
  Er  Er2  1  0.000082  0.242782  0.250000  1
  Er  Er3  1  0.998518  0.756202  0.750000  1
  Er  Er4  1  0.242316  0.243798  0.750000  1
  Er  Er5  1  0.242315  0.000000  0.250000  1
  Lu  Lu6  1  0.667530  0.334357  0.000874  1
  Lu  Lu7  1  0.333171  0.665643  0.499126  1
  Lu  Lu8  1  0.333171  0.665643  0.000874  1
  Lu  Lu9  1  0.667530  0.334357  0.499126  1
  Si  Si10  1  0.395266  0.395143  0.250000  1
  Si  Si11  1  0.000123  0.604857  0.250000  1
  Si  Si12  1  0.999952  0.395264  0.750000  1
  Si  Si13  1  0.604688  0.604736  0.750000  1
  Si  Si14  1  0.604626  0.000000  0.250000  1
  Ge  Ge15  1  0.395084  0.000000  0.750000  1
