# generated using pymatgen
data_Nd5Y3(HoBi)12
_symmetry_space_group_name_H-M   'P 1'
_cell_length_a   8.32905122
_cell_length_b   9.53596200
_cell_length_c   12.20871032
_cell_angle_alpha   90.00000000
_cell_angle_beta   89.97376661
_cell_angle_gamma   90.00000000
_symmetry_Int_Tables_number   1
_chemical_formula_structural   Nd5Y3(HoBi)12
_chemical_formula_sum   'Nd5 Y3 Ho12 Bi12'
_cell_volume   969.68301416
_cell_formula_units_Z   1
loop_
 _symmetry_equiv_pos_site_id
 _symmetry_equiv_pos_as_xyz
  1  'x, y, z'
loop_
 _atom_site_type_symbol
 _atom_site_label
 _atom_site_symmetry_multiplicity
 _atom_site_fract_x
 _atom_site_fract_y
 _atom_site_fract_z
 _atom_site_occupancy
  Nd  Nd0  1  0.183966  0.750000  0.719894  1
  Nd  Nd1  1  0.685080  0.750000  0.778780  1
  Nd  Nd2  1  0.816674  0.250000  0.279771  1
  Nd  Nd3  1  0.315907  0.250000  0.220396  1
  Nd  Nd4  1  0.353127  0.750000  0.216220  1
  Y  Y5  1  0.852448  0.750000  0.283583  1
  Y  Y6  1  0.647217  0.250000  0.783571  1
  Y  Y7  1  0.146639  0.250000  0.716622  1
  Ho  Ho8  1  0.025028  0.750000  0.988214  1
  Ho  Ho9  1  0.525516  0.750000  0.512794  1
  Ho  Ho10  1  0.974663  0.250000  0.011090  1
  Ho  Ho11  1  0.475250  0.250000  0.489078  1
  Ho  Ho12  1  0.307101  0.435959  0.939917  1
  Ho  Ho13  1  0.807223  0.064311  0.560158  1
  Ho  Ho14  1  0.692652  0.935801  0.059409  1
  Ho  Ho15  1  0.192650  0.563897  0.441009  1
  Ho  Ho16  1  0.692652  0.564199  0.059409  1
  Ho  Ho17  1  0.192650  0.936103  0.441009  1
  Ho  Ho18  1  0.307101  0.064041  0.939917  1
  Ho  Ho19  1  0.807223  0.435689  0.560158  1
  Bi  Bi20  1  0.434391  0.007971  0.671474  1
  Bi  Bi21  1  0.934289  0.492244  0.828396  1
  Bi  Bi22  1  0.567843  0.505558  0.330658  1
  Bi  Bi23  1  0.063147  0.993643  0.171139  1
  Bi  Bi24  1  0.567843  0.994442  0.330658  1
  Bi  Bi25  1  0.063147  0.506357  0.171139  1
  Bi  Bi26  1  0.434391  0.492029  0.671474  1
  Bi  Bi27  1  0.934289  0.007756  0.828396  1
  Bi  Bi28  1  0.407342  0.750000  0.957737  1
  Bi  Bi29  1  0.906988  0.750000  0.537824  1
  Bi  Bi30  1  0.592584  0.250000  0.037908  1
  Bi  Bi31  1  0.092979  0.250000  0.462198  1
