# generated using pymatgen
data_Zn3CrH8
_symmetry_space_group_name_H-M   'P 1'
_cell_length_a   6.60404673
_cell_length_b   5.00203002
_cell_length_c   4.96951133
_cell_angle_alpha   95.95045341
_cell_angle_beta   47.68782439
_cell_angle_gamma   95.84989609
_symmetry_Int_Tables_number   1
_chemical_formula_structural   Zn3CrH8
_chemical_formula_sum   'Zn3 Cr1 H8'
_cell_volume   120.62574160
_cell_formula_units_Z   1
loop_
 _symmetry_equiv_pos_site_id
 _symmetry_equiv_pos_as_xyz
  1  'x, y, z'
loop_
 _atom_site_type_symbol
 _atom_site_label
 _atom_site_symmetry_multiplicity
 _atom_site_fract_x
 _atom_site_fract_y
 _atom_site_fract_z
 _atom_site_occupancy
  Zn  Zn0  1  0.125451  0.228799  0.332012  1
  Zn  Zn1  1  0.580475  0.211061  0.315849  1
  Zn  Zn2  1  0.631693  0.789310  0.843772  1
  Cr  Cr3  1  0.619711  0.272235  0.793931  1
  H  H4  1  0.443267  0.502708  0.147772  1
  H  H5  1  0.401478  0.022939  0.873337  1
  H  H6  1  0.082485  0.781547  0.823340  1
  H  H7  1  0.065575  0.689641  0.948237  1
  H  H8  1  0.433833  0.413498  0.735685  1
  H  H9  1  0.834420  0.515667  0.506023  1
  H  H10  1  0.851741  0.323071  0.836718  1
  H  H11  1  0.813819  0.102088  0.385911  1
