# generated using pymatgen
data_Ac5YbSn10
_symmetry_space_group_name_H-M   'P 1'
_cell_length_a   6.87000726
_cell_length_b   6.87000714
_cell_length_c   10.83975500
_cell_angle_alpha   90.00000000
_cell_angle_beta   90.00000000
_cell_angle_gamma   101.10379455
_symmetry_Int_Tables_number   1
_chemical_formula_structural   Ac5YbSn10
_chemical_formula_sum   'Ac5 Yb1 Sn10'
_cell_volume   502.02663505
_cell_formula_units_Z   1
loop_
 _symmetry_equiv_pos_site_id
 _symmetry_equiv_pos_as_xyz
  1  'x, y, z'
loop_
 _atom_site_type_symbol
 _atom_site_label
 _atom_site_symmetry_multiplicity
 _atom_site_fract_x
 _atom_site_fract_y
 _atom_site_fract_z
 _atom_site_occupancy
  Ac  Ac0  1  0.127218  0.127218  0.250000  1
  Ac  Ac1  1  0.293454  0.704054  0.500569  1
  Ac  Ac2  1  0.293454  0.704054  0.999431  1
  Ac  Ac3  1  0.704054  0.293454  0.500569  1
  Ac  Ac4  1  0.704054  0.293454  0.999431  1
  Yb  Yb5  1  0.875795  0.875795  0.750000  1
  Sn  Sn6  1  0.984863  0.581739  0.250000  1
  Sn  Sn7  1  0.430498  0.009992  0.750000  1
  Sn  Sn8  1  0.009992  0.430498  0.750000  1
  Sn  Sn9  1  0.581739  0.984863  0.250000  1
  Sn  Sn10  1  0.806651  0.806651  0.039380  1
  Sn  Sn11  1  0.188158  0.188158  0.947319  1
  Sn  Sn12  1  0.806651  0.806651  0.460620  1
  Sn  Sn13  1  0.188158  0.188158  0.552681  1
  Sn  Sn14  1  0.526555  0.526555  0.250000  1
  Sn  Sn15  1  0.478708  0.478708  0.750000  1
