# generated using pymatgen
data_Dy2Ni2B2CN
_symmetry_space_group_name_H-M   'P 1'
_cell_length_a   3.54136400
_cell_length_b   3.54136400
_cell_length_c   7.51685100
_cell_angle_alpha   90.00000000
_cell_angle_beta   90.00000000
_cell_angle_gamma   90.00000000
_symmetry_Int_Tables_number   1
_chemical_formula_structural   Dy2Ni2B2CN
_chemical_formula_sum   'Dy2 Ni2 B2 C1 N1'
_cell_volume   94.27077511
_cell_formula_units_Z   1
loop_
 _symmetry_equiv_pos_site_id
 _symmetry_equiv_pos_as_xyz
  1  'x, y, z'
loop_
 _atom_site_type_symbol
 _atom_site_label
 _atom_site_symmetry_multiplicity
 _atom_site_fract_x
 _atom_site_fract_y
 _atom_site_fract_z
 _atom_site_occupancy
  Dy  Dy0  1  0.499999  0.000000  0.161876  1
  Dy  Dy1  1  0.000000  0.499999  0.831522  1
  Ni  Ni2  1  0.000000  0.000000  0.502628  1
  Ni  Ni3  1  0.499999  0.499999  0.502628  1
  B  B4  1  0.000000  0.499999  0.349145  1
  B  B5  1  0.499999  0.000000  0.654531  1
  C  C6  1  0.000000  0.499999  0.149806  1
  N  N7  1  0.499999  0.000000  0.847866  1
