# generated using pymatgen
data_GdTh(ZnRh)2
_symmetry_space_group_name_H-M   'P 1'
_cell_length_a   3.95295900
_cell_length_b   7.10407868
_cell_length_c   8.38229900
_cell_angle_alpha   90.20091248
_cell_angle_beta   90.00000000
_cell_angle_gamma   90.00000000
_symmetry_Int_Tables_number   1
_chemical_formula_structural   GdTh(ZnRh)2
_chemical_formula_sum   'Gd2 Th2 Zn4 Rh4'
_cell_volume   235.39137759
_cell_formula_units_Z   2
loop_
 _symmetry_equiv_pos_site_id
 _symmetry_equiv_pos_as_xyz
  1  'x, y, z'
loop_
 _atom_site_type_symbol
 _atom_site_label
 _atom_site_symmetry_multiplicity
 _atom_site_fract_x
 _atom_site_fract_y
 _atom_site_fract_z
 _atom_site_occupancy
  Gd  Gd0  1  0.750000  0.950700  0.684439  1
  Gd  Gd1  1  0.250000  0.049300  0.315561  1
  Th  Th2  1  0.250000  0.547946  0.190834  1
  Th  Th3  1  0.750000  0.452054  0.809166  1
  Zn  Zn4  1  0.250000  0.639541  0.559190  1
  Zn  Zn5  1  0.750000  0.360459  0.440810  1
  Zn  Zn6  1  0.750000  0.882154  0.060987  1
  Zn  Zn7  1  0.250000  0.117846  0.939013  1
  Rh  Rh8  1  0.250000  0.735626  0.878252  1
  Rh  Rh9  1  0.750000  0.264374  0.121748  1
  Rh  Rh10  1  0.750000  0.748719  0.367370  1
  Rh  Rh11  1  0.250000  0.251281  0.632630  1
