# generated using pymatgen
data_Sm5P4Pt15
_symmetry_space_group_name_H-M   'P 1'
_cell_length_a   4.09851700
_cell_length_b   4.09851700
_cell_length_c   25.98099300
_cell_angle_alpha   90.00000000
_cell_angle_beta   90.00000000
_cell_angle_gamma   90.00000000
_symmetry_Int_Tables_number   1
_chemical_formula_structural   Sm5P4Pt15
_chemical_formula_sum   'Sm5 P4 Pt15'
_cell_volume   436.42460501
_cell_formula_units_Z   1
loop_
 _symmetry_equiv_pos_site_id
 _symmetry_equiv_pos_as_xyz
  1  'x, y, z'
loop_
 _atom_site_type_symbol
 _atom_site_label
 _atom_site_symmetry_multiplicity
 _atom_site_fract_x
 _atom_site_fract_y
 _atom_site_fract_z
 _atom_site_occupancy
  Sm  Sm0  1  0.000000  0.000000  0.900477  1
  Sm  Sm1  1  0.000000  0.000000  0.099523  1
  Sm  Sm2  1  0.000000  0.000000  0.310091  1
  Sm  Sm3  1  0.000000  0.000000  0.500000  1
  Sm  Sm4  1  0.000000  0.000000  0.689909  1
  P  P5  1  0.500000  0.500000  0.156507  1
  P  P6  1  0.500000  0.500000  0.366293  1
  P  P7  1  0.500000  0.500000  0.633707  1
  P  P8  1  0.500000  0.500000  0.843493  1
  Pt  Pt9  1  0.500000  0.500000  0.929535  1
  Pt  Pt10  1  0.500000  0.500000  0.070465  1
  Pt  Pt11  1  0.500000  0.500000  0.278900  1
  Pt  Pt12  1  0.500000  0.500000  0.500000  1
  Pt  Pt13  1  0.500000  0.500000  0.721100  1
  Pt  Pt14  1  0.500000  0.000000  0.000000  1
  Pt  Pt15  1  0.500000  0.000000  0.203564  1
  Pt  Pt16  1  0.500000  0.000000  0.413893  1
  Pt  Pt17  1  0.500000  0.000000  0.586107  1
  Pt  Pt18  1  0.500000  0.000000  0.796436  1
  Pt  Pt19  1  0.000000  0.500000  0.000000  1
  Pt  Pt20  1  0.000000  0.500000  0.203564  1
  Pt  Pt21  1  0.000000  0.500000  0.413893  1
  Pt  Pt22  1  0.000000  0.500000  0.586107  1
  Pt  Pt23  1  0.000000  0.500000  0.796436  1
