# generated using pymatgen
data_Sr2ErOsO6
_symmetry_space_group_name_H-M   'P 1'
_cell_length_a   5.80926239
_cell_length_b   5.85477600
_cell_length_c   10.06738588
_cell_angle_alpha   90.00000000
_cell_angle_beta   125.03274182
_cell_angle_gamma   90.00000000
_symmetry_Int_Tables_number   1
_chemical_formula_structural   Sr2ErOsO6
_chemical_formula_sum   'Sr4 Er2 Os2 O12'
_cell_volume   280.37457567
_cell_formula_units_Z   2
loop_
 _symmetry_equiv_pos_site_id
 _symmetry_equiv_pos_as_xyz
  1  'x, y, z'
loop_
 _atom_site_type_symbol
 _atom_site_label
 _atom_site_symmetry_multiplicity
 _atom_site_fract_x
 _atom_site_fract_y
 _atom_site_fract_z
 _atom_site_occupancy
  Sr  Sr0  1  0.257390  0.034055  0.750855  1
  Sr  Sr1  1  0.257390  0.465945  0.250855  1
  Sr  Sr2  1  0.742610  0.965945  0.249145  1
  Sr  Sr3  1  0.742610  0.534055  0.749145  1
  Er  Er4  1  0.000000  0.500000  0.500000  1
  Er  Er5  1  0.000000  0.000000  0.000000  1
  Os  Os6  1  0.500000  0.000000  0.500000  1
  Os  Os7  1  0.500000  0.500000  0.000000  1
  O  O8  1  0.192467  0.483413  0.764128  1
  O  O9  1  0.192467  0.016587  0.264128  1
  O  O10  1  0.807533  0.516587  0.235872  1
  O  O11  1  0.807533  0.983413  0.735872  1
  O  O12  1  0.735222  0.199910  0.462627  1
  O  O13  1  0.735222  0.300090  0.962627  1
  O  O14  1  0.264778  0.800090  0.537373  1
  O  O15  1  0.264778  0.699910  0.037373  1
  O  O16  1  0.659437  0.725848  0.462201  1
  O  O17  1  0.659437  0.774152  0.962201  1
  O  O18  1  0.340563  0.274152  0.537799  1
  O  O19  1  0.340563  0.225848  0.037799  1
