# generated using pymatgen
data_Er11TmCo5Sb
_symmetry_space_group_name_H-M   'P 1'
_cell_length_a   8.18626234
_cell_length_b   8.18493026
_cell_length_c   8.18319738
_cell_angle_alpha   110.78180952
_cell_angle_beta   110.94166139
_cell_angle_gamma   106.73385931
_symmetry_Int_Tables_number   1
_chemical_formula_structural   Er11TmCo5Sb
_chemical_formula_sum   'Er11 Tm1 Co5 Sb1'
_cell_volume   421.31738698
_cell_formula_units_Z   1
loop_
 _symmetry_equiv_pos_site_id
 _symmetry_equiv_pos_as_xyz
  1  'x, y, z'
loop_
 _atom_site_type_symbol
 _atom_site_label
 _atom_site_symmetry_multiplicity
 _atom_site_fract_x
 _atom_site_fract_y
 _atom_site_fract_z
 _atom_site_occupancy
  Er  Er0  1  0.710920  0.815537  0.526682  1
  Er  Er1  1  0.288760  0.815898  0.104769  1
  Er  Er2  1  0.710804  0.184324  0.895355  1
  Er  Er3  1  0.620790  0.313442  0.307462  1
  Er  Er4  1  0.379069  0.686048  0.692370  1
  Er  Er5  1  0.006399  0.313311  0.692399  1
  Er  Er6  1  0.994133  0.686777  0.307524  1
  Er  Er7  1  0.209610  0.403297  0.193891  1
  Er  Er8  1  0.789966  0.595899  0.805791  1
  Er  Er9  1  0.209846  0.015781  0.805771  1
  Er  Er10  1  0.790678  0.984327  0.193946  1
  Tm  Tm11  1  0.288623  0.184053  0.472484  1
  Co  Co12  1  0.000435  0.372985  0.373358  1
  Co  Co13  1  0.999979  0.627314  0.627286  1
  Co  Co14  1  0.386952  0.887668  0.500255  1
  Co  Co15  1  0.612536  0.113387  0.500247  1
  Co  Co16  1  0.000390  0.999792  0.000163  1
  Sb  Sb17  1  0.500110  0.500161  0.000249  1
