# generated using pymatgen
data_Ce3(ThPb2)2
_symmetry_space_group_name_H-M   'P 1'
_cell_length_a   9.76834300
_cell_length_b   9.76834395
_cell_length_c   6.66398600
_cell_angle_alpha   90.00000000
_cell_angle_beta   90.00000000
_cell_angle_gamma   120.00000017
_symmetry_Int_Tables_number   1
_chemical_formula_structural   Ce3(ThPb2)2
_chemical_formula_sum   'Ce6 Th4 Pb8'
_cell_volume   550.68918925
_cell_formula_units_Z   2
loop_
 _symmetry_equiv_pos_site_id
 _symmetry_equiv_pos_as_xyz
  1  'x, y, z'
loop_
 _atom_site_type_symbol
 _atom_site_label
 _atom_site_symmetry_multiplicity
 _atom_site_fract_x
 _atom_site_fract_y
 _atom_site_fract_z
 _atom_site_occupancy
  Ce  Ce0  1  0.717909  0.717909  0.250000  1
  Ce  Ce1  1  0.282091  0.000000  0.250000  1
  Ce  Ce2  1  0.000000  0.282091  0.250000  1
  Ce  Ce3  1  0.282091  0.282091  0.750000  1
  Ce  Ce4  1  0.717909  0.000000  0.750000  1
  Ce  Ce5  1  0.000000  0.717909  0.750000  1
  Th  Th6  1  0.666667  0.333333  0.500000  1
  Th  Th7  1  0.333333  0.666667  0.500000  1
  Th  Th8  1  0.333333  0.666667  0.000000  1
  Th  Th9  1  0.666667  0.333333  0.000000  1
  Pb  Pb10  1  0.000000  0.000000  0.500000  1
  Pb  Pb11  1  0.000000  0.000000  0.000000  1
  Pb  Pb12  1  0.375652  0.375652  0.250000  1
  Pb  Pb13  1  0.624348  0.000000  0.250000  1
  Pb  Pb14  1  0.000000  0.624348  0.250000  1
  Pb  Pb15  1  0.624348  0.624348  0.750000  1
  Pb  Pb16  1  0.375652  0.000000  0.750000  1
  Pb  Pb17  1  0.000000  0.375652  0.750000  1
