# generated using pymatgen
data_Cr2H3
_symmetry_space_group_name_H-M   'P 1'
_cell_length_a   2.77992872
_cell_length_b   2.78607177
_cell_length_c   5.32291842
_cell_angle_alpha   105.28133813
_cell_angle_beta   105.07640209
_cell_angle_gamma   120.04491166
_symmetry_Int_Tables_number   1
_chemical_formula_structural   Cr2H3
_chemical_formula_sum   'Cr2 H3'
_cell_volume   30.39468961
_cell_formula_units_Z   1
loop_
 _symmetry_equiv_pos_site_id
 _symmetry_equiv_pos_as_xyz
  1  'x, y, z'
loop_
 _atom_site_type_symbol
 _atom_site_label
 _atom_site_symmetry_multiplicity
 _atom_site_fract_x
 _atom_site_fract_y
 _atom_site_fract_z
 _atom_site_occupancy
  Cr  Cr0  1  0.066764  0.129644  0.568734  1
  Cr  Cr1  1  0.953546  0.347208  0.120508  1
  H  H2  1  0.466041  0.525096  0.965150  1
  H  H3  1  0.512035  0.241895  0.346365  1
  H  H4  1  0.554462  0.951401  0.724270  1
