# generated using pymatgen
data_Nd7Y9(ErPt4)4
_symmetry_space_group_name_H-M   'P 1'
_cell_length_a   7.64775315
_cell_length_b   7.75618409
_cell_length_c   14.64470300
_cell_angle_alpha   89.75816010
_cell_angle_beta   90.30470975
_cell_angle_gamma   89.79352618
_symmetry_Int_Tables_number   1
_chemical_formula_structural   Nd7Y9(ErPt4)4
_chemical_formula_sum   'Nd7 Y9 Er4 Pt16'
_cell_volume   868.65969775
_cell_formula_units_Z   1
loop_
 _symmetry_equiv_pos_site_id
 _symmetry_equiv_pos_as_xyz
  1  'x, y, z'
loop_
 _atom_site_type_symbol
 _atom_site_label
 _atom_site_symmetry_multiplicity
 _atom_site_fract_x
 _atom_site_fract_y
 _atom_site_fract_z
 _atom_site_occupancy
  Nd  Nd0  1  0.011628  0.172860  0.598511  1
  Nd  Nd1  1  0.487547  0.671610  0.402250  1
  Nd  Nd2  1  0.984535  0.829508  0.098886  1
  Nd  Nd3  1  0.485994  0.668226  0.096623  1
  Nd  Nd4  1  0.987847  0.827800  0.402084  1
  Nd  Nd5  1  0.512719  0.328700  0.598428  1
  Nd  Nd6  1  0.014471  0.172741  0.902847  1
  Y  Y7  1  0.355557  0.831136  0.877875  1
  Y  Y8  1  0.853090  0.669363  0.623000  1
  Y  Y9  1  0.646301  0.169311  0.377717  1
  Y  Y10  1  0.145247  0.331562  0.122136  1
  Y  Y11  1  0.642076  0.170702  0.120853  1
  Y  Y12  1  0.146265  0.330256  0.378071  1
  Y  Y13  1  0.354477  0.830480  0.622692  1
  Y  Y14  1  0.854492  0.668011  0.878999  1
  Y  Y15  1  0.515048  0.328084  0.899185  1
  Er  Er16  1  0.192727  0.490000  0.750890  1
  Er  Er17  1  0.691977  0.011507  0.750806  1
  Er  Er18  1  0.807753  0.510051  0.249639  1
  Er  Er19  1  0.308238  0.988815  0.249736  1
  Pt  Pt20  1  0.311805  0.028885  0.045183  1
  Pt  Pt21  1  0.815714  0.470678  0.455116  1
  Pt  Pt22  1  0.683703  0.971326  0.545876  1
  Pt  Pt23  1  0.194450  0.523779  0.952924  1
  Pt  Pt24  1  0.683723  0.977048  0.952504  1
  Pt  Pt25  1  0.183378  0.529971  0.545394  1
  Pt  Pt26  1  0.316314  0.028343  0.454425  1
  Pt  Pt27  1  0.813698  0.468245  0.043709  1
  Pt  Pt28  1  0.559233  0.618017  0.751575  1
  Pt  Pt29  1  0.060430  0.880394  0.750359  1
  Pt  Pt30  1  0.440167  0.380244  0.249721  1
  Pt  Pt31  1  0.939485  0.120969  0.249686  1
  Pt  Pt32  1  0.329446  0.138971  0.751541  1
  Pt  Pt33  1  0.827230  0.362522  0.751436  1
  Pt  Pt34  1  0.671843  0.862578  0.249436  1
  Pt  Pt35  1  0.171392  0.637305  0.249884  1
