# generated using pymatgen
data_TbH6Ir
_symmetry_space_group_name_H-M   'P 1'
_cell_length_a   4.67440142
_cell_length_b   4.67440243
_cell_length_c   4.67907960
_cell_angle_alpha   57.19636218
_cell_angle_beta   57.19636410
_cell_angle_gamma   57.20911819
_symmetry_Int_Tables_number   1
_chemical_formula_structural   TbH6Ir
_chemical_formula_sum   'Tb1 H6 Ir1'
_cell_volume   67.63154477
_cell_formula_units_Z   1
loop_
 _symmetry_equiv_pos_site_id
 _symmetry_equiv_pos_as_xyz
  1  'x, y, z'
loop_
 _atom_site_type_symbol
 _atom_site_label
 _atom_site_symmetry_multiplicity
 _atom_site_fract_x
 _atom_site_fract_y
 _atom_site_fract_z
 _atom_site_occupancy
  Tb  Tb0  1  0.500000  0.500000  0.500000  1
  H  H1  1  0.563160  0.099670  0.099870  1
  H  H2  1  0.099670  0.563160  0.099870  1
  H  H3  1  0.900545  0.900545  0.436230  1
  H  H4  1  0.099455  0.099455  0.563769  1
  H  H5  1  0.900330  0.436839  0.900130  1
  H  H6  1  0.436839  0.900330  0.900130  1
  Ir  Ir7  1  0.000000  0.000000  0.000000  1
