# generated using pymatgen
data_NpV3(CoH6)2
_symmetry_space_group_name_H-M   'P 1'
_cell_length_a   5.69210100
_cell_length_b   5.69210119
_cell_length_c   4.23200000
_cell_angle_alpha   90.00000000
_cell_angle_beta   90.00000000
_cell_angle_gamma   120.00000470
_symmetry_Int_Tables_number   1
_chemical_formula_structural   NpV3(CoH6)2
_chemical_formula_sum   'Np1 V3 Co2 H12'
_cell_volume   118.74668103
_cell_formula_units_Z   1
loop_
 _symmetry_equiv_pos_site_id
 _symmetry_equiv_pos_as_xyz
  1  'x, y, z'
loop_
 _atom_site_type_symbol
 _atom_site_label
 _atom_site_symmetry_multiplicity
 _atom_site_fract_x
 _atom_site_fract_y
 _atom_site_fract_z
 _atom_site_occupancy
  Np  Np0  1  0.000000  0.000000  0.000000  1
  V  V1  1  0.500000  0.000000  0.500000  1
  V  V2  1  0.000000  0.500000  0.500000  1
  V  V3  1  0.500000  0.500000  0.500000  1
  Co  Co4  1  0.666667  0.333333  0.000000  1
  Co  Co5  1  0.333333  0.666667  0.000000  1
  H  H6  1  0.798149  0.596298  0.750550  1
  H  H7  1  0.201851  0.403702  0.249450  1
  H  H8  1  0.201851  0.798149  0.249450  1
  H  H9  1  0.798149  0.201851  0.249450  1
  H  H10  1  0.596298  0.798149  0.249450  1
  H  H11  1  0.403702  0.201851  0.249450  1
  H  H12  1  0.403702  0.201851  0.750550  1
  H  H13  1  0.201851  0.403702  0.750550  1
  H  H14  1  0.798149  0.201851  0.750550  1
  H  H15  1  0.596298  0.798149  0.750550  1
  H  H16  1  0.798149  0.596298  0.249450  1
  H  H17  1  0.201851  0.798149  0.750550  1
