# generated using pymatgen
data_Hf17ScTa2(Re3As)2
_symmetry_space_group_name_H-M   'P 1'
_cell_length_a   8.71341019
_cell_length_b   8.70964918
_cell_length_c   8.60708700
_cell_angle_alpha   90.00000000
_cell_angle_beta   90.00000000
_cell_angle_gamma   119.99467444
_symmetry_Int_Tables_number   1
_chemical_formula_structural   Hf17ScTa2(Re3As)2
_chemical_formula_sum   'Hf17 Sc1 Ta2 Re6 As2'
_cell_volume   565.71663493
_cell_formula_units_Z   1
loop_
 _symmetry_equiv_pos_site_id
 _symmetry_equiv_pos_as_xyz
  1  'x, y, z'
loop_
 _atom_site_type_symbol
 _atom_site_label
 _atom_site_symmetry_multiplicity
 _atom_site_fract_x
 _atom_site_fract_y
 _atom_site_fract_z
 _atom_site_occupancy
  Hf  Hf0  1  0.804892  0.609697  0.545844  1
  Hf  Hf1  1  0.804670  0.195158  0.545565  1
  Hf  Hf2  1  0.389984  0.194874  0.545867  1
  Hf  Hf3  1  0.195236  0.390559  0.454326  1
  Hf  Hf4  1  0.195367  0.804860  0.454282  1
  Hf  Hf5  1  0.609989  0.805145  0.453978  1
  Hf  Hf6  1  0.195236  0.390559  0.045674  1
  Hf  Hf7  1  0.195367  0.804860  0.045718  1
  Hf  Hf8  1  0.609989  0.805145  0.046022  1
  Hf  Hf9  1  0.804892  0.609697  0.954156  1
  Hf  Hf10  1  0.804670  0.195158  0.954435  1
  Hf  Hf11  1  0.389984  0.194874  0.954133  1
  Hf  Hf12  1  0.459738  0.540305  0.750000  1
  Hf  Hf13  1  0.080313  0.540039  0.750000  1
  Hf  Hf14  1  0.540399  0.081070  0.250000  1
  Hf  Hf15  1  0.540447  0.459433  0.250000  1
  Hf  Hf16  1  0.919233  0.459702  0.250000  1
  Sc  Sc17  1  0.459430  0.918569  0.750000  1
  Ta  Ta18  1  0.999870  0.999752  0.500646  1
  Ta  Ta19  1  0.999870  0.999752  0.999354  1
  Re  Re20  1  0.111818  0.223892  0.750000  1
  Re  Re21  1  0.111673  0.887680  0.750000  1
  Re  Re22  1  0.776045  0.887796  0.750000  1
  Re  Re23  1  0.888380  0.776518  0.250000  1
  Re  Re24  1  0.888268  0.112186  0.250000  1
  Re  Re25  1  0.223919  0.112070  0.250000  1
  As  As26  1  0.666848  0.334108  0.750000  1
  As  As27  1  0.333475  0.666543  0.250000  1
