# generated using pymatgen
data_ErTm2(MgHg)3
_symmetry_space_group_name_H-M   'P 1'
_cell_length_a   7.68689000
_cell_length_b   7.68689011
_cell_length_c   4.23780500
_cell_angle_alpha   90.00000000
_cell_angle_beta   90.00000000
_cell_angle_gamma   120.00247624
_symmetry_Int_Tables_number   1
_chemical_formula_structural   ErTm2(MgHg)3
_chemical_formula_sum   'Er1 Tm2 Mg3 Hg3'
_cell_volume   216.85133615
_cell_formula_units_Z   1
loop_
 _symmetry_equiv_pos_site_id
 _symmetry_equiv_pos_as_xyz
  1  'x, y, z'
loop_
 _atom_site_type_symbol
 _atom_site_label
 _atom_site_symmetry_multiplicity
 _atom_site_fract_x
 _atom_site_fract_y
 _atom_site_fract_z
 _atom_site_occupancy
  Er  Er0  1  0.587184  0.587184  0.000000  1
  Tm  Tm1  1  0.411981  0.000119  0.000000  1
  Tm  Tm2  1  0.000119  0.411981  0.000000  1
  Mg  Mg3  1  0.748970  0.000386  0.500000  1
  Mg  Mg4  1  0.251026  0.251026  0.500000  1
  Mg  Mg5  1  0.000386  0.748970  0.500000  1
  Hg  Hg6  1  0.000465  0.000465  0.000000  1
  Hg  Hg7  1  0.667007  0.332861  0.500000  1
  Hg  Hg8  1  0.332862  0.667008  0.500000  1
