# generated using pymatgen
data_Ba2Mn5P6WO24
_symmetry_space_group_name_H-M   'P 1'
_cell_length_a   9.52138463
_cell_length_b   9.49589391
_cell_length_c   9.52138464
_cell_angle_alpha   137.79586600
_cell_angle_beta   110.11904639
_cell_angle_gamma   85.24087170
_symmetry_Int_Tables_number   1
_chemical_formula_structural   Ba2Mn5P6WO24
_chemical_formula_sum   'Ba2 Mn5 P6 W1 O24'
_cell_volume   522.48320701
_cell_formula_units_Z   1
loop_
 _symmetry_equiv_pos_site_id
 _symmetry_equiv_pos_as_xyz
  1  'x, y, z'
loop_
 _atom_site_type_symbol
 _atom_site_label
 _atom_site_symmetry_multiplicity
 _atom_site_fract_x
 _atom_site_fract_y
 _atom_site_fract_z
 _atom_site_occupancy
  Ba  Ba0  1  0.751231  0.863641  0.112410  1
  Ba  Ba1  1  0.248769  0.136359  0.887590  1
  Mn  Mn2  1  0.621631  0.611625  0.498650  1
  Mn  Mn3  1  0.887025  0.388375  0.010006  1
  Mn  Mn4  1  0.112975  0.611625  0.989994  1
  Mn  Mn5  1  0.378369  0.388375  0.501350  1
  Mn  Mn6  1  0.000000  0.500000  0.500000  1
  P  P7  1  0.746075  0.351976  0.605901  1
  P  P8  1  0.253925  0.648024  0.394099  1
  P  P9  1  0.822908  0.824117  0.500529  1
  P  P10  1  0.676412  0.175883  0.998791  1
  P  P11  1  0.323588  0.824117  0.001209  1
  P  P12  1  0.177092  0.175883  0.499471  1
  W  W13  1  0.500000  0.000000  0.500000  1
  O  O14  1  0.652926  0.132800  0.479875  1
  O  O15  1  0.347074  0.867200  0.520125  1
  O  O16  1  0.166825  0.694398  0.527574  1
  O  O17  1  0.833175  0.305602  0.472426  1
  O  O18  1  0.631814  0.489859  0.628514  1
  O  O19  1  0.138655  0.510141  0.141956  1
  O  O20  1  0.368186  0.510141  0.371486  1
  O  O21  1  0.861345  0.489859  0.858044  1
  O  O22  1  0.916508  0.064757  0.712598  1
  O  O23  1  0.647842  0.935243  0.851751  1
  O  O24  1  0.421973  0.706352  0.862603  1
  O  O25  1  0.156251  0.293648  0.715620  1
  O  O26  1  0.083492  0.935243  0.287402  1
  O  O27  1  0.352158  0.064757  0.148249  1
  O  O28  1  0.578027  0.293648  0.137397  1
  O  O29  1  0.843749  0.706352  0.284380  1
  O  O30  1  0.637831  0.797160  0.432668  1
  O  O31  1  0.635508  0.202840  0.840671  1
  O  O32  1  0.145991  0.708291  0.854597  1
  O  O33  1  0.146306  0.291709  0.437700  1
  O  O34  1  0.362169  0.202840  0.567332  1
  O  O35  1  0.364492  0.797160  0.159329  1
  O  O36  1  0.854009  0.291709  0.145403  1
  O  O37  1  0.853694  0.708291  0.562300  1
