# generated using pymatgen
data_Rb3Na2TiAs2P
_symmetry_space_group_name_H-M   'P 1'
_cell_length_a   10.78685866
_cell_length_b   10.78246731
_cell_length_c   15.71289713
_cell_angle_alpha   89.98678907
_cell_angle_beta   90.00661095
_cell_angle_gamma   142.73308205
_symmetry_Int_Tables_number   1
_chemical_formula_structural   Rb3Na2TiAs2P
_chemical_formula_sum   'Rb12 Na8 Ti4 As8 P4'
_cell_volume   1106.63483929
_cell_formula_units_Z   4
loop_
 _symmetry_equiv_pos_site_id
 _symmetry_equiv_pos_as_xyz
  1  'x, y, z'
loop_
 _atom_site_type_symbol
 _atom_site_label
 _atom_site_symmetry_multiplicity
 _atom_site_fract_x
 _atom_site_fract_y
 _atom_site_fract_z
 _atom_site_occupancy
  Rb  Rb0  1  0.942364  0.606767  0.825611  1
  Rb  Rb1  1  0.559048  0.895193  0.326221  1
  Rb  Rb2  1  0.392771  0.057357  0.173864  1
  Rb  Rb3  1  0.057574  0.392982  0.175841  1
  Rb  Rb4  1  0.893215  0.556297  0.325273  1
  Rb  Rb5  1  0.442839  0.106208  0.673802  1
  Rb  Rb6  1  0.606737  0.942465  0.825382  1
  Rb  Rb7  1  0.270724  0.273484  0.315109  1
  Rb  Rb8  1  0.772737  0.772121  0.185885  1
  Rb  Rb9  1  0.227640  0.227641  0.815675  1
  Rb  Rb10  1  0.724455  0.725118  0.685132  1
  Rb  Rb11  1  0.106171  0.442341  0.674292  1
  Na  Na12  1  0.921785  0.078089  0.000135  1
  Na  Na13  1  0.580498  0.423130  0.499066  1
  Na  Na14  1  0.078013  0.921822  0.000035  1
  Na  Na15  1  0.420705  0.579392  0.498399  1
  Na  Na16  1  0.754691  0.245475  0.000085  1
  Na  Na17  1  0.748543  0.255762  0.498878  1
  Na  Na18  1  0.245555  0.754650  0.000107  1
  Na  Na19  1  0.253516  0.742967  0.499372  1
  Ti  Ti20  1  0.581897  0.418213  0.000201  1
  Ti  Ti21  1  0.916475  0.084724  0.497435  1
  Ti  Ti22  1  0.418139  0.581862  0.000329  1
  Ti  Ti23  1  0.080828  0.915154  0.498276  1
  As  As24  1  0.860944  0.555958  0.095272  1
  As  As25  1  0.444274  0.139192  0.905268  1
  As  As26  1  0.636860  0.943931  0.593181  1
  As  As27  1  0.944330  0.638150  0.593431  1
  As  As28  1  0.139167  0.444350  0.905312  1
  As  As29  1  0.555936  0.860670  0.095861  1
  As  As30  1  0.360797  0.054720  0.403798  1
  As  As31  1  0.193186  0.193437  0.585037  1
  P  P32  1  0.687121  0.687273  0.920782  1
  P  P33  1  0.312613  0.312702  0.079827  1
  P  P34  1  0.052961  0.354893  0.408490  1
  P  P35  1  0.814888  0.815510  0.419335  1
