# generated using pymatgen
data_Ba2AlSbS5
_symmetry_space_group_name_H-M   'P 1'
_cell_length_a   8.95760600
_cell_length_b   9.15846800
_cell_length_c   12.33866100
_cell_angle_alpha   90.00000000
_cell_angle_beta   90.00000000
_cell_angle_gamma   90.00000000
_symmetry_Int_Tables_number   1
_chemical_formula_structural   Ba2AlSbS5
_chemical_formula_sum   'Ba8 Al4 Sb4 S20'
_cell_volume   1012.23842837
_cell_formula_units_Z   4
loop_
 _symmetry_equiv_pos_site_id
 _symmetry_equiv_pos_as_xyz
  1  'x, y, z'
loop_
 _atom_site_type_symbol
 _atom_site_label
 _atom_site_symmetry_multiplicity
 _atom_site_fract_x
 _atom_site_fract_y
 _atom_site_fract_z
 _atom_site_occupancy
  Ba  Ba0  1  0.006576  0.123271  0.823884  1
  Ba  Ba1  1  0.493424  0.376729  0.323884  1
  Ba  Ba2  1  0.506576  0.876729  0.176116  1
  Ba  Ba3  1  0.993424  0.623271  0.676116  1
  Ba  Ba4  1  0.993424  0.876729  0.176116  1
  Ba  Ba5  1  0.506576  0.623271  0.676116  1
  Ba  Ba6  1  0.493424  0.123271  0.823884  1
  Ba  Ba7  1  0.006576  0.376729  0.323884  1
  Al  Al8  1  0.250000  0.324850  0.594413  1
  Al  Al9  1  0.250000  0.175150  0.094413  1
  Al  Al10  1  0.750000  0.675150  0.405587  1
  Al  Al11  1  0.750000  0.824850  0.905587  1
  Sb  Sb12  1  0.250000  0.980650  0.523356  1
  Sb  Sb13  1  0.250000  0.519350  0.023356  1
  Sb  Sb14  1  0.750000  0.019350  0.476644  1
  Sb  Sb15  1  0.750000  0.480650  0.976644  1
  S  S16  1  0.052024  0.175559  0.555396  1
  S  S17  1  0.447976  0.324441  0.055396  1
  S  S18  1  0.552024  0.824441  0.444604  1
  S  S19  1  0.947976  0.675559  0.944604  1
  S  S20  1  0.947976  0.824441  0.444604  1
  S  S21  1  0.552024  0.675559  0.944604  1
  S  S22  1  0.447976  0.175559  0.555396  1
  S  S23  1  0.052024  0.324441  0.055396  1
  S  S24  1  0.250000  0.884451  0.709471  1
  S  S25  1  0.250000  0.615549  0.209471  1
  S  S26  1  0.750000  0.115549  0.290529  1
  S  S27  1  0.750000  0.384451  0.790529  1
  S  S28  1  0.250000  0.381869  0.770197  1
  S  S29  1  0.250000  0.118131  0.270197  1
  S  S30  1  0.750000  0.618131  0.229803  1
  S  S31  1  0.750000  0.881869  0.729803  1
  S  S32  1  0.250000  0.975848  0.993780  1
  S  S33  1  0.250000  0.524152  0.493780  1
  S  S34  1  0.750000  0.024152  0.006220  1
  S  S35  1  0.750000  0.475848  0.506220  1
