# generated using pymatgen
data_Zr10Hg3Bi5
_symmetry_space_group_name_H-M   'P 1'
_cell_length_a   8.96928039
_cell_length_b   8.96928025
_cell_length_c   6.00921200
_cell_angle_alpha   90.00000000
_cell_angle_beta   90.00000000
_cell_angle_gamma   120.53684187
_symmetry_Int_Tables_number   1
_chemical_formula_structural   Zr10Hg3Bi5
_chemical_formula_sum   'Zr10 Hg3 Bi5'
_cell_volume   416.37868928
_cell_formula_units_Z   1
loop_
 _symmetry_equiv_pos_site_id
 _symmetry_equiv_pos_as_xyz
  1  'x, y, z'
loop_
 _atom_site_type_symbol
 _atom_site_label
 _atom_site_symmetry_multiplicity
 _atom_site_fract_x
 _atom_site_fract_y
 _atom_site_fract_z
 _atom_site_occupancy
  Zr  Zr0  1  0.288624  0.288624  0.750000  1
  Zr  Zr1  1  0.720677  0.720677  0.250000  1
  Zr  Zr2  1  0.717313  0.995889  0.750000  1
  Zr  Zr3  1  0.999633  0.278803  0.250000  1
  Zr  Zr4  1  0.333790  0.666468  0.502284  1
  Zr  Zr5  1  0.666468  0.333790  0.502284  1
  Zr  Zr6  1  0.995889  0.717313  0.750000  1
  Zr  Zr7  1  0.333790  0.666468  0.997716  1
  Zr  Zr8  1  0.278803  0.999633  0.250000  1
  Zr  Zr9  1  0.666468  0.333790  0.997716  1
  Hg  Hg10  1  0.998484  0.998484  0.504098  1
  Hg  Hg11  1  0.622858  0.622858  0.750000  1
  Hg  Hg12  1  0.998484  0.998484  0.995902  1
  Bi  Bi13  1  0.380191  0.999577  0.750000  1
  Bi  Bi14  1  0.616918  0.998639  0.250000  1
  Bi  Bi15  1  0.383395  0.383395  0.250000  1
  Bi  Bi16  1  0.999577  0.380191  0.750000  1
  Bi  Bi17  1  0.998639  0.616918  0.250000  1
