# generated using pymatgen
data_Dy4Er6In8Pt3Au
_symmetry_space_group_name_H-M   'P 1'
_cell_length_a   3.62744800
_cell_length_b   8.16032637
_cell_length_c   18.24588674
_cell_angle_alpha   90.00095136
_cell_angle_beta   90.00000000
_cell_angle_gamma   90.00000000
_symmetry_Int_Tables_number   1
_chemical_formula_structural   Dy4Er6In8Pt3Au
_chemical_formula_sum   'Dy4 Er6 In8 Pt3 Au1'
_cell_volume   540.09940464
_cell_formula_units_Z   1
loop_
 _symmetry_equiv_pos_site_id
 _symmetry_equiv_pos_as_xyz
  1  'x, y, z'
loop_
 _atom_site_type_symbol
 _atom_site_label
 _atom_site_symmetry_multiplicity
 _atom_site_fract_x
 _atom_site_fract_y
 _atom_site_fract_z
 _atom_site_occupancy
  Dy  Dy0  1  0.000000  0.256257  0.720471  1
  Dy  Dy1  1  0.000000  0.730687  0.280213  1
  Dy  Dy2  1  0.000000  0.999043  0.999034  1
  Dy  Dy3  1  0.000000  0.499159  0.500440  1
  Er  Er4  1  0.000000  0.120847  0.420035  1
  Er  Er5  1  0.000000  0.883384  0.586375  1
  Er  Er6  1  0.000000  0.384224  0.914240  1
  Er  Er7  1  0.000000  0.616503  0.083458  1
  Er  Er8  1  0.000000  0.252227  0.215956  1
  Er  Er9  1  0.000000  0.755700  0.780150  1
  In  In10  1  0.500000  0.419701  0.351984  1
  In  In11  1  0.500000  0.577475  0.648818  1
  In  In12  1  0.500000  0.076679  0.851451  1
  In  In13  1  0.500000  0.921247  0.147936  1
  In  In14  1  0.500000  0.293364  0.064453  1
  In  In15  1  0.500000  0.707066  0.932887  1
  In  In16  1  0.500000  0.206931  0.567598  1
  In  In17  1  0.500000  0.794018  0.435243  1
  Pt  Pt18  1  0.500000  0.971553  0.697108  1
  Pt  Pt19  1  0.500000  0.475996  0.803859  1
  Pt  Pt20  1  0.500000  0.526415  0.195456  1
  Au  Au21  1  0.500000  0.031524  0.302837  1
