# generated using pymatgen
data_EuFe3CoSb12
_symmetry_space_group_name_H-M   'P 1'
_cell_length_a   7.96815394
_cell_length_b   7.96815357
_cell_length_c   7.96815330
_cell_angle_alpha   109.40436829
_cell_angle_beta   109.40438059
_cell_angle_gamma   109.40436846
_symmetry_Int_Tables_number   1
_chemical_formula_structural   EuFe3CoSb12
_chemical_formula_sum   'Eu1 Fe3 Co1 Sb12'
_cell_volume   390.41045399
_cell_formula_units_Z   1
loop_
 _symmetry_equiv_pos_site_id
 _symmetry_equiv_pos_as_xyz
  1  'x, y, z'
loop_
 _atom_site_type_symbol
 _atom_site_label
 _atom_site_symmetry_multiplicity
 _atom_site_fract_x
 _atom_site_fract_y
 _atom_site_fract_z
 _atom_site_occupancy
  Eu  Eu0  1  0.000000  0.000000  0.000000  1
  Fe  Fe1  1  0.000000  0.000000  0.500000  1
  Fe  Fe2  1  0.500000  0.000000  0.000000  1
  Fe  Fe3  1  0.000000  0.500000  0.000000  1
  Co  Co4  1  0.500000  0.500000  0.500000  1
  Sb  Sb5  1  0.334466  0.171783  0.836688  1
  Sb  Sb6  1  0.665534  0.828217  0.163312  1
  Sb  Sb7  1  0.665106  0.502729  0.839075  1
  Sb  Sb8  1  0.334894  0.497271  0.160925  1
  Sb  Sb9  1  0.171783  0.836688  0.334466  1
  Sb  Sb10  1  0.828217  0.163312  0.665534  1
  Sb  Sb11  1  0.502729  0.839075  0.665106  1
  Sb  Sb12  1  0.497271  0.160925  0.334894  1
  Sb  Sb13  1  0.836688  0.334466  0.171783  1
  Sb  Sb14  1  0.163312  0.665534  0.828217  1
  Sb  Sb15  1  0.839075  0.665106  0.502729  1
  Sb  Sb16  1  0.160925  0.334894  0.497271  1
