# generated using pymatgen
data_Ho8MgCdPd2
_symmetry_space_group_name_H-M   'P 1'
_cell_length_a   9.69648162
_cell_length_b   9.69648060
_cell_length_c   9.71899400
_cell_angle_alpha   59.92317215
_cell_angle_beta   59.92317564
_cell_angle_gamma   59.81764932
_symmetry_Int_Tables_number   1
_chemical_formula_structural   Ho8MgCdPd2
_chemical_formula_sum   'Ho16 Mg2 Cd2 Pd4'
_cell_volume   644.50848818
_cell_formula_units_Z   2
loop_
 _symmetry_equiv_pos_site_id
 _symmetry_equiv_pos_as_xyz
  1  'x, y, z'
loop_
 _atom_site_type_symbol
 _atom_site_label
 _atom_site_symmetry_multiplicity
 _atom_site_fract_x
 _atom_site_fract_y
 _atom_site_fract_z
 _atom_site_occupancy
  Ho  Ho0  1  0.352778  0.352778  0.351437  1
  Ho  Ho1  1  0.352778  0.352778  0.943007  1
  Ho  Ho2  1  0.353514  0.941617  0.352434  1
  Ho  Ho3  1  0.941617  0.353514  0.352434  1
  Ho  Ho4  1  0.811234  0.189142  0.188815  1
  Ho  Ho5  1  0.189142  0.811234  0.810809  1
  Ho  Ho6  1  0.189142  0.811234  0.188815  1
  Ho  Ho7  1  0.811234  0.189142  0.810809  1
  Ho  Ho8  1  0.191141  0.191141  0.808859  1
  Ho  Ho9  1  0.812413  0.812413  0.187587  1
  Ho  Ho10  1  0.935354  0.566123  0.566264  1
  Ho  Ho11  1  0.566123  0.935354  0.932260  1
  Ho  Ho12  1  0.566123  0.935354  0.566264  1
  Ho  Ho13  1  0.935354  0.566123  0.932260  1
  Ho  Ho14  1  0.567991  0.567991  0.932009  1
  Ho  Ho15  1  0.934813  0.934813  0.565187  1
  Mg  Mg16  1  0.577441  0.577441  0.581614  1
  Mg  Mg17  1  0.577441  0.577441  0.263504  1
  Cd  Cd18  1  0.582026  0.252761  0.582606  1
  Cd  Cd19  1  0.252761  0.582026  0.582606  1
  Pd  Pd20  1  0.144197  0.144197  0.144732  1
  Pd  Pd21  1  0.144197  0.144197  0.566874  1
  Pd  Pd22  1  0.143546  0.567642  0.144406  1
  Pd  Pd23  1  0.567642  0.143546  0.144406  1
