# generated using pymatgen
data_Lu4Mg2Si3Ge
_symmetry_space_group_name_H-M   'P 1'
_cell_length_a   7.05897221
_cell_length_b   7.05897221
_cell_length_c   4.14628100
_cell_angle_alpha   90.00000000
_cell_angle_beta   90.00000000
_cell_angle_gamma   90.16382816
_symmetry_Int_Tables_number   1
_chemical_formula_structural   Lu4Mg2Si3Ge
_chemical_formula_sum   'Lu4 Mg2 Si3 Ge1'
_cell_volume   206.60455922
_cell_formula_units_Z   1
loop_
 _symmetry_equiv_pos_site_id
 _symmetry_equiv_pos_as_xyz
  1  'x, y, z'
loop_
 _atom_site_type_symbol
 _atom_site_label
 _atom_site_symmetry_multiplicity
 _atom_site_fract_x
 _atom_site_fract_y
 _atom_site_fract_z
 _atom_site_occupancy
  Lu  Lu0  1  0.676935  0.179309  0.500000  1
  Lu  Lu1  1  0.320691  0.823065  0.500000  1
  Lu  Lu2  1  0.176795  0.323205  0.500000  1
  Lu  Lu3  1  0.824606  0.675394  0.500000  1
  Mg  Mg4  1  0.498932  0.497401  0.000000  1
  Mg  Mg5  1  0.002599  0.001068  0.000000  1
  Si  Si6  1  0.879768  0.379614  0.000000  1
  Si  Si7  1  0.120386  0.620232  0.000000  1
  Si  Si8  1  0.376920  0.123080  0.000000  1
  Ge  Ge9  1  0.622368  0.877632  0.000000  1
