# generated using pymatgen
data_Dy3LuHf2(SnRh)6
_symmetry_space_group_name_H-M   'P 1'
_cell_length_a   7.50868643
_cell_length_b   7.46282607
_cell_length_c   7.56105100
_cell_angle_alpha   90.00000000
_cell_angle_beta   90.00000000
_cell_angle_gamma   119.80937695
_symmetry_Int_Tables_number   1
_chemical_formula_structural   Dy3LuHf2(SnRh)6
_chemical_formula_sum   'Dy3 Lu1 Hf2 Sn6 Rh6'
_cell_volume   367.63013090
_cell_formula_units_Z   1
loop_
 _symmetry_equiv_pos_site_id
 _symmetry_equiv_pos_as_xyz
  1  'x, y, z'
loop_
 _atom_site_type_symbol
 _atom_site_label
 _atom_site_symmetry_multiplicity
 _atom_site_fract_x
 _atom_site_fract_y
 _atom_site_fract_z
 _atom_site_occupancy
  Dy  Dy0  1  0.000035  0.403664  0.250000  1
  Dy  Dy1  1  0.589854  0.593609  0.250000  1
  Dy  Dy2  1  0.410284  0.003722  0.250000  1
  Lu  Lu3  1  0.000895  0.401986  0.750000  1
  Hf  Hf4  1  0.605938  0.601821  0.750000  1
  Hf  Hf5  1  0.393445  0.994782  0.750000  1
  Sn  Sn6  1  0.263554  0.264337  0.509247  1
  Sn  Sn7  1  0.999638  0.733066  0.498695  1
  Sn  Sn8  1  0.999638  0.733066  0.001305  1
  Sn  Sn9  1  0.736757  0.001357  0.509423  1
  Sn  Sn10  1  0.736757  0.001357  0.990577  1
  Sn  Sn11  1  0.263554  0.264337  0.990753  1
  Rh  Rh12  1  0.341913  0.674057  0.530689  1
  Rh  Rh13  1  0.657942  0.331936  0.532537  1
  Rh  Rh14  1  0.341913  0.674057  0.969311  1
  Rh  Rh15  1  0.000085  0.987966  0.750000  1
  Rh  Rh16  1  0.999860  0.002947  0.250000  1
  Rh  Rh17  1  0.657942  0.331936  0.967463  1
