# generated using pymatgen
data_Sc12FeCoNi2
_symmetry_space_group_name_H-M   'P 1'
_cell_length_a   5.89772408
_cell_length_b   6.39670810
_cell_length_c   8.62187000
_cell_angle_alpha   90.00000000
_cell_angle_beta   90.00000000
_cell_angle_gamma   89.98029948
_symmetry_Int_Tables_number   1
_chemical_formula_structural   Sc12FeCoNi2
_chemical_formula_sum   'Sc12 Fe1 Co1 Ni2'
_cell_volume   325.26881572
_cell_formula_units_Z   1
loop_
 _symmetry_equiv_pos_site_id
 _symmetry_equiv_pos_as_xyz
  1  'x, y, z'
loop_
 _atom_site_type_symbol
 _atom_site_label
 _atom_site_symmetry_multiplicity
 _atom_site_fract_x
 _atom_site_fract_y
 _atom_site_fract_z
 _atom_site_occupancy
  Sc  Sc0  1  0.317826  0.680110  0.065428  1
  Sc  Sc1  1  0.181312  0.179841  0.434489  1
  Sc  Sc2  1  0.679440  0.317758  0.559131  1
  Sc  Sc3  1  0.822834  0.817847  0.945417  1
  Sc  Sc4  1  0.679440  0.317758  0.940869  1
  Sc  Sc5  1  0.822834  0.817847  0.554583  1
  Sc  Sc6  1  0.317826  0.680110  0.434572  1
  Sc  Sc7  1  0.181312  0.179841  0.065511  1
  Sc  Sc8  1  0.880680  0.539057  0.250000  1
  Sc  Sc9  1  0.617977  0.039898  0.250000  1
  Sc  Sc10  1  0.124245  0.467583  0.750000  1
  Sc  Sc11  1  0.378779  0.968640  0.750000  1
  Fe  Fe12  1  0.030255  0.896260  0.250000  1
  Co  Co13  1  0.468176  0.396493  0.250000  1
  Ni  Ni14  1  0.954880  0.099562  0.750000  1
  Ni  Ni15  1  0.542184  0.601393  0.750000  1
