# generated using pymatgen
data_Er3(In2Pt)2
_symmetry_space_group_name_H-M   'P 1'
_cell_length_a   7.80942100
_cell_length_b   7.80942077
_cell_length_c   3.89110300
_cell_angle_alpha   90.00000000
_cell_angle_beta   90.00000000
_cell_angle_gamma   119.99999673
_symmetry_Int_Tables_number   1
_chemical_formula_structural   Er3(In2Pt)2
_chemical_formula_sum   'Er3 In4 Pt2'
_cell_volume   205.51382020
_cell_formula_units_Z   1
loop_
 _symmetry_equiv_pos_site_id
 _symmetry_equiv_pos_as_xyz
  1  'x, y, z'
loop_
 _atom_site_type_symbol
 _atom_site_label
 _atom_site_symmetry_multiplicity
 _atom_site_fract_x
 _atom_site_fract_y
 _atom_site_fract_z
 _atom_site_occupancy
  Er  Er0  1  0.697231  0.953918  0.500000  1
  Er  Er1  1  0.256687  0.302769  0.500000  1
  Er  Er2  1  0.046082  0.743313  0.500000  1
  In  In3  1  0.927257  0.337858  0.000000  1
  In  In4  1  0.410601  0.072743  0.000000  1
  In  In5  1  0.662142  0.589399  0.000000  1
  In  In6  1  0.333333  0.666667  0.000000  1
  Pt  Pt7  1  0.666667  0.333333  0.500000  1
  Pt  Pt8  1  0.000000  0.000000  0.000000  1
