# generated using pymatgen
data_Er2Fe3P7Ir4Ru5
_symmetry_space_group_name_H-M   'P 1'
_cell_length_a   9.34956272
_cell_length_b   9.32128310
_cell_length_c   3.85763100
_cell_angle_alpha   90.00000000
_cell_angle_beta   90.00000000
_cell_angle_gamma   120.30417280
_symmetry_Int_Tables_number   1
_chemical_formula_structural   Er2Fe3P7Ir4Ru5
_chemical_formula_sum   'Er2 Fe3 P7 Ir4 Ru5'
_cell_volume   290.25452758
_cell_formula_units_Z   1
loop_
 _symmetry_equiv_pos_site_id
 _symmetry_equiv_pos_as_xyz
  1  'x, y, z'
loop_
 _atom_site_type_symbol
 _atom_site_label
 _atom_site_symmetry_multiplicity
 _atom_site_fract_x
 _atom_site_fract_y
 _atom_site_fract_z
 _atom_site_occupancy
  Er  Er0  1  0.998747  0.999786  0.000000  1
  Er  Er1  1  0.334354  0.666649  0.500000  1
  Fe  Fe2  1  0.824954  0.224244  0.000000  1
  Fe  Fe3  1  0.779625  0.605293  0.000000  1
  Fe  Fe4  1  0.396534  0.173020  0.000000  1
  P  P5  1  0.077741  0.442574  0.000000  1
  P  P6  1  0.553451  0.629606  0.000000  1
  P  P7  1  0.374386  0.926656  0.000000  1
  P  P8  1  0.780097  0.051587  0.500000  1
  P  P9  1  0.943894  0.731706  0.500000  1
  P  P10  1  0.268360  0.217609  0.500000  1
  P  P11  1  0.666566  0.334266  0.000000  1
  Ir  Ir12  1  0.099105  0.699205  0.000000  1
  Ir  Ir13  1  0.049762  0.275095  0.500000  1
  Ir  Ir14  1  0.721685  0.774461  0.500000  1
  Ir  Ir15  1  0.221782  0.947969  0.500000  1
  Ru  Ru16  1  0.300113  0.393137  0.000000  1
  Ru  Ru17  1  0.605432  0.905460  0.000000  1
  Ru  Ru18  1  0.885324  0.461812  0.500000  1
  Ru  Ru19  1  0.542782  0.420324  0.500000  1
  Ru  Ru20  1  0.575308  0.119540  0.500000  1
