# generated using pymatgen
data_Ca2CuPt3
_symmetry_space_group_name_H-M   'P 1'
_cell_length_a   5.50729492
_cell_length_b   5.30000079
_cell_length_c   5.50729600
_cell_angle_alpha   58.69751646
_cell_angle_beta   59.99999354
_cell_angle_gamma   58.69751872
_symmetry_Int_Tables_number   1
_chemical_formula_structural   Ca2CuPt3
_chemical_formula_sum   'Ca2 Cu1 Pt3'
_cell_volume   111.37842516
_cell_formula_units_Z   1
loop_
 _symmetry_equiv_pos_site_id
 _symmetry_equiv_pos_as_xyz
  1  'x, y, z'
loop_
 _atom_site_type_symbol
 _atom_site_label
 _atom_site_symmetry_multiplicity
 _atom_site_fract_x
 _atom_site_fract_y
 _atom_site_fract_z
 _atom_site_occupancy
  Ca  Ca0  1  0.000212  0.999364  0.000212  1
  Ca  Ca1  1  0.249788  0.250636  0.249788  1
  Cu  Cu2  1  0.625000  0.125000  0.625000  1
  Pt  Pt3  1  0.125000  0.625000  0.625000  1
  Pt  Pt4  1  0.625000  0.625000  0.625000  1
  Pt  Pt5  1  0.625000  0.625000  0.125000  1
