# generated using pymatgen
data_Lu3Ag3C
_symmetry_space_group_name_H-M   'P 1'
_cell_length_a   9.19105651
_cell_length_b   9.19105686
_cell_length_c   9.19105700
_cell_angle_alpha   59.99999589
_cell_angle_beta   59.99999465
_cell_angle_gamma   59.99999352
_symmetry_Int_Tables_number   1
_chemical_formula_structural   Lu3Ag3C
_chemical_formula_sum   'Lu12 Ag12 C4'
_cell_volume   549.01131921
_cell_formula_units_Z   4
loop_
 _symmetry_equiv_pos_site_id
 _symmetry_equiv_pos_as_xyz
  1  'x, y, z'
loop_
 _atom_site_type_symbol
 _atom_site_label
 _atom_site_symmetry_multiplicity
 _atom_site_fract_x
 _atom_site_fract_y
 _atom_site_fract_z
 _atom_site_occupancy
  Lu  Lu0  1  0.440042  0.440042  0.059958  1
  Lu  Lu1  1  0.059958  0.440042  0.059958  1
  Lu  Lu2  1  0.440042  0.059958  0.059958  1
  Lu  Lu3  1  0.059958  0.059958  0.440042  1
  Lu  Lu4  1  0.440042  0.059958  0.440042  1
  Lu  Lu5  1  0.059958  0.440042  0.440042  1
  Lu  Lu6  1  0.809958  0.809958  0.190042  1
  Lu  Lu7  1  0.190042  0.809958  0.190042  1
  Lu  Lu8  1  0.809958  0.190042  0.190042  1
  Lu  Lu9  1  0.190042  0.190042  0.809958  1
  Lu  Lu10  1  0.809958  0.190042  0.809958  1
  Lu  Lu11  1  0.190042  0.809958  0.809958  1
  Ag  Ag12  1  0.834029  0.834029  0.497913  1
  Ag  Ag13  1  0.834029  0.497913  0.834029  1
  Ag  Ag14  1  0.497913  0.834029  0.834029  1
  Ag  Ag15  1  0.834029  0.834029  0.834029  1
  Ag  Ag16  1  0.415971  0.415971  0.752087  1
  Ag  Ag17  1  0.415971  0.752087  0.415971  1
  Ag  Ag18  1  0.752087  0.415971  0.415971  1
  Ag  Ag19  1  0.415971  0.415971  0.415971  1
  Ag  Ag20  1  0.625000  0.625000  0.125000  1
  Ag  Ag21  1  0.625000  0.125000  0.625000  1
  Ag  Ag22  1  0.125000  0.625000  0.625000  1
  Ag  Ag23  1  0.625000  0.625000  0.625000  1
  C  C24  1  0.125000  0.125000  0.625000  1
  C  C25  1  0.125000  0.625000  0.125000  1
  C  C26  1  0.625000  0.125000  0.125000  1
  C  C27  1  0.125000  0.125000  0.125000  1
