# generated using pymatgen
data_Th3GaRu3Pb2
_symmetry_space_group_name_H-M   'P 1'
_cell_length_a   7.67852200
_cell_length_b   7.64353695
_cell_length_c   4.02027100
_cell_angle_alpha   90.00000000
_cell_angle_beta   90.00000000
_cell_angle_gamma   120.15152429
_symmetry_Int_Tables_number   1
_chemical_formula_structural   Th3GaRu3Pb2
_chemical_formula_sum   'Th3 Ga1 Ru3 Pb2'
_cell_volume   204.02943636
_cell_formula_units_Z   1
loop_
 _symmetry_equiv_pos_site_id
 _symmetry_equiv_pos_as_xyz
  1  'x, y, z'
loop_
 _atom_site_type_symbol
 _atom_site_label
 _atom_site_symmetry_multiplicity
 _atom_site_fract_x
 _atom_site_fract_y
 _atom_site_fract_z
 _atom_site_occupancy
  Th  Th0  1  0.987584  0.397514  0.500000  1
  Th  Th1  1  0.590069  0.602486  0.500000  1
  Th  Th2  1  0.435375  0.000000  0.500000  1
  Ga  Ga3  1  0.748358  0.000000  0.000000  1
  Ru  Ru4  1  0.347343  0.677812  0.000000  1
  Ru  Ru5  1  0.669532  0.322188  0.000000  1
  Ru  Ru6  1  0.967523  0.000000  0.500000  1
  Pb  Pb7  1  0.001920  0.749623  0.000000  1
  Pb  Pb8  1  0.252297  0.250377  0.000000  1
