# generated using pymatgen
data_Hf6Ti4Ga5Si
_symmetry_space_group_name_H-M   'P 1'
_cell_length_a   7.85504500
_cell_length_b   7.85371203
_cell_length_c   5.44230100
_cell_angle_alpha   90.00000000
_cell_angle_beta   90.00000000
_cell_angle_gamma   120.00561884
_symmetry_Int_Tables_number   1
_chemical_formula_structural   Hf6Ti4Ga5Si
_chemical_formula_sum   'Hf6 Ti4 Ga5 Si1'
_cell_volume   290.74499517
_cell_formula_units_Z   1
loop_
 _symmetry_equiv_pos_site_id
 _symmetry_equiv_pos_as_xyz
  1  'x, y, z'
loop_
 _atom_site_type_symbol
 _atom_site_label
 _atom_site_symmetry_multiplicity
 _atom_site_fract_x
 _atom_site_fract_y
 _atom_site_fract_z
 _atom_site_occupancy
  Hf  Hf0  1  0.246929  0.000000  0.250000  1
  Hf  Hf1  1  0.754725  0.000000  0.750000  1
  Hf  Hf2  1  0.997063  0.240312  0.250000  1
  Hf  Hf3  1  0.998790  0.757758  0.750000  1
  Hf  Hf4  1  0.756750  0.759688  0.250000  1
  Hf  Hf5  1  0.241032  0.242242  0.750000  1
  Ti  Ti6  1  0.336069  0.669857  0.001866  1
  Ti  Ti7  1  0.666213  0.330143  0.001866  1
  Ti  Ti8  1  0.666213  0.330143  0.498134  1
  Ti  Ti9  1  0.336069  0.669857  0.498134  1
  Ga  Ga10  1  0.398591  0.000000  0.750000  1
  Ga  Ga11  1  0.999493  0.601055  0.250000  1
  Ga  Ga12  1  0.000992  0.401090  0.750000  1
  Ga  Ga13  1  0.398438  0.398945  0.250000  1
  Ga  Ga14  1  0.599902  0.598910  0.750000  1
  Si  Si15  1  0.602730  0.000000  0.250000  1
