# generated using pymatgen
data_TmLu5Zn23Se
_symmetry_space_group_name_H-M   'P 1'
_cell_length_a   8.98664501
_cell_length_b   8.98664457
_cell_length_c   8.98670000
_cell_angle_alpha   59.99979596
_cell_angle_beta   59.99979758
_cell_angle_gamma   60.00039686
_symmetry_Int_Tables_number   1
_chemical_formula_structural   TmLu5Zn23Se
_chemical_formula_sum   'Tm1 Lu5 Zn23 Se1'
_cell_volume   513.19257775
_cell_formula_units_Z   1
loop_
 _symmetry_equiv_pos_site_id
 _symmetry_equiv_pos_as_xyz
  1  'x, y, z'
loop_
 _atom_site_type_symbol
 _atom_site_label
 _atom_site_symmetry_multiplicity
 _atom_site_fract_x
 _atom_site_fract_y
 _atom_site_fract_z
 _atom_site_occupancy
  Tm  Tm0  1  0.282642  0.282642  0.717358  1
  Lu  Lu1  1  0.716847  0.283215  0.283153  1
  Lu  Lu2  1  0.716847  0.283215  0.716785  1
  Lu  Lu3  1  0.717262  0.717262  0.282738  1
  Lu  Lu4  1  0.283215  0.716847  0.716785  1
  Lu  Lu5  1  0.283215  0.716847  0.283153  1
  Zn  Zn6  1  0.625469  0.124834  0.124848  1
  Zn  Zn7  1  0.124834  0.625469  0.124848  1
  Zn  Zn8  1  0.124627  0.124627  0.625052  1
  Zn  Zn9  1  0.124627  0.124627  0.125694  1
  Zn  Zn10  1  0.374948  0.874306  0.875373  1
  Zn  Zn11  1  0.874306  0.374948  0.875373  1
  Zn  Zn12  1  0.875152  0.875152  0.374531  1
  Zn  Zn13  1  0.875152  0.875152  0.875166  1
  Zn  Zn14  1  0.500172  0.999838  0.000162  1
  Zn  Zn15  1  0.500172  0.999838  0.499828  1
  Zn  Zn16  1  0.500072  0.500072  0.999928  1
  Zn  Zn17  1  0.999838  0.500172  0.499828  1
  Zn  Zn18  1  0.999838  0.500172  0.000162  1
  Zn  Zn19  1  0.000072  0.000072  0.499928  1
  Zn  Zn20  1  0.000052  0.000052  0.999948  1
  Zn  Zn21  1  0.008494  0.330676  0.330414  1
  Zn  Zn22  1  0.330676  0.008494  0.330414  1
  Zn  Zn23  1  0.330404  0.330404  0.008949  1
  Zn  Zn24  1  0.330404  0.330404  0.330242  1
  Zn  Zn25  1  0.991051  0.669758  0.669596  1
  Zn  Zn26  1  0.669758  0.991051  0.669596  1
  Zn  Zn27  1  0.669586  0.669586  0.991506  1
  Zn  Zn28  1  0.669586  0.669586  0.669324  1
  Se  Se29  1  0.500683  0.500683  0.499317  1
