# generated using pymatgen
data_Zr3VIr2N
_symmetry_space_group_name_H-M   'P 1'
_cell_length_a   8.57941086
_cell_length_b   8.57941078
_cell_length_c   8.57941100
_cell_angle_alpha   60.00000299
_cell_angle_beta   60.00000331
_cell_angle_gamma   60.00000634
_symmetry_Int_Tables_number   1
_chemical_formula_structural   Zr3VIr2N
_chemical_formula_sum   'Zr12 V4 Ir8 N4'
_cell_volume   446.53699474
_cell_formula_units_Z   4
loop_
 _symmetry_equiv_pos_site_id
 _symmetry_equiv_pos_as_xyz
  1  'x, y, z'
loop_
 _atom_site_type_symbol
 _atom_site_label
 _atom_site_symmetry_multiplicity
 _atom_site_fract_x
 _atom_site_fract_y
 _atom_site_fract_z
 _atom_site_occupancy
  Zr  Zr0  1  0.808328  0.191672  0.191672  1
  Zr  Zr1  1  0.191672  0.808328  0.191672  1
  Zr  Zr2  1  0.808328  0.808328  0.191672  1
  Zr  Zr3  1  0.191672  0.808328  0.808328  1
  Zr  Zr4  1  0.808328  0.191672  0.808328  1
  Zr  Zr5  1  0.191672  0.191672  0.808328  1
  Zr  Zr6  1  0.441672  0.058328  0.058328  1
  Zr  Zr7  1  0.058328  0.441672  0.058328  1
  Zr  Zr8  1  0.441672  0.441672  0.058328  1
  Zr  Zr9  1  0.058328  0.441672  0.441672  1
  Zr  Zr10  1  0.441672  0.058328  0.441672  1
  Zr  Zr11  1  0.058328  0.058328  0.441672  1
  V  V12  1  0.625000  0.625000  0.125000  1
  V  V13  1  0.625000  0.625000  0.625000  1
  V  V14  1  0.125000  0.625000  0.625000  1
  V  V15  1  0.625000  0.125000  0.625000  1
  Ir  Ir16  1  0.418869  0.418869  0.743391  1
  Ir  Ir17  1  0.418869  0.418869  0.418869  1
  Ir  Ir18  1  0.743391  0.418869  0.418869  1
  Ir  Ir19  1  0.418869  0.743391  0.418869  1
  Ir  Ir20  1  0.831131  0.831131  0.506609  1
  Ir  Ir21  1  0.831131  0.831131  0.831131  1
  Ir  Ir22  1  0.506609  0.831131  0.831131  1
  Ir  Ir23  1  0.831131  0.506609  0.831131  1
  N  N24  1  0.125000  0.125000  0.625000  1
  N  N25  1  0.125000  0.125000  0.125000  1
  N  N26  1  0.625000  0.125000  0.125000  1
  N  N27  1  0.125000  0.625000  0.125000  1
