# generated using pymatgen
data_Y12ZnInCo4
_symmetry_space_group_name_H-M   'P 1'
_cell_length_a   8.37111755
_cell_length_b   8.37111679
_cell_length_c   8.37111708
_cell_angle_alpha   111.56597231
_cell_angle_beta   110.27085090
_cell_angle_gamma   106.61680497
_symmetry_Int_Tables_number   1
_chemical_formula_structural   Y12ZnInCo4
_chemical_formula_sum   'Y12 Zn1 In1 Co4'
_cell_volume   450.67731565
_cell_formula_units_Z   1
loop_
 _symmetry_equiv_pos_site_id
 _symmetry_equiv_pos_as_xyz
  1  'x, y, z'
loop_
 _atom_site_type_symbol
 _atom_site_label
 _atom_site_symmetry_multiplicity
 _atom_site_fract_x
 _atom_site_fract_y
 _atom_site_fract_z
 _atom_site_occupancy
  Y  Y0  1  0.424277  0.222647  0.201631  1
  Y  Y1  1  0.575723  0.777353  0.798369  1
  Y  Y2  1  0.021017  0.222647  0.798369  1
  Y  Y3  1  0.978983  0.777353  0.201631  1
  Y  Y4  1  0.185493  0.288777  0.474270  1
  Y  Y5  1  0.814507  0.711223  0.525730  1
  Y  Y6  1  0.185493  0.711223  0.896715  1
  Y  Y7  1  0.814507  0.288777  0.103285  1
  Y  Y8  1  0.315531  0.620425  0.304895  1
  Y  Y9  1  0.684469  0.379575  0.695105  1
  Y  Y10  1  0.315531  0.010635  0.695105  1
  Y  Y11  1  0.684469  0.989365  0.304895  1
  Zn  Zn12  1  0.000000  0.000000  0.000000  1
  In  In13  1  0.500000  0.500000  0.000000  1
  Co  Co14  1  0.377734  0.000000  0.377734  1
  Co  Co15  1  0.622266  0.000000  0.622266  1
  Co  Co16  1  0.111263  0.611263  0.500000  1
  Co  Co17  1  0.888737  0.388737  0.500000  1
