# generated using pymatgen
data_SrZn12Cu
_symmetry_space_group_name_H-M   'P 1'
_cell_length_a   8.65610403
_cell_length_b   8.65610374
_cell_length_c   8.65610300
_cell_angle_alpha   59.99999902
_cell_angle_beta   60.00000013
_cell_angle_gamma   59.99999897
_symmetry_Int_Tables_number   1
_chemical_formula_structural   SrZn12Cu
_chemical_formula_sum   'Sr2 Zn24 Cu2'
_cell_volume   458.61930473
_cell_formula_units_Z   2
loop_
 _symmetry_equiv_pos_site_id
 _symmetry_equiv_pos_as_xyz
  1  'x, y, z'
loop_
 _atom_site_type_symbol
 _atom_site_label
 _atom_site_symmetry_multiplicity
 _atom_site_fract_x
 _atom_site_fract_y
 _atom_site_fract_z
 _atom_site_occupancy
  Sr  Sr0  1  0.250000  0.250000  0.250000  1
  Sr  Sr1  1  0.750000  0.750000  0.750000  1
  Zn  Zn2  1  0.941497  0.296597  0.058503  1
  Zn  Zn3  1  0.558503  0.441497  0.203403  1
  Zn  Zn4  1  0.058503  0.941497  0.296597  1
  Zn  Zn5  1  0.296597  0.058503  0.941497  1
  Zn  Zn6  1  0.703403  0.296597  0.941497  1
  Zn  Zn7  1  0.203403  0.558503  0.441497  1
  Zn  Zn8  1  0.941497  0.058503  0.703403  1
  Zn  Zn9  1  0.203403  0.441497  0.796597  1
  Zn  Zn10  1  0.941497  0.703403  0.296597  1
  Zn  Zn11  1  0.441497  0.203403  0.558503  1
  Zn  Zn12  1  0.558503  0.796597  0.441497  1
  Zn  Zn13  1  0.441497  0.796597  0.203403  1
  Zn  Zn14  1  0.203403  0.796597  0.558503  1
  Zn  Zn15  1  0.703403  0.941497  0.058503  1
  Zn  Zn16  1  0.296597  0.941497  0.703403  1
  Zn  Zn17  1  0.796597  0.203403  0.441497  1
  Zn  Zn18  1  0.558503  0.203403  0.796597  1
  Zn  Zn19  1  0.058503  0.296597  0.703403  1
  Zn  Zn20  1  0.796597  0.441497  0.558503  1
  Zn  Zn21  1  0.703403  0.058503  0.296597  1
  Zn  Zn22  1  0.796597  0.558503  0.203403  1
  Zn  Zn23  1  0.296597  0.703403  0.058503  1
  Zn  Zn24  1  0.441497  0.558503  0.796597  1
  Zn  Zn25  1  0.058503  0.703403  0.941497  1
  Cu  Cu26  1  0.500000  0.500000  0.500000  1
  Cu  Cu27  1  0.000000  0.000000  0.000000  1
