# generated using pymatgen
data_Zr10ZnSn4Sb3
_symmetry_space_group_name_H-M   'P 1'
_cell_length_a   8.77763624
_cell_length_b   8.76101924
_cell_length_c   5.92498900
_cell_angle_alpha   89.99966737
_cell_angle_beta   90.00017173
_cell_angle_gamma   119.93739789
_symmetry_Int_Tables_number   1
_chemical_formula_structural   Zr10ZnSn4Sb3
_chemical_formula_sum   'Zr10 Zn1 Sn4 Sb3'
_cell_volume   394.84260565
_cell_formula_units_Z   1
loop_
 _symmetry_equiv_pos_site_id
 _symmetry_equiv_pos_as_xyz
  1  'x, y, z'
loop_
 _atom_site_type_symbol
 _atom_site_label
 _atom_site_symmetry_multiplicity
 _atom_site_fract_x
 _atom_site_fract_y
 _atom_site_fract_z
 _atom_site_occupancy
  Zr  Zr0  1  0.334385  0.667193  0.000000  1
  Zr  Zr1  1  0.666202  0.333100  0.500000  1
  Zr  Zr2  1  0.666133  0.333066  0.000000  1
  Zr  Zr3  1  0.334237  0.667119  0.500000  1
  Zr  Zr4  1  0.275762  0.000423  0.239276  1
  Zr  Zr5  1  0.275762  0.275339  0.760724  1
  Zr  Zr6  1  0.999805  0.725488  0.760545  1
  Zr  Zr7  1  0.999805  0.274318  0.239455  1
  Zr  Zr8  1  0.725064  0.725622  0.239589  1
  Zr  Zr9  1  0.725064  0.999442  0.760411  1
  Zn  Zn10  1  0.001230  0.000615  0.000000  1
  Sn  Sn11  1  0.000425  0.387124  0.748282  1
  Sn  Sn12  1  0.000425  0.613301  0.251718  1
  Sn  Sn13  1  0.385549  0.385603  0.251635  1
  Sn  Sn14  1  0.385549  0.999947  0.748365  1
  Sb  Sb15  1  0.001113  0.000556  0.500000  1
  Sb  Sb16  1  0.611744  0.000445  0.251219  1
  Sb  Sb17  1  0.611744  0.611299  0.748781  1
