# generated using pymatgen
data_Nb7Co8Si14W
_symmetry_space_group_name_H-M   'P 1'
_cell_length_a   9.19201442
_cell_length_b   9.19201426
_cell_length_c   9.19201541
_cell_angle_alpha   94.27708081
_cell_angle_beta   94.15671931
_cell_angle_gamma   148.53238460
_symmetry_Int_Tables_number   1
_chemical_formula_structural   Nb7Co8Si14W
_chemical_formula_sum   'Nb7 Co8 Si14 W1'
_cell_volume   390.23953357
_cell_formula_units_Z   1
loop_
 _symmetry_equiv_pos_site_id
 _symmetry_equiv_pos_as_xyz
  1  'x, y, z'
loop_
 _atom_site_type_symbol
 _atom_site_label
 _atom_site_symmetry_multiplicity
 _atom_site_fract_x
 _atom_site_fract_y
 _atom_site_fract_z
 _atom_site_occupancy
  Nb  Nb0  1  0.689515  0.500000  0.189515  1
  Nb  Nb1  1  0.500369  0.691341  0.191709  1
  Nb  Nb2  1  0.500369  0.308659  0.809028  1
  Nb  Nb3  1  0.133574  0.133444  0.267016  1
  Nb  Nb4  1  0.865703  0.866428  0.732132  1
  Nb  Nb5  1  0.133574  0.866556  0.000130  1
  Nb  Nb6  1  0.865703  0.133572  0.999275  1
  Co  Co7  1  0.399256  0.897472  0.797701  1
  Co  Co8  1  0.101047  0.600465  0.201351  1
  Co  Co9  1  0.900230  0.102528  0.501784  1
  Co  Co10  1  0.600885  0.399535  0.500582  1
  Co  Co11  1  0.600885  0.100302  0.201351  1
  Co  Co12  1  0.900230  0.398445  0.797701  1
  Co  Co13  1  0.101047  0.899698  0.500582  1
  Co  Co14  1  0.399256  0.601555  0.501784  1
  Si  Si15  1  0.292612  0.293886  0.586497  1
  Si  Si16  1  0.707710  0.708132  0.415842  1
  Si  Si17  1  0.292612  0.706114  0.998726  1
  Si  Si18  1  0.707710  0.291868  0.999578  1
  Si  Si19  1  0.094705  0.500000  0.594705  1
  Si  Si20  1  0.905936  0.500000  0.405936  1
  Si  Si21  1  0.499955  0.906119  0.406075  1
  Si  Si22  1  0.499955  0.093881  0.593836  1
  Si  Si23  1  0.247726  0.249211  0.998515  1
  Si  Si24  1  0.749304  0.750789  0.998515  1
  Si  Si25  1  0.297095  0.000000  0.297095  1
  Si  Si26  1  0.703044  0.000000  0.703044  1
  Si  Si27  1  0.000175  0.702777  0.702952  1
  Si  Si28  1  0.000175  0.297223  0.297398  1
  W  W29  1  0.309643  0.500000  0.809643  1
