# generated using pymatgen
data_Dy11HoInCo4Os
_symmetry_space_group_name_H-M   'P 1'
_cell_length_a   8.29422640
_cell_length_b   8.29553751
_cell_length_c   8.29553765
_cell_angle_alpha   111.48190492
_cell_angle_beta   110.49006503
_cell_angle_gamma   106.48998682
_symmetry_Int_Tables_number   1
_chemical_formula_structural   Dy11HoInCo4Os
_chemical_formula_sum   'Dy11 Ho1 In1 Co4 Os1'
_cell_volume   438.42758927
_cell_formula_units_Z   1
loop_
 _symmetry_equiv_pos_site_id
 _symmetry_equiv_pos_as_xyz
  1  'x, y, z'
loop_
 _atom_site_type_symbol
 _atom_site_label
 _atom_site_symmetry_multiplicity
 _atom_site_fract_x
 _atom_site_fract_y
 _atom_site_fract_z
 _atom_site_occupancy
  Dy  Dy0  1  0.586524  0.779912  0.806611  1
  Dy  Dy1  1  0.026750  0.219944  0.806804  1
  Dy  Dy2  1  0.973458  0.780101  0.193358  1
  Dy  Dy3  1  0.181434  0.281233  0.462563  1
  Dy  Dy4  1  0.818531  0.718602  0.537226  1
  Dy  Dy5  1  0.181434  0.718870  0.900201  1
  Dy  Dy6  1  0.818531  0.281305  0.099929  1
  Dy  Dy7  1  0.315366  0.621311  0.306162  1
  Dy  Dy8  1  0.684530  0.378466  0.693637  1
  Dy  Dy9  1  0.315366  0.009203  0.694055  1
  Dy  Dy10  1  0.684530  0.990893  0.306064  1
  Ho  Ho11  1  0.413220  0.219880  0.193341  1
  In  In12  1  0.500065  0.499971  0.000094  1
  Co  Co13  1  0.376023  0.000022  0.376001  1
  Co  Co14  1  0.623982  0.000089  0.623894  1
  Co  Co15  1  0.111406  0.611502  0.499904  1
  Co  Co16  1  0.888404  0.388469  0.499934  1
  Os  Os17  1  0.000447  0.000226  0.000221  1
