# generated using pymatgen
data_Hf6Ga6CuIr4Pd
_symmetry_space_group_name_H-M   'P 1'
_cell_length_a   7.25240900
_cell_length_b   7.25240788
_cell_length_c   6.74254700
_cell_angle_alpha   90.00000000
_cell_angle_beta   90.00000000
_cell_angle_gamma   119.99999145
_symmetry_Int_Tables_number   1
_chemical_formula_structural   Hf6Ga6CuIr4Pd
_chemical_formula_sum   'Hf6 Ga6 Cu1 Ir4 Pd1'
_cell_volume   307.12782244
_cell_formula_units_Z   1
loop_
 _symmetry_equiv_pos_site_id
 _symmetry_equiv_pos_as_xyz
  1  'x, y, z'
loop_
 _atom_site_type_symbol
 _atom_site_label
 _atom_site_symmetry_multiplicity
 _atom_site_fract_x
 _atom_site_fract_y
 _atom_site_fract_z
 _atom_site_occupancy
  Hf  Hf0  1  0.605441  0.594510  0.250000  1
  Hf  Hf1  1  0.010735  0.406492  0.750000  1
  Hf  Hf2  1  0.405490  0.010931  0.250000  1
  Hf  Hf3  1  0.989069  0.394559  0.250000  1
  Hf  Hf4  1  0.395757  0.989265  0.750000  1
  Hf  Hf5  1  0.593508  0.604243  0.750000  1
  Ga  Ga6  1  0.267067  0.267328  0.495156  1
  Ga  Ga7  1  0.732672  0.999739  0.495156  1
  Ga  Ga8  1  0.000261  0.732933  0.495156  1
  Ga  Ga9  1  0.732672  0.999739  0.004844  1
  Ga  Ga10  1  0.267067  0.267328  0.004844  1
  Ga  Ga11  1  0.000261  0.732933  0.004844  1
  Cu  Cu12  1  0.000000  0.000000  0.250000  1
  Ir  Ir13  1  0.333333  0.666667  0.485958  1
  Ir  Ir14  1  0.333333  0.666667  0.014042  1
  Ir  Ir15  1  0.666667  0.333333  0.512869  1
  Ir  Ir16  1  0.666667  0.333333  0.987131  1
  Pd  Pd17  1  0.000000  0.000000  0.750000  1
