# generated using pymatgen
data_Na2NpS3
_symmetry_space_group_name_H-M   'P 1'
_cell_length_a   6.98575903
_cell_length_b   6.98575930
_cell_length_c   7.01204670
_cell_angle_alpha   80.38101542
_cell_angle_beta   80.38100912
_cell_angle_gamma   120.02338495
_symmetry_Int_Tables_number   1
_chemical_formula_structural   Na2NpS3
_chemical_formula_sum   'Na4 Np2 S6'
_cell_volume   279.23174286
_cell_formula_units_Z   2
loop_
 _symmetry_equiv_pos_site_id
 _symmetry_equiv_pos_as_xyz
  1  'x, y, z'
loop_
 _atom_site_type_symbol
 _atom_site_label
 _atom_site_symmetry_multiplicity
 _atom_site_fract_x
 _atom_site_fract_y
 _atom_site_fract_z
 _atom_site_occupancy
  Na  Na0  1  0.659769  0.340231  0.500000  1
  Na  Na1  1  0.340231  0.659769  0.500000  1
  Na  Na2  1  0.500000  0.500000  0.000000  1
  Na  Na3  1  0.000000  0.000000  0.500000  1
  Np  Np4  1  0.832950  0.167050  0.000000  1
  Np  Np5  1  0.167050  0.832950  0.000000  1
  S  S6  1  0.782010  0.782010  0.227268  1
  S  S7  1  0.217990  0.217990  0.772732  1
  S  S8  1  0.423845  0.065008  0.225180  1
  S  S9  1  0.576155  0.934992  0.774820  1
  S  S10  1  0.934992  0.576155  0.774820  1
  S  S11  1  0.065008  0.423845  0.225180  1
