# generated using pymatgen
data_Li2Pr8Si12PdRh
_symmetry_space_group_name_H-M   'P 1'
_cell_length_a   8.29909800
_cell_length_b   8.29909876
_cell_length_c   8.53915900
_cell_angle_alpha   90.00000000
_cell_angle_beta   90.00000000
_cell_angle_gamma   120.00000493
_symmetry_Int_Tables_number   1
_chemical_formula_structural   Li2Pr8Si12PdRh
_chemical_formula_sum   'Li2 Pr8 Si12 Pd1 Rh1'
_cell_volume   509.33970948
_cell_formula_units_Z   1
loop_
 _symmetry_equiv_pos_site_id
 _symmetry_equiv_pos_as_xyz
  1  'x, y, z'
loop_
 _atom_site_type_symbol
 _atom_site_label
 _atom_site_symmetry_multiplicity
 _atom_site_fract_x
 _atom_site_fract_y
 _atom_site_fract_z
 _atom_site_occupancy
  Li  Li0  1  0.666667  0.333333  0.994466  1
  Li  Li1  1  0.333333  0.666667  0.005591  1
  Pr  Pr2  1  0.497674  0.502326  0.746967  1
  Pr  Pr3  1  0.499868  0.500132  0.252970  1
  Pr  Pr4  1  0.004653  0.502326  0.746967  1
  Pr  Pr5  1  0.000265  0.500132  0.252970  1
  Pr  Pr6  1  0.497674  0.995347  0.746967  1
  Pr  Pr7  1  0.499868  0.999735  0.252970  1
  Pr  Pr8  1  0.000000  0.000000  0.751132  1
  Pr  Pr9  1  0.000000  0.000000  0.248799  1
  Si  Si10  1  0.834046  0.165954  0.001111  1
  Si  Si11  1  0.165838  0.834162  0.998876  1
  Si  Si12  1  0.331908  0.165954  0.001111  1
  Si  Si13  1  0.167683  0.832317  0.499856  1
  Si  Si14  1  0.668324  0.834162  0.998876  1
  Si  Si15  1  0.835306  0.164694  0.499961  1
  Si  Si16  1  0.834046  0.668092  0.001111  1
  Si  Si17  1  0.664634  0.832317  0.499856  1
  Si  Si18  1  0.165838  0.331676  0.998876  1
  Si  Si19  1  0.329389  0.164694  0.499961  1
  Si  Si20  1  0.167683  0.335366  0.499856  1
  Si  Si21  1  0.835306  0.670611  0.499961  1
  Pd  Pd22  1  0.666667  0.333333  0.503771  1
  Rh  Rh23  1  0.333333  0.666667  0.497024  1
