# generated using pymatgen
data_YbSm9(Ga2Ru3)2
_symmetry_space_group_name_H-M   'P 1'
_cell_length_a   8.44239848
_cell_length_b   8.43118362
_cell_length_c   8.43118351
_cell_angle_alpha   109.42035544
_cell_angle_beta   109.33637924
_cell_angle_gamma   109.60315153
_symmetry_Int_Tables_number   1
_chemical_formula_structural   YbSm9(Ga2Ru3)2
_chemical_formula_sum   'Yb1 Sm9 Ga4 Ru6'
_cell_volume   462.28211355
_cell_formula_units_Z   1
loop_
 _symmetry_equiv_pos_site_id
 _symmetry_equiv_pos_as_xyz
  1  'x, y, z'
loop_
 _atom_site_type_symbol
 _atom_site_label
 _atom_site_symmetry_multiplicity
 _atom_site_fract_x
 _atom_site_fract_y
 _atom_site_fract_z
 _atom_site_occupancy
  Yb  Yb0  1  0.250000  0.685301  0.435301  1
  Sm  Sm1  1  0.750000  0.814985  0.064985  1
  Sm  Sm2  1  0.433717  0.249783  0.684206  1
  Sm  Sm3  1  0.685010  0.434122  0.249547  1
  Sm  Sm4  1  0.066283  0.750489  0.816066  1
  Sm  Sm5  1  0.814990  0.064537  0.749112  1
  Sm  Sm6  1  0.215225  0.218133  0.217345  1
  Sm  Sm7  1  0.498502  0.999448  0.284013  1
  Sm  Sm8  1  0.284775  0.502120  0.002909  1
  Sm  Sm9  1  0.001498  0.285511  0.500946  1
  Ga  Ga10  1  0.585040  0.588371  0.586680  1
  Ga  Ga11  1  0.497505  0.996513  0.910635  1
  Ga  Ga12  1  0.914960  0.501641  0.003332  1
  Ga  Ga13  1  0.002495  0.913130  0.499008  1
  Ru  Ru14  1  0.250000  0.123569  0.873569  1
  Ru  Ru15  1  0.750000  0.377336  0.627336  1
  Ru  Ru16  1  0.866229  0.245073  0.117129  1
  Ru  Ru17  1  0.121461  0.873845  0.246654  1
  Ru  Ru18  1  0.633770  0.750899  0.378843  1
  Ru  Ru19  1  0.378539  0.625193  0.752385  1
