# generated using pymatgen
data_Sc6Co15Si7Pt
_symmetry_space_group_name_H-M   'P 1'
_cell_length_a   8.07963547
_cell_length_b   8.07963536
_cell_length_c   8.10260526
_cell_angle_alpha   60.09373910
_cell_angle_beta   60.09373677
_cell_angle_gamma   60.00000355
_symmetry_Int_Tables_number   1
_chemical_formula_structural   Sc6Co15Si7Pt
_chemical_formula_sum   'Sc6 Co15 Si7 Pt1'
_cell_volume   374.54767220
_cell_formula_units_Z   1
loop_
 _symmetry_equiv_pos_site_id
 _symmetry_equiv_pos_as_xyz
  1  'x, y, z'
loop_
 _atom_site_type_symbol
 _atom_site_label
 _atom_site_symmetry_multiplicity
 _atom_site_fract_x
 _atom_site_fract_y
 _atom_site_fract_z
 _atom_site_occupancy
  Sc  Sc0  1  0.708120  0.708120  0.288025  1
  Sc  Sc1  1  0.295735  0.708120  0.288025  1
  Sc  Sc2  1  0.708120  0.295735  0.288025  1
  Sc  Sc3  1  0.287311  0.287311  0.715486  1
  Sc  Sc4  1  0.709891  0.287311  0.715486  1
  Sc  Sc5  1  0.287311  0.709891  0.715486  1
  Co  Co6  1  0.879870  0.360783  0.879476  1
  Co  Co7  1  0.360783  0.879870  0.879476  1
  Co  Co8  1  0.879870  0.879870  0.879476  1
  Co  Co9  1  0.121465  0.121465  0.635605  1
  Co  Co10  1  0.121723  0.639762  0.116794  1
  Co  Co11  1  0.639762  0.121723  0.116794  1
  Co  Co12  1  0.121723  0.121723  0.116794  1
  Co  Co13  1  0.673550  0.673550  0.979349  1
  Co  Co14  1  0.670974  0.981880  0.676172  1
  Co  Co15  1  0.981880  0.670974  0.676172  1
  Co  Co16  1  0.670974  0.670974  0.676172  1
  Co  Co17  1  0.325696  0.325696  0.022912  1
  Co  Co18  1  0.327351  0.019999  0.325299  1
  Co  Co19  1  0.019999  0.327351  0.325299  1
  Co  Co20  1  0.327351  0.327351  0.325299  1
  Si  Si21  1  0.006055  0.006055  0.981834  1
  Si  Si22  1  0.001484  0.001484  0.508285  1
  Si  Si23  1  0.488747  0.001484  0.508285  1
  Si  Si24  1  0.001484  0.488747  0.508285  1
  Si  Si25  1  0.499865  0.499865  0.000578  1
  Si  Si26  1  0.999693  0.499865  0.000578  1
  Si  Si27  1  0.499865  0.999693  0.000578  1
  Pt  Pt28  1  0.883347  0.883347  0.349957  1
