# generated using pymatgen
data_Er5PtSe4
_symmetry_space_group_name_H-M   'P 1'
_cell_length_a   7.03776377
_cell_length_b   7.03783039
_cell_length_c   7.03774415
_cell_angle_alpha   99.67771881
_cell_angle_beta   99.67563638
_cell_angle_gamma   131.59136004
_symmetry_Int_Tables_number   1
_chemical_formula_structural   Er5PtSe4
_chemical_formula_sum   'Er5 Pt1 Se4'
_cell_volume   237.78773301
_cell_formula_units_Z   1
loop_
 _symmetry_equiv_pos_site_id
 _symmetry_equiv_pos_as_xyz
  1  'x, y, z'
loop_
 _atom_site_type_symbol
 _atom_site_label
 _atom_site_symmetry_multiplicity
 _atom_site_fract_x
 _atom_site_fract_y
 _atom_site_fract_z
 _atom_site_occupancy
  Er  Er0  1  0.403358  0.788617  0.191982  1
  Er  Er1  1  0.000000  0.000000  0.000000  1
  Er  Er2  1  0.596642  0.211383  0.808018  1
  Er  Er3  1  0.211381  0.403356  0.614744  1
  Er  Er4  1  0.788619  0.596644  0.385256  1
  Pt  Pt5  1  0.500000  0.500000  0.000000  1
  Se  Se6  1  0.095354  0.696145  0.791483  1
  Se  Se7  1  0.696156  0.904656  0.600791  1
  Se  Se8  1  0.303844  0.095344  0.399209  1
  Se  Se9  1  0.904646  0.303855  0.208517  1
