# generated using pymatgen
data_Er3Th(MgIr)4
_symmetry_space_group_name_H-M   'P 1'
_cell_length_a   4.08400700
_cell_length_b   7.08369473
_cell_length_c   8.66162600
_cell_angle_alpha   90.90402172
_cell_angle_beta   90.00000000
_cell_angle_gamma   90.00000000
_symmetry_Int_Tables_number   1
_chemical_formula_structural   Er3Th(MgIr)4
_chemical_formula_sum   'Er3 Th1 Mg4 Ir4'
_cell_volume   250.54842726
_cell_formula_units_Z   1
loop_
 _symmetry_equiv_pos_site_id
 _symmetry_equiv_pos_as_xyz
  1  'x, y, z'
loop_
 _atom_site_type_symbol
 _atom_site_label
 _atom_site_symmetry_multiplicity
 _atom_site_fract_x
 _atom_site_fract_y
 _atom_site_fract_z
 _atom_site_occupancy
  Er  Er0  1  0.750000  0.461412  0.819142  1
  Er  Er1  1  0.750000  0.958501  0.676252  1
  Er  Er2  1  0.250000  0.038046  0.329825  1
  Th  Th3  1  0.250000  0.537528  0.178903  1
  Mg  Mg4  1  0.250000  0.634511  0.562560  1
  Mg  Mg5  1  0.750000  0.358310  0.446589  1
  Mg  Mg6  1  0.750000  0.875199  0.057096  1
  Mg  Mg7  1  0.250000  0.136315  0.936065  1
  Ir  Ir8  1  0.250000  0.748286  0.872723  1
  Ir  Ir9  1  0.750000  0.257688  0.127540  1
  Ir  Ir10  1  0.750000  0.749677  0.363816  1
  Ir  Ir11  1  0.250000  0.244525  0.629489  1
