# generated using pymatgen
data_Lu3B6(Ir3Ru)2
_symmetry_space_group_name_H-M   'P 1'
_cell_length_a   9.95249162
_cell_length_b   9.15558185
_cell_length_c   5.54280120
_cell_angle_alpha   81.21834741
_cell_angle_beta   65.38739385
_cell_angle_gamma   32.98562937
_symmetry_Int_Tables_number   1
_chemical_formula_structural   Lu3B6(Ir3Ru)2
_chemical_formula_sum   'Lu3 B6 Ir6 Ru2'
_cell_volume   229.40593132
_cell_formula_units_Z   1
loop_
 _symmetry_equiv_pos_site_id
 _symmetry_equiv_pos_as_xyz
  1  'x, y, z'
loop_
 _atom_site_type_symbol
 _atom_site_label
 _atom_site_symmetry_multiplicity
 _atom_site_fract_x
 _atom_site_fract_y
 _atom_site_fract_z
 _atom_site_occupancy
  Lu  Lu0  1  0.000000  0.000000  0.000000  1
  Lu  Lu1  1  0.822718  0.822718  0.177282  1
  Lu  Lu2  1  0.177282  0.177282  0.822718  1
  B  B3  1  0.667745  0.332255  0.681321  1
  B  B4  1  0.332255  0.667745  0.318679  1
  B  B5  1  0.181317  0.471482  0.516149  1
  B  B6  1  0.471482  0.181317  0.831052  1
  B  B7  1  0.818683  0.528518  0.483851  1
  B  B8  1  0.528518  0.818683  0.168948  1
  Ir  Ir9  1  0.913590  0.913590  0.586410  1
  Ir  Ir10  1  0.415449  0.415449  0.584551  1
  Ir  Ir11  1  0.584551  0.584551  0.415449  1
  Ir  Ir12  1  0.249133  0.249133  0.250867  1
  Ir  Ir13  1  0.750867  0.750867  0.749133  1
  Ir  Ir14  1  0.086410  0.086410  0.413590  1
  Ru  Ru15  1  0.586738  0.586738  0.913262  1
  Ru  Ru16  1  0.413262  0.413262  0.086738  1
