# generated using pymatgen
data_Tb4DyYRh18
_symmetry_space_group_name_H-M   'P 1'
_cell_length_a   5.27637200
_cell_length_b   5.27637220
_cell_length_c   17.54307800
_cell_angle_alpha   90.00000000
_cell_angle_beta   90.00000000
_cell_angle_gamma   119.99998621
_symmetry_Int_Tables_number   1
_chemical_formula_structural   Tb4DyYRh18
_chemical_formula_sum   'Tb4 Dy1 Y1 Rh18'
_cell_volume   422.96781025
_cell_formula_units_Z   1
loop_
 _symmetry_equiv_pos_site_id
 _symmetry_equiv_pos_as_xyz
  1  'x, y, z'
loop_
 _atom_site_type_symbol
 _atom_site_label
 _atom_site_symmetry_multiplicity
 _atom_site_fract_x
 _atom_site_fract_y
 _atom_site_fract_z
 _atom_site_occupancy
  Tb  Tb0  1  0.666667  0.333333  0.042145  1
  Tb  Tb1  1  0.666667  0.333333  0.457692  1
  Tb  Tb2  1  0.333333  0.666667  0.542259  1
  Tb  Tb3  1  0.333333  0.666667  0.750078  1
  Dy  Dy4  1  0.333333  0.666667  0.957626  1
  Y  Y5  1  0.666667  0.333333  0.250026  1
  Rh  Rh6  1  0.167253  0.832747  0.373971  1
  Rh  Rh7  1  0.167253  0.334506  0.373971  1
  Rh  Rh8  1  0.665494  0.832747  0.373971  1
  Rh  Rh9  1  0.832757  0.167243  0.625984  1
  Rh  Rh10  1  0.832757  0.665515  0.625984  1
  Rh  Rh11  1  0.334485  0.167243  0.625984  1
  Rh  Rh12  1  0.832686  0.167314  0.874143  1
  Rh  Rh13  1  0.832686  0.665373  0.874143  1
  Rh  Rh14  1  0.334627  0.167314  0.874143  1
  Rh  Rh15  1  0.167300  0.832700  0.125976  1
  Rh  Rh16  1  0.167300  0.334599  0.125976  1
  Rh  Rh17  1  0.665401  0.832700  0.125976  1
  Rh  Rh18  1  0.333333  0.666667  0.249972  1
  Rh  Rh19  1  0.666667  0.333333  0.750051  1
  Rh  Rh20  1  0.000000  0.000000  0.249914  1
  Rh  Rh21  1  0.000000  0.000000  0.750064  1
  Rh  Rh22  1  0.000000  0.000000  0.499948  1
  Rh  Rh23  1  0.000000  0.000000  0.000002  1
