# generated using pymatgen
data_La11Pr5(CdPd)4
_symmetry_space_group_name_H-M   'P 1'
_cell_length_a   10.18228111
_cell_length_b   10.18281695
_cell_length_c   10.18306301
_cell_angle_alpha   59.99858166
_cell_angle_beta   60.00256460
_cell_angle_gamma   60.00412657
_symmetry_Int_Tables_number   1
_chemical_formula_structural   La11Pr5(CdPd)4
_chemical_formula_sum   'La11 Pr5 Cd4 Pd4'
_cell_volume   746.60992100
_cell_formula_units_Z   1
loop_
 _symmetry_equiv_pos_site_id
 _symmetry_equiv_pos_as_xyz
  1  'x, y, z'
loop_
 _atom_site_type_symbol
 _atom_site_label
 _atom_site_symmetry_multiplicity
 _atom_site_fract_x
 _atom_site_fract_y
 _atom_site_fract_z
 _atom_site_occupancy
  La  La0  1  0.350993  0.350509  0.350485  1
  La  La1  1  0.351007  0.350743  0.947273  1
  La  La2  1  0.351002  0.947269  0.350732  1
  La  La3  1  0.948017  0.350492  0.350508  1
  La  La4  1  0.806348  0.193672  0.193639  1
  La  La5  1  0.193878  0.806102  0.806140  1
  La  La6  1  0.193960  0.806595  0.193530  1
  La  La7  1  0.805910  0.193508  0.806612  1
  La  La8  1  0.193941  0.193516  0.806612  1
  La  La9  1  0.805908  0.806609  0.193536  1
  La  La10  1  0.934636  0.565355  0.565369  1
  Pr  Pr11  1  0.565310  0.934682  0.934679  1
  Pr  Pr12  1  0.565181  0.935405  0.565038  1
  Pr  Pr13  1  0.934373  0.565053  0.935401  1
  Pr  Pr14  1  0.565170  0.565049  0.935410  1
  Pr  Pr15  1  0.934377  0.935410  0.565046  1
  Cd  Cd16  1  0.579361  0.579683  0.579679  1
  Cd  Cd17  1  0.579668  0.579685  0.260978  1
  Cd  Cd18  1  0.579669  0.260983  0.579680  1
  Cd  Cd19  1  0.261277  0.579684  0.579678  1
  Pd  Pd20  1  0.143032  0.143076  0.143067  1
  Pd  Pd21  1  0.143083  0.142894  0.570947  1
  Pd  Pd22  1  0.143079  0.570954  0.142891  1
  Pd  Pd23  1  0.570821  0.143073  0.143071  1
