# generated using pymatgen
data_YHoTh2(InPd2)2
_symmetry_space_group_name_H-M   'P 1'
_cell_length_a   7.90611277
_cell_length_b   7.81886963
_cell_length_c   3.77097200
_cell_angle_alpha   90.00000000
_cell_angle_beta   90.00000000
_cell_angle_gamma   90.19769509
_symmetry_Int_Tables_number   1
_chemical_formula_structural   YHoTh2(InPd2)2
_chemical_formula_sum   'Y1 Ho1 Th2 In2 Pd4'
_cell_volume   233.10827956
_cell_formula_units_Z   1
loop_
 _symmetry_equiv_pos_site_id
 _symmetry_equiv_pos_as_xyz
  1  'x, y, z'
loop_
 _atom_site_type_symbol
 _atom_site_label
 _atom_site_symmetry_multiplicity
 _atom_site_fract_x
 _atom_site_fract_y
 _atom_site_fract_z
 _atom_site_occupancy
  Y  Y0  1  0.173235  0.323385  0.500000  1
  Ho  Ho1  1  0.673174  0.176426  0.500000  1
  Th  Th2  1  0.325726  0.832403  0.500000  1
  Th  Th3  1  0.825595  0.667682  0.500000  1
  In  In4  1  0.996144  0.008453  0.000000  1
  In  In5  1  0.496534  0.491471  0.000000  1
  Pd  Pd6  1  0.374560  0.124625  0.000000  1
  Pd  Pd7  1  0.872259  0.374570  0.000000  1
  Pd  Pd8  1  0.131217  0.630508  0.000000  1
  Pd  Pd9  1  0.631556  0.870476  0.000000  1
