# generated using pymatgen
data_Y11In9Au4
_symmetry_space_group_name_H-M   'P 1'
_cell_length_a   13.08753449
_cell_length_b   13.08753372
_cell_length_c   3.81319700
_cell_angle_alpha   90.00000000
_cell_angle_beta   90.00000000
_cell_angle_gamma   69.98708987
_symmetry_Int_Tables_number   1
_chemical_formula_structural   Y11In9Au4
_chemical_formula_sum   'Y11 In9 Au4'
_cell_volume   613.69852905
_cell_formula_units_Z   1
loop_
 _symmetry_equiv_pos_site_id
 _symmetry_equiv_pos_as_xyz
  1  'x, y, z'
loop_
 _atom_site_type_symbol
 _atom_site_label
 _atom_site_symmetry_multiplicity
 _atom_site_fract_x
 _atom_site_fract_y
 _atom_site_fract_z
 _atom_site_occupancy
  Y  Y0  1  0.298049  0.701952  0.000000  1
  Y  Y1  1  0.701952  0.298049  0.000000  1
  Y  Y2  1  0.000000  0.000000  0.000000  1
  Y  Y3  1  0.417356  0.928645  0.000000  1
  Y  Y4  1  0.582644  0.071355  0.000000  1
  Y  Y5  1  0.071355  0.582644  0.000000  1
  Y  Y6  1  0.928645  0.417356  0.000000  1
  Y  Y7  1  0.160205  0.160205  0.000000  1
  Y  Y8  1  0.839794  0.839794  0.000000  1
  Y  Y9  1  0.363365  0.363365  0.000000  1
  Y  Y10  1  0.636635  0.636635  0.000000  1
  In  In11  1  0.366447  0.149765  0.500002  1
  In  In12  1  0.633553  0.850235  0.500002  1
  In  In13  1  0.850235  0.633553  0.500002  1
  In  In14  1  0.149765  0.366447  0.500002  1
  In  In15  1  0.213353  0.935670  0.500002  1
  In  In16  1  0.786647  0.064330  0.500002  1
  In  In17  1  0.064330  0.786647  0.500002  1
  In  In18  1  0.935670  0.213353  0.500002  1
  In  In19  1  0.500000  0.500000  0.500002  1
  Au  Au20  1  0.453331  0.746906  0.500002  1
  Au  Au21  1  0.546669  0.253094  0.500002  1
  Au  Au22  1  0.253094  0.546669  0.500002  1
  Au  Au23  1  0.746906  0.453331  0.500002  1
