# generated using pymatgen
data_Sc6Si6Tc5Os
_symmetry_space_group_name_H-M   'P 1'
_cell_length_a   7.76876640
_cell_length_b   7.76821442
_cell_length_c   7.76821464
_cell_angle_alpha   126.82376573
_cell_angle_beta   127.82464844
_cell_angle_gamma   77.72341840
_symmetry_Int_Tables_number   1
_chemical_formula_structural   Sc6Si6Tc5Os
_chemical_formula_sum   'Sc6 Si6 Tc5 Os1'
_cell_volume   287.38904110
_cell_formula_units_Z   1
loop_
 _symmetry_equiv_pos_site_id
 _symmetry_equiv_pos_as_xyz
  1  'x, y, z'
loop_
 _atom_site_type_symbol
 _atom_site_label
 _atom_site_symmetry_multiplicity
 _atom_site_fract_x
 _atom_site_fract_y
 _atom_site_fract_z
 _atom_site_occupancy
  Sc  Sc0  1  0.552639  0.104392  0.050711  1
  Sc  Sc1  1  0.447361  0.498072  0.551752  1
  Sc  Sc2  1  0.946794  0.498045  0.050429  1
  Sc  Sc3  1  0.053206  0.103635  0.551252  1
  Sc  Sc4  1  0.749829  0.891771  0.641190  1
  Sc  Sc5  1  0.250171  0.891361  0.141941  1
  Si  Si6  1  0.333294  0.828600  0.496291  1
  Si  Si7  1  0.666706  0.162998  0.495305  1
  Si  Si8  1  0.833169  0.831249  0.997120  1
  Si  Si9  1  0.166831  0.163951  0.998077  1
  Si  Si10  1  0.750907  0.496739  0.247279  1
  Si  Si11  1  0.249093  0.496372  0.745832  1
  Tc  Tc12  1  0.129436  0.756257  0.627206  1
  Tc  Tc13  1  0.870564  0.497770  0.626821  1
  Tc  Tc14  1  0.629578  0.753953  0.124051  1
  Tc  Tc15  1  0.370422  0.494472  0.124375  1
  Tc  Tc16  1  0.500000  0.235656  0.735656  1
  Os  Os17  1  0.000000  0.238709  0.238709  1
