# generated using pymatgen
data_Tm2Lu18(SiSb3)3
_symmetry_space_group_name_H-M   'P 1'
_cell_length_a   7.85602223
_cell_length_b   8.95591000
_cell_length_c   11.63361500
_cell_angle_alpha   90.00000000
_cell_angle_beta   89.91549264
_cell_angle_gamma   90.00000000
_symmetry_Int_Tables_number   1
_chemical_formula_structural   Tm2Lu18(SiSb3)3
_chemical_formula_sum   'Tm2 Lu18 Si3 Sb9'
_cell_volume   818.51499370
_cell_formula_units_Z   1
loop_
 _symmetry_equiv_pos_site_id
 _symmetry_equiv_pos_as_xyz
  1  'x, y, z'
loop_
 _atom_site_type_symbol
 _atom_site_label
 _atom_site_symmetry_multiplicity
 _atom_site_fract_x
 _atom_site_fract_y
 _atom_site_fract_z
 _atom_site_occupancy
  Tm  Tm0  1  0.640764  0.750000  0.293340  1
  Tm  Tm1  1  0.858233  0.750000  0.794863  1
  Lu  Lu2  1  0.815699  0.946103  0.063757  1
  Lu  Lu3  1  0.310601  0.044220  0.431328  1
  Lu  Lu4  1  0.180729  0.446744  0.938699  1
  Lu  Lu5  1  0.686964  0.565438  0.565720  1
  Lu  Lu6  1  0.180729  0.053256  0.938699  1
  Lu  Lu7  1  0.686964  0.934562  0.565720  1
  Lu  Lu8  1  0.815699  0.553897  0.063757  1
  Lu  Lu9  1  0.310601  0.455780  0.431328  1
  Lu  Lu10  1  0.535753  0.250000  0.996133  1
  Lu  Lu11  1  0.041036  0.750000  0.501938  1
  Lu  Lu12  1  0.460840  0.750000  0.001516  1
  Lu  Lu13  1  0.974974  0.250000  0.497293  1
  Lu  Lu14  1  0.165699  0.750000  0.213605  1
  Lu  Lu15  1  0.677654  0.250000  0.271851  1
  Lu  Lu16  1  0.835791  0.250000  0.786435  1
  Lu  Lu17  1  0.334786  0.750000  0.716173  1
  Lu  Lu18  1  0.141603  0.250000  0.207267  1
  Lu  Lu19  1  0.343520  0.250000  0.714192  1
  Si  Si20  1  0.909048  0.250000  0.024697  1
  Si  Si21  1  0.416120  0.750000  0.480986  1
  Si  Si22  1  0.088175  0.750000  0.978380  1
  Sb  Sb23  1  0.932705  0.988350  0.326362  1
  Sb  Sb24  1  0.432710  0.011130  0.172954  1
  Sb  Sb25  1  0.066700  0.491250  0.674294  1
  Sb  Sb26  1  0.566793  0.509786  0.825778  1
  Sb  Sb27  1  0.066700  0.008750  0.674294  1
  Sb  Sb28  1  0.566793  0.990214  0.825778  1
  Sb  Sb29  1  0.932705  0.511650  0.326362  1
  Sb  Sb30  1  0.432710  0.488870  0.172954  1
  Sb  Sb31  1  0.590201  0.250000  0.523547  1
