# generated using pymatgen
data_Tb3YRu7W
_symmetry_space_group_name_H-M   'P 1'
_cell_length_a   5.19769571
_cell_length_b   5.19769524
_cell_length_c   9.08030159
_cell_angle_alpha   90.05745763
_cell_angle_beta   89.94254455
_cell_angle_gamma   116.24686228
_symmetry_Int_Tables_number   1
_chemical_formula_structural   Tb3YRu7W
_chemical_formula_sum   'Tb3 Y1 Ru7 W1'
_cell_volume   220.02102626
_cell_formula_units_Z   1
loop_
 _symmetry_equiv_pos_site_id
 _symmetry_equiv_pos_as_xyz
  1  'x, y, z'
loop_
 _atom_site_type_symbol
 _atom_site_label
 _atom_site_symmetry_multiplicity
 _atom_site_fract_x
 _atom_site_fract_y
 _atom_site_fract_z
 _atom_site_occupancy
  Tb  Tb0  1  0.664768  0.335232  0.568467  1
  Tb  Tb1  1  0.664525  0.335475  0.931735  1
  Tb  Tb2  1  0.326886  0.673114  0.062936  1
  Y  Y3  1  0.327005  0.672995  0.436695  1
  Ru  Ru4  1  0.989889  0.010111  0.501715  1
  Ru  Ru5  1  0.989917  0.010083  0.998482  1
  Ru  Ru6  1  0.828817  0.647342  0.250195  1
  Ru  Ru7  1  0.352658  0.171183  0.250195  1
  Ru  Ru8  1  0.177265  0.822735  0.749741  1
  Ru  Ru9  1  0.167364  0.331892  0.749832  1
  Ru  Ru10  1  0.668108  0.832636  0.749832  1
  W  W11  1  0.842799  0.157201  0.250175  1
