# generated using pymatgen
data_Na6LaNd7Au20
_symmetry_space_group_name_H-M   'P 1'
_cell_length_a   8.86622267
_cell_length_b   8.86622477
_cell_length_c   10.38894006
_cell_angle_alpha   89.97022828
_cell_angle_beta   89.97022583
_cell_angle_gamma   108.65965896
_symmetry_Int_Tables_number   1
_chemical_formula_structural   Na6LaNd7Au20
_chemical_formula_sum   'Na6 La1 Nd7 Au20'
_cell_volume   773.74565254
_cell_formula_units_Z   1
loop_
 _symmetry_equiv_pos_site_id
 _symmetry_equiv_pos_as_xyz
  1  'x, y, z'
loop_
 _atom_site_type_symbol
 _atom_site_label
 _atom_site_symmetry_multiplicity
 _atom_site_fract_x
 _atom_site_fract_y
 _atom_site_fract_z
 _atom_site_occupancy
  Na  Na0  1  0.514007  0.013593  0.249883  1
  Na  Na1  1  0.985693  0.486312  0.749968  1
  Na  Na2  1  0.999739  0.999739  0.000278  1
  Na  Na3  1  0.013593  0.514007  0.249883  1
  Na  Na4  1  0.486312  0.985693  0.749968  1
  Na  Na5  1  0.500319  0.500319  0.499854  1
  La  La6  1  0.199000  0.199000  0.700537  1
  Nd  Nd7  1  0.700119  0.299447  0.000057  1
  Nd  Nd8  1  0.199984  0.799540  0.499399  1
  Nd  Nd9  1  0.802497  0.802497  0.301306  1
  Nd  Nd10  1  0.302397  0.302397  0.198747  1
  Nd  Nd11  1  0.799540  0.199984  0.499399  1
  Nd  Nd12  1  0.299447  0.700119  0.000057  1
  Nd  Nd13  1  0.698262  0.698262  0.801520  1
  Au  Au14  1  0.149859  0.431562  0.487027  1
  Au  Au15  1  0.901452  0.901452  0.594339  1
  Au  Au16  1  0.568931  0.849506  0.511321  1
  Au  Au17  1  0.879368  0.160956  0.209805  1
  Au  Au18  1  0.379244  0.660819  0.289642  1
  Au  Au19  1  0.660819  0.379244  0.289642  1
  Au  Au20  1  0.403833  0.403833  0.906403  1
  Au  Au21  1  0.930470  0.649657  0.011773  1
  Au  Au22  1  0.339374  0.621979  0.710287  1
  Au  Au23  1  0.350695  0.069013  0.989377  1
  Au  Au24  1  0.598701  0.598701  0.096027  1
  Au  Au25  1  0.649657  0.930470  0.011773  1
  Au  Au26  1  0.097524  0.097524  0.404384  1
  Au  Au27  1  0.621979  0.339374  0.710287  1
  Au  Au28  1  0.119739  0.836412  0.789764  1
  Au  Au29  1  0.069013  0.350695  0.989377  1
  Au  Au30  1  0.849506  0.568931  0.511321  1
  Au  Au31  1  0.160956  0.879368  0.209805  1
  Au  Au32  1  0.431562  0.149859  0.487027  1
  Au  Au33  1  0.836412  0.119739  0.789764  1
