# generated using pymatgen
data_Er3ZnCo2Sn3
_symmetry_space_group_name_H-M   'P 1'
_cell_length_a   7.43889700
_cell_length_b   7.43889608
_cell_length_c   3.78478500
_cell_angle_alpha   90.00000000
_cell_angle_beta   90.00000000
_cell_angle_gamma   119.99999966
_symmetry_Int_Tables_number   1
_chemical_formula_structural   Er3ZnCo2Sn3
_chemical_formula_sum   'Er3 Zn1 Co2 Sn3'
_cell_volume   181.37978550
_cell_formula_units_Z   1
loop_
 _symmetry_equiv_pos_site_id
 _symmetry_equiv_pos_as_xyz
  1  'x, y, z'
loop_
 _atom_site_type_symbol
 _atom_site_label
 _atom_site_symmetry_multiplicity
 _atom_site_fract_x
 _atom_site_fract_y
 _atom_site_fract_z
 _atom_site_occupancy
  Er  Er0  1  0.391266  0.410867  0.500000  1
  Er  Er1  1  0.589133  0.980399  0.500000  1
  Er  Er2  1  0.019601  0.608734  0.500000  1
  Zn  Zn3  1  0.666667  0.333333  0.000000  1
  Co  Co4  1  0.333333  0.666667  0.000000  1
  Co  Co5  1  0.000000  0.000000  0.500000  1
  Sn  Sn6  1  0.743753  0.746079  0.000000  1
  Sn  Sn7  1  0.253921  0.997673  0.000000  1
  Sn  Sn8  1  0.002327  0.256247  0.000000  1
