# generated using pymatgen
data_RbCd2Au3
_symmetry_space_group_name_H-M   'P 1'
_cell_length_a   6.20314400
_cell_length_b   7.26975900
_cell_length_c   14.27333900
_cell_angle_alpha   90.00000000
_cell_angle_beta   90.00000000
_cell_angle_gamma   90.00000000
_symmetry_Int_Tables_number   1
_chemical_formula_structural   RbCd2Au3
_chemical_formula_sum   'Rb4 Cd8 Au12'
_cell_volume   643.66138804
_cell_formula_units_Z   4
loop_
 _symmetry_equiv_pos_site_id
 _symmetry_equiv_pos_as_xyz
  1  'x, y, z'
loop_
 _atom_site_type_symbol
 _atom_site_label
 _atom_site_symmetry_multiplicity
 _atom_site_fract_x
 _atom_site_fract_y
 _atom_site_fract_z
 _atom_site_occupancy
  Rb  Rb0  1  0.250000  0.112268  0.083217  1
  Rb  Rb1  1  0.250000  0.387732  0.583217  1
  Rb  Rb2  1  0.750000  0.887732  0.916783  1
  Rb  Rb3  1  0.750000  0.612268  0.416783  1
  Cd  Cd4  1  0.004315  0.889610  0.649906  1
  Cd  Cd5  1  0.495685  0.610390  0.149906  1
  Cd  Cd6  1  0.504315  0.110390  0.350094  1
  Cd  Cd7  1  0.995685  0.389610  0.850094  1
  Cd  Cd8  1  0.995685  0.110390  0.350094  1
  Cd  Cd9  1  0.504315  0.389610  0.850094  1
  Cd  Cd10  1  0.495685  0.889610  0.649906  1
  Cd  Cd11  1  0.004315  0.610390  0.149906  1
  Au  Au12  1  0.250000  0.092165  0.790852  1
  Au  Au13  1  0.250000  0.407835  0.290852  1
  Au  Au14  1  0.750000  0.907835  0.209148  1
  Au  Au15  1  0.750000  0.592165  0.709148  1
  Au  Au16  1  0.250000  0.706723  0.796437  1
  Au  Au17  1  0.250000  0.793277  0.296437  1
  Au  Au18  1  0.750000  0.293277  0.203563  1
  Au  Au19  1  0.750000  0.206723  0.703563  1
  Au  Au20  1  0.250000  0.593470  0.985216  1
  Au  Au21  1  0.250000  0.906530  0.485216  1
  Au  Au22  1  0.750000  0.406530  0.014784  1
  Au  Au23  1  0.750000  0.093470  0.514784  1
