# generated using pymatgen
data_Pr4Fe3RhO12
_symmetry_space_group_name_H-M   'P 1'
_cell_length_a   5.54561195
_cell_length_b   5.70827632
_cell_length_c   7.90435358
_cell_angle_alpha   90.31655014
_cell_angle_beta   90.10574951
_cell_angle_gamma   89.94727105
_symmetry_Int_Tables_number   1
_chemical_formula_structural   Pr4Fe3RhO12
_chemical_formula_sum   'Pr4 Fe3 Rh1 O12'
_cell_volume   250.21496238
_cell_formula_units_Z   1
loop_
 _symmetry_equiv_pos_site_id
 _symmetry_equiv_pos_as_xyz
  1  'x, y, z'
loop_
 _atom_site_type_symbol
 _atom_site_label
 _atom_site_symmetry_multiplicity
 _atom_site_fract_x
 _atom_site_fract_y
 _atom_site_fract_z
 _atom_site_occupancy
  Pr  Pr0  1  0.011980  0.945820  0.749825  1
  Pr  Pr1  1  0.514748  0.553109  0.250128  1
  Pr  Pr2  1  0.485252  0.446891  0.749872  1
  Pr  Pr3  1  0.988020  0.054180  0.250175  1
  Fe  Fe4  1  0.500000  0.000000  0.500000  1
  Fe  Fe5  1  0.500000  0.000000  0.000000  1
  Fe  Fe6  1  0.000000  0.500000  0.000000  1
  Rh  Rh7  1  0.000000  0.500000  0.500000  1
  O  O8  1  0.700690  0.290711  0.450253  1
  O  O9  1  0.206527  0.203033  0.549059  1
  O  O10  1  0.794000  0.793871  0.048060  1
  O  O11  1  0.294048  0.706027  0.952185  1
  O  O12  1  0.299310  0.709289  0.549747  1
  O  O13  1  0.793473  0.796967  0.450941  1
  O  O14  1  0.206000  0.206129  0.951940  1
  O  O15  1  0.705952  0.293973  0.047815  1
  O  O16  1  0.093165  0.473530  0.246739  1
  O  O17  1  0.589565  0.025509  0.749872  1
  O  O18  1  0.410435  0.974491  0.250128  1
  O  O19  1  0.906835  0.526470  0.753261  1
