# generated using pymatgen
data_Ce3TmSc2(AlIr2)2
_symmetry_space_group_name_H-M   'P 1'
_cell_length_a   6.96589065
_cell_length_b   4.34896300
_cell_length_c   8.22095195
_cell_angle_alpha   90.00000000
_cell_angle_beta   90.07885096
_cell_angle_gamma   90.00000000
_symmetry_Int_Tables_number   1
_chemical_formula_structural   Ce3TmSc2(AlIr2)2
_chemical_formula_sum   'Ce3 Tm1 Sc2 Al2 Ir4'
_cell_volume   249.04857651
_cell_formula_units_Z   1
loop_
 _symmetry_equiv_pos_site_id
 _symmetry_equiv_pos_as_xyz
  1  'x, y, z'
loop_
 _atom_site_type_symbol
 _atom_site_label
 _atom_site_symmetry_multiplicity
 _atom_site_fract_x
 _atom_site_fract_y
 _atom_site_fract_z
 _atom_site_occupancy
  Ce  Ce0  1  0.962619  0.250000  0.180053  1
  Ce  Ce1  1  0.461232  0.250000  0.314924  1
  Ce  Ce2  1  0.529854  0.750000  0.679094  1
  Tm  Tm3  1  0.030370  0.750000  0.823152  1
  Sc  Sc4  1  0.873267  0.250000  0.563378  1
  Sc  Sc5  1  0.365202  0.250000  0.937802  1
  Al  Al6  1  0.136983  0.750000  0.440554  1
  Al  Al7  1  0.638388  0.750000  0.060271  1
  Ir  Ir8  1  0.746181  0.250000  0.888682  1
  Ir  Ir9  1  0.247549  0.250000  0.609999  1
  Ir  Ir10  1  0.254139  0.750000  0.121491  1
  Ir  Ir11  1  0.754215  0.750000  0.380603  1
