# generated using pymatgen
data_AcLaS3
_symmetry_space_group_name_H-M   'P 1'
_cell_length_a   4.25713500
_cell_length_b   7.74812900
_cell_length_c   16.11542600
_cell_angle_alpha   90.00000000
_cell_angle_beta   90.00000000
_cell_angle_gamma   90.00000000
_symmetry_Int_Tables_number   1
_chemical_formula_structural   AcLaS3
_chemical_formula_sum   'Ac4 La4 S12'
_cell_volume   531.56460553
_cell_formula_units_Z   4
loop_
 _symmetry_equiv_pos_site_id
 _symmetry_equiv_pos_as_xyz
  1  'x, y, z'
loop_
 _atom_site_type_symbol
 _atom_site_label
 _atom_site_symmetry_multiplicity
 _atom_site_fract_x
 _atom_site_fract_y
 _atom_site_fract_z
 _atom_site_occupancy
  Ac  Ac0  1  0.250000  0.146276  0.797350  1
  Ac  Ac1  1  0.750000  0.853724  0.202650  1
  Ac  Ac2  1  0.250000  0.646276  0.702650  1
  Ac  Ac3  1  0.750000  0.353724  0.297350  1
  La  La4  1  0.250000  0.765742  0.456423  1
  La  La5  1  0.750000  0.234258  0.543577  1
  La  La6  1  0.250000  0.265742  0.043577  1
  La  La7  1  0.750000  0.734258  0.956423  1
  S  S8  1  0.250000  0.370926  0.437261  1
  S  S9  1  0.750000  0.629074  0.562739  1
  S  S10  1  0.250000  0.870926  0.062739  1
  S  S11  1  0.750000  0.129074  0.937261  1
  S  S12  1  0.250000  0.146145  0.216811  1
  S  S13  1  0.750000  0.853855  0.783189  1
  S  S14  1  0.250000  0.646145  0.283189  1
  S  S15  1  0.750000  0.353855  0.716811  1
  S  S16  1  0.750000  0.485121  0.106763  1
  S  S17  1  0.250000  0.514879  0.893237  1
  S  S18  1  0.750000  0.985121  0.393237  1
  S  S19  1  0.250000  0.014879  0.606763  1
