# generated using pymatgen
data_Ca3Pr(Rh2O7)2
_symmetry_space_group_name_H-M   'P 1'
_cell_length_a   7.32327486
_cell_length_b   7.32327602
_cell_length_c   7.32327545
_cell_angle_alpha   59.77415501
_cell_angle_beta   59.77414719
_cell_angle_gamma   59.77414999
_symmetry_Int_Tables_number   1
_chemical_formula_structural   Ca3Pr(Rh2O7)2
_chemical_formula_sum   'Ca3 Pr1 Rh4 O14'
_cell_volume   276.29206219
_cell_formula_units_Z   1
loop_
 _symmetry_equiv_pos_site_id
 _symmetry_equiv_pos_as_xyz
  1  'x, y, z'
loop_
 _atom_site_type_symbol
 _atom_site_label
 _atom_site_symmetry_multiplicity
 _atom_site_fract_x
 _atom_site_fract_y
 _atom_site_fract_z
 _atom_site_occupancy
  Ca  Ca0  1  0.125000  0.625000  0.125000  1
  Ca  Ca1  1  0.625000  0.125000  0.125000  1
  Ca  Ca2  1  0.125000  0.125000  0.625000  1
  Pr  Pr3  1  0.125000  0.125000  0.125000  1
  Rh  Rh4  1  0.625000  0.625000  0.625000  1
  Rh  Rh5  1  0.625000  0.625000  0.125000  1
  Rh  Rh6  1  0.125000  0.625000  0.625000  1
  Rh  Rh7  1  0.625000  0.125000  0.625000  1
  O  O8  1  0.251753  0.251753  0.251753  1
  O  O9  1  0.297975  0.701687  0.297975  1
  O  O10  1  0.952025  0.952025  0.548313  1
  O  O11  1  0.551286  0.949311  0.551286  1
  O  O12  1  0.698714  0.698714  0.300689  1
  O  O13  1  0.949311  0.551286  0.551286  1
  O  O14  1  0.698714  0.300689  0.698714  1
  O  O15  1  0.297975  0.297975  0.701687  1
  O  O16  1  0.701687  0.297975  0.297975  1
  O  O17  1  0.300689  0.698714  0.698714  1
  O  O18  1  0.952025  0.548313  0.952025  1
  O  O19  1  0.551286  0.551286  0.949311  1
  O  O20  1  0.998247  0.998247  0.998247  1
  O  O21  1  0.548313  0.952025  0.952025  1
