# generated using pymatgen
data_Dy2Tm3Hf3Pt4
_symmetry_space_group_name_H-M   'P 1'
_cell_length_a   4.69316200
_cell_length_b   7.02779718
_cell_length_c   8.32097369
_cell_angle_alpha   89.53397965
_cell_angle_beta   90.00000000
_cell_angle_gamma   90.00000000
_symmetry_Int_Tables_number   1
_chemical_formula_structural   Dy2Tm3Hf3Pt4
_chemical_formula_sum   'Dy2 Tm3 Hf3 Pt4'
_cell_volume   274.43819136
_cell_formula_units_Z   1
loop_
 _symmetry_equiv_pos_site_id
 _symmetry_equiv_pos_as_xyz
  1  'x, y, z'
loop_
 _atom_site_type_symbol
 _atom_site_label
 _atom_site_symmetry_multiplicity
 _atom_site_fract_x
 _atom_site_fract_y
 _atom_site_fract_z
 _atom_site_occupancy
  Dy  Dy0  1  0.250000  0.988230  0.326127  1
  Dy  Dy1  1  0.250000  0.480167  0.171642  1
  Tm  Tm2  1  0.750000  0.646423  0.420228  1
  Tm  Tm3  1  0.750000  0.019403  0.682147  1
  Tm  Tm4  1  0.750000  0.517499  0.820385  1
  Hf  Hf5  1  0.250000  0.857152  0.923793  1
  Hf  Hf6  1  0.250000  0.354493  0.578682  1
  Hf  Hf7  1  0.750000  0.147120  0.076165  1
  Pt  Pt8  1  0.250000  0.231120  0.901753  1
  Pt  Pt9  1  0.250000  0.734383  0.610220  1
  Pt  Pt10  1  0.750000  0.770582  0.081774  1
  Pt  Pt11  1  0.750000  0.253431  0.407085  1
