# generated using pymatgen
data_Ac8Tl3InPd5Au3
_symmetry_space_group_name_H-M   'P 1'
_cell_length_a   8.38362365
_cell_length_b   8.37997890
_cell_length_c   8.16148624
_cell_angle_alpha   90.02470518
_cell_angle_beta   90.00939119
_cell_angle_gamma   90.16408869
_symmetry_Int_Tables_number   1
_chemical_formula_structural   Ac8Tl3InPd5Au3
_chemical_formula_sum   'Ac8 Tl3 In1 Pd5 Au3'
_cell_volume   573.37945157
_cell_formula_units_Z   1
loop_
 _symmetry_equiv_pos_site_id
 _symmetry_equiv_pos_as_xyz
  1  'x, y, z'
loop_
 _atom_site_type_symbol
 _atom_site_label
 _atom_site_symmetry_multiplicity
 _atom_site_fract_x
 _atom_site_fract_y
 _atom_site_fract_z
 _atom_site_occupancy
  Ac  Ac0  1  0.166701  0.177872  0.002419  1
  Ac  Ac1  1  0.819205  0.826208  0.000517  1
  Ac  Ac2  1  0.678875  0.325234  0.498258  1
  Ac  Ac3  1  0.334436  0.668934  0.497863  1
  Ac  Ac4  1  0.682216  0.320946  0.002016  1
  Ac  Ac5  1  0.327385  0.677966  0.001691  1
  Ac  Ac6  1  0.813066  0.821070  0.499674  1
  Ac  Ac7  1  0.174466  0.184998  0.498449  1
  Tl  Tl8  1  0.503169  0.005412  0.248575  1
  Tl  Tl9  1  0.506323  0.996031  0.749133  1
  Tl  Tl10  1  0.999517  0.496612  0.247615  1
  In  In11  1  0.989942  0.497377  0.750126  1
  Pd  Pd12  1  0.376787  0.375443  0.243063  1
  Pd  Pd13  1  0.633605  0.618767  0.756153  1
  Pd  Pd14  1  0.623065  0.619228  0.243751  1
  Pd  Pd15  1  0.881149  0.131777  0.744744  1
  Pd  Pd16  1  0.875073  0.122092  0.256239  1
  Au  Au17  1  0.379486  0.380774  0.758644  1
  Au  Au18  1  0.118806  0.877771  0.259477  1
  Au  Au19  1  0.116728  0.875489  0.741593  1
