# generated using pymatgen
data_Ba4TbTh3F24
_symmetry_space_group_name_H-M   'P 1'
_cell_length_a   7.71582648
_cell_length_b   8.88894812
_cell_length_c   9.06909412
_cell_angle_alpha   102.47606795
_cell_angle_beta   95.09979467
_cell_angle_gamma   114.80553154
_symmetry_Int_Tables_number   1
_chemical_formula_structural   Ba4TbTh3F24
_chemical_formula_sum   'Ba4 Tb1 Th3 F24'
_cell_volume   539.86021021
_cell_formula_units_Z   1
loop_
 _symmetry_equiv_pos_site_id
 _symmetry_equiv_pos_as_xyz
  1  'x, y, z'
loop_
 _atom_site_type_symbol
 _atom_site_label
 _atom_site_symmetry_multiplicity
 _atom_site_fract_x
 _atom_site_fract_y
 _atom_site_fract_z
 _atom_site_occupancy
  Ba  Ba0  1  0.268118  0.769112  0.537885  1
  Ba  Ba1  1  0.293666  0.298181  0.766282  1
  Ba  Ba2  1  0.707665  0.255843  0.465124  1
  Ba  Ba3  1  0.704261  0.688309  0.233110  1
  Tb  Tb4  1  0.842443  0.739080  0.738812  1
  Th  Th5  1  0.760940  0.206953  0.928024  1
  Th  Th6  1  0.182075  0.267927  0.280583  1
  Th  Th7  1  0.238700  0.777453  0.070716  1
  F  F8  1  0.086762  0.955253  0.688250  1
  F  F9  1  0.416819  0.630245  0.994435  1
  F  F10  1  0.919405  0.041026  0.316836  1
  F  F11  1  0.241266  0.045156  0.149567  1
  F  F12  1  0.772541  0.948667  0.858409  1
  F  F13  1  0.078349  0.755522  0.274292  1
  F  F14  1  0.877472  0.609329  0.508218  1
  F  F15  1  0.134402  0.715062  0.802400  1
  F  F16  1  0.503541  0.633774  0.649773  1
  F  F17  1  0.323480  0.198947  0.476694  1
  F  F18  1  0.099640  0.237347  0.013948  1
  F  F19  1  0.296465  0.555991  0.277002  1
  F  F20  1  0.685413  0.458002  0.725379  1
  F  F21  1  0.585341  0.355355  0.993965  1
  F  F22  1  0.862656  0.273558  0.198175  1
  F  F23  1  0.519348  0.096039  0.705219  1
  F  F24  1  0.495752  0.990515  0.993914  1
  F  F25  1  0.913818  0.760280  0.992733  1
  F  F26  1  0.915641  0.242061  0.723363  1
  F  F27  1  0.483590  0.906651  0.293224  1
  F  F28  1  0.515066  0.387424  0.299186  1
  F  F29  1  0.999949  0.493702  0.001521  1
  F  F30  1  0.115342  0.404043  0.500528  1
  F  F31  1  0.660073  0.803191  0.542434  1
