# generated using pymatgen
data_Mg6Nb6Ir11Rh
_symmetry_space_group_name_H-M   'P 1'
_cell_length_a   4.26203300
_cell_length_b   7.00828201
_cell_length_c   12.73018301
_cell_angle_alpha   90.00463275
_cell_angle_beta   89.99997749
_cell_angle_gamma   90.00341542
_symmetry_Int_Tables_number   1
_chemical_formula_structural   Mg6Nb6Ir11Rh
_chemical_formula_sum   'Mg6 Nb6 Ir11 Rh1'
_cell_volume   380.24457134
_cell_formula_units_Z   1
loop_
 _symmetry_equiv_pos_site_id
 _symmetry_equiv_pos_as_xyz
  1  'x, y, z'
loop_
 _atom_site_type_symbol
 _atom_site_label
 _atom_site_symmetry_multiplicity
 _atom_site_fract_x
 _atom_site_fract_y
 _atom_site_fract_z
 _atom_site_occupancy
  Mg  Mg0  1  0.000089  0.500715  0.999093  1
  Mg  Mg1  1  0.499964  0.000228  0.166824  1
  Mg  Mg2  1  0.999908  0.499019  0.333328  1
  Mg  Mg3  1  0.499872  0.999832  0.500029  1
  Mg  Mg4  1  0.999881  0.501464  0.667927  1
  Mg  Mg5  1  0.500385  0.998237  0.833084  1
  Nb  Nb6  1  0.999981  0.000487  0.000522  1
  Nb  Nb7  1  0.499916  0.500374  0.166498  1
  Nb  Nb8  1  0.999933  0.000645  0.333243  1
  Nb  Nb9  1  0.499924  0.500384  0.500094  1
  Nb  Nb10  1  0.999993  0.000553  0.666072  1
  Nb  Nb11  1  0.499997  0.498101  0.833352  1
  Ir  Ir12  1  0.499956  0.249710  0.000052  1
  Ir  Ir13  1  0.500064  0.750239  0.999998  1
  Ir  Ir14  1  0.999921  0.250482  0.166304  1
  Ir  Ir15  1  0.999932  0.749145  0.166883  1
  Ir  Ir16  1  0.499916  0.249924  0.333300  1
  Ir  Ir17  1  0.499864  0.749632  0.333322  1
  Ir  Ir18  1  0.999927  0.250532  0.500404  1
  Ir  Ir19  1  0.999976  0.749294  0.499766  1
  Ir  Ir20  1  0.499967  0.249877  0.666509  1
  Ir  Ir21  1  0.500070  0.750291  0.666711  1
  Ir  Ir22  1  0.000008  0.249614  0.833301  1
  Rh  Rh23  1  0.000556  0.751223  0.833383  1
