# generated using pymatgen
data_KBaSbAsPt2
_symmetry_space_group_name_H-M   'P 1'
_cell_length_a   6.93921916
_cell_length_b   7.02915074
_cell_length_c   6.96988913
_cell_angle_alpha   91.11850606
_cell_angle_beta   90.05608678
_cell_angle_gamma   90.24978772
_symmetry_Int_Tables_number   1
_chemical_formula_structural   KBaSbAsPt2
_chemical_formula_sum   'K2 Ba2 Sb2 As2 Pt4'
_cell_volume   339.90080953
_cell_formula_units_Z   2
loop_
 _symmetry_equiv_pos_site_id
 _symmetry_equiv_pos_as_xyz
  1  'x, y, z'
loop_
 _atom_site_type_symbol
 _atom_site_label
 _atom_site_symmetry_multiplicity
 _atom_site_fract_x
 _atom_site_fract_y
 _atom_site_fract_z
 _atom_site_occupancy
  K  K0  1  0.626849  0.383074  0.870653  1
  K  K1  1  0.380095  0.868041  0.629825  1
  Ba  Ba2  1  0.134403  0.115158  0.122206  1
  Ba  Ba3  1  0.873521  0.632851  0.378392  1
  Sb  Sb4  1  0.164866  0.336307  0.669537  1
  Sb  Sb5  1  0.666444  0.166351  0.328149  1
  As  As6  1  0.332638  0.669475  0.164142  1
  As  As7  1  0.838911  0.834611  0.840379  1
  Pt  Pt8  1  0.594702  0.886412  0.085195  1
  Pt  Pt9  1  0.090936  0.611059  0.917785  1
  Pt  Pt10  1  0.397162  0.418236  0.387543  1
  Pt  Pt11  1  0.899474  0.078424  0.606193  1
