# generated using pymatgen
data_TbErPRh6
_symmetry_space_group_name_H-M   'P 1'
_cell_length_a   5.95347870
_cell_length_b   5.95347845
_cell_length_c   5.95347900
_cell_angle_alpha   60.00000248
_cell_angle_beta   60.00000390
_cell_angle_gamma   60.00000438
_symmetry_Int_Tables_number   1
_chemical_formula_structural   TbErPRh6
_chemical_formula_sum   'Tb1 Er1 P1 Rh6'
_cell_volume   149.20983618
_cell_formula_units_Z   1
loop_
 _symmetry_equiv_pos_site_id
 _symmetry_equiv_pos_as_xyz
  1  'x, y, z'
loop_
 _atom_site_type_symbol
 _atom_site_label
 _atom_site_symmetry_multiplicity
 _atom_site_fract_x
 _atom_site_fract_y
 _atom_site_fract_z
 _atom_site_occupancy
  Tb  Tb0  1  0.750000  0.750000  0.750000  1
  Er  Er1  1  0.250000  0.250000  0.250000  1
  P  P2  1  0.000000  0.000000  0.000000  1
  Rh  Rh3  1  0.733724  0.266277  0.266277  1
  Rh  Rh4  1  0.266277  0.733724  0.266277  1
  Rh  Rh5  1  0.733723  0.733723  0.266278  1
  Rh  Rh6  1  0.266277  0.266277  0.733724  1
  Rh  Rh7  1  0.733723  0.266278  0.733723  1
  Rh  Rh8  1  0.266278  0.733723  0.733723  1
