# generated using pymatgen
data_Dy2HoGa5
_symmetry_space_group_name_H-M   'P 1'
_cell_length_a   6.08615700
_cell_length_b   9.61881900
_cell_length_c   11.62096400
_cell_angle_alpha   90.00000000
_cell_angle_beta   90.00000000
_cell_angle_gamma   90.00000000
_symmetry_Int_Tables_number   1
_chemical_formula_structural   Dy2HoGa5
_chemical_formula_sum   'Dy8 Ho4 Ga20'
_cell_volume   680.31032102
_cell_formula_units_Z   4
loop_
 _symmetry_equiv_pos_site_id
 _symmetry_equiv_pos_as_xyz
  1  'x, y, z'
loop_
 _atom_site_type_symbol
 _atom_site_label
 _atom_site_symmetry_multiplicity
 _atom_site_fract_x
 _atom_site_fract_y
 _atom_site_fract_z
 _atom_site_occupancy
  Dy  Dy0  1  0.890984  0.507475  0.351006  1
  Dy  Dy1  1  0.609016  0.992525  0.851006  1
  Dy  Dy2  1  0.109016  0.007475  0.648994  1
  Dy  Dy3  1  0.390984  0.492525  0.148994  1
  Dy  Dy4  1  0.109016  0.492525  0.648994  1
  Dy  Dy5  1  0.390984  0.007475  0.148994  1
  Dy  Dy6  1  0.890984  0.992525  0.351006  1
  Dy  Dy7  1  0.609016  0.507475  0.851006  1
  Ho  Ho8  1  0.848997  0.750000  0.075390  1
  Ho  Ho9  1  0.651003  0.750000  0.575390  1
  Ho  Ho10  1  0.151003  0.250000  0.924610  1
  Ho  Ho11  1  0.348997  0.250000  0.424610  1
  Ga  Ga12  1  0.876148  0.054078  0.089844  1
  Ga  Ga13  1  0.623852  0.445922  0.589844  1
  Ga  Ga14  1  0.123852  0.554078  0.910156  1
  Ga  Ga15  1  0.376148  0.945922  0.410156  1
  Ga  Ga16  1  0.123852  0.945922  0.910156  1
  Ga  Ga17  1  0.376148  0.554078  0.410156  1
  Ga  Ga18  1  0.876148  0.445922  0.089844  1
  Ga  Ga19  1  0.623852  0.054078  0.589844  1
  Ga  Ga20  1  0.169712  0.750000  0.253792  1
  Ga  Ga21  1  0.330288  0.750000  0.753792  1
  Ga  Ga22  1  0.830288  0.250000  0.746208  1
  Ga  Ga23  1  0.669712  0.250000  0.246208  1
  Ga  Ga24  1  0.375880  0.750000  0.002788  1
  Ga  Ga25  1  0.124120  0.750000  0.502788  1
  Ga  Ga26  1  0.624120  0.250000  0.997212  1
  Ga  Ga27  1  0.875880  0.250000  0.497212  1
  Ga  Ga28  1  0.602987  0.750000  0.299800  1
  Ga  Ga29  1  0.897013  0.750000  0.799800  1
  Ga  Ga30  1  0.397013  0.250000  0.700200  1
  Ga  Ga31  1  0.102987  0.250000  0.200200  1
