# generated using pymatgen
data_Ho2Sc5Nb(Co4P3)4
_symmetry_space_group_name_H-M   'P 1'
_cell_length_a   12.11585965
_cell_length_b   12.11585903
_cell_length_c   3.65580800
_cell_angle_alpha   90.00000000
_cell_angle_beta   90.00000000
_cell_angle_gamma   119.93431727
_symmetry_Int_Tables_number   1
_chemical_formula_structural   Ho2Sc5Nb(Co4P3)4
_chemical_formula_sum   'Ho2 Sc5 Nb1 Co16 P12'
_cell_volume   465.06056952
_cell_formula_units_Z   1
loop_
 _symmetry_equiv_pos_site_id
 _symmetry_equiv_pos_as_xyz
  1  'x, y, z'
loop_
 _atom_site_type_symbol
 _atom_site_label
 _atom_site_symmetry_multiplicity
 _atom_site_fract_x
 _atom_site_fract_y
 _atom_site_fract_z
 _atom_site_occupancy
  Ho  Ho0  1  0.333905  0.665990  0.000000  1
  Ho  Ho1  1  0.665990  0.333905  0.000000  1
  Sc  Sc2  1  0.817202  0.999391  0.500000  1
  Sc  Sc3  1  0.999391  0.817202  0.500000  1
  Sc  Sc4  1  0.183163  0.183163  0.500000  1
  Sc  Sc5  1  0.442650  0.999259  0.000000  1
  Sc  Sc6  1  0.999259  0.442650  0.000000  1
  Nb  Nb7  1  0.555820  0.555820  0.000000  1
  Co  Co8  1  0.276373  0.001216  0.500000  1
  Co  Co9  1  0.001216  0.276373  0.500000  1
  Co  Co10  1  0.724608  0.724608  0.500000  1
  Co  Co11  1  0.631259  0.805576  0.000000  1
  Co  Co12  1  0.192334  0.822858  0.000000  1
  Co  Co13  1  0.178520  0.371344  0.000000  1
  Co  Co14  1  0.371344  0.178520  0.000000  1
  Co  Co15  1  0.805576  0.631259  0.000000  1
  Co  Co16  1  0.822858  0.192334  0.000000  1
  Co  Co17  1  0.520637  0.873107  0.500000  1
  Co  Co18  1  0.122367  0.645704  0.500000  1
  Co  Co19  1  0.355191  0.479642  0.500000  1
  Co  Co20  1  0.479642  0.355191  0.500000  1
  Co  Co21  1  0.873107  0.520637  0.500000  1
  Co  Co22  1  0.645704  0.122367  0.500000  1
  Co  Co23  1  0.001127  0.001127  0.000000  1
  P  P24  1  0.175831  0.000508  0.000000  1
  P  P25  1  0.000508  0.175831  0.000000  1
  P  P26  1  0.826467  0.826467  0.000000  1
  P  P27  1  0.522598  0.690358  0.500000  1
  P  P28  1  0.307009  0.829130  0.500000  1
  P  P29  1  0.169759  0.478920  0.500000  1
  P  P30  1  0.478920  0.169759  0.500000  1
  P  P31  1  0.690358  0.522598  0.500000  1
  P  P32  1  0.829130  0.307009  0.500000  1
  P  P33  1  0.650418  0.998937  0.000000  1
  P  P34  1  0.998937  0.650418  0.000000  1
  P  P35  1  0.350823  0.350823  0.000000  1
