# generated using pymatgen
data_Ba2In2PbF12
_symmetry_space_group_name_H-M   'P 1'
_cell_length_a   9.52869200
_cell_length_b   9.52869200
_cell_length_c   5.70457800
_cell_angle_alpha   90.00000000
_cell_angle_beta   90.00000000
_cell_angle_gamma   90.00000000
_symmetry_Int_Tables_number   1
_chemical_formula_structural   Ba2In2PbF12
_chemical_formula_sum   'Ba4 In4 Pb2 F24'
_cell_volume   517.95269997
_cell_formula_units_Z   2
loop_
 _symmetry_equiv_pos_site_id
 _symmetry_equiv_pos_as_xyz
  1  'x, y, z'
loop_
 _atom_site_type_symbol
 _atom_site_label
 _atom_site_symmetry_multiplicity
 _atom_site_fract_x
 _atom_site_fract_y
 _atom_site_fract_z
 _atom_site_occupancy
  Ba  Ba0  1  0.319085  0.819085  0.500000  1
  Ba  Ba1  1  0.819085  0.680915  0.500000  1
  Ba  Ba2  1  0.180915  0.319085  0.500000  1
  Ba  Ba3  1  0.680915  0.180915  0.500000  1
  In  In4  1  0.134529  0.634529  0.000000  1
  In  In5  1  0.634529  0.865471  0.000000  1
  In  In6  1  0.365471  0.134529  0.000000  1
  In  In7  1  0.865471  0.365471  0.000000  1
  Pb  Pb8  1  0.500000  0.500000  0.000000  1
  Pb  Pb9  1  0.000000  0.000000  0.000000  1
  F  F10  1  0.296194  0.796194  0.000000  1
  F  F11  1  0.796194  0.703806  0.000000  1
  F  F12  1  0.203806  0.296194  0.000000  1
  F  F13  1  0.703806  0.203806  0.000000  1
  F  F14  1  0.555075  0.720519  0.255288  1
  F  F15  1  0.444925  0.279481  0.255288  1
  F  F16  1  0.279481  0.555075  0.255288  1
  F  F17  1  0.720519  0.444925  0.255288  1
  F  F18  1  0.220519  0.055075  0.744712  1
  F  F19  1  0.055075  0.779481  0.744712  1
  F  F20  1  0.500000  0.000000  0.775465  1
  F  F21  1  0.000000  0.500000  0.775465  1
  F  F22  1  0.000000  0.500000  0.224535  1
  F  F23  1  0.500000  0.000000  0.224535  1
  F  F24  1  0.220519  0.055075  0.255288  1
  F  F25  1  0.055075  0.779481  0.255288  1
  F  F26  1  0.944925  0.220519  0.255288  1
  F  F27  1  0.779481  0.944925  0.255288  1
  F  F28  1  0.279481  0.555075  0.744712  1
  F  F29  1  0.720519  0.444925  0.744712  1
  F  F30  1  0.555075  0.720519  0.744712  1
  F  F31  1  0.444925  0.279481  0.744712  1
  F  F32  1  0.779481  0.944925  0.744712  1
  F  F33  1  0.944925  0.220519  0.744712  1
