# generated using pymatgen
data_Tb3ErPt4F28
_symmetry_space_group_name_H-M   'P 1'
_cell_length_a   5.55403364
_cell_length_b   8.89546526
_cell_length_c   12.00875825
_cell_angle_alpha   62.45437138
_cell_angle_beta   89.94740945
_cell_angle_gamma   89.99069300
_symmetry_Int_Tables_number   1
_chemical_formula_structural   Tb3ErPt4F28
_chemical_formula_sum   'Tb3 Er1 Pt4 F28'
_cell_volume   526.04607044
_cell_formula_units_Z   1
loop_
 _symmetry_equiv_pos_site_id
 _symmetry_equiv_pos_as_xyz
  1  'x, y, z'
loop_
 _atom_site_type_symbol
 _atom_site_label
 _atom_site_symmetry_multiplicity
 _atom_site_fract_x
 _atom_site_fract_y
 _atom_site_fract_z
 _atom_site_occupancy
  Tb  Tb0  1  0.761190  0.813169  0.764391  1
  Tb  Tb1  1  0.261076  0.186696  0.735502  1
  Tb  Tb2  1  0.239195  0.184966  0.235666  1
  Er  Er3  1  0.738398  0.813322  0.264332  1
  Pt  Pt4  1  0.758095  0.271371  0.957677  1
  Pt  Pt5  1  0.258970  0.727947  0.541653  1
  Pt  Pt6  1  0.240545  0.728022  0.044302  1
  Pt  Pt7  1  0.741417  0.273791  0.456394  1
  F  F8  1  0.435871  0.703595  0.916972  1
  F  F9  1  0.935024  0.297174  0.584480  1
  F  F10  1  0.564288  0.296069  0.085239  1
  F  F11  1  0.063089  0.703434  0.414632  1
  F  F12  1  0.440120  0.278452  0.541658  1
  F  F13  1  0.941059  0.722402  0.958269  1
  F  F14  1  0.560493  0.723727  0.455584  1
  F  F15  1  0.059455  0.276629  0.042570  1
  F  F16  1  0.774839  0.520070  0.859339  1
  F  F17  1  0.276161  0.479634  0.640104  1
  F  F18  1  0.224377  0.479223  0.141766  1
  F  F19  1  0.725450  0.523029  0.358353  1
  F  F20  1  0.753285  0.022556  0.051259  1
  F  F21  1  0.253067  0.976636  0.449092  1
  F  F22  1  0.245622  0.976537  0.950464  1
  F  F23  1  0.746175  0.025239  0.549575  1
  F  F24  1  0.966190  0.724496  0.634907  1
  F  F25  1  0.464685  0.275296  0.865025  1
  F  F26  1  0.034698  0.275605  0.364053  1
  F  F27  1  0.532974  0.725606  0.137675  1
  F  F28  1  0.049062  0.746720  0.175850  1
  F  F29  1  0.553567  0.255158  0.324190  1
  F  F30  1  0.946053  0.253708  0.824997  1
  F  F31  1  0.447786  0.746017  0.673977  1
  F  F32  1  0.418799  0.967596  0.232974  1
  F  F33  1  0.914045  0.026384  0.267197  1
  F  F34  1  0.587342  0.031039  0.767742  1
  F  F35  1  0.087537  0.968683  0.732139  1
