# generated using pymatgen
data_Dy4Y16Ir7Pt5
_symmetry_space_group_name_H-M   'P 1'
_cell_length_a   11.04225725
_cell_length_b   11.04225774
_cell_length_c   6.35045702
_cell_angle_alpha   89.99925979
_cell_angle_beta   89.99926266
_cell_angle_gamma   89.77875527
_symmetry_Int_Tables_number   1
_chemical_formula_structural   Dy4Y16Ir7Pt5
_chemical_formula_sum   'Dy4 Y16 Ir7 Pt5'
_cell_volume   774.31466335
_cell_formula_units_Z   1
loop_
 _symmetry_equiv_pos_site_id
 _symmetry_equiv_pos_as_xyz
  1  'x, y, z'
loop_
 _atom_site_type_symbol
 _atom_site_label
 _atom_site_symmetry_multiplicity
 _atom_site_fract_x
 _atom_site_fract_y
 _atom_site_fract_z
 _atom_site_occupancy
  Dy  Dy0  1  0.999703  0.999893  0.499442  1
  Dy  Dy1  1  0.000107  0.000297  0.000558  1
  Dy  Dy2  1  0.498304  0.501024  0.000263  1
  Dy  Dy3  1  0.498976  0.501696  0.499737  1
  Y  Y4  1  0.295313  0.090506  0.373586  1
  Y  Y5  1  0.295509  0.909369  0.872652  1
  Y  Y6  1  0.704596  0.086470  0.872671  1
  Y  Y7  1  0.704445  0.908715  0.372814  1
  Y  Y8  1  0.586276  0.789793  0.877811  1
  Y  Y9  1  0.584453  0.207039  0.373917  1
  Y  Y10  1  0.413830  0.791193  0.377285  1
  Y  Y11  1  0.410569  0.207802  0.879217  1
  Y  Y12  1  0.210207  0.413724  0.622189  1
  Y  Y13  1  0.208807  0.586170  0.122715  1
  Y  Y14  1  0.792961  0.415547  0.126083  1
  Y  Y15  1  0.792198  0.589431  0.620783  1
  Y  Y16  1  0.909494  0.704687  0.126414  1
  Y  Y17  1  0.913530  0.295404  0.627329  1
  Y  Y18  1  0.090631  0.704491  0.627348  1
  Y  Y19  1  0.091285  0.295555  0.127186  1
  Ir  Ir20  1  0.653411  0.652782  0.250092  1
  Ir  Ir21  1  0.347218  0.346589  0.249908  1
  Ir  Ir22  1  0.345550  0.654450  0.750000  1
  Ir  Ir23  1  0.500165  0.000124  0.122816  1
  Ir  Ir24  1  0.500086  0.000370  0.624244  1
  Ir  Ir25  1  0.999630  0.499914  0.875756  1
  Ir  Ir26  1  0.999876  0.499835  0.377184  1
  Pt  Pt27  1  0.846090  0.153910  0.250000  1
  Pt  Pt28  1  0.846915  0.847881  0.750543  1
  Pt  Pt29  1  0.152119  0.153085  0.749457  1
  Pt  Pt30  1  0.153150  0.846850  0.250000  1
  Pt  Pt31  1  0.654595  0.345405  0.750000  1
