# generated using pymatgen
data_Pr17(TmGa4)3
_symmetry_space_group_name_H-M   'P 1'
_cell_length_a   7.83390600
_cell_length_b   7.83390600
_cell_length_c   14.87371700
_cell_angle_alpha   90.00000000
_cell_angle_beta   90.00000000
_cell_angle_gamma   90.00000000
_symmetry_Int_Tables_number   1
_chemical_formula_structural   Pr17(TmGa4)3
_chemical_formula_sum   'Pr17 Tm3 Ga12'
_cell_volume   912.80125003
_cell_formula_units_Z   1
loop_
 _symmetry_equiv_pos_site_id
 _symmetry_equiv_pos_as_xyz
  1  'x, y, z'
loop_
 _atom_site_type_symbol
 _atom_site_label
 _atom_site_symmetry_multiplicity
 _atom_site_fract_x
 _atom_site_fract_y
 _atom_site_fract_z
 _atom_site_occupancy
  Pr  Pr0  1  0.813504  0.839989  0.603355  1
  Pr  Pr1  1  0.182454  0.839213  0.104398  1
  Pr  Pr2  1  0.160503  0.816286  0.395430  1
  Pr  Pr3  1  0.839497  0.183714  0.395430  1
  Pr  Pr4  1  0.683714  0.660503  0.395430  1
  Pr  Pr5  1  0.660011  0.313504  0.603355  1
  Pr  Pr6  1  0.339989  0.686496  0.603355  1
  Pr  Pr7  1  0.660787  0.682454  0.104398  1
  Pr  Pr8  1  0.686212  0.342749  0.895963  1
  Pr  Pr9  1  0.842749  0.813788  0.895963  1
  Pr  Pr10  1  0.316286  0.339497  0.395430  1
  Pr  Pr11  1  0.186496  0.160011  0.603355  1
  Pr  Pr12  1  0.817546  0.160787  0.104398  1
  Pr  Pr13  1  0.313788  0.657251  0.895963  1
  Pr  Pr14  1  0.339213  0.317546  0.104398  1
  Pr  Pr15  1  0.157251  0.186212  0.895963  1
  Pr  Pr16  1  0.500000  0.000000  0.786702  1
  Tm  Tm17  1  0.000000  0.500000  0.723058  1
  Tm  Tm18  1  0.000000  0.500000  0.225242  1
  Tm  Tm19  1  0.500000  0.000000  0.274002  1
  Ga  Ga20  1  0.622161  0.377761  0.249805  1
  Ga  Ga21  1  0.116104  0.874873  0.747794  1
  Ga  Ga22  1  0.374873  0.383896  0.747794  1
  Ga  Ga23  1  0.377839  0.622239  0.249805  1
  Ga  Ga24  1  0.877761  0.877839  0.249805  1
  Ga  Ga25  1  0.625127  0.616104  0.747794  1
  Ga  Ga26  1  0.000000  0.500000  0.512642  1
  Ga  Ga27  1  0.883896  0.125127  0.747794  1
  Ga  Ga28  1  0.500000  0.000000  0.481870  1
  Ga  Ga29  1  0.500000  0.000000  0.995497  1
  Ga  Ga30  1  0.122239  0.122161  0.249805  1
  Ga  Ga31  1  0.000000  0.500000  0.014004  1
