# generated using pymatgen
data_TbNdPa4(Ni3Bi4)2
_symmetry_space_group_name_H-M   'P 1'
_cell_length_a   8.37516246
_cell_length_b   8.37516256
_cell_length_c   8.37516164
_cell_angle_alpha   109.64718784
_cell_angle_beta   109.38330806
_cell_angle_gamma   109.38331477
_symmetry_Int_Tables_number   1
_chemical_formula_structural   TbNdPa4(Ni3Bi4)2
_chemical_formula_sum   'Tb1 Nd1 Pa4 Ni6 Bi8'
_cell_volume   452.22512798
_cell_formula_units_Z   1
loop_
 _symmetry_equiv_pos_site_id
 _symmetry_equiv_pos_as_xyz
  1  'x, y, z'
loop_
 _atom_site_type_symbol
 _atom_site_label
 _atom_site_symmetry_multiplicity
 _atom_site_fract_x
 _atom_site_fract_y
 _atom_site_fract_z
 _atom_site_occupancy
  Tb  Tb0  1  0.250000  0.125000  0.875000  1
  Nd  Nd1  1  0.750000  0.375000  0.625000  1
  Pa  Pa2  1  0.127444  0.877407  0.250022  1
  Pa  Pa3  1  0.372556  0.622578  0.749963  1
  Pa  Pa4  1  0.872615  0.250037  0.122593  1
  Pa  Pa5  1  0.627385  0.749978  0.377422  1
  Ni  Ni6  1  0.629250  0.380042  0.247784  1
  Ni  Ni7  1  0.870750  0.118534  0.750792  1
  Ni  Ni8  1  0.367742  0.249208  0.619958  1
  Ni  Ni9  1  0.132258  0.752216  0.881466  1
  Ni  Ni10  1  0.250000  0.625000  0.375000  1
  Ni  Ni11  1  0.750000  0.875000  0.125000  1
  Bi  Bi12  1  0.333417  0.333094  0.331530  1
  Bi  Bi13  1  0.166583  0.498113  0.999678  1
  Bi  Bi14  1  0.999429  0.165514  0.501297  1
  Bi  Bi15  1  0.835783  0.833917  0.834486  1
  Bi  Bi16  1  0.500571  0.001867  0.166083  1
  Bi  Bi17  1  0.664217  0.498703  0.998133  1
  Bi  Bi18  1  0.498434  0.000322  0.666906  1
  Bi  Bi19  1  0.001566  0.668470  0.501887  1
