# generated using pymatgen
data_Tb5TaWC7
_symmetry_space_group_name_H-M   'P 1'
_cell_length_a   8.53781092
_cell_length_b   8.53780956
_cell_length_c   3.46617400
_cell_angle_alpha   90.00000000
_cell_angle_beta   90.00000000
_cell_angle_gamma   122.95690084
_symmetry_Int_Tables_number   1
_chemical_formula_structural   Tb5TaWC7
_chemical_formula_sum   'Tb5 Ta1 W1 C7'
_cell_volume   212.00530891
_cell_formula_units_Z   1
loop_
 _symmetry_equiv_pos_site_id
 _symmetry_equiv_pos_as_xyz
  1  'x, y, z'
loop_
 _atom_site_type_symbol
 _atom_site_label
 _atom_site_symmetry_multiplicity
 _atom_site_fract_x
 _atom_site_fract_y
 _atom_site_fract_z
 _atom_site_occupancy
  Tb  Tb0  1  0.498314  0.501686  0.000000  1
  Tb  Tb1  1  0.075566  0.331396  0.500000  1
  Tb  Tb2  1  0.929824  0.671204  0.500000  1
  Tb  Tb3  1  0.668604  0.924434  0.500000  1
  Tb  Tb4  1  0.328796  0.070176  0.500000  1
  Ta  Ta5  1  0.710903  0.289097  0.000000  1
  W  W6  1  0.288596  0.711404  0.000000  1
  C  C7  1  0.624407  0.375593  0.500000  1
  C  C8  1  0.372872  0.627128  0.500000  1
  C  C9  1  0.000015  0.999985  0.000000  1
  C  C10  1  0.167160  0.166061  0.000000  1
  C  C11  1  0.833939  0.832840  0.000000  1
  C  C12  1  0.004424  0.503420  0.000000  1
  C  C13  1  0.496580  0.995576  0.000000  1
