# generated using pymatgen
data_Tb3Np(TcB4)4
_symmetry_space_group_name_H-M   'P 1'
_cell_length_a   3.60164200
_cell_length_b   5.95647283
_cell_length_c   11.52692146
_cell_angle_alpha   89.94086974
_cell_angle_beta   90.00000000
_cell_angle_gamma   90.00000000
_symmetry_Int_Tables_number   1
_chemical_formula_structural   Tb3Np(TcB4)4
_chemical_formula_sum   'Tb3 Np1 Tc4 B16'
_cell_volume   247.28786796
_cell_formula_units_Z   1
loop_
 _symmetry_equiv_pos_site_id
 _symmetry_equiv_pos_as_xyz
  1  'x, y, z'
loop_
 _atom_site_type_symbol
 _atom_site_label
 _atom_site_symmetry_multiplicity
 _atom_site_fract_x
 _atom_site_fract_y
 _atom_site_fract_z
 _atom_site_occupancy
  Tb  Tb0  1  0.000000  0.626386  0.349682  1
  Tb  Tb1  1  0.000000  0.373479  0.649345  1
  Tb  Tb2  1  0.000000  0.128129  0.150213  1
  Np  Np3  1  0.000000  0.871931  0.850143  1
  Tc  Tc4  1  0.000000  0.639310  0.085677  1
  Tc  Tc5  1  0.000000  0.361600  0.907609  1
  Tc  Tc6  1  0.000000  0.133566  0.413089  1
  Tc  Tc7  1  0.000000  0.867196  0.591751  1
  B  B8  1  0.500000  0.785836  0.185595  1
  B  B9  1  0.500000  0.208142  0.814777  1
  B  B10  1  0.500000  0.286848  0.315149  1
  B  B11  1  0.500000  0.713962  0.687953  1
  B  B12  1  0.500000  0.864852  0.029925  1
  B  B13  1  0.500000  0.133095  0.967159  1
  B  B14  1  0.500000  0.364049  0.468809  1
  B  B15  1  0.500000  0.637285  0.532064  1
  B  B16  1  0.500000  0.887257  0.453624  1
  B  B17  1  0.500000  0.113095  0.547225  1
  B  B18  1  0.500000  0.387607  0.046466  1
  B  B19  1  0.500000  0.615431  0.951911  1
  B  B20  1  0.500000  0.976343  0.308190  1
  B  B21  1  0.500000  0.020755  0.694367  1
  B  B22  1  0.500000  0.475839  0.191393  1
  B  B23  1  0.500000  0.528005  0.807883  1
