# generated using pymatgen
data_DyTmFeIr3
_symmetry_space_group_name_H-M   'P 1'
_cell_length_a   5.15025941
_cell_length_b   5.15026131
_cell_length_c   5.15026109
_cell_angle_alpha   63.84947235
_cell_angle_beta   63.84946015
_cell_angle_gamma   63.84947078
_symmetry_Int_Tables_number   1
_chemical_formula_structural   DyTmFeIr3
_chemical_formula_sum   'Dy1 Tm1 Fe1 Ir3'
_cell_volume   104.79874399
_cell_formula_units_Z   1
loop_
 _symmetry_equiv_pos_site_id
 _symmetry_equiv_pos_as_xyz
  1  'x, y, z'
loop_
 _atom_site_type_symbol
 _atom_site_label
 _atom_site_symmetry_multiplicity
 _atom_site_fract_x
 _atom_site_fract_y
 _atom_site_fract_z
 _atom_site_occupancy
  Dy  Dy0  1  0.998772  0.998772  0.998772  1
  Tm  Tm1  1  0.251721  0.251721  0.251721  1
  Fe  Fe2  1  0.624949  0.624949  0.624949  1
  Ir  Ir3  1  0.624651  0.624651  0.125253  1
  Ir  Ir4  1  0.624651  0.125253  0.624651  1
  Ir  Ir5  1  0.125253  0.624651  0.624651  1
