# generated using pymatgen
data_Y7(LuPb2)3
_symmetry_space_group_name_H-M   'P 1'
_cell_length_a   9.03304005
_cell_length_b   9.03304032
_cell_length_c   6.56444500
_cell_angle_alpha   90.00047206
_cell_angle_beta   90.00047039
_cell_angle_gamma   120.00216052
_symmetry_Int_Tables_number   1
_chemical_formula_structural   Y7(LuPb2)3
_chemical_formula_sum   'Y7 Lu3 Pb6'
_cell_volume   463.86016184
_cell_formula_units_Z   1
loop_
 _symmetry_equiv_pos_site_id
 _symmetry_equiv_pos_as_xyz
  1  'x, y, z'
loop_
 _atom_site_type_symbol
 _atom_site_label
 _atom_site_symmetry_multiplicity
 _atom_site_fract_x
 _atom_site_fract_y
 _atom_site_fract_z
 _atom_site_occupancy
  Y  Y0  1  0.333325  0.666674  0.499999  1
  Y  Y1  1  0.237949  0.000109  0.249753  1
  Y  Y2  1  0.762143  0.000075  0.750256  1
  Y  Y3  1  0.999925  0.237857  0.249744  1
  Y  Y4  1  0.762155  0.762065  0.249750  1
  Y  Y5  1  0.237934  0.237845  0.750250  1
  Y  Y6  1  0.999891  0.762051  0.750247  1
  Lu  Lu7  1  0.333325  0.666674  0.000000  1
  Lu  Lu8  1  0.666669  0.333333  0.499999  1
  Lu  Lu9  1  0.666678  0.333324  0.000000  1
  Pb  Pb10  1  0.604833  0.001523  0.248493  1
  Pb  Pb11  1  0.396699  0.001540  0.751514  1
  Pb  Pb12  1  0.998460  0.603301  0.248486  1
  Pb  Pb13  1  0.396727  0.395188  0.248464  1
  Pb  Pb14  1  0.604813  0.603273  0.751536  1
  Pb  Pb15  1  0.998477  0.395168  0.751507  1
