# generated using pymatgen
data_Y3HoAl18PtRh5
_symmetry_space_group_name_H-M   'P 1'
_cell_length_a   7.57113099
_cell_length_b   7.56944741
_cell_length_c   9.47511103
_cell_angle_alpha   89.99526857
_cell_angle_beta   89.99617238
_cell_angle_gamma   119.45776996
_symmetry_Int_Tables_number   1
_chemical_formula_structural   Y3HoAl18PtRh5
_chemical_formula_sum   'Y3 Ho1 Al18 Pt1 Rh5'
_cell_volume   472.81033573
_cell_formula_units_Z   1
loop_
 _symmetry_equiv_pos_site_id
 _symmetry_equiv_pos_as_xyz
  1  'x, y, z'
loop_
 _atom_site_type_symbol
 _atom_site_label
 _atom_site_symmetry_multiplicity
 _atom_site_fract_x
 _atom_site_fract_y
 _atom_site_fract_z
 _atom_site_occupancy
  Y  Y0  1  0.004541  0.328672  0.750218  1
  Y  Y1  1  0.671389  0.995660  0.249785  1
  Y  Y2  1  0.329922  0.006313  0.749934  1
  Ho  Ho3  1  0.994034  0.670195  0.250119  1
  Al  Al4  1  0.128098  0.126990  0.250446  1
  Al  Al5  1  0.873061  0.872072  0.749558  1
  Al  Al6  1  0.004412  0.335774  0.077102  1
  Al  Al7  1  0.002826  0.668581  0.923708  1
  Al  Al8  1  0.000262  0.664807  0.574270  1
  Al  Al9  1  0.334952  0.999435  0.425169  1
  Al  Al10  1  0.000829  0.335439  0.424660  1
  Al  Al11  1  0.664954  0.999099  0.575184  1
  Al  Al12  1  0.664563  0.995413  0.923055  1
  Al  Al13  1  0.331092  0.996735  0.076840  1
  Al  Al14  1  0.332400  0.332607  0.549877  1
  Al  Al15  1  0.667675  0.667674  0.449404  1
  Al  Al16  1  0.666756  0.669779  0.052724  1
  Al  Al17  1  0.330180  0.333509  0.948054  1
  Al  Al18  1  0.339967  0.550196  0.250362  1
  Al  Al19  1  0.660010  0.452976  0.746618  1
  Al  Al20  1  0.547011  0.340862  0.253330  1
  Al  Al21  1  0.449538  0.659406  0.749646  1
  Pt  Pt22  1  0.672115  0.327872  0.000447  1
  Rh  Rh23  1  0.328310  0.671724  0.000353  1
  Rh  Rh24  1  0.328588  0.671548  0.499616  1
  Rh  Rh25  1  0.672708  0.327413  0.499501  1
  Rh  Rh26  1  0.999699  0.999839  0.000588  1
  Rh  Rh27  1  0.000106  0.999410  0.499431  1
