# generated using pymatgen
data_Pr2NdDy3Ta2O14
_symmetry_space_group_name_H-M   'P 1'
_cell_length_a   6.57119306
_cell_length_b   6.55982099
_cell_length_c   7.66456300
_cell_angle_alpha   90.00000000
_cell_angle_beta   90.00000000
_cell_angle_gamma   109.29801424
_symmetry_Int_Tables_number   1
_chemical_formula_structural   Pr2NdDy3Ta2O14
_chemical_formula_sum   'Pr2 Nd1 Dy3 Ta2 O14'
_cell_volume   311.82382536
_cell_formula_units_Z   1
loop_
 _symmetry_equiv_pos_site_id
 _symmetry_equiv_pos_as_xyz
  1  'x, y, z'
loop_
 _atom_site_type_symbol
 _atom_site_label
 _atom_site_symmetry_multiplicity
 _atom_site_fract_x
 _atom_site_fract_y
 _atom_site_fract_z
 _atom_site_occupancy
  Pr  Pr0  1  0.509511  0.509722  0.501824  1
  Pr  Pr1  1  0.509511  0.509722  0.998176  1
  Nd  Nd2  1  0.465706  0.001937  0.250000  1
  Dy  Dy3  1  0.002265  0.532583  0.250000  1
  Dy  Dy4  1  0.000004  0.465925  0.750000  1
  Dy  Dy5  1  0.534035  0.001056  0.750000  1
  Ta  Ta6  1  0.001183  0.000979  0.502202  1
  Ta  Ta7  1  0.001183  0.000979  0.997798  1
  O  O8  1  0.938470  0.068168  0.750000  1
  O  O9  1  0.057323  0.937813  0.250000  1
  O  O10  1  0.356039  0.633844  0.250000  1
  O  O11  1  0.645717  0.356909  0.750000  1
  O  O12  1  0.361822  0.635839  0.750000  1
  O  O13  1  0.643326  0.375792  0.250000  1
  O  O14  1  0.314609  0.068326  0.962046  1
  O  O15  1  0.677633  0.921002  0.478125  1
  O  O16  1  0.314609  0.068326  0.537954  1
  O  O17  1  0.677633  0.921002  0.021875  1
  O  O18  1  0.058674  0.313515  0.465275  1
  O  O19  1  0.936035  0.681524  0.967338  1
  O  O20  1  0.936035  0.681524  0.532662  1
  O  O21  1  0.058674  0.313515  0.034725  1
