# generated using pymatgen
data_HoZn2CuAgRh
_symmetry_space_group_name_H-M   'P 1'
_cell_length_a   5.25848299
_cell_length_b   5.13428920
_cell_length_c   5.13428872
_cell_angle_alpha   61.14123436
_cell_angle_beta   59.98361296
_cell_angle_gamma   59.98361342
_symmetry_Int_Tables_number   1
_chemical_formula_structural   HoZn2CuAgRh
_chemical_formula_sum   'Ho1 Zn2 Cu1 Ag1 Rh1'
_cell_volume   98.81043065
_cell_formula_units_Z   1
loop_
 _symmetry_equiv_pos_site_id
 _symmetry_equiv_pos_as_xyz
  1  'x, y, z'
loop_
 _atom_site_type_symbol
 _atom_site_label
 _atom_site_symmetry_multiplicity
 _atom_site_fract_x
 _atom_site_fract_y
 _atom_site_fract_z
 _atom_site_occupancy
  Ho  Ho0  1  0.242524  0.255940  0.255940  1
  Zn  Zn1  1  0.629426  0.623454  0.118865  1
  Zn  Zn2  1  0.629426  0.118865  0.623454  1
  Cu  Cu3  1  0.124569  0.625207  0.625207  1
  Ag  Ag4  1  0.997819  0.003719  0.003719  1
  Rh  Rh5  1  0.626236  0.622815  0.622815  1
