# generated using pymatgen
data_Zr6Ta4Al12Ir3Ru4
_symmetry_space_group_name_H-M   'P 1'
_cell_length_a   8.82616516
_cell_length_b   8.82616633
_cell_length_c   8.83289328
_cell_angle_alpha   60.02519448
_cell_angle_beta   60.02519254
_cell_angle_gamma   60.00000446
_symmetry_Int_Tables_number   1
_chemical_formula_structural   Zr6Ta4Al12Ir3Ru4
_chemical_formula_sum   'Zr6 Ta4 Al12 Ir3 Ru4'
_cell_volume   486.74044159
_cell_formula_units_Z   1
loop_
 _symmetry_equiv_pos_site_id
 _symmetry_equiv_pos_as_xyz
  1  'x, y, z'
loop_
 _atom_site_type_symbol
 _atom_site_label
 _atom_site_symmetry_multiplicity
 _atom_site_fract_x
 _atom_site_fract_y
 _atom_site_fract_z
 _atom_site_occupancy
  Zr  Zr0  1  0.692962  0.692962  0.307448  1
  Zr  Zr1  1  0.306629  0.692962  0.307448  1
  Zr  Zr2  1  0.692962  0.306629  0.307448  1
  Zr  Zr3  1  0.307853  0.307853  0.692306  1
  Zr  Zr4  1  0.691987  0.307853  0.692306  1
  Zr  Zr5  1  0.307853  0.691987  0.692306  1
  Ta  Ta6  1  0.879451  0.879451  0.361650  1
  Ta  Ta7  1  0.881008  0.361005  0.876981  1
  Ta  Ta8  1  0.361005  0.881008  0.876981  1
  Ta  Ta9  1  0.881008  0.881008  0.876981  1
  Al  Al10  1  0.121177  0.121177  0.636466  1
  Al  Al11  1  0.119805  0.637082  0.123307  1
  Al  Al12  1  0.637082  0.119805  0.123307  1
  Al  Al13  1  0.119805  0.119805  0.123307  1
  Al  Al14  1  0.659728  0.659728  0.020816  1
  Al  Al15  1  0.661952  0.016670  0.659427  1
  Al  Al16  1  0.016670  0.661952  0.659427  1
  Al  Al17  1  0.661952  0.661952  0.659427  1
  Al  Al18  1  0.337258  0.337258  0.988228  1
  Al  Al19  1  0.335373  0.991453  0.337802  1
  Al  Al20  1  0.991453  0.335373  0.337802  1
  Al  Al21  1  0.335373  0.335373  0.337802  1
  Ir  Ir22  1  0.502854  0.502854  0.996798  1
  Ir  Ir23  1  0.997494  0.502854  0.996798  1
  Ir  Ir24  1  0.502854  0.997494  0.996798  1
  Ru  Ru25  1  0.000444  0.000444  0.998667  1
  Ru  Ru26  1  0.996508  0.996508  0.503989  1
  Ru  Ru27  1  0.502995  0.996508  0.503989  1
  Ru  Ru28  1  0.996508  0.502995  0.503989  1
