# generated using pymatgen
data_K2Rb4TmLuSb4
_symmetry_space_group_name_H-M   'P 1'
_cell_length_a   10.13994029
_cell_length_b   10.13993965
_cell_length_c   10.13994021
_cell_angle_alpha   131.28909717
_cell_angle_beta   67.53348315
_cell_angle_gamma   136.24344135
_symmetry_Int_Tables_number   1
_chemical_formula_structural   K2Rb4TmLuSb4
_chemical_formula_sum   'K2 Rb4 Tm1 Lu1 Sb4'
_cell_volume   532.75462910
_cell_formula_units_Z   1
loop_
 _symmetry_equiv_pos_site_id
 _symmetry_equiv_pos_as_xyz
  1  'x, y, z'
loop_
 _atom_site_type_symbol
 _atom_site_label
 _atom_site_symmetry_multiplicity
 _atom_site_fract_x
 _atom_site_fract_y
 _atom_site_fract_z
 _atom_site_occupancy
  K  K0  1  0.250001  0.250001  0.000000  1
  K  K1  1  0.750000  0.750000  0.000000  1
  Rb  Rb2  1  0.822085  0.282802  0.094900  1
  Rb  Rb3  1  0.677915  0.772814  0.460718  1
  Rb  Rb4  1  0.312096  0.217197  0.539282  1
  Rb  Rb5  1  0.187904  0.727185  0.905100  1
  Tm  Tm6  1  0.250001  0.750001  0.500000  1
  Lu  Lu7  1  0.750001  0.250001  0.500000  1
  Sb  Sb8  1  0.402741  0.802839  0.202454  1
  Sb  Sb9  1  0.097259  0.299713  0.400098  1
  Sb  Sb10  1  0.899615  0.697161  0.599902  1
  Sb  Sb11  1  0.600385  0.200287  0.797546  1
