# generated using pymatgen
data_Y12Ga3Tc2
_symmetry_space_group_name_H-M   'P 1'
_cell_length_a   8.42648661
_cell_length_b   8.42630173
_cell_length_c   8.42648813
_cell_angle_alpha   110.43910518
_cell_angle_beta   110.38747797
_cell_angle_gamma   107.60392956
_symmetry_Int_Tables_number   1
_chemical_formula_structural   Y12Ga3Tc2
_chemical_formula_sum   'Y12 Ga3 Tc2'
_cell_volume   460.21286834
_cell_formula_units_Z   1
loop_
 _symmetry_equiv_pos_site_id
 _symmetry_equiv_pos_as_xyz
  1  'x, y, z'
loop_
 _atom_site_type_symbol
 _atom_site_label
 _atom_site_symmetry_multiplicity
 _atom_site_fract_x
 _atom_site_fract_y
 _atom_site_fract_z
 _atom_site_occupancy
  Y  Y0  1  0.442390  0.187897  0.254506  1
  Y  Y1  1  0.557610  0.812103  0.745494  1
  Y  Y2  1  0.933393  0.187897  0.745509  1
  Y  Y3  1  0.187915  0.933414  0.745500  1
  Y  Y4  1  0.066607  0.812103  0.254491  1
  Y  Y5  1  0.812085  0.066586  0.254500  1
  Y  Y6  1  0.187914  0.442410  0.254495  1
  Y  Y7  1  0.812086  0.557590  0.745505  1
  Y  Y8  1  0.319059  0.319142  0.638218  1
  Y  Y9  1  0.680941  0.680858  0.361782  1
  Y  Y10  1  0.319076  0.680858  0.999917  1
  Y  Y11  1  0.680924  0.319142  0.000083  1
  Ga  Ga12  1  0.500000  0.000000  0.500000  1
  Ga  Ga13  1  0.000000  0.500000  0.500000  1
  Ga  Ga14  1  0.000000  0.000000  0.000000  1
  Tc  Tc15  1  0.336019  0.336013  0.999995  1
  Tc  Tc16  1  0.663981  0.663987  0.000005  1
