# generated using pymatgen
data_Er6AlCuRe
_symmetry_space_group_name_H-M   'P 1'
_cell_length_a   8.35902172
_cell_length_b   8.35902232
_cell_length_c   8.35902200
_cell_angle_alpha   112.92894943
_cell_angle_beta   110.86314518
_cell_angle_gamma   104.73055055
_symmetry_Int_Tables_number   1
_chemical_formula_structural   Er6AlCuRe
_chemical_formula_sum   'Er12 Al2 Cu2 Re2'
_cell_volume   447.17645708
_cell_formula_units_Z   2
loop_
 _symmetry_equiv_pos_site_id
 _symmetry_equiv_pos_as_xyz
  1  'x, y, z'
loop_
 _atom_site_type_symbol
 _atom_site_label
 _atom_site_symmetry_multiplicity
 _atom_site_fract_x
 _atom_site_fract_y
 _atom_site_fract_z
 _atom_site_occupancy
  Er  Er0  1  0.052139  0.743618  0.308522  1
  Er  Er1  1  0.947861  0.256382  0.691478  1
  Er  Er2  1  0.564904  0.256382  0.308522  1
  Er  Er3  1  0.435096  0.743618  0.691478  1
  Er  Er4  1  0.664031  0.851846  0.187814  1
  Er  Er5  1  0.335969  0.523782  0.187814  1
  Er  Er6  1  0.335969  0.148154  0.812186  1
  Er  Er7  1  0.664031  0.476218  0.812186  1
  Er  Er8  1  0.182868  0.224350  0.407217  1
  Er  Er9  1  0.817132  0.224350  0.041482  1
  Er  Er10  1  0.182868  0.775650  0.958518  1
  Er  Er11  1  0.817132  0.775650  0.592783  1
  Al  Al12  1  0.000000  0.500000  0.500000  1
  Al  Al13  1  0.500000  0.000000  0.500000  1
  Cu  Cu14  1  0.880709  0.880709  0.000000  1
  Cu  Cu15  1  0.119291  0.119291  0.000000  1
  Re  Re16  1  0.679374  0.500000  0.179374  1
  Re  Re17  1  0.320626  0.500000  0.820626  1
