# generated using pymatgen
data_Er6Lu4Si5P
_symmetry_space_group_name_H-M   'P 1'
_cell_length_a   8.28555400
_cell_length_b   8.29329776
_cell_length_c   6.16127600
_cell_angle_alpha   90.00000000
_cell_angle_beta   90.00000000
_cell_angle_gamma   119.96912502
_symmetry_Int_Tables_number   1
_chemical_formula_structural   Er6Lu4Si5P
_chemical_formula_sum   'Er6 Lu4 Si5 P1'
_cell_volume   366.76268051
_cell_formula_units_Z   1
loop_
 _symmetry_equiv_pos_site_id
 _symmetry_equiv_pos_as_xyz
  1  'x, y, z'
loop_
 _atom_site_type_symbol
 _atom_site_label
 _atom_site_symmetry_multiplicity
 _atom_site_fract_x
 _atom_site_fract_y
 _atom_site_fract_z
 _atom_site_occupancy
  Er  Er0  1  0.755484  0.000000  0.750000  1
  Er  Er1  1  0.756744  0.756128  0.250000  1
  Er  Er2  1  0.000616  0.243872  0.250000  1
  Er  Er3  1  0.000933  0.756920  0.750000  1
  Er  Er4  1  0.244013  0.243080  0.750000  1
  Er  Er5  1  0.243808  0.000000  0.250000  1
  Lu  Lu6  1  0.666278  0.332762  0.000055  1
  Lu  Lu7  1  0.333515  0.667238  0.499945  1
  Lu  Lu8  1  0.333515  0.667238  0.000055  1
  Lu  Lu9  1  0.666278  0.332762  0.499945  1
  Si  Si10  1  0.395383  0.394880  0.250000  1
  Si  Si11  1  0.000504  0.605120  0.250000  1
  Si  Si12  1  0.999936  0.394997  0.750000  1
  Si  Si13  1  0.604939  0.605003  0.750000  1
  Si  Si14  1  0.605568  0.000000  0.250000  1
  P  P15  1  0.392489  0.000000  0.750000  1
