# generated using pymatgen
data_Dy8Ta11NbSi16
_symmetry_space_group_name_H-M   'P 1'
_cell_length_a   7.04807548
_cell_length_b   7.04807558
_cell_length_c   13.00333356
_cell_angle_alpha   90.01380706
_cell_angle_beta   89.98619148
_cell_angle_gamma   89.99730459
_symmetry_Int_Tables_number   1
_chemical_formula_structural   Dy8Ta11NbSi16
_chemical_formula_sum   'Dy8 Ta11 Nb1 Si16'
_cell_volume   645.94534983
_cell_formula_units_Z   1
loop_
 _symmetry_equiv_pos_site_id
 _symmetry_equiv_pos_as_xyz
  1  'x, y, z'
loop_
 _atom_site_type_symbol
 _atom_site_label
 _atom_site_symmetry_multiplicity
 _atom_site_fract_x
 _atom_site_fract_y
 _atom_site_fract_z
 _atom_site_occupancy
  Dy  Dy0  1  0.997739  0.658190  0.031895  1
  Dy  Dy1  1  0.002317  0.341658  0.531919  1
  Dy  Dy2  1  0.658190  0.997739  0.968105  1
  Dy  Dy3  1  0.158476  0.502301  0.782023  1
  Dy  Dy4  1  0.841885  0.497484  0.281856  1
  Dy  Dy5  1  0.502301  0.158476  0.217977  1
  Dy  Dy6  1  0.497484  0.841885  0.718144  1
  Dy  Dy7  1  0.341658  0.002317  0.468081  1
  Ta  Ta8  1  0.346637  0.507236  0.376023  1
  Ta  Ta9  1  0.846695  0.992778  0.373880  1
  Ta  Ta10  1  0.007060  0.152636  0.126224  1
  Ta  Ta11  1  0.992778  0.846695  0.626120  1
  Ta  Ta12  1  0.507236  0.346637  0.623977  1
  Ta  Ta13  1  0.152636  0.007060  0.873776  1
  Ta  Ta14  1  0.671594  0.671594  0.500000  1
  Ta  Ta15  1  0.828447  0.171470  0.749920  1
  Ta  Ta16  1  0.171470  0.828447  0.250080  1
  Ta  Ta17  1  0.492994  0.653354  0.124153  1
  Ta  Ta18  1  0.653354  0.492994  0.875847  1
  Nb  Nb19  1  0.328878  0.328878  0.000000  1
  Si  Si20  1  0.045449  0.705905  0.436086  1
  Si  Si21  1  0.953942  0.293730  0.936022  1
  Si  Si22  1  0.705905  0.045449  0.563914  1
  Si  Si23  1  0.206337  0.454417  0.186261  1
  Si  Si24  1  0.793810  0.545595  0.686090  1
  Si  Si25  1  0.454417  0.206337  0.813739  1
  Si  Si26  1  0.545595  0.793810  0.313910  1
  Si  Si27  1  0.293730  0.953942  0.063978  1
  Si  Si28  1  0.796153  0.866270  0.181830  1
  Si  Si29  1  0.296262  0.633835  0.568210  1
  Si  Si30  1  0.704506  0.366403  0.068302  1
  Si  Si31  1  0.633835  0.296262  0.431790  1
  Si  Si32  1  0.366403  0.704506  0.931698  1
  Si  Si33  1  0.133872  0.203684  0.318082  1
  Si  Si34  1  0.203684  0.133872  0.681918  1
  Si  Si35  1  0.866270  0.796153  0.818170  1
