# generated using pymatgen
data_HoEr(LuPb)3
_symmetry_space_group_name_H-M   'P 1'
_cell_length_a   6.49416801
_cell_length_b   8.93374068
_cell_length_c   8.94089804
_cell_angle_alpha   119.97352157
_cell_angle_beta   89.99720004
_cell_angle_gamma   90.00559933
_symmetry_Int_Tables_number   1
_chemical_formula_structural   HoEr(LuPb)3
_chemical_formula_sum   'Ho2 Er2 Lu6 Pb6'
_cell_volume   449.34969173
_cell_formula_units_Z   2
loop_
 _symmetry_equiv_pos_site_id
 _symmetry_equiv_pos_as_xyz
  1  'x, y, z'
loop_
 _atom_site_type_symbol
 _atom_site_label
 _atom_site_symmetry_multiplicity
 _atom_site_fract_x
 _atom_site_fract_y
 _atom_site_fract_z
 _atom_site_occupancy
  Ho  Ho0  1  0.750050  0.236659  0.000000  1
  Ho  Ho1  1  0.250023  0.763387  0.000000  1
  Er  Er2  1  0.749999  0.762955  0.762713  1
  Er  Er3  1  0.749999  0.000243  0.237287  1
  Lu  Lu4  1  0.249991  0.236767  0.236652  1
  Lu  Lu5  1  0.249991  0.000114  0.763348  1
  Lu  Lu6  1  0.499851  0.333302  0.666667  1
  Lu  Lu7  1  0.499851  0.666635  0.333333  1
  Lu  Lu8  1  0.000147  0.666663  0.333322  1
  Lu  Lu9  1  0.000147  0.333341  0.666678  1
  Pb  Pb10  1  0.750002  0.604471  0.000000  1
  Pb  Pb11  1  0.750037  0.395790  0.395910  1
  Pb  Pb12  1  0.750037  0.999882  0.604090  1
  Pb  Pb13  1  0.249957  0.393995  0.000000  1
  Pb  Pb14  1  0.249959  0.604935  0.604073  1
  Pb  Pb15  1  0.249959  0.000861  0.395927  1
