# generated using pymatgen
data_Sr8Si3Ge
_symmetry_space_group_name_H-M   'P 1'
_cell_length_a   5.16533100
_cell_length_b   8.12293501
_cell_length_c   9.62431001
_cell_angle_alpha   90.00524336
_cell_angle_beta   90.00000000
_cell_angle_gamma   90.00000000
_symmetry_Int_Tables_number   1
_chemical_formula_structural   Sr8Si3Ge
_chemical_formula_sum   'Sr8 Si3 Ge1'
_cell_volume   403.81341005
_cell_formula_units_Z   1
loop_
 _symmetry_equiv_pos_site_id
 _symmetry_equiv_pos_as_xyz
  1  'x, y, z'
loop_
 _atom_site_type_symbol
 _atom_site_label
 _atom_site_symmetry_multiplicity
 _atom_site_fract_x
 _atom_site_fract_y
 _atom_site_fract_z
 _atom_site_occupancy
  Sr  Sr0  1  0.750000  0.348664  0.078078  1
  Sr  Sr1  1  0.250000  0.650584  0.921388  1
  Sr  Sr2  1  0.750000  0.849287  0.422240  1
  Sr  Sr3  1  0.250000  0.150840  0.578109  1
  Sr  Sr4  1  0.250000  0.018926  0.173974  1
  Sr  Sr5  1  0.750000  0.981902  0.825826  1
  Sr  Sr6  1  0.250000  0.518091  0.326485  1
  Sr  Sr7  1  0.750000  0.481636  0.673804  1
  Si  Si8  1  0.250000  0.752247  0.602036  1
  Si  Si9  1  0.750000  0.247748  0.397946  1
  Si  Si10  1  0.250000  0.252230  0.897940  1
  Ge  Ge11  1  0.750000  0.747844  0.102174  1
