# generated using pymatgen
data_Pa6MnCu5Sn8
_symmetry_space_group_name_H-M   'P 1'
_cell_length_a   8.30115042
_cell_length_b   8.30079151
_cell_length_c   8.30115900
_cell_angle_alpha   109.13846629
_cell_angle_beta   109.63956203
_cell_angle_gamma   109.63403031
_symmetry_Int_Tables_number   1
_chemical_formula_structural   Pa6MnCu5Sn8
_chemical_formula_sum   'Pa6 Mn1 Cu5 Sn8'
_cell_volume   440.32670037
_cell_formula_units_Z   1
loop_
 _symmetry_equiv_pos_site_id
 _symmetry_equiv_pos_as_xyz
  1  'x, y, z'
loop_
 _atom_site_type_symbol
 _atom_site_label
 _atom_site_symmetry_multiplicity
 _atom_site_fract_x
 _atom_site_fract_y
 _atom_site_fract_z
 _atom_site_occupancy
  Pa  Pa0  1  0.871037  0.732821  0.124117  1
  Pa  Pa1  1  0.108440  0.376207  0.246798  1
  Pa  Pa2  1  0.629191  0.252916  0.362071  1
  Pa  Pa3  1  0.749898  0.875046  0.624911  1
  Pa  Pa4  1  0.391177  0.137974  0.767035  1
  Pa  Pa5  1  0.250034  0.625172  0.875207  1
  Mn  Mn6  1  0.751067  0.375075  0.125316  1
  Cu  Cu7  1  0.625331  0.874397  0.249118  1
  Cu  Cu8  1  0.249840  0.124910  0.374714  1
  Cu  Cu9  1  0.374345  0.750754  0.625239  1
  Cu  Cu10  1  0.874612  0.623983  0.749560  1
  Cu  Cu11  1  0.125722  0.250869  0.876094  1
  Sn  Sn12  1  0.165852  0.999418  0.000211  1
  Sn  Sn13  1  0.670575  0.998409  0.998262  1
  Sn  Sn14  1  0.500587  0.501219  0.172284  1
  Sn  Sn15  1  0.333605  0.834454  0.333236  1
  Sn  Sn16  1  0.999864  0.672400  0.501766  1
  Sn  Sn17  1  0.000964  0.166897  0.500746  1
  Sn  Sn18  1  0.498922  0.499445  0.665759  1
  Sn  Sn19  1  0.828939  0.327634  0.827557  1
