# generated using pymatgen
data_ErTm11ZnCo4Bi
_symmetry_space_group_name_H-M   'P 1'
_cell_length_a   8.24852163
_cell_length_b   8.24852225
_cell_length_c   8.24764762
_cell_angle_alpha   109.75635981
_cell_angle_beta   111.38415829
_cell_angle_gamma   107.30354054
_symmetry_Int_Tables_number   1
_chemical_formula_structural   ErTm11ZnCo4Bi
_chemical_formula_sum   'Er1 Tm11 Zn1 Co4 Bi1'
_cell_volume   431.39986507
_cell_formula_units_Z   1
loop_
 _symmetry_equiv_pos_site_id
 _symmetry_equiv_pos_as_xyz
  1  'x, y, z'
loop_
 _atom_site_type_symbol
 _atom_site_label
 _atom_site_symmetry_multiplicity
 _atom_site_fract_x
 _atom_site_fract_y
 _atom_site_fract_z
 _atom_site_occupancy
  Er  Er0  1  0.285136  0.183070  0.468206  1
  Tm  Tm1  1  0.714606  0.817872  0.532478  1
  Tm  Tm2  1  0.285465  0.817556  0.103021  1
  Tm  Tm3  1  0.714721  0.181979  0.896700  1
  Tm  Tm4  1  0.621208  0.313620  0.307239  1
  Tm  Tm5  1  0.379175  0.686815  0.692687  1
  Tm  Tm6  1  0.005872  0.313513  0.692687  1
  Tm  Tm7  1  0.993618  0.686031  0.307239  1
  Tm  Tm8  1  0.219351  0.426522  0.206675  1
  Tm  Tm9  1  0.780947  0.573964  0.793347  1
  Tm  Tm10  1  0.219383  0.012400  0.793347  1
  Tm  Tm11  1  0.780152  0.987324  0.206675  1
  Zn  Zn12  1  0.999722  0.999842  0.999565  1
  Co  Co13  1  0.999665  0.376913  0.376577  1
  Co  Co14  1  0.000122  0.623166  0.623289  1
  Co  Co15  1  0.386976  0.886286  0.500150  1
  Co  Co16  1  0.613863  0.113174  0.500150  1
  Bi  Bi17  1  0.500018  0.499953  0.999971  1
