# generated using pymatgen
data_Li4Tb8Ho8Si15Ge
_symmetry_space_group_name_H-M   'P 1'
_cell_length_a   7.07126141
_cell_length_b   7.65029401
_cell_length_c   14.59761560
_cell_angle_alpha   90.03166432
_cell_angle_beta   89.92144559
_cell_angle_gamma   90.01209347
_symmetry_Int_Tables_number   1
_chemical_formula_structural   Li4Tb8Ho8Si15Ge
_chemical_formula_sum   'Li4 Tb8 Ho8 Si15 Ge1'
_cell_volume   789.68967082
_cell_formula_units_Z   1
loop_
 _symmetry_equiv_pos_site_id
 _symmetry_equiv_pos_as_xyz
  1  'x, y, z'
loop_
 _atom_site_type_symbol
 _atom_site_label
 _atom_site_symmetry_multiplicity
 _atom_site_fract_x
 _atom_site_fract_y
 _atom_site_fract_z
 _atom_site_occupancy
  Li  Li0  1  0.158834  0.519802  0.750674  1
  Li  Li1  1  0.840803  0.480245  0.250039  1
  Li  Li2  1  0.340698  0.019994  0.249746  1
  Li  Li3  1  0.659185  0.979931  0.750799  1
  Tb  Tb4  1  0.019538  0.187332  0.099747  1
  Tb  Tb5  1  0.980384  0.812920  0.900280  1
  Tb  Tb6  1  0.480385  0.687182  0.900084  1
  Tb  Tb7  1  0.980065  0.814179  0.599985  1
  Tb  Tb8  1  0.519259  0.313029  0.099915  1
  Tb  Tb9  1  0.018555  0.186406  0.399498  1
  Tb  Tb10  1  0.519491  0.312177  0.399357  1
  Tb  Tb11  1  0.483097  0.688659  0.600337  1
  Ho  Ho12  1  0.329515  0.177935  0.628794  1
  Ho  Ho13  1  0.671489  0.819953  0.371669  1
  Ho  Ho14  1  0.171042  0.680959  0.372024  1
  Ho  Ho15  1  0.672189  0.819382  0.127609  1
  Ho  Ho16  1  0.826982  0.319353  0.627650  1
  Ho  Ho17  1  0.327541  0.180579  0.872384  1
  Ho  Ho18  1  0.827545  0.319398  0.872217  1
  Ho  Ho19  1  0.172256  0.680704  0.127627  1
  Si  Si20  1  0.023504  0.084322  0.750100  1
  Si  Si21  1  0.976356  0.916110  0.249621  1
  Si  Si22  1  0.475868  0.584262  0.249835  1
  Si  Si23  1  0.523476  0.416098  0.750189  1
  Si  Si24  1  0.273951  0.872246  0.750344  1
  Si  Si25  1  0.725564  0.127235  0.249566  1
  Si  Si26  1  0.224937  0.373222  0.249945  1
  Si  Si27  1  0.775276  0.626803  0.750120  1
  Si  Si28  1  0.839453  0.533986  0.465033  1
  Si  Si29  1  0.343296  0.966754  0.465648  1
  Si  Si30  1  0.843798  0.533041  0.034398  1
  Si  Si31  1  0.656543  0.033674  0.533724  1
  Si  Si32  1  0.156061  0.466973  0.965584  1
  Si  Si33  1  0.656117  0.033166  0.965577  1
  Si  Si34  1  0.343755  0.967038  0.034382  1
  Ge  Ge35  1  0.163190  0.464952  0.535496  1
