# generated using pymatgen
data_DyY3OsRuC4
_symmetry_space_group_name_H-M   'P 1'
_cell_length_a   5.14152900
_cell_length_b   6.46291925
_cell_length_c   9.81164601
_cell_angle_alpha   89.79246154
_cell_angle_beta   90.00000000
_cell_angle_gamma   90.00000000
_symmetry_Int_Tables_number   1
_chemical_formula_structural   DyY3OsRuC4
_chemical_formula_sum   'Dy2 Y6 Os2 Ru2 C8'
_cell_volume   326.03185978
_cell_formula_units_Z   2
loop_
 _symmetry_equiv_pos_site_id
 _symmetry_equiv_pos_as_xyz
  1  'x, y, z'
loop_
 _atom_site_type_symbol
 _atom_site_label
 _atom_site_symmetry_multiplicity
 _atom_site_fract_x
 _atom_site_fract_y
 _atom_site_fract_z
 _atom_site_occupancy
  Dy  Dy0  1  0.250000  0.683552  0.553260  1
  Dy  Dy1  1  0.750000  0.316448  0.446740  1
  Y  Y2  1  0.750000  0.820651  0.053688  1
  Y  Y3  1  0.250000  0.179349  0.946312  1
  Y  Y4  1  0.250000  0.526317  0.217491  1
  Y  Y5  1  0.750000  0.473683  0.782509  1
  Y  Y6  1  0.750000  0.974535  0.719437  1
  Y  Y7  1  0.250000  0.025465  0.280563  1
  Os  Os8  1  0.750000  0.775870  0.364986  1
  Os  Os9  1  0.250000  0.224130  0.635014  1
  Ru  Ru10  1  0.250000  0.722964  0.864879  1
  Ru  Ru11  1  0.750000  0.277036  0.135121  1
  C  C12  1  0.250000  0.459526  0.755397  1
  C  C13  1  0.750000  0.540474  0.244603  1
  C  C14  1  0.750000  0.039917  0.259965  1
  C  C15  1  0.250000  0.960083  0.740035  1
  C  C16  1  0.250000  0.825209  0.052325  1
  C  C17  1  0.750000  0.174791  0.947675  1
  C  C18  1  0.750000  0.676158  0.552386  1
  C  C19  1  0.250000  0.323842  0.447614  1
