# generated using pymatgen
data_Sc6B4Ir8RuRh
_symmetry_space_group_name_H-M   'P 1'
_cell_length_a   3.07231000
_cell_length_b   9.60440391
_cell_length_c   9.60440406
_cell_angle_alpha   90.40800677
_cell_angle_beta   90.00000000
_cell_angle_gamma   90.00000000
_symmetry_Int_Tables_number   1
_chemical_formula_structural   Sc6B4Ir8RuRh
_chemical_formula_sum   'Sc6 B4 Ir8 Ru1 Rh1'
_cell_volume   283.39674753
_cell_formula_units_Z   1
loop_
 _symmetry_equiv_pos_site_id
 _symmetry_equiv_pos_as_xyz
  1  'x, y, z'
loop_
 _atom_site_type_symbol
 _atom_site_label
 _atom_site_symmetry_multiplicity
 _atom_site_fract_x
 _atom_site_fract_y
 _atom_site_fract_z
 _atom_site_occupancy
  Sc  Sc0  1  0.000000  0.172974  0.672974  1
  Sc  Sc1  1  0.000000  0.827026  0.327026  1
  Sc  Sc2  1  0.000000  0.323192  0.176808  1
  Sc  Sc3  1  0.000000  0.676808  0.823192  1
  Sc  Sc4  1  0.000000  0.000000  0.000000  1
  Sc  Sc5  1  0.000000  0.500000  0.500000  1
  B  B6  1  0.000000  0.623610  0.123610  1
  B  B7  1  0.000000  0.376390  0.876390  1
  B  B8  1  0.000000  0.880602  0.619398  1
  B  B9  1  0.000000  0.119398  0.380602  1
  Ir  Ir10  1  0.500000  0.071525  0.221528  1
  Ir  Ir11  1  0.500000  0.928475  0.778472  1
  Ir  Ir12  1  0.500000  0.777157  0.070606  1
  Ir  Ir13  1  0.500000  0.429394  0.722843  1
  Ir  Ir14  1  0.500000  0.222843  0.929394  1
  Ir  Ir15  1  0.500000  0.570606  0.277157  1
  Ir  Ir16  1  0.500000  0.721528  0.571525  1
  Ir  Ir17  1  0.500000  0.278472  0.428475  1
  Ru  Ru18  1  0.500000  0.000000  0.500000  1
  Rh  Rh19  1  0.500000  0.500000  0.000000  1
