# generated using pymatgen
data_Pa6TaCo17P12
_symmetry_space_group_name_H-M   'P 1'
_cell_length_a   3.76865300
_cell_length_b   10.45621400
_cell_length_c   12.33584800
_cell_angle_alpha   90.00000000
_cell_angle_beta   90.00000000
_cell_angle_gamma   90.00000000
_symmetry_Int_Tables_number   1
_chemical_formula_structural   Pa6TaCo17P12
_chemical_formula_sum   'Pa6 Ta1 Co17 P12'
_cell_volume   486.10448043
_cell_formula_units_Z   1
loop_
 _symmetry_equiv_pos_site_id
 _symmetry_equiv_pos_as_xyz
  1  'x, y, z'
loop_
 _atom_site_type_symbol
 _atom_site_label
 _atom_site_symmetry_multiplicity
 _atom_site_fract_x
 _atom_site_fract_y
 _atom_site_fract_z
 _atom_site_occupancy
  Pa  Pa0  1  0.000000  0.500000  0.526348  1
  Pa  Pa1  1  0.500000  0.000000  0.477917  1
  Pa  Pa2  1  0.500000  0.820082  0.210828  1
  Pa  Pa3  1  0.500000  0.179918  0.210828  1
  Pa  Pa4  1  0.000000  0.684822  0.793524  1
  Pa  Pa5  1  0.000000  0.315178  0.793524  1
  Ta  Ta6  1  0.500000  0.500000  0.151378  1
  Co  Co7  1  0.000000  0.000000  0.839584  1
  Co  Co8  1  0.500000  0.500000  0.700041  1
  Co  Co9  1  0.000000  0.000000  0.300306  1
  Co  Co10  1  0.000000  0.500000  0.981778  1
  Co  Co11  1  0.500000  0.000000  0.022046  1
  Co  Co12  1  0.500000  0.329449  0.987758  1
  Co  Co13  1  0.500000  0.670551  0.987758  1
  Co  Co14  1  0.000000  0.164637  0.003643  1
  Co  Co15  1  0.000000  0.835363  0.003643  1
  Co  Co16  1  0.500000  0.300594  0.432241  1
  Co  Co17  1  0.500000  0.699406  0.432241  1
  Co  Co18  1  0.000000  0.195230  0.571980  1
  Co  Co19  1  0.000000  0.804770  0.571980  1
  Co  Co20  1  0.500000  0.876932  0.712870  1
  Co  Co21  1  0.500000  0.123068  0.712870  1
  Co  Co22  1  0.000000  0.624259  0.286257  1
  Co  Co23  1  0.000000  0.375741  0.286257  1
  P  P24  1  0.500000  0.500000  0.880012  1
  P  P25  1  0.000000  0.000000  0.118786  1
  P  P26  1  0.500000  0.500000  0.348739  1
  P  P27  1  0.000000  0.000000  0.659865  1
  P  P28  1  0.500000  0.308386  0.614279  1
  P  P29  1  0.500000  0.691614  0.614279  1
  P  P30  1  0.000000  0.190927  0.388884  1
  P  P31  1  0.000000  0.809073  0.388884  1
  P  P32  1  0.500000  0.855214  0.894068  1
  P  P33  1  0.500000  0.144786  0.894068  1
  P  P34  1  0.000000  0.660133  0.100269  1
  P  P35  1  0.000000  0.339867  0.100269  1
