# generated using pymatgen
data_Rb4Na2NdInSb4
_symmetry_space_group_name_H-M   'P 1'
_cell_length_a   10.06308405
_cell_length_b   10.06308238
_cell_length_c   10.06308243
_cell_angle_alpha   136.20398353
_cell_angle_beta   62.95502684
_cell_angle_gamma   137.12849807
_symmetry_Int_Tables_number   1
_chemical_formula_structural   Rb4Na2NdInSb4
_chemical_formula_sum   'Rb4 Na2 Nd1 In1 Sb4'
_cell_volume   473.82444701
_cell_formula_units_Z   1
loop_
 _symmetry_equiv_pos_site_id
 _symmetry_equiv_pos_as_xyz
  1  'x, y, z'
loop_
 _atom_site_type_symbol
 _atom_site_label
 _atom_site_symmetry_multiplicity
 _atom_site_fract_x
 _atom_site_fract_y
 _atom_site_fract_z
 _atom_site_occupancy
  Rb  Rb0  1  0.333064  0.775719  0.093283  1
  Rb  Rb1  1  0.166936  0.260220  0.442656  1
  Rb  Rb2  1  0.817566  0.724281  0.557345  1
  Rb  Rb3  1  0.682435  0.239780  0.906717  1
  Na  Na4  1  0.750000  0.250000  0.500000  1
  Na  Na5  1  0.250000  0.750000  0.500000  1
  Nd  Nd6  1  0.250000  0.250000  0.000000  1
  In  In7  1  0.750000  0.750000  0.000000  1
  Sb  Sb8  1  0.888849  0.216441  0.124821  1
  Sb  Sb9  1  0.611151  0.735973  0.327593  1
  Sb  Sb10  1  0.408381  0.283559  0.672408  1
  Sb  Sb11  1  0.091619  0.764027  0.875179  1
