# generated using pymatgen
data_Sc12Co2CuSi12Ir
_symmetry_space_group_name_H-M   'P 1'
_cell_length_a   4.00819900
_cell_length_b   10.11789108
_cell_length_c   11.68539600
_cell_angle_alpha   89.74831315
_cell_angle_beta   90.00000000
_cell_angle_gamma   90.00000000
_symmetry_Int_Tables_number   1
_chemical_formula_structural   Sc12Co2CuSi12Ir
_chemical_formula_sum   'Sc12 Co2 Cu1 Si12 Ir1'
_cell_volume   473.89106439
_cell_formula_units_Z   1
loop_
 _symmetry_equiv_pos_site_id
 _symmetry_equiv_pos_as_xyz
  1  'x, y, z'
loop_
 _atom_site_type_symbol
 _atom_site_label
 _atom_site_symmetry_multiplicity
 _atom_site_fract_x
 _atom_site_fract_y
 _atom_site_fract_z
 _atom_site_occupancy
  Sc  Sc0  1  0.250000  0.877029  0.021642  1
  Sc  Sc1  1  0.250000  0.617758  0.524277  1
  Sc  Sc2  1  0.750000  0.123831  0.976391  1
  Sc  Sc3  1  0.750000  0.379979  0.475680  1
  Sc  Sc4  1  0.250000  0.919516  0.602496  1
  Sc  Sc5  1  0.250000  0.578986  0.098578  1
  Sc  Sc6  1  0.750000  0.079107  0.401754  1
  Sc  Sc7  1  0.750000  0.421393  0.900613  1
  Sc  Sc8  1  0.250000  0.652694  0.799971  1
  Sc  Sc9  1  0.250000  0.833515  0.302264  1
  Sc  Sc10  1  0.750000  0.345088  0.199869  1
  Sc  Sc11  1  0.750000  0.163573  0.698311  1
  Co  Co12  1  0.250000  0.388904  0.675808  1
  Co  Co13  1  0.750000  0.611358  0.322005  1
  Cu  Cu14  1  0.250000  0.113169  0.178933  1
  Si  Si15  1  0.250000  0.016264  0.824989  1
  Si  Si16  1  0.250000  0.495906  0.321845  1
  Si  Si17  1  0.750000  0.983472  0.177257  1
  Si  Si18  1  0.750000  0.502540  0.677986  1
  Si  Si19  1  0.250000  0.255985  0.836892  1
  Si  Si20  1  0.250000  0.253907  0.343674  1
  Si  Si21  1  0.750000  0.744994  0.162283  1
  Si  Si22  1  0.750000  0.744735  0.657980  1
  Si  Si23  1  0.250000  0.199183  0.546588  1
  Si  Si24  1  0.250000  0.313024  0.040447  1
  Si  Si25  1  0.750000  0.800074  0.454930  1
  Si  Si26  1  0.750000  0.695283  0.955887  1
  Ir  Ir27  1  0.750000  0.888733  0.820650  1
