# generated using pymatgen
data_Ho12Ni4SnRu
_symmetry_space_group_name_H-M   'P 1'
_cell_length_a   8.27896250
_cell_length_b   8.27896294
_cell_length_c   8.27896256
_cell_angle_alpha   111.50685664
_cell_angle_beta   109.91305907
_cell_angle_gamma   107.02528570
_symmetry_Int_Tables_number   1
_chemical_formula_structural   Ho12Ni4SnRu
_chemical_formula_sum   'Ho12 Ni4 Sn1 Ru1'
_cell_volume   436.14112853
_cell_formula_units_Z   1
loop_
 _symmetry_equiv_pos_site_id
 _symmetry_equiv_pos_as_xyz
  1  'x, y, z'
loop_
 _atom_site_type_symbol
 _atom_site_label
 _atom_site_symmetry_multiplicity
 _atom_site_fract_x
 _atom_site_fract_y
 _atom_site_fract_z
 _atom_site_occupancy
  Ho  Ho0  1  0.406895  0.216815  0.190079  1
  Ho  Ho1  1  0.593105  0.783185  0.809921  1
  Ho  Ho2  1  0.026735  0.216815  0.809921  1
  Ho  Ho3  1  0.973265  0.783185  0.190079  1
  Ho  Ho4  1  0.181120  0.288168  0.469288  1
  Ho  Ho5  1  0.818880  0.711832  0.530712  1
  Ho  Ho6  1  0.181120  0.711832  0.892953  1
  Ho  Ho7  1  0.818880  0.288168  0.107047  1
  Ho  Ho8  1  0.320264  0.626837  0.306573  1
  Ho  Ho9  1  0.679736  0.373163  0.693427  1
  Ho  Ho10  1  0.320264  0.013691  0.693427  1
  Ho  Ho11  1  0.679736  0.986309  0.306573  1
  Ni  Ni12  1  0.360710  0.000000  0.360710  1
  Ni  Ni13  1  0.639290  0.000000  0.639290  1
  Ni  Ni14  1  0.122390  0.622390  0.500000  1
  Ni  Ni15  1  0.877610  0.377610  0.500000  1
  Sn  Sn16  1  0.500000  0.500000  0.000000  1
  Ru  Ru17  1  0.000000  0.000000  0.000000  1
