# generated using pymatgen
data_Y8NiAg2Ir
_symmetry_space_group_name_H-M   'P 1'
_cell_length_a   9.54349514
_cell_length_b   9.54349509
_cell_length_c   9.60268000
_cell_angle_alpha   59.79463990
_cell_angle_beta   59.79464008
_cell_angle_gamma   59.74582197
_symmetry_Int_Tables_number   1
_chemical_formula_structural   Y8NiAg2Ir
_chemical_formula_sum   'Y16 Ni2 Ag4 Ir2'
_cell_volume   615.32038554
_cell_formula_units_Z   2
loop_
 _symmetry_equiv_pos_site_id
 _symmetry_equiv_pos_as_xyz
  1  'x, y, z'
loop_
 _atom_site_type_symbol
 _atom_site_label
 _atom_site_symmetry_multiplicity
 _atom_site_fract_x
 _atom_site_fract_y
 _atom_site_fract_z
 _atom_site_occupancy
  Y  Y0  1  0.603527  0.603527  0.594808  1
  Y  Y1  1  0.603527  0.603527  0.198138  1
  Y  Y2  1  0.607783  0.193258  0.599479  1
  Y  Y3  1  0.193258  0.607783  0.599479  1
  Y  Y4  1  0.059496  0.437268  0.439598  1
  Y  Y5  1  0.437268  0.059496  0.063637  1
  Y  Y6  1  0.437268  0.059496  0.439598  1
  Y  Y7  1  0.059496  0.437268  0.063637  1
  Y  Y8  1  0.438298  0.438298  0.061702  1
  Y  Y9  1  0.060700  0.060700  0.439300  1
  Y  Y10  1  0.186350  0.811624  0.816193  1
  Y  Y11  1  0.811624  0.186350  0.185833  1
  Y  Y12  1  0.811624  0.186350  0.816193  1
  Y  Y13  1  0.186350  0.811624  0.185833  1
  Y  Y14  1  0.815726  0.815726  0.184274  1
  Y  Y15  1  0.188113  0.188113  0.811887  1
  Ni  Ni16  1  0.392764  0.822560  0.392338  1
  Ni  Ni17  1  0.822560  0.392764  0.392338  1
  Ag  Ag18  1  0.830900  0.830900  0.833100  1
  Ag  Ag19  1  0.830900  0.830900  0.505098  1
  Ag  Ag20  1  0.830304  0.505435  0.832130  1
  Ag  Ag21  1  0.505435  0.830304  0.832130  1
  Ir  Ir22  1  0.393363  0.393363  0.392855  1
  Ir  Ir23  1  0.393363  0.393363  0.820420  1
