# generated using pymatgen
data_DyThS3
_symmetry_space_group_name_H-M   'P 1'
_cell_length_a   3.93323000
_cell_length_b   10.51803500
_cell_length_c   10.74550300
_cell_angle_alpha   90.00000000
_cell_angle_beta   90.00000000
_cell_angle_gamma   90.00000000
_symmetry_Int_Tables_number   1
_chemical_formula_structural   DyThS3
_chemical_formula_sum   'Dy4 Th4 S12'
_cell_volume   444.53985591
_cell_formula_units_Z   4
loop_
 _symmetry_equiv_pos_site_id
 _symmetry_equiv_pos_as_xyz
  1  'x, y, z'
loop_
 _atom_site_type_symbol
 _atom_site_label
 _atom_site_symmetry_multiplicity
 _atom_site_fract_x
 _atom_site_fract_y
 _atom_site_fract_z
 _atom_site_occupancy
  Dy  Dy0  1  0.250000  0.185348  0.486036  1
  Dy  Dy1  1  0.250000  0.314652  0.986036  1
  Dy  Dy2  1  0.750000  0.814652  0.513964  1
  Dy  Dy3  1  0.750000  0.685348  0.013964  1
  Th  Th4  1  0.750000  0.496943  0.696848  1
  Th  Th5  1  0.750000  0.003057  0.196848  1
  Th  Th6  1  0.250000  0.503057  0.303152  1
  Th  Th7  1  0.250000  0.996943  0.803152  1
  S  S8  1  0.250000  0.295143  0.727304  1
  S  S9  1  0.250000  0.204857  0.227304  1
  S  S10  1  0.750000  0.704857  0.272696  1
  S  S11  1  0.750000  0.795143  0.772696  1
  S  S12  1  0.750000  0.055745  0.617510  1
  S  S13  1  0.750000  0.444255  0.117510  1
  S  S14  1  0.250000  0.944255  0.382490  1
  S  S15  1  0.250000  0.555745  0.882490  1
  S  S16  1  0.250000  0.628544  0.546670  1
  S  S17  1  0.250000  0.871456  0.046670  1
  S  S18  1  0.750000  0.371456  0.453330  1
  S  S19  1  0.750000  0.128544  0.953330  1
