# generated using pymatgen
data_V3Ni16(B3Rh2)2
_symmetry_space_group_name_H-M   'P 1'
_cell_length_a   7.53722447
_cell_length_b   7.53722426
_cell_length_c   7.53722500
_cell_angle_alpha   60.00000115
_cell_angle_beta   60.00000206
_cell_angle_gamma   60.00000300
_symmetry_Int_Tables_number   1
_chemical_formula_structural   V3Ni16(B3Rh2)2
_chemical_formula_sum   'V3 Ni16 B6 Rh4'
_cell_volume   302.77456529
_cell_formula_units_Z   1
loop_
 _symmetry_equiv_pos_site_id
 _symmetry_equiv_pos_as_xyz
  1  'x, y, z'
loop_
 _atom_site_type_symbol
 _atom_site_label
 _atom_site_symmetry_multiplicity
 _atom_site_fract_x
 _atom_site_fract_y
 _atom_site_fract_z
 _atom_site_occupancy
  V  V0  1  0.000000  0.000000  0.000000  1
  V  V1  1  0.750000  0.750000  0.750000  1
  V  V2  1  0.250000  0.250000  0.250000  1
  Ni  Ni3  1  0.375787  0.375787  0.872638  1
  Ni  Ni4  1  0.375787  0.872638  0.375787  1
  Ni  Ni5  1  0.872638  0.375787  0.375787  1
  Ni  Ni6  1  0.375787  0.375787  0.375787  1
  Ni  Ni7  1  0.003050  0.003050  0.332618  1
  Ni  Ni8  1  0.661282  0.003050  0.332618  1
  Ni  Ni9  1  0.003050  0.661282  0.332618  1
  Ni  Ni10  1  0.661282  0.332618  0.003050  1
  Ni  Ni11  1  0.003050  0.332618  0.003050  1
  Ni  Ni12  1  0.003050  0.332618  0.661282  1
  Ni  Ni13  1  0.332618  0.661282  0.003050  1
  Ni  Ni14  1  0.332618  0.003050  0.661282  1
  Ni  Ni15  1  0.332618  0.003050  0.003050  1
  Ni  Ni16  1  0.003050  0.003050  0.661282  1
  Ni  Ni17  1  0.003050  0.661282  0.003050  1
  Ni  Ni18  1  0.661282  0.003050  0.003050  1
  B  B19  1  0.733879  0.733879  0.266121  1
  B  B20  1  0.266121  0.733879  0.266121  1
  B  B21  1  0.733879  0.266121  0.266121  1
  B  B22  1  0.266121  0.266121  0.733879  1
  B  B23  1  0.733879  0.266121  0.733879  1
  B  B24  1  0.266121  0.733879  0.733879  1
  Rh  Rh25  1  0.618617  0.618617  0.144147  1
  Rh  Rh26  1  0.618617  0.144147  0.618617  1
  Rh  Rh27  1  0.144147  0.618617  0.618617  1
  Rh  Rh28  1  0.618617  0.618617  0.618617  1
