# generated using pymatgen
data_Ca3Ho3Si24Os5Ru3
_symmetry_space_group_name_H-M   'P 1'
_cell_length_a   10.16107485
_cell_length_b   10.16111753
_cell_length_c   8.15658798
_cell_angle_alpha   89.94238651
_cell_angle_beta   90.02718209
_cell_angle_gamma   132.66816884
_symmetry_Int_Tables_number   1
_chemical_formula_structural   Ca3Ho3Si24Os5Ru3
_chemical_formula_sum   'Ca3 Ho3 Si24 Os5 Ru3'
_cell_volume   619.22546140
_cell_formula_units_Z   1
loop_
 _symmetry_equiv_pos_site_id
 _symmetry_equiv_pos_as_xyz
  1  'x, y, z'
loop_
 _atom_site_type_symbol
 _atom_site_label
 _atom_site_symmetry_multiplicity
 _atom_site_fract_x
 _atom_site_fract_y
 _atom_site_fract_z
 _atom_site_occupancy
  Ca  Ca0  1  0.499826  0.499792  0.500087  1
  Ca  Ca1  1  0.999969  0.000005  0.999486  1
  Ca  Ca2  1  0.500513  0.000625  0.750060  1
  Ho  Ho3  1  0.000541  0.500931  0.250021  1
  Ho  Ho4  1  0.500194  0.999796  0.250082  1
  Ho  Ho5  1  0.000151  0.500154  0.750024  1
  Si  Si6  1  0.795882  0.203387  0.500508  1
  Si  Si7  1  0.297137  0.704906  0.999076  1
  Si  Si8  1  0.204890  0.797090  0.501138  1
  Si  Si9  1  0.703294  0.295832  0.999684  1
  Si  Si10  1  0.333545  0.334519  0.832633  1
  Si  Si11  1  0.666111  0.667899  0.167278  1
  Si  Si12  1  0.167131  0.165289  0.330923  1
  Si  Si13  1  0.832620  0.831609  0.666903  1
  Si  Si14  1  0.121773  0.888791  0.730453  1
  Si  Si15  1  0.110064  0.878416  0.271042  1
  Si  Si16  1  0.608628  0.376942  0.229071  1
  Si  Si17  1  0.624206  0.391271  0.769950  1
  Si  Si18  1  0.877932  0.109655  0.270955  1
  Si  Si19  1  0.890364  0.123403  0.730489  1
  Si  Si20  1  0.389473  0.622388  0.770052  1
  Si  Si21  1  0.377411  0.609014  0.228953  1
  Si  Si22  1  0.346698  0.113653  0.505296  1
  Si  Si23  1  0.886812  0.654806  0.494253  1
  Si  Si24  1  0.386298  0.153130  0.007757  1
  Si  Si25  1  0.845091  0.613330  0.992465  1
  Si  Si26  1  0.653156  0.885864  0.493524  1
  Si  Si27  1  0.113360  0.345538  0.507235  1
  Si  Si28  1  0.613577  0.846207  0.994396  1
  Si  Si29  1  0.154818  0.387293  0.007019  1
  Os  Os30  1  0.673034  0.330027  0.497973  1
  Os  Os31  1  0.169093  0.826591  0.002111  1
  Os  Os32  1  0.326684  0.669045  0.497840  1
  Os  Os33  1  0.829974  0.173065  0.001983  1
  Os  Os34  1  0.126222  0.126146  0.625541  1
  Ru  Ru35  1  0.873280  0.873848  0.374472  1
  Ru  Ru36  1  0.374050  0.373541  0.124928  1
  Ru  Ru37  1  0.626196  0.626199  0.874338  1
