# generated using pymatgen
data_K4Li2HoErAs4
_symmetry_space_group_name_H-M   'P 1'
_cell_length_a   10.30824935
_cell_length_b   10.30825024
_cell_length_c   6.73319600
_cell_angle_alpha   90.00000000
_cell_angle_beta   90.00000000
_cell_angle_gamma   98.46428158
_symmetry_Int_Tables_number   1
_chemical_formula_structural   K4Li2HoErAs4
_chemical_formula_sum   'K8 Li4 Ho2 Er2 As8'
_cell_volume   707.67647482
_cell_formula_units_Z   2
loop_
 _symmetry_equiv_pos_site_id
 _symmetry_equiv_pos_as_xyz
  1  'x, y, z'
loop_
 _atom_site_type_symbol
 _atom_site_label
 _atom_site_symmetry_multiplicity
 _atom_site_fract_x
 _atom_site_fract_y
 _atom_site_fract_z
 _atom_site_occupancy
  K  K0  1  0.566485  0.933515  0.750000  1
  K  K1  1  0.933515  0.566485  0.250000  1
  K  K2  1  0.433786  0.066214  0.250000  1
  K  K3  1  0.066214  0.433786  0.750000  1
  K  K4  1  0.679917  0.320203  0.792574  1
  K  K5  1  0.820083  0.179797  0.292574  1
  K  K6  1  0.320203  0.679917  0.207426  1
  K  K7  1  0.179797  0.820083  0.707426  1
  Li  Li8  1  0.617432  0.617432  0.000000  1
  Li  Li9  1  0.882568  0.882568  0.500000  1
  Li  Li10  1  0.382837  0.382837  0.000000  1
  Li  Li11  1  0.117163  0.117163  0.500000  1
  Ho  Ho12  1  0.132164  0.132164  0.000000  1
  Ho  Ho13  1  0.367836  0.367836  0.500000  1
  Er  Er14  1  0.867634  0.867634  0.000000  1
  Er  Er15  1  0.632366  0.632366  0.500000  1
  As  As16  1  0.348784  0.151216  0.750000  1
  As  As17  1  0.151216  0.348784  0.250000  1
  As  As18  1  0.652052  0.847948  0.250000  1
  As  As19  1  0.847948  0.652052  0.750000  1
  As  As20  1  0.905059  0.093920  0.763241  1
  As  As21  1  0.594941  0.406080  0.263241  1
  As  As22  1  0.093920  0.905059  0.236759  1
  As  As23  1  0.406080  0.594941  0.736759  1
