# generated using pymatgen
data_Y4ScAl3Ir4
_symmetry_space_group_name_H-M   'P 1'
_cell_length_a   4.29254600
_cell_length_b   6.95958434
_cell_length_c   8.04968984
_cell_angle_alpha   91.21132599
_cell_angle_beta   90.00000000
_cell_angle_gamma   90.00000000
_symmetry_Int_Tables_number   1
_chemical_formula_structural   Y4ScAl3Ir4
_chemical_formula_sum   'Y4 Sc1 Al3 Ir4'
_cell_volume   240.42539704
_cell_formula_units_Z   1
loop_
 _symmetry_equiv_pos_site_id
 _symmetry_equiv_pos_as_xyz
  1  'x, y, z'
loop_
 _atom_site_type_symbol
 _atom_site_label
 _atom_site_symmetry_multiplicity
 _atom_site_fract_x
 _atom_site_fract_y
 _atom_site_fract_z
 _atom_site_occupancy
  Y  Y0  1  0.250000  0.017277  0.315235  1
  Y  Y1  1  0.250000  0.536453  0.170571  1
  Y  Y2  1  0.750000  0.962254  0.684184  1
  Y  Y3  1  0.750000  0.474731  0.824283  1
  Sc  Sc4  1  0.750000  0.366411  0.434520  1
  Al  Al5  1  0.250000  0.140268  0.941457  1
  Al  Al6  1  0.250000  0.642849  0.563331  1
  Al  Al7  1  0.750000  0.855516  0.064317  1
  Ir  Ir8  1  0.250000  0.265072  0.625877  1
  Ir  Ir9  1  0.250000  0.774425  0.884703  1
  Ir  Ir10  1  0.750000  0.737174  0.379957  1
  Ir  Ir11  1  0.750000  0.227572  0.111566  1
