# generated using pymatgen
data_Tb4DyTm3Al4
_symmetry_space_group_name_H-M   'P 1'
_cell_length_a   5.09676300
_cell_length_b   6.55056567
_cell_length_c   9.40957829
_cell_angle_alpha   90.12141451
_cell_angle_beta   90.00000000
_cell_angle_gamma   90.00000000
_symmetry_Int_Tables_number   1
_chemical_formula_structural   Tb4DyTm3Al4
_chemical_formula_sum   'Tb4 Dy1 Tm3 Al4'
_cell_volume   314.15388093
_cell_formula_units_Z   1
loop_
 _symmetry_equiv_pos_site_id
 _symmetry_equiv_pos_as_xyz
  1  'x, y, z'
loop_
 _atom_site_type_symbol
 _atom_site_label
 _atom_site_symmetry_multiplicity
 _atom_site_fract_x
 _atom_site_fract_y
 _atom_site_fract_z
 _atom_site_occupancy
  Tb  Tb0  1  0.250000  0.810687  0.927858  1
  Tb  Tb1  1  0.250000  0.309271  0.572105  1
  Tb  Tb2  1  0.750000  0.189582  0.073528  1
  Tb  Tb3  1  0.750000  0.690549  0.426433  1
  Dy  Dy4  1  0.750000  0.527681  0.788857  1
  Tm  Tm5  1  0.250000  0.972457  0.289007  1
  Tm  Tm6  1  0.250000  0.472843  0.210289  1
  Tm  Tm7  1  0.750000  0.027503  0.711040  1
  Al  Al8  1  0.250000  0.290776  0.897853  1
  Al  Al9  1  0.250000  0.791548  0.602083  1
  Al  Al10  1  0.750000  0.708679  0.103078  1
  Al  Al11  1  0.750000  0.208426  0.397869  1
