# generated using pymatgen
data_Se4Br2O11
_symmetry_space_group_name_H-M   'P 1'
_cell_length_a   10.79409134
_cell_length_b   10.79409111
_cell_length_c   13.81507392
_cell_angle_alpha   68.88823955
_cell_angle_beta   68.88824063
_cell_angle_gamma   23.80686535
_symmetry_Int_Tables_number   1
_chemical_formula_structural   Se4Br2O11
_chemical_formula_sum   'Se8 Br4 O22'
_cell_volume   604.11280650
_cell_formula_units_Z   2
loop_
 _symmetry_equiv_pos_site_id
 _symmetry_equiv_pos_as_xyz
  1  'x, y, z'
loop_
 _atom_site_type_symbol
 _atom_site_label
 _atom_site_symmetry_multiplicity
 _atom_site_fract_x
 _atom_site_fract_y
 _atom_site_fract_z
 _atom_site_occupancy
  Se  Se0  1  0.292549  0.856030  0.258469  1
  Se  Se1  1  0.143970  0.707451  0.241531  1
  Se  Se2  1  0.707451  0.143970  0.741531  1
  Se  Se3  1  0.856030  0.292549  0.758469  1
  Se  Se4  1  0.915829  0.405677  0.423478  1
  Se  Se5  1  0.594323  0.084171  0.076522  1
  Se  Se6  1  0.084171  0.594323  0.576522  1
  Se  Se7  1  0.405677  0.915829  0.923478  1
  Br  Br8  1  0.500000  0.000000  0.500000  1
  Br  Br9  1  0.000000  0.500000  0.000000  1
  Br  Br10  1  0.000000  0.000000  0.500000  1
  Br  Br11  1  0.000000  0.000000  0.000000  1
  O  O12  1  0.008747  0.991253  0.250000  1
  O  O13  1  0.991253  0.008747  0.750000  1
  O  O14  1  0.048977  0.195680  0.259675  1
  O  O15  1  0.804320  0.951023  0.240325  1
  O  O16  1  0.951023  0.804320  0.740325  1
  O  O17  1  0.195680  0.048977  0.759675  1
  O  O18  1  0.369396  0.704540  0.391281  1
  O  O19  1  0.295460  0.630604  0.108719  1
  O  O20  1  0.630604  0.295460  0.608719  1
  O  O21  1  0.704540  0.369396  0.891281  1
  O  O22  1  0.256765  0.192506  0.387744  1
  O  O23  1  0.807494  0.743235  0.112256  1
  O  O24  1  0.132857  0.054262  0.012049  1
  O  O25  1  0.945738  0.867143  0.487951  1
  O  O26  1  0.867143  0.945738  0.987951  1
  O  O27  1  0.054262  0.132857  0.512049  1
  O  O28  1  0.608118  0.740775  0.026427  1
  O  O29  1  0.259225  0.391882  0.473573  1
  O  O30  1  0.391882  0.259225  0.973573  1
  O  O31  1  0.740775  0.608118  0.526427  1
  O  O32  1  0.192506  0.256765  0.887744  1
  O  O33  1  0.743235  0.807494  0.612256  1
