# generated using pymatgen
data_Tm10Zn3Si15Au2
_symmetry_space_group_name_H-M   'P 1'
_cell_length_a   4.02426569
_cell_length_b   4.09643905
_cell_length_c   34.54198200
_cell_angle_alpha   86.57421792
_cell_angle_beta   86.61605400
_cell_angle_gamma   89.99303167
_symmetry_Int_Tables_number   1
_chemical_formula_structural   Tm10Zn3Si15Au2
_chemical_formula_sum   'Tm10 Zn3 Si15 Au2'
_cell_volume   567.41812624
_cell_formula_units_Z   1
loop_
 _symmetry_equiv_pos_site_id
 _symmetry_equiv_pos_as_xyz
  1  'x, y, z'
loop_
 _atom_site_type_symbol
 _atom_site_label
 _atom_site_symmetry_multiplicity
 _atom_site_fract_x
 _atom_site_fract_y
 _atom_site_fract_z
 _atom_site_occupancy
  Tm  Tm0  1  0.948062  0.448357  0.103032  1
  Tm  Tm1  1  0.349533  0.849828  0.300645  1
  Tm  Tm2  1  0.751046  0.251404  0.497898  1
  Tm  Tm3  1  0.148360  0.649096  0.702390  1
  Tm  Tm4  1  0.546694  0.046999  0.906145  1
  Tm  Tm5  1  0.000377  0.999949  0.999783  1
  Tm  Tm6  1  0.401338  0.400970  0.197783  1
  Tm  Tm7  1  0.802253  0.801987  0.395697  1
  Tm  Tm8  1  0.203288  0.202703  0.594535  1
  Tm  Tm9  1  0.601520  0.601132  0.797008  1
  Zn  Zn10  1  0.466342  0.966625  0.066654  1
  Zn  Zn11  1  0.867696  0.367843  0.264475  1
  Zn  Zn12  1  0.269070  0.768974  0.462377  1
  Si  Si13  1  0.666263  0.166362  0.666883  1
  Si  Si14  1  0.064198  0.564923  0.870039  1
  Si  Si15  1  0.916355  0.916952  0.166766  1
  Si  Si16  1  0.317463  0.318307  0.364459  1
  Si  Si17  1  0.718255  0.718547  0.563029  1
  Si  Si18  1  0.116550  0.116030  0.766801  1
  Si  Si19  1  0.515112  0.515207  0.969399  1
  Si  Si20  1  0.433376  0.932973  0.133435  1
  Si  Si21  1  0.834403  0.333952  0.331251  1
  Si  Si22  1  0.235514  0.735075  0.529320  1
  Si  Si23  1  0.633660  0.134029  0.732934  1
  Si  Si24  1  0.032272  0.531948  0.935945  1
  Si  Si25  1  0.482586  0.482368  0.035431  1
  Si  Si26  1  0.883553  0.883659  0.233034  1
  Si  Si27  1  0.284818  0.284886  0.430714  1
  Au  Au28  1  0.684381  0.683946  0.632013  1
  Au  Au29  1  0.082861  0.082169  0.835723  1
