# generated using pymatgen
data_Nd2ThZrBi5
_symmetry_space_group_name_H-M   'P 1'
_cell_length_a   9.78501200
_cell_length_b   9.71565250
_cell_length_c   6.55738500
_cell_angle_alpha   90.00000000
_cell_angle_beta   90.00000000
_cell_angle_gamma   120.23643668
_symmetry_Int_Tables_number   1
_chemical_formula_structural   Nd2ThZrBi5
_chemical_formula_sum   'Nd4 Th2 Zr2 Bi10'
_cell_volume   538.58593609
_cell_formula_units_Z   2
loop_
 _symmetry_equiv_pos_site_id
 _symmetry_equiv_pos_as_xyz
  1  'x, y, z'
loop_
 _atom_site_type_symbol
 _atom_site_label
 _atom_site_symmetry_multiplicity
 _atom_site_fract_x
 _atom_site_fract_y
 _atom_site_fract_z
 _atom_site_occupancy
  Nd  Nd0  1  0.000116  0.618044  0.750000  1
  Nd  Nd1  1  0.999884  0.381956  0.250000  1
  Nd  Nd2  1  0.382070  0.381956  0.750000  1
  Nd  Nd3  1  0.617930  0.618044  0.250000  1
  Th  Th4  1  0.619723  0.000000  0.750000  1
  Th  Th5  1  0.380277  0.000000  0.250000  1
  Zr  Zr6  1  0.000000  0.000000  0.500000  1
  Zr  Zr7  1  0.000000  0.000000  0.000000  1
  Bi  Bi8  1  0.270312  0.000000  0.750000  1
  Bi  Bi9  1  0.729688  0.000000  0.250000  1
  Bi  Bi10  1  0.001259  0.267263  0.750000  1
  Bi  Bi11  1  0.998741  0.732737  0.250000  1
  Bi  Bi12  1  0.733996  0.732737  0.750000  1
  Bi  Bi13  1  0.266004  0.267263  0.250000  1
  Bi  Bi14  1  0.333992  0.667984  0.500000  1
  Bi  Bi15  1  0.666008  0.332016  0.500000  1
  Bi  Bi16  1  0.666008  0.332016  0.000000  1
  Bi  Bi17  1  0.333992  0.667984  0.000000  1
