# generated using pymatgen
data_Pr10TlSi4Ag
_symmetry_space_group_name_H-M   'P 1'
_cell_length_a   7.81722600
_cell_length_b   9.36963261
_cell_length_c   7.81722600
_cell_angle_alpha   114.65526146
_cell_angle_beta   90.00000000
_cell_angle_gamma   114.65526146
_symmetry_Int_Tables_number   1
_chemical_formula_structural   Pr10TlSi4Ag
_chemical_formula_sum   'Pr10 Tl1 Si4 Ag1'
_cell_volume   462.31511421
_cell_formula_units_Z   1
loop_
 _symmetry_equiv_pos_site_id
 _symmetry_equiv_pos_as_xyz
  1  'x, y, z'
loop_
 _atom_site_type_symbol
 _atom_site_label
 _atom_site_symmetry_multiplicity
 _atom_site_fract_x
 _atom_site_fract_y
 _atom_site_fract_z
 _atom_site_occupancy
  Pr  Pr0  1  0.978536  0.957072  0.978536  1
  Pr  Pr1  1  0.521464  0.042928  0.521464  1
  Pr  Pr2  1  0.529216  0.724592  0.676440  1
  Pr  Pr3  1  0.195379  0.724592  0.048153  1
  Pr  Pr4  1  0.676440  0.724592  0.195379  1
  Pr  Pr5  1  0.048153  0.724592  0.529216  1
  Pr  Pr6  1  0.451847  0.275408  0.304621  1
  Pr  Pr7  1  0.823560  0.275408  0.970784  1
  Pr  Pr8  1  0.304621  0.275408  0.823560  1
  Pr  Pr9  1  0.970784  0.275408  0.451847  1
  Tl  Tl10  1  0.750000  0.500000  0.750000  1
  Si  Si11  1  0.885598  0.000000  0.614402  1
  Si  Si12  1  0.114402  0.000000  0.385598  1
  Si  Si13  1  0.614402  0.000000  0.114402  1
  Si  Si14  1  0.385598  0.000000  0.885598  1
  Ag  Ag15  1  0.250000  0.500000  0.250000  1
