# generated using pymatgen
data_Er5(BiO6)2
_symmetry_space_group_name_H-M   'P 1'
_cell_length_a   6.57099832
_cell_length_b   6.55602883
_cell_length_c   6.49751940
_cell_angle_alpha   99.22171983
_cell_angle_beta   98.73291856
_cell_angle_gamma   99.45826199
_symmetry_Int_Tables_number   1
_chemical_formula_structural   Er5(BiO6)2
_chemical_formula_sum   'Er5 Bi2 O12'
_cell_volume   267.93562591
_cell_formula_units_Z   1
loop_
 _symmetry_equiv_pos_site_id
 _symmetry_equiv_pos_as_xyz
  1  'x, y, z'
loop_
 _atom_site_type_symbol
 _atom_site_label
 _atom_site_symmetry_multiplicity
 _atom_site_fract_x
 _atom_site_fract_y
 _atom_site_fract_z
 _atom_site_occupancy
  Er  Er0  1  0.859152  0.694773  0.392892  1
  Er  Er1  1  0.387201  0.856613  0.684274  1
  Er  Er2  1  0.311385  0.611081  0.148243  1
  Er  Er3  1  0.141391  0.311693  0.607831  1
  Er  Er4  1  0.607902  0.133501  0.308147  1
  Bi  Bi5  1  0.677893  0.394835  0.855399  1
  Bi  Bi6  1  0.004621  0.004211  0.999757  1
  O  O7  1  0.426812  0.176667  0.583319  1
  O  O8  1  0.586464  0.429643  0.180890  1
  O  O9  1  0.172823  0.586306  0.432602  1
  O  O10  1  0.568234  0.819804  0.413397  1
  O  O11  1  0.417639  0.573744  0.821441  1
  O  O12  1  0.820048  0.412985  0.568342  1
  O  O13  1  0.092172  0.316493  0.951622  1
  O  O14  1  0.684133  0.047951  0.928397  1
  O  O15  1  0.050921  0.928352  0.681291  1
  O  O16  1  0.927210  0.684048  0.050806  1
  O  O17  1  0.316539  0.945023  0.073459  1
  O  O18  1  0.947460  0.072278  0.317892  1
