# generated using pymatgen
data_Ac3Pr2(Sn5Pd2)2
_symmetry_space_group_name_H-M   'P 1'
_cell_length_a   14.39991600
_cell_length_b   14.39991600
_cell_length_c   4.71275900
_cell_angle_alpha   90.00000000
_cell_angle_beta   90.00000000
_cell_angle_gamma   90.00000000
_symmetry_Int_Tables_number   1
_chemical_formula_structural   Ac3Pr2(Sn5Pd2)2
_chemical_formula_sum   'Ac6 Pr4 Sn20 Pd8'
_cell_volume   977.22630517
_cell_formula_units_Z   2
loop_
 _symmetry_equiv_pos_site_id
 _symmetry_equiv_pos_as_xyz
  1  'x, y, z'
loop_
 _atom_site_type_symbol
 _atom_site_label
 _atom_site_symmetry_multiplicity
 _atom_site_fract_x
 _atom_site_fract_y
 _atom_site_fract_z
 _atom_site_occupancy
  Ac  Ac0  1  0.500000  0.500000  0.000000  1
  Ac  Ac1  1  0.000000  0.000000  0.000000  1
  Ac  Ac2  1  0.890286  0.390286  0.500000  1
  Ac  Ac3  1  0.109714  0.609714  0.500000  1
  Ac  Ac4  1  0.390286  0.109714  0.500000  1
  Ac  Ac5  1  0.609714  0.890286  0.500000  1
  Pr  Pr6  1  0.678809  0.178809  0.500000  1
  Pr  Pr7  1  0.321191  0.821191  0.500000  1
  Pr  Pr8  1  0.178809  0.321191  0.500000  1
  Pr  Pr9  1  0.821191  0.678809  0.500000  1
  Sn  Sn10  1  0.570041  0.070041  0.000000  1
  Sn  Sn11  1  0.429959  0.929959  0.000000  1
  Sn  Sn12  1  0.070041  0.429959  0.000000  1
  Sn  Sn13  1  0.929959  0.570041  0.000000  1
  Sn  Sn14  1  0.654765  0.698818  0.000000  1
  Sn  Sn15  1  0.345235  0.301182  0.000000  1
  Sn  Sn16  1  0.154765  0.801182  0.000000  1
  Sn  Sn17  1  0.845235  0.198818  0.000000  1
  Sn  Sn18  1  0.301182  0.654765  0.000000  1
  Sn  Sn19  1  0.698818  0.345235  0.000000  1
  Sn  Sn20  1  0.198818  0.154765  0.000000  1
  Sn  Sn21  1  0.801182  0.845235  0.000000  1
  Sn  Sn22  1  0.663571  0.501239  0.500000  1
  Sn  Sn23  1  0.336429  0.498761  0.500000  1
  Sn  Sn24  1  0.163571  0.998761  0.500000  1
  Sn  Sn25  1  0.836429  0.001239  0.500000  1
  Sn  Sn26  1  0.498761  0.663571  0.500000  1
  Sn  Sn27  1  0.501239  0.336429  0.500000  1
  Sn  Sn28  1  0.001239  0.163571  0.500000  1
  Sn  Sn29  1  0.998761  0.836429  0.500000  1
  Pd  Pd30  1  0.745328  0.529421  0.000000  1
  Pd  Pd31  1  0.254672  0.470579  0.000000  1
  Pd  Pd32  1  0.245328  0.970579  0.000000  1
  Pd  Pd33  1  0.754672  0.029421  0.000000  1
  Pd  Pd34  1  0.470579  0.745328  0.000000  1
  Pd  Pd35  1  0.529421  0.254672  0.000000  1
  Pd  Pd36  1  0.029421  0.245328  0.000000  1
  Pd  Pd37  1  0.970579  0.754672  0.000000  1
