# generated using pymatgen
data_Tb5Nd3Ho2(In2Pt)4
_symmetry_space_group_name_H-M   'P 1'
_cell_length_a   3.67571400
_cell_length_b   8.23360316
_cell_length_c   18.40900612
_cell_angle_alpha   89.74375497
_cell_angle_beta   90.00000000
_cell_angle_gamma   90.00000000
_symmetry_Int_Tables_number   1
_chemical_formula_structural   Tb5Nd3Ho2(In2Pt)4
_chemical_formula_sum   'Tb5 Nd3 Ho2 In8 Pt4'
_cell_volume   557.13140803
_cell_formula_units_Z   1
loop_
 _symmetry_equiv_pos_site_id
 _symmetry_equiv_pos_as_xyz
  1  'x, y, z'
loop_
 _atom_site_type_symbol
 _atom_site_label
 _atom_site_symmetry_multiplicity
 _atom_site_fract_x
 _atom_site_fract_y
 _atom_site_fract_z
 _atom_site_occupancy
  Tb  Tb0  1  0.000000  0.380277  0.913125  1
  Tb  Tb1  1  0.000000  0.618140  0.085405  1
  Tb  Tb2  1  0.000000  0.239823  0.218290  1
  Tb  Tb3  1  0.000000  0.758390  0.780811  1
  Tb  Tb4  1  0.000000  0.259194  0.717938  1
  Nd  Nd5  1  0.000000  0.739434  0.283733  1
  Nd  Nd6  1  0.000000  0.998632  0.998944  1
  Nd  Nd7  1  0.000000  0.501431  0.499704  1
  Ho  Ho8  1  0.000000  0.120625  0.414968  1
  Ho  Ho9  1  0.000000  0.882819  0.587490  1
  In  In10  1  0.500000  0.413166  0.348124  1
  In  In11  1  0.500000  0.580783  0.651229  1
  In  In12  1  0.500000  0.078413  0.847505  1
  In  In13  1  0.500000  0.922839  0.151425  1
  In  In14  1  0.500000  0.297507  0.066163  1
  In  In15  1  0.500000  0.699854  0.932213  1
  In  In16  1  0.500000  0.200435  0.566199  1
  In  In17  1  0.500000  0.806337  0.437767  1
  Pt  Pt18  1  0.500000  0.032208  0.305751  1
  Pt  Pt19  1  0.500000  0.976286  0.695780  1
  Pt  Pt20  1  0.500000  0.475656  0.802849  1
  Pt  Pt21  1  0.500000  0.517750  0.194589  1
