# generated using pymatgen
data_Yb8TmThIr4
_symmetry_space_group_name_H-M   'P 1'
_cell_length_a   6.59575968
_cell_length_b   7.34084001
_cell_length_c   8.56963234
_cell_angle_alpha   97.20925902
_cell_angle_beta   112.63339011
_cell_angle_gamma   89.99999510
_symmetry_Int_Tables_number   1
_chemical_formula_structural   Yb8TmThIr4
_chemical_formula_sum   'Yb8 Tm1 Th1 Ir4'
_cell_volume   379.41639782
_cell_formula_units_Z   1
loop_
 _symmetry_equiv_pos_site_id
 _symmetry_equiv_pos_as_xyz
  1  'x, y, z'
loop_
 _atom_site_type_symbol
 _atom_site_label
 _atom_site_symmetry_multiplicity
 _atom_site_fract_x
 _atom_site_fract_y
 _atom_site_fract_z
 _atom_site_occupancy
  Yb  Yb0  1  0.977443  0.923522  0.173368  1
  Yb  Yb1  1  0.804074  0.576478  0.826632  1
  Yb  Yb2  1  0.022019  0.084069  0.825804  1
  Yb  Yb3  1  0.196216  0.415931  0.174196  1
  Yb  Yb4  1  0.643410  0.819947  0.442896  1
  Yb  Yb5  1  0.200514  0.680053  0.557104  1
  Yb  Yb6  1  0.362063  0.181218  0.567911  1
  Yb  Yb7  1  0.794153  0.318782  0.432089  1
  Tm  Tm8  1  0.565680  0.250000  0.000000  1
  Th  Th9  1  0.431932  0.750000  0.000000  1
  Ir  Ir10  1  0.805895  0.576561  0.207014  1
  Ir  Ir11  1  0.598881  0.923439  0.792986  1
  Ir  Ir12  1  0.194822  0.429009  0.791924  1
  Ir  Ir13  1  0.402897  0.070991  0.208076  1
