# generated using pymatgen
data_Tb4Tm5Lu7(CdNi)4
_symmetry_space_group_name_H-M   'P 1'
_cell_length_a   9.42068256
_cell_length_b   9.41990624
_cell_length_c   9.41990605
_cell_angle_alpha   60.00768589
_cell_angle_beta   59.99726406
_cell_angle_gamma   59.99727081
_symmetry_Int_Tables_number   1
_chemical_formula_structural   Tb4Tm5Lu7(CdNi)4
_chemical_formula_sum   'Tb4 Tm5 Lu7 Cd4 Ni4'
_cell_volume   591.10931419
_cell_formula_units_Z   1
loop_
 _symmetry_equiv_pos_site_id
 _symmetry_equiv_pos_as_xyz
  1  'x, y, z'
loop_
 _atom_site_type_symbol
 _atom_site_label
 _atom_site_symmetry_multiplicity
 _atom_site_fract_x
 _atom_site_fract_y
 _atom_site_fract_z
 _atom_site_occupancy
  Tb  Tb0  1  0.349724  0.349928  0.349928  1
  Tb  Tb1  1  0.349849  0.349991  0.950312  1
  Tb  Tb2  1  0.349849  0.950312  0.349991  1
  Tb  Tb3  1  0.950421  0.349928  0.349928  1
  Tm  Tm4  1  0.564495  0.935505  0.935505  1
  Tm  Tm5  1  0.564740  0.935273  0.564456  1
  Tm  Tm6  1  0.935532  0.564456  0.935273  1
  Tm  Tm7  1  0.564740  0.564456  0.935273  1
  Tm  Tm8  1  0.935532  0.935273  0.564456  1
  Lu  Lu9  1  0.813168  0.186832  0.186832  1
  Lu  Lu10  1  0.186774  0.813226  0.813226  1
  Lu  Lu11  1  0.186508  0.813164  0.186995  1
  Lu  Lu12  1  0.813333  0.186995  0.813164  1
  Lu  Lu13  1  0.186508  0.186995  0.813164  1
  Lu  Lu14  1  0.813333  0.813164  0.186995  1
  Lu  Lu15  1  0.935540  0.564460  0.564460  1
  Cd  Cd16  1  0.582352  0.582167  0.582167  1
  Cd  Cd17  1  0.582171  0.582117  0.253542  1
  Cd  Cd18  1  0.582171  0.253542  0.582117  1
  Cd  Cd19  1  0.253316  0.582167  0.582167  1
  Ni  Ni20  1  0.141315  0.141299  0.141299  1
  Ni  Ni21  1  0.141273  0.141438  0.576018  1
  Ni  Ni22  1  0.141273  0.576018  0.141438  1
  Ni  Ni23  1  0.576089  0.141299  0.141299  1
