# generated using pymatgen
data_Zr6Nb(Fe3Co8)2
_symmetry_space_group_name_H-M   'P 1'
_cell_length_a   8.22291006
_cell_length_b   8.21958652
_cell_length_c   8.22173400
_cell_angle_alpha   59.99134904
_cell_angle_beta   60.00472298
_cell_angle_gamma   59.99584557
_symmetry_Int_Tables_number   1
_chemical_formula_structural   Zr6Nb(Fe3Co8)2
_chemical_formula_sum   'Zr6 Nb1 Fe6 Co16'
_cell_volume   392.91390079
_cell_formula_units_Z   1
loop_
 _symmetry_equiv_pos_site_id
 _symmetry_equiv_pos_as_xyz
  1  'x, y, z'
loop_
 _atom_site_type_symbol
 _atom_site_label
 _atom_site_symmetry_multiplicity
 _atom_site_fract_x
 _atom_site_fract_y
 _atom_site_fract_z
 _atom_site_occupancy
  Zr  Zr0  1  0.710393  0.289820  0.289559  1
  Zr  Zr1  1  0.289606  0.289798  0.710298  1
  Zr  Zr2  1  0.289607  0.710180  0.710441  1
  Zr  Zr3  1  0.710394  0.710202  0.289702  1
  Zr  Zr4  1  0.289607  0.710180  0.289772  1
  Zr  Zr5  1  0.710393  0.289820  0.710228  1
  Nb  Nb6  1  0.000000  0.000000  0.000000  1
  Fe  Fe7  1  0.000000  0.500000  0.000000  1
  Fe  Fe8  1  0.000000  0.000000  0.500000  1
  Fe  Fe9  1  0.500000  0.500000  0.000000  1
  Fe  Fe10  1  0.500000  0.000000  0.500000  1
  Fe  Fe11  1  0.500000  0.000000  0.000000  1
  Fe  Fe12  1  0.000000  0.500000  0.500000  1
  Co  Co13  1  0.123867  0.123615  0.628767  1
  Co  Co14  1  0.674282  0.977103  0.674307  1
  Co  Co15  1  0.371162  0.876262  0.876287  1
  Co  Co16  1  0.023126  0.325618  0.325629  1
  Co  Co17  1  0.976874  0.674382  0.674371  1
  Co  Co18  1  0.325639  0.325713  0.022985  1
  Co  Co19  1  0.674361  0.674287  0.977015  1
  Co  Co20  1  0.628838  0.123738  0.123713  1
  Co  Co21  1  0.674361  0.674287  0.674335  1
  Co  Co22  1  0.876133  0.876385  0.371233  1
  Co  Co23  1  0.123867  0.123615  0.123749  1
  Co  Co24  1  0.876307  0.371327  0.876182  1
  Co  Co25  1  0.876133  0.876385  0.876251  1
  Co  Co26  1  0.325639  0.325713  0.325665  1
  Co  Co27  1  0.123693  0.628673  0.123818  1
  Co  Co28  1  0.325718  0.022897  0.325693  1
