# generated using pymatgen
data_Hf6Al8Si8Os7
_symmetry_space_group_name_H-M   'P 1'
_cell_length_a   8.59100872
_cell_length_b   8.59100845
_cell_length_c   8.59100800
_cell_angle_alpha   60.00000175
_cell_angle_beta   60.00000276
_cell_angle_gamma   59.99999861
_symmetry_Int_Tables_number   1
_chemical_formula_structural   Hf6Al8Si8Os7
_chemical_formula_sum   'Hf6 Al8 Si8 Os7'
_cell_volume   448.35027656
_cell_formula_units_Z   1
loop_
 _symmetry_equiv_pos_site_id
 _symmetry_equiv_pos_as_xyz
  1  'x, y, z'
loop_
 _atom_site_type_symbol
 _atom_site_label
 _atom_site_symmetry_multiplicity
 _atom_site_fract_x
 _atom_site_fract_y
 _atom_site_fract_z
 _atom_site_occupancy
  Hf  Hf0  1  0.191141  0.808859  0.808859  1
  Hf  Hf1  1  0.808859  0.191141  0.191141  1
  Hf  Hf2  1  0.808859  0.191141  0.808859  1
  Hf  Hf3  1  0.808859  0.808859  0.191141  1
  Hf  Hf4  1  0.191141  0.808859  0.191141  1
  Hf  Hf5  1  0.191141  0.191141  0.808859  1
  Al  Al6  1  0.622726  0.622726  0.622726  1
  Al  Al7  1  0.622726  0.622726  0.131824  1
  Al  Al8  1  0.131824  0.622726  0.622726  1
  Al  Al9  1  0.622726  0.131824  0.622726  1
  Al  Al10  1  0.377274  0.377274  0.377274  1
  Al  Al11  1  0.377274  0.377274  0.868176  1
  Al  Al12  1  0.377274  0.868176  0.377274  1
  Al  Al13  1  0.868176  0.377274  0.377274  1
  Si  Si14  1  0.845384  0.845384  0.845384  1
  Si  Si15  1  0.845384  0.845384  0.463847  1
  Si  Si16  1  0.463847  0.845384  0.845384  1
  Si  Si17  1  0.845384  0.463847  0.845384  1
  Si  Si18  1  0.154616  0.154616  0.154616  1
  Si  Si19  1  0.154616  0.154616  0.536153  1
  Si  Si20  1  0.154616  0.536153  0.154616  1
  Si  Si21  1  0.536153  0.154616  0.154616  1
  Os  Os22  1  0.500000  0.500000  0.500000  1
  Os  Os23  1  0.000000  0.500000  0.500000  1
  Os  Os24  1  0.500000  0.000000  0.000000  1
  Os  Os25  1  0.500000  0.000000  0.500000  1
  Os  Os26  1  0.500000  0.500000  0.000000  1
  Os  Os27  1  0.000000  0.500000  0.000000  1
  Os  Os28  1  0.000000  0.000000  0.500000  1
