# generated using pymatgen
data_Cs12Ti4BiSe11
_symmetry_space_group_name_H-M   'P 1'
_cell_length_a   10.96761473
_cell_length_b   10.96761663
_cell_length_c   14.47009369
_cell_angle_alpha   90.45969037
_cell_angle_beta   90.45969389
_cell_angle_gamma   137.89848880
_symmetry_Int_Tables_number   1
_chemical_formula_structural   Cs12Ti4BiSe11
_chemical_formula_sum   'Cs12 Ti4 Bi1 Se11'
_cell_volume   1166.67892794
_cell_formula_units_Z   1
loop_
 _symmetry_equiv_pos_site_id
 _symmetry_equiv_pos_as_xyz
  1  'x, y, z'
loop_
 _atom_site_type_symbol
 _atom_site_label
 _atom_site_symmetry_multiplicity
 _atom_site_fract_x
 _atom_site_fract_y
 _atom_site_fract_z
 _atom_site_occupancy
  Cs  Cs0  1  0.851284  0.851284  0.693012  1
  Cs  Cs1  1  0.124537  0.124537  0.306074  1
  Cs  Cs2  1  0.627950  0.627950  0.186323  1
  Cs  Cs3  1  0.367539  0.367539  0.822264  1
  Cs  Cs4  1  0.171028  0.525278  0.124428  1
  Cs  Cs5  1  0.476363  0.829299  0.874628  1
  Cs  Cs6  1  0.970383  0.325868  0.629736  1
  Cs  Cs7  1  0.681164  0.033811  0.373375  1
  Cs  Cs8  1  0.829299  0.476363  0.874628  1
  Cs  Cs9  1  0.525278  0.171028  0.124428  1
  Cs  Cs10  1  0.033811  0.681164  0.373375  1
  Cs  Cs11  1  0.325868  0.970383  0.629736  1
  Ti  Ti12  1  0.925973  0.074322  0.001385  1
  Ti  Ti13  1  0.426136  0.586517  0.495939  1
  Ti  Ti14  1  0.074322  0.925973  0.001385  1
  Ti  Ti15  1  0.586517  0.426136  0.495939  1
  Bi  Bi16  1  0.259431  0.259431  0.564596  1
  Se  Se17  1  0.718274  0.718274  0.436580  1
  Se  Se18  1  0.224272  0.224272  0.065525  1
  Se  Se19  1  0.776213  0.776213  0.937537  1
  Se  Se20  1  0.731872  0.015599  0.122176  1
  Se  Se21  1  0.982565  0.268704  0.881417  1
  Se  Se22  1  0.487522  0.781557  0.618543  1
  Se  Se23  1  0.232145  0.524397  0.372418  1
  Se  Se24  1  0.268704  0.982565  0.881417  1
  Se  Se25  1  0.015599  0.731872  0.122176  1
  Se  Se26  1  0.524397  0.232145  0.372418  1
  Se  Se27  1  0.781557  0.487522  0.618543  1
