# generated using pymatgen
data_Sc9Pa(Sb3C)2
_symmetry_space_group_name_H-M   'P 1'
_cell_length_a   8.51699156
_cell_length_b   8.51699028
_cell_length_c   6.04899000
_cell_angle_alpha   90.00000000
_cell_angle_beta   90.00000000
_cell_angle_gamma   120.42354763
_symmetry_Int_Tables_number   1
_chemical_formula_structural   Sc9Pa(Sb3C)2
_chemical_formula_sum   'Sc9 Pa1 Sb6 C2'
_cell_volume   378.36979024
_cell_formula_units_Z   1
loop_
 _symmetry_equiv_pos_site_id
 _symmetry_equiv_pos_as_xyz
  1  'x, y, z'
loop_
 _atom_site_type_symbol
 _atom_site_label
 _atom_site_symmetry_multiplicity
 _atom_site_fract_x
 _atom_site_fract_y
 _atom_site_fract_z
 _atom_site_occupancy
  Sc  Sc0  1  0.667557  0.339029  0.498572  1
  Sc  Sc1  1  0.339029  0.667557  0.498572  1
  Sc  Sc2  1  0.339029  0.667557  0.001428  1
  Sc  Sc3  1  0.667557  0.339029  0.001428  1
  Sc  Sc4  1  0.214886  0.000825  0.250000  1
  Sc  Sc5  1  0.000825  0.214886  0.250000  1
  Sc  Sc6  1  0.210253  0.210253  0.750000  1
  Sc  Sc7  1  0.789583  0.002437  0.750000  1
  Sc  Sc8  1  0.002437  0.789583  0.750000  1
  Pa  Pa9  1  0.782770  0.782770  0.250000  1
  Sb  Sb10  1  0.394041  0.394041  0.250000  1
  Sb  Sb11  1  0.595713  0.009184  0.250000  1
  Sb  Sb12  1  0.009184  0.595713  0.250000  1
  Sb  Sb13  1  0.596479  0.596479  0.750000  1
  Sb  Sb14  1  0.402611  0.001574  0.750000  1
  Sb  Sb15  1  0.001574  0.402611  0.750000  1
  C  C16  1  0.993235  0.993235  0.498808  1
  C  C17  1  0.993235  0.993235  0.001192  1
