# generated using pymatgen
data_Hf18NbCo2Re6W
_symmetry_space_group_name_H-M   'P 1'
_cell_length_a   8.64071800
_cell_length_b   8.64071638
_cell_length_c   8.45729900
_cell_angle_alpha   90.00000000
_cell_angle_beta   90.00000000
_cell_angle_gamma   119.99999855
_symmetry_Int_Tables_number   1
_chemical_formula_structural   Hf18NbCo2Re6W
_chemical_formula_sum   'Hf18 Nb1 Co2 Re6 W1'
_cell_volume   546.84205262
_cell_formula_units_Z   1
loop_
 _symmetry_equiv_pos_site_id
 _symmetry_equiv_pos_as_xyz
  1  'x, y, z'
loop_
 _atom_site_type_symbol
 _atom_site_label
 _atom_site_symmetry_multiplicity
 _atom_site_fract_x
 _atom_site_fract_y
 _atom_site_fract_z
 _atom_site_occupancy
  Hf  Hf0  1  0.200641  0.799359  0.440735  1
  Hf  Hf1  1  0.200641  0.401284  0.440735  1
  Hf  Hf2  1  0.598716  0.799359  0.440735  1
  Hf  Hf3  1  0.799359  0.200641  0.559265  1
  Hf  Hf4  1  0.799359  0.598716  0.559265  1
  Hf  Hf5  1  0.401284  0.200641  0.559265  1
  Hf  Hf6  1  0.798723  0.201277  0.940682  1
  Hf  Hf7  1  0.798723  0.597445  0.940682  1
  Hf  Hf8  1  0.402555  0.201277  0.940682  1
  Hf  Hf9  1  0.201277  0.798723  0.059318  1
  Hf  Hf10  1  0.201277  0.402555  0.059318  1
  Hf  Hf11  1  0.597445  0.798723  0.059318  1
  Hf  Hf12  1  0.541896  0.458104  0.250093  1
  Hf  Hf13  1  0.541896  0.083793  0.250093  1
  Hf  Hf14  1  0.916207  0.458104  0.250093  1
  Hf  Hf15  1  0.458104  0.541896  0.749907  1
  Hf  Hf16  1  0.458104  0.916207  0.749907  1
  Hf  Hf17  1  0.083793  0.541896  0.749907  1
  Nb  Nb18  1  0.000000  0.000000  0.000000  1
  Co  Co19  1  0.333333  0.666667  0.249811  1
  Co  Co20  1  0.666667  0.333333  0.750189  1
  Re  Re21  1  0.887070  0.112930  0.251575  1
  Re  Re22  1  0.887070  0.774139  0.251575  1
  Re  Re23  1  0.225861  0.112930  0.251575  1
  Re  Re24  1  0.112930  0.887070  0.748425  1
  Re  Re25  1  0.112930  0.225861  0.748425  1
  Re  Re26  1  0.774139  0.887070  0.748425  1
  W  W27  1  0.000000  0.000000  0.500000  1
