# generated using pymatgen
data_Tb5Ce2Ho9(CdRu)4
_symmetry_space_group_name_H-M   'P 1'
_cell_length_a   9.72055162
_cell_length_b   9.60771129
_cell_length_c   9.60771185
_cell_angle_alpha   59.63211421
_cell_angle_beta   59.61072273
_cell_angle_gamma   59.61072180
_symmetry_Int_Tables_number   1
_chemical_formula_structural   Tb5Ce2Ho9(CdRu)4
_chemical_formula_sum   'Tb5 Ce2 Ho9 Cd4 Ru4'
_cell_volume   628.96654621
_cell_formula_units_Z   1
loop_
 _symmetry_equiv_pos_site_id
 _symmetry_equiv_pos_as_xyz
  1  'x, y, z'
loop_
 _atom_site_type_symbol
 _atom_site_label
 _atom_site_symmetry_multiplicity
 _atom_site_fract_x
 _atom_site_fract_y
 _atom_site_fract_z
 _atom_site_occupancy
  Tb  Tb0  1  0.563163  0.561676  0.937659  1
  Tb  Tb1  1  0.937503  0.561676  0.937659  1
  Tb  Tb2  1  0.560851  0.939149  0.939149  1
  Tb  Tb3  1  0.937503  0.937659  0.561676  1
  Tb  Tb4  1  0.563163  0.937659  0.561676  1
  Ce  Ce5  1  0.970992  0.340762  0.340762  1
  Ce  Ce6  1  0.347485  0.340762  0.340762  1
  Ho  Ho7  1  0.939760  0.560240  0.560240  1
  Ho  Ho8  1  0.189173  0.188437  0.812432  1
  Ho  Ho9  1  0.809957  0.188437  0.812432  1
  Ho  Ho10  1  0.188076  0.811924  0.811923  1
  Ho  Ho11  1  0.809957  0.812433  0.188437  1
  Ho  Ho12  1  0.189172  0.812432  0.188436  1
  Ho  Ho13  1  0.811434  0.188566  0.188566  1
  Ho  Ho14  1  0.348544  0.350253  0.952661  1
  Ho  Ho15  1  0.348544  0.952661  0.350253  1
  Cd  Cd16  1  0.581796  0.579140  0.257268  1
  Cd  Cd17  1  0.581796  0.257268  0.579140  1
  Cd  Cd18  1  0.259444  0.579585  0.579585  1
  Cd  Cd19  1  0.581385  0.579585  0.579585  1
  Ru  Ru20  1  0.137389  0.151772  0.573450  1
  Ru  Ru21  1  0.137389  0.573450  0.151772  1
  Ru  Ru22  1  0.573126  0.147237  0.147237  1
  Ru  Ru23  1  0.132400  0.147237  0.147237  1
