# generated using pymatgen
data_Zr24Ge3AsSe4
_symmetry_space_group_name_H-M   'P 1'
_cell_length_a   11.07879825
_cell_length_b   11.06403641
_cell_length_c   5.48836133
_cell_angle_alpha   90.10253702
_cell_angle_beta   90.02403880
_cell_angle_gamma   90.00368435
_symmetry_Int_Tables_number   1
_chemical_formula_structural   Zr24Ge3AsSe4
_chemical_formula_sum   'Zr24 Ge3 As1 Se4'
_cell_volume   672.74148754
_cell_formula_units_Z   1
loop_
 _symmetry_equiv_pos_site_id
 _symmetry_equiv_pos_as_xyz
  1  'x, y, z'
loop_
 _atom_site_type_symbol
 _atom_site_label
 _atom_site_symmetry_multiplicity
 _atom_site_fract_x
 _atom_site_fract_y
 _atom_site_fract_z
 _atom_site_occupancy
  Zr  Zr0  1  0.895210  0.584588  0.041813  1
  Zr  Zr1  1  0.104609  0.415801  0.041882  1
  Zr  Zr2  1  0.916007  0.395464  0.541720  1
  Zr  Zr3  1  0.084473  0.604785  0.540710  1
  Zr  Zr4  1  0.602955  0.915664  0.458276  1
  Zr  Zr5  1  0.396993  0.084281  0.458495  1
  Zr  Zr6  1  0.584298  0.102914  0.958825  1
  Zr  Zr7  1  0.415838  0.896736  0.959094  1
  Zr  Zr8  1  0.860471  0.025368  0.716924  1
  Zr  Zr9  1  0.139171  0.972907  0.715757  1
  Zr  Zr10  1  0.473916  0.360378  0.216768  1
  Zr  Zr11  1  0.526009  0.639989  0.216474  1
  Zr  Zr12  1  0.640035  0.474704  0.783356  1
  Zr  Zr13  1  0.359868  0.526013  0.783296  1
  Zr  Zr14  1  0.025618  0.139889  0.283460  1
  Zr  Zr15  1  0.974710  0.860433  0.284561  1
  Zr  Zr16  1  0.285250  0.181725  0.987367  1
  Zr  Zr17  1  0.714761  0.817980  0.987436  1
  Zr  Zr18  1  0.318223  0.785453  0.487088  1
  Zr  Zr19  1  0.681880  0.214753  0.487635  1
  Zr  Zr20  1  0.214430  0.317474  0.511035  1
  Zr  Zr21  1  0.785762  0.682906  0.511953  1
  Zr  Zr22  1  0.181451  0.714711  0.012470  1
  Zr  Zr23  1  0.817776  0.285478  0.010988  1
  Ge  Ge24  1  0.704949  0.461271  0.289066  1
  Ge  Ge25  1  0.295019  0.539121  0.288758  1
  Ge  Ge26  1  0.038926  0.204665  0.788743  1
  As  As27  1  0.961207  0.794189  0.788911  1
  Se  Se28  1  0.793131  0.038614  0.211806  1
  Se  Se29  1  0.206985  0.961689  0.211910  1
  Se  Se30  1  0.461240  0.293358  0.711842  1
  Se  Se31  1  0.538828  0.706697  0.711577  1
