# generated using pymatgen
data_Nd3Gd2U5O19
_symmetry_space_group_name_H-M   'P 1'
_cell_length_a   6.81447407
_cell_length_b   7.68710165
_cell_length_c   8.62049300
_cell_angle_alpha   100.94256344
_cell_angle_beta   97.64750664
_cell_angle_gamma   107.26040147
_symmetry_Int_Tables_number   1
_chemical_formula_structural   Nd3Gd2U5O19
_chemical_formula_sum   'Nd3 Gd2 U5 O19'
_cell_volume   414.66660802
_cell_formula_units_Z   1
loop_
 _symmetry_equiv_pos_site_id
 _symmetry_equiv_pos_as_xyz
  1  'x, y, z'
loop_
 _atom_site_type_symbol
 _atom_site_label
 _atom_site_symmetry_multiplicity
 _atom_site_fract_x
 _atom_site_fract_y
 _atom_site_fract_z
 _atom_site_occupancy
  Nd  Nd0  1  0.801783  0.101911  0.603734  1
  Nd  Nd1  1  0.386965  0.296488  0.798334  1
  Nd  Nd2  1  0.606483  0.702511  0.203498  1
  Gd  Gd3  1  0.000218  0.500044  0.997908  1
  Gd  Gd4  1  0.206972  0.913357  0.387026  1
  U  U5  1  0.777046  0.598209  0.601547  1
  U  U6  1  0.606882  0.205690  0.197065  1
  U  U7  1  0.000168  0.002434  0.997677  1
  U  U8  1  0.408053  0.806901  0.813720  1
  U  U9  1  0.200055  0.388533  0.389443  1
  O  O10  1  0.344654  0.061791  0.955527  1
  O  O11  1  0.423503  0.985429  0.647201  1
  O  O12  1  0.040862  0.219675  0.859570  1
  O  O13  1  0.728706  0.384548  0.737858  1
  O  O14  1  0.148696  0.178991  0.532726  1
  O  O15  1  0.354563  0.592016  0.953680  1
  O  O16  1  0.953314  0.268967  0.159099  1
  O  O17  1  0.899309  0.390155  0.460611  1
  O  O18  1  0.747338  0.864135  0.761048  1
  O  O19  1  0.545966  0.456281  0.357579  1
  O  O20  1  0.408032  0.551575  0.633507  1
  O  O21  1  0.256897  0.130648  0.237317  1
  O  O22  1  0.062345  0.717526  0.801791  1
  O  O23  1  0.650349  0.410010  0.059410  1
  O  O24  1  0.870479  0.802960  0.462637  1
  O  O25  1  0.246862  0.623014  0.277505  1
  O  O26  1  0.958430  0.783420  0.128194  1
  O  O27  1  0.570655  0.005785  0.345092  1
  O  O28  1  0.658335  0.944633  0.047934  1
