# generated using pymatgen
data_Ta4Al4V2ZnMo
_symmetry_space_group_name_H-M   'P 1'
_cell_length_a   5.04964511
_cell_length_b   5.05772619
_cell_length_c   8.43508500
_cell_angle_alpha   90.00000000
_cell_angle_beta   90.00000000
_cell_angle_gamma   119.33154418
_symmetry_Int_Tables_number   1
_chemical_formula_structural   Ta4Al4V2ZnMo
_chemical_formula_sum   'Ta4 Al4 V2 Zn1 Mo1'
_cell_volume   187.81157530
_cell_formula_units_Z   1
loop_
 _symmetry_equiv_pos_site_id
 _symmetry_equiv_pos_as_xyz
  1  'x, y, z'
loop_
 _atom_site_type_symbol
 _atom_site_label
 _atom_site_symmetry_multiplicity
 _atom_site_fract_x
 _atom_site_fract_y
 _atom_site_fract_z
 _atom_site_occupancy
  Ta  Ta0  1  0.666425  0.333762  0.307892  1
  Ta  Ta1  1  0.334261  0.664117  0.187097  1
  Ta  Ta2  1  0.334261  0.664117  0.812903  1
  Ta  Ta3  1  0.666425  0.333762  0.692108  1
  Al  Al4  1  0.995635  0.993385  0.248935  1
  Al  Al5  1  0.995635  0.993385  0.751065  1
  Al  Al6  1  0.651734  0.832892  0.500000  1
  Al  Al7  1  0.167179  0.346503  0.500000  1
  V  V8  1  0.835916  0.655573  0.000000  1
  V  V9  1  0.836292  0.176473  0.000000  1
  Zn  Zn10  1  0.166757  0.833599  0.500000  1
  Mo  Mo11  1  0.349525  0.172388  0.000000  1
