# generated using pymatgen
data_Th5(U3S10)2
_symmetry_space_group_name_H-M   'P 1'
_cell_length_a   10.37011645
_cell_length_b   10.38452902
_cell_length_c   6.52432474
_cell_angle_alpha   89.93935265
_cell_angle_beta   89.94315410
_cell_angle_gamma   89.74649950
_symmetry_Int_Tables_number   1
_chemical_formula_structural   Th5(U3S10)2
_chemical_formula_sum   'Th5 U6 S20'
_cell_volume   702.58892685
_cell_formula_units_Z   1
loop_
 _symmetry_equiv_pos_site_id
 _symmetry_equiv_pos_as_xyz
  1  'x, y, z'
loop_
 _atom_site_type_symbol
 _atom_site_label
 _atom_site_symmetry_multiplicity
 _atom_site_fract_x
 _atom_site_fract_y
 _atom_site_fract_z
 _atom_site_occupancy
  Th  Th0  1  0.844473  0.653728  0.252501  1
  Th  Th1  1  0.835169  0.349212  0.752033  1
  Th  Th2  1  0.164761  0.649172  0.750518  1
  Th  Th3  1  0.156859  0.345152  0.252259  1
  Th  Th4  1  0.646259  0.841953  0.750858  1
  U  U5  1  0.649785  0.154545  0.254237  1
  U  U6  1  0.348881  0.847297  0.252320  1
  U  U7  1  0.353505  0.160482  0.749782  1
  U  U8  1  0.498720  0.498573  0.140705  1
  U  U9  1  0.001109  0.000261  0.358669  1
  U  U10  1  0.002514  0.000959  0.859014  1
  S  S11  1  0.290900  0.589548  0.372951  1
  S  S12  1  0.293213  0.410466  0.890784  1
  S  S13  1  0.706909  0.588254  0.892001  1
  S  S14  1  0.709260  0.410472  0.373168  1
  S  S15  1  0.588503  0.288469  0.899057  1
  S  S16  1  0.586687  0.711382  0.375075  1
  S  S17  1  0.413103  0.289509  0.381227  1
  S  S18  1  0.411167  0.710809  0.899771  1
  S  S19  1  0.206800  0.911200  0.610024  1
  S  S20  1  0.206545  0.086283  0.108734  1
  S  S21  1  0.794449  0.913985  0.109594  1
  S  S22  1  0.793888  0.087512  0.609911  1
  S  S23  1  0.910746  0.204270  0.113307  1
  S  S24  1  0.912421  0.794770  0.615220  1
  S  S25  1  0.089181  0.204349  0.616867  1
  S  S26  1  0.088794  0.794863  0.112524  1
  S  S27  1  0.999930  0.498952  0.505677  1
  S  S28  1  0.000085  0.499368  0.999168  1
  S  S29  1  0.498610  0.002497  0.004876  1
  S  S30  1  0.496777  0.001707  0.501367  1
