# generated using pymatgen
data_YHo4Er15(CoSb2)4
_symmetry_space_group_name_H-M   'P 1'
_cell_length_a   7.82946644
_cell_length_b   8.73725000
_cell_length_c   12.12115268
_cell_angle_alpha   90.00000000
_cell_angle_beta   90.03845602
_cell_angle_gamma   90.00000000
_symmetry_Int_Tables_number   1
_chemical_formula_structural   YHo4Er15(CoSb2)4
_chemical_formula_sum   'Y1 Ho4 Er15 Co4 Sb8'
_cell_volume   829.18369455
_cell_formula_units_Z   1
loop_
 _symmetry_equiv_pos_site_id
 _symmetry_equiv_pos_as_xyz
  1  'x, y, z'
loop_
 _atom_site_type_symbol
 _atom_site_label
 _atom_site_symmetry_multiplicity
 _atom_site_fract_x
 _atom_site_fract_y
 _atom_site_fract_z
 _atom_site_occupancy
  Y  Y0  1  0.157034  0.750000  0.204672  1
  Ho  Ho1  1  0.622983  0.750000  0.307450  1
  Ho  Ho2  1  0.122598  0.250000  0.192468  1
  Ho  Ho3  1  0.377406  0.250000  0.692499  1
  Ho  Ho4  1  0.877503  0.750000  0.807561  1
  Er  Er5  1  0.656847  0.250000  0.296259  1
  Er  Er6  1  0.843098  0.250000  0.796065  1
  Er  Er7  1  0.343066  0.750000  0.703992  1
  Er  Er8  1  0.452223  0.750000  0.997656  1
  Er  Er9  1  0.951544  0.250000  0.502043  1
  Er  Er10  1  0.548512  0.250000  0.001912  1
  Er  Er11  1  0.048226  0.750000  0.498366  1
  Er  Er12  1  0.822758  0.963552  0.065289  1
  Er  Er13  1  0.323138  0.036980  0.434577  1
  Er  Er14  1  0.176918  0.463272  0.934469  1
  Er  Er15  1  0.676929  0.536589  0.565532  1
  Er  Er16  1  0.176918  0.036728  0.934469  1
  Er  Er17  1  0.676929  0.963411  0.565532  1
  Er  Er18  1  0.822758  0.536448  0.065289  1
  Er  Er19  1  0.323138  0.463020  0.434577  1
  Co  Co20  1  0.431901  0.750000  0.490644  1
  Co  Co21  1  0.931936  0.250000  0.009335  1
  Co  Co22  1  0.568083  0.250000  0.509317  1
  Co  Co23  1  0.067589  0.750000  0.989626  1
  Sb  Sb24  1  0.930031  0.991991  0.327640  1
  Sb  Sb25  1  0.430976  0.008818  0.172536  1
  Sb  Sb26  1  0.069519  0.491538  0.672656  1
  Sb  Sb27  1  0.569456  0.508393  0.827369  1
  Sb  Sb28  1  0.069519  0.008462  0.672656  1
  Sb  Sb29  1  0.569456  0.991607  0.827369  1
  Sb  Sb30  1  0.930031  0.508009  0.327640  1
  Sb  Sb31  1  0.430976  0.491182  0.172536  1
