# generated using pymatgen
data_Pa6GaNi6Sb7
_symmetry_space_group_name_H-M   'P 1'
_cell_length_a   8.16424626
_cell_length_b   8.16424594
_cell_length_c   8.15362400
_cell_angle_alpha   109.44487011
_cell_angle_beta   109.44486933
_cell_angle_gamma   109.49755987
_symmetry_Int_Tables_number   1
_chemical_formula_structural   Pa6GaNi6Sb7
_chemical_formula_sum   'Pa6 Ga1 Ni6 Sb7'
_cell_volume   418.50638631
_cell_formula_units_Z   1
loop_
 _symmetry_equiv_pos_site_id
 _symmetry_equiv_pos_as_xyz
  1  'x, y, z'
loop_
 _atom_site_type_symbol
 _atom_site_label
 _atom_site_symmetry_multiplicity
 _atom_site_fract_x
 _atom_site_fract_y
 _atom_site_fract_z
 _atom_site_occupancy
  Pa  Pa0  1  0.624162  0.368145  0.242701  1
  Pa  Pa1  1  0.378245  0.244790  0.629870  1
  Pa  Pa2  1  0.131855  0.756017  0.874557  1
  Pa  Pa3  1  0.743983  0.875838  0.118539  1
  Pa  Pa4  1  0.255210  0.633455  0.385079  1
  Pa  Pa5  1  0.866545  0.121755  0.751625  1
  Ga  Ga6  1  0.500000  0.000000  0.833927  1
  Ni  Ni7  1  0.867314  0.242497  0.118681  1
  Ni  Ni8  1  0.375183  0.632686  0.751367  1
  Ni  Ni9  1  0.625257  0.749730  0.374582  1
  Ni  Ni10  1  0.750270  0.375526  0.624850  1
  Ni  Ni11  1  0.257503  0.124817  0.876185  1
  Ni  Ni12  1  0.124474  0.874743  0.249324  1
  Sb  Sb13  1  0.167561  0.168660  0.168158  1
  Sb  Sb14  1  0.834875  0.500723  0.000643  1
  Sb  Sb15  1  0.999277  0.834153  0.499922  1
  Sb  Sb16  1  0.331340  0.498901  0.999498  1
  Sb  Sb17  1  0.001099  0.332439  0.500597  1
  Sb  Sb18  1  0.500000  0.000000  0.334123  1
  Sb  Sb19  1  0.665847  0.665125  0.665768  1
