# generated using pymatgen
data_NdYAg2(Ir2O7)2
_symmetry_space_group_name_H-M   'P 1'
_cell_length_a   7.40863068
_cell_length_b   7.26561353
_cell_length_c   7.26561377
_cell_angle_alpha   59.34423212
_cell_angle_beta   59.29912463
_cell_angle_gamma   59.29912398
_symmetry_Int_Tables_number   1
_chemical_formula_structural   NdYAg2(Ir2O7)2
_chemical_formula_sum   'Nd1 Y1 Ag2 Ir4 O14'
_cell_volume   272.22763935
_cell_formula_units_Z   1
loop_
 _symmetry_equiv_pos_site_id
 _symmetry_equiv_pos_as_xyz
  1  'x, y, z'
loop_
 _atom_site_type_symbol
 _atom_site_label
 _atom_site_symmetry_multiplicity
 _atom_site_fract_x
 _atom_site_fract_y
 _atom_site_fract_z
 _atom_site_occupancy
  Nd  Nd0  1  0.125000  0.125000  0.125000  1
  Y  Y1  1  0.625000  0.125000  0.125000  1
  Ag  Ag2  1  0.125000  0.625000  0.125000  1
  Ag  Ag3  1  0.125000  0.125000  0.625000  1
  Ir  Ir4  1  0.125000  0.625000  0.625000  1
  Ir  Ir5  1  0.625000  0.125000  0.625000  1
  Ir  Ir6  1  0.625000  0.625000  0.125000  1
  Ir  Ir7  1  0.625000  0.625000  0.625000  1
  O  O8  1  0.693057  0.711799  0.295692  1
  O  O9  1  0.300846  0.295626  0.703996  1
  O  O10  1  0.693057  0.295692  0.711799  1
  O  O11  1  0.300846  0.703996  0.295626  1
  O  O12  1  0.310361  0.690749  0.690749  1
  O  O13  1  0.706693  0.288089  0.288089  1
  O  O14  1  0.556943  0.538201  0.954308  1
  O  O15  1  0.949154  0.954374  0.546004  1
  O  O16  1  0.556943  0.954308  0.538201  1
  O  O17  1  0.949154  0.546004  0.954374  1
  O  O18  1  0.939639  0.559251  0.559251  1
  O  O19  1  0.543307  0.961911  0.961911  1
  O  O20  1  0.248889  0.259462  0.259462  1
  O  O21  1  0.001111  0.990538  0.990538  1
