# generated using pymatgen
data_Hf9ZrSn6Se
_symmetry_space_group_name_H-M   'P 1'
_cell_length_a   5.82509083
_cell_length_b   8.53678788
_cell_length_c   8.54039667
_cell_angle_alpha   120.01403999
_cell_angle_beta   89.86824138
_cell_angle_gamma   90.06595954
_symmetry_Int_Tables_number   1
_chemical_formula_structural   Hf9ZrSn6Se
_chemical_formula_sum   'Hf9 Zr1 Sn6 Se1'
_cell_volume   367.74202073
_cell_formula_units_Z   1
loop_
 _symmetry_equiv_pos_site_id
 _symmetry_equiv_pos_as_xyz
  1  'x, y, z'
loop_
 _atom_site_type_symbol
 _atom_site_label
 _atom_site_symmetry_multiplicity
 _atom_site_fract_x
 _atom_site_fract_y
 _atom_site_fract_z
 _atom_site_occupancy
  Hf  Hf0  1  0.500078  0.333579  0.666551  1
  Hf  Hf1  1  0.500079  0.666423  0.332975  1
  Hf  Hf2  1  0.999824  0.666527  0.333118  1
  Hf  Hf3  1  0.999824  0.333474  0.666589  1
  Hf  Hf4  1  0.766356  0.257558  0.000544  1
  Hf  Hf5  1  0.766353  0.742441  0.742986  1
  Hf  Hf6  1  0.768157  0.000003  0.257143  1
  Hf  Hf7  1  0.232907  0.743179  0.999633  1
  Hf  Hf8  1  0.232907  0.256820  0.256455  1
  Zr  Zr9  1  0.232564  0.000001  0.743997  1
  Sn  Sn10  1  0.746483  0.607784  0.000052  1
  Sn  Sn11  1  0.746483  0.392216  0.392269  1
  Sn  Sn12  1  0.745803  0.000000  0.607727  1
  Sn  Sn13  1  0.253229  0.393343  0.000389  1
  Sn  Sn14  1  0.253227  0.606657  0.607047  1
  Sn  Sn15  1  0.253947  0.000001  0.391123  1
  Se  Se16  1  0.501776  0.999999  0.001402  1
