# generated using pymatgen
data_Ho12Th4Mg3ZnRu4
_symmetry_space_group_name_H-M   'P 1'
_cell_length_a   9.67720722
_cell_length_b   9.67720683
_cell_length_c   9.67720710
_cell_angle_alpha   60.04465472
_cell_angle_beta   60.04465327
_cell_angle_gamma   60.04465606
_symmetry_Int_Tables_number   1
_chemical_formula_structural   Ho12Th4Mg3ZnRu4
_chemical_formula_sum   'Ho12 Th4 Mg3 Zn1 Ru4'
_cell_volume   641.46719301
_cell_formula_units_Z   1
loop_
 _symmetry_equiv_pos_site_id
 _symmetry_equiv_pos_as_xyz
  1  'x, y, z'
loop_
 _atom_site_type_symbol
 _atom_site_label
 _atom_site_symmetry_multiplicity
 _atom_site_fract_x
 _atom_site_fract_y
 _atom_site_fract_z
 _atom_site_occupancy
  Ho  Ho0  1  0.812574  0.186912  0.186912  1
  Ho  Ho1  1  0.187382  0.811808  0.811808  1
  Ho  Ho2  1  0.186912  0.812574  0.186912  1
  Ho  Ho3  1  0.811808  0.187382  0.811808  1
  Ho  Ho4  1  0.186912  0.186912  0.812574  1
  Ho  Ho5  1  0.811808  0.811808  0.187382  1
  Ho  Ho6  1  0.928753  0.564996  0.564996  1
  Ho  Ho7  1  0.562782  0.935294  0.935294  1
  Ho  Ho8  1  0.564996  0.928753  0.564996  1
  Ho  Ho9  1  0.935294  0.562782  0.935294  1
  Ho  Ho10  1  0.564996  0.564996  0.928753  1
  Ho  Ho11  1  0.935294  0.935294  0.562782  1
  Th  Th12  1  0.346345  0.346345  0.346345  1
  Th  Th13  1  0.348609  0.348609  0.956845  1
  Th  Th14  1  0.348609  0.956845  0.348609  1
  Th  Th15  1  0.956845  0.348609  0.348609  1
  Mg  Mg16  1  0.579523  0.579523  0.264542  1
  Mg  Mg17  1  0.579523  0.264542  0.579523  1
  Mg  Mg18  1  0.264542  0.579523  0.579523  1
  Zn  Zn19  1  0.583913  0.583913  0.583913  1
  Ru  Ru20  1  0.143276  0.143276  0.143276  1
  Ru  Ru21  1  0.144662  0.144662  0.569982  1
  Ru  Ru22  1  0.144662  0.569982  0.144662  1
  Ru  Ru23  1  0.569982  0.144662  0.144662  1
