# generated using pymatgen
data_PrFeTeO6
_symmetry_space_group_name_H-M   'P 1'
_cell_length_a   5.26464900
_cell_length_b   5.26454261
_cell_length_c   10.29848600
_cell_angle_alpha   90.00119270
_cell_angle_beta   89.99938088
_cell_angle_gamma   119.99943712
_symmetry_Int_Tables_number   1
_chemical_formula_structural   PrFeTeO6
_chemical_formula_sum   'Pr2 Fe2 Te2 O12'
_cell_volume   247.19321425
_cell_formula_units_Z   2
loop_
 _symmetry_equiv_pos_site_id
 _symmetry_equiv_pos_as_xyz
  1  'x, y, z'
loop_
 _atom_site_type_symbol
 _atom_site_label
 _atom_site_symmetry_multiplicity
 _atom_site_fract_x
 _atom_site_fract_y
 _atom_site_fract_z
 _atom_site_occupancy
  Pr  Pr0  1  0.000000  0.000000  0.000000  1
  Pr  Pr1  1  0.000000  0.000000  0.500000  1
  Fe  Fe2  1  0.333265  0.666633  0.249999  1
  Fe  Fe3  1  0.666735  0.333367  0.750001  1
  Te  Te4  1  0.333376  0.666691  0.750001  1
  Te  Te5  1  0.666624  0.333309  0.249999  1
  O  O6  1  0.376026  0.363016  0.143156  1
  O  O7  1  0.636885  0.012996  0.143146  1
  O  O8  1  0.986895  0.623869  0.143149  1
  O  O9  1  0.623974  0.636984  0.856844  1
  O  O10  1  0.363115  0.987004  0.856854  1
  O  O11  1  0.013105  0.376131  0.856851  1
  O  O12  1  0.636884  0.623889  0.356854  1
  O  O13  1  0.376026  0.013010  0.356844  1
  O  O14  1  0.986895  0.363027  0.356851  1
  O  O15  1  0.363116  0.376111  0.643146  1
  O  O16  1  0.623974  0.986990  0.643156  1
  O  O17  1  0.013105  0.636973  0.643149  1
