# generated using pymatgen
data_La19Pr(Ga2Sn)4
_symmetry_space_group_name_H-M   'P 1'
_cell_length_a   8.18822800
_cell_length_b   8.18822800
_cell_length_c   14.98543200
_cell_angle_alpha   90.00000000
_cell_angle_beta   90.00000000
_cell_angle_gamma   90.00000000
_symmetry_Int_Tables_number   1
_chemical_formula_structural   La19Pr(Ga2Sn)4
_chemical_formula_sum   'La19 Pr1 Ga8 Sn4'
_cell_volume   1004.72942487
_cell_formula_units_Z   1
loop_
 _symmetry_equiv_pos_site_id
 _symmetry_equiv_pos_as_xyz
  1  'x, y, z'
loop_
 _atom_site_type_symbol
 _atom_site_label
 _atom_site_symmetry_multiplicity
 _atom_site_fract_x
 _atom_site_fract_y
 _atom_site_fract_z
 _atom_site_occupancy
  La  La0  1  0.822544  0.838628  0.606718  1
  La  La1  1  0.177421  0.838283  0.106546  1
  La  La2  1  0.161704  0.822709  0.393483  1
  La  La3  1  0.000000  0.500000  0.723083  1
  La  La4  1  0.838296  0.177291  0.393483  1
  La  La5  1  0.677291  0.661704  0.393483  1
  La  La6  1  0.661372  0.322544  0.606718  1
  La  La7  1  0.338628  0.677456  0.606718  1
  La  La8  1  0.000000  0.500000  0.223128  1
  La  La9  1  0.661717  0.677421  0.106546  1
  La  La10  1  0.677613  0.338415  0.893326  1
  La  La11  1  0.838415  0.822387  0.893326  1
  La  La12  1  0.322709  0.338296  0.393483  1
  La  La13  1  0.177456  0.161372  0.606718  1
  La  La14  1  0.822579  0.161717  0.106546  1
  La  La15  1  0.322387  0.661585  0.893326  1
  La  La16  1  0.338283  0.322579  0.106546  1
  La  La17  1  0.500000  0.000000  0.276872  1
  La  La18  1  0.161585  0.177613  0.893326  1
  Pr  Pr19  1  0.500000  0.000000  0.776606  1
  Ga  Ga20  1  0.621327  0.378641  0.249976  1
  Ga  Ga21  1  0.122134  0.878601  0.750169  1
  Ga  Ga22  1  0.378601  0.377866  0.750169  1
  Ga  Ga23  1  0.378673  0.621359  0.249976  1
  Ga  Ga24  1  0.878641  0.878673  0.249976  1
  Ga  Ga25  1  0.621399  0.622134  0.750169  1
  Ga  Ga26  1  0.877866  0.121399  0.750169  1
  Ga  Ga27  1  0.121359  0.121327  0.249976  1
  Sn  Sn28  1  0.000000  0.500000  0.503450  1
  Sn  Sn29  1  0.500000  0.000000  0.496779  1
  Sn  Sn30  1  0.500000  0.000000  0.995727  1
  Sn  Sn31  1  0.000000  0.500000  0.003484  1
