# generated using pymatgen
data_CaNdNbRh3
_symmetry_space_group_name_H-M   'P 1'
_cell_length_a   5.28079876
_cell_length_b   5.28079891
_cell_length_c   5.28079813
_cell_angle_alpha   66.10122550
_cell_angle_beta   66.10121777
_cell_angle_gamma   66.10121712
_symmetry_Int_Tables_number   1
_chemical_formula_structural   CaNdNbRh3
_chemical_formula_sum   'Ca1 Nd1 Nb1 Rh3'
_cell_volume   117.86781234
_cell_formula_units_Z   1
loop_
 _symmetry_equiv_pos_site_id
 _symmetry_equiv_pos_as_xyz
  1  'x, y, z'
loop_
 _atom_site_type_symbol
 _atom_site_label
 _atom_site_symmetry_multiplicity
 _atom_site_fract_x
 _atom_site_fract_y
 _atom_site_fract_z
 _atom_site_occupancy
  Ca  Ca0  1  0.371855  0.371855  0.371855  1
  Nd  Nd1  1  0.626222  0.626222  0.626222  1
  Nb  Nb2  1  0.000063  0.000063  0.000063  1
  Rh  Rh3  1  0.499742  0.001059  0.001059  1
  Rh  Rh4  1  0.001059  0.499742  0.001059  1
  Rh  Rh5  1  0.001059  0.001059  0.499742  1
