# generated using pymatgen
data_TbTm5(AlAu)6
_symmetry_space_group_name_H-M   'P 1'
_cell_length_a   7.36205058
_cell_length_b   7.36203434
_cell_length_c   7.94883600
_cell_angle_alpha   90.00000000
_cell_angle_beta   90.00000000
_cell_angle_gamma   120.07247168
_symmetry_Int_Tables_number   1
_chemical_formula_structural   TbTm5(AlAu)6
_chemical_formula_sum   'Tb1 Tm5 Al6 Au6'
_cell_volume   372.83200570
_cell_formula_units_Z   1
loop_
 _symmetry_equiv_pos_site_id
 _symmetry_equiv_pos_as_xyz
  1  'x, y, z'
loop_
 _atom_site_type_symbol
 _atom_site_label
 _atom_site_symmetry_multiplicity
 _atom_site_fract_x
 _atom_site_fract_y
 _atom_site_fract_z
 _atom_site_occupancy
  Tb  Tb0  1  0.414505  0.411345  0.250000  1
  Tm  Tm1  1  0.586668  0.996840  0.750000  1
  Tm  Tm2  1  0.002925  0.589689  0.750000  1
  Tm  Tm3  1  0.410912  0.413900  0.750000  1
  Tm  Tm4  1  0.997504  0.586942  0.250000  1
  Tm  Tm5  1  0.589948  0.003499  0.250000  1
  Al  Al6  1  0.752019  0.752209  0.999319  1
  Al  Al7  1  0.247776  0.999449  0.999184  1
  Al  Al8  1  0.999697  0.247888  0.999263  1
  Al  Al9  1  0.752019  0.752209  0.500681  1
  Al  Al10  1  0.247776  0.999449  0.500816  1
  Al  Al11  1  0.999697  0.247888  0.500737  1
  Au  Au12  1  0.999221  0.999214  0.750000  1
  Au  Au13  1  0.997854  0.997761  0.250000  1
  Au  Au14  1  0.668195  0.332486  0.993813  1
  Au  Au15  1  0.668195  0.332486  0.506187  1
  Au  Au16  1  0.332544  0.668373  0.498360  1
  Au  Au17  1  0.332544  0.668373  0.001640  1
