# generated using pymatgen
data_Ho9Tm(Bi2Rh)2
_symmetry_space_group_name_H-M   'P 1'
_cell_length_a   7.97948273
_cell_length_b   8.97755724
_cell_length_c   12.43593762
_cell_angle_alpha   89.97722905
_cell_angle_beta   90.09589585
_cell_angle_gamma   89.94422467
_symmetry_Int_Tables_number   1
_chemical_formula_structural   Ho9Tm(Bi2Rh)2
_chemical_formula_sum   'Ho18 Tm2 Bi8 Rh4'
_cell_volume   890.86235651
_cell_formula_units_Z   2
loop_
 _symmetry_equiv_pos_site_id
 _symmetry_equiv_pos_as_xyz
  1  'x, y, z'
loop_
 _atom_site_type_symbol
 _atom_site_label
 _atom_site_symmetry_multiplicity
 _atom_site_fract_x
 _atom_site_fract_y
 _atom_site_fract_z
 _atom_site_occupancy
  Ho  Ho0  1  0.839578  0.750097  0.793721  1
  Ho  Ho1  1  0.160422  0.249903  0.206279  1
  Ho  Ho2  1  0.339941  0.249808  0.706015  1
  Ho  Ho3  1  0.660059  0.750192  0.293985  1
  Ho  Ho4  1  0.375028  0.750356  0.690384  1
  Ho  Ho5  1  0.624972  0.249644  0.309616  1
  Ho  Ho6  1  0.874889  0.249981  0.809173  1
  Ho  Ho7  1  0.125111  0.750019  0.190827  1
  Ho  Ho8  1  0.952301  0.750453  0.501632  1
  Ho  Ho9  1  0.047699  0.249547  0.498368  1
  Ho  Ho10  1  0.452505  0.249936  0.998481  1
  Ho  Ho11  1  0.547495  0.750064  0.001519  1
  Ho  Ho12  1  0.177202  0.957732  0.933583  1
  Ho  Ho13  1  0.323019  0.542090  0.433697  1
  Ho  Ho14  1  0.822798  0.042268  0.066417  1
  Ho  Ho15  1  0.676981  0.457910  0.566303  1
  Ho  Ho16  1  0.822781  0.457744  0.066386  1
  Ho  Ho17  1  0.177219  0.542256  0.933614  1
  Tm  Tm18  1  0.675216  0.042423  0.565956  1
  Tm  Tm19  1  0.324784  0.957577  0.434044  1
  Bi  Bi20  1  0.567061  0.491948  0.826129  1
  Bi  Bi21  1  0.432939  0.508052  0.173871  1
  Bi  Bi22  1  0.067014  0.508059  0.673831  1
  Bi  Bi23  1  0.432814  0.991919  0.174056  1
  Bi  Bi24  1  0.932986  0.491941  0.326169  1
  Bi  Bi25  1  0.567186  0.008081  0.825944  1
  Bi  Bi26  1  0.933630  0.008040  0.326299  1
  Bi  Bi27  1  0.066370  0.991960  0.673701  1
  Rh  Rh28  1  0.572020  0.751286  0.509035  1
  Rh  Rh29  1  0.427980  0.248714  0.490965  1
  Rh  Rh30  1  0.072338  0.250011  0.990742  1
  Rh  Rh31  1  0.927662  0.749989  0.009258  1
