# generated using pymatgen
data_SrMn2(P2O7)2
_symmetry_space_group_name_H-M   'P 1'
_cell_length_a   4.85282520
_cell_length_b   7.23135168
_cell_length_c   8.15636375
_cell_angle_alpha   86.48672586
_cell_angle_beta   94.93673893
_cell_angle_gamma   107.97719557
_symmetry_Int_Tables_number   1
_chemical_formula_structural   SrMn2(P2O7)2
_chemical_formula_sum   'Sr1 Mn2 P4 O14'
_cell_volume   271.06122949
_cell_formula_units_Z   1
loop_
 _symmetry_equiv_pos_site_id
 _symmetry_equiv_pos_as_xyz
  1  'x, y, z'
loop_
 _atom_site_type_symbol
 _atom_site_label
 _atom_site_symmetry_multiplicity
 _atom_site_fract_x
 _atom_site_fract_y
 _atom_site_fract_z
 _atom_site_occupancy
  Sr  Sr0  1  0.000000  0.000000  0.000000  1
  Mn  Mn1  1  0.500000  0.500000  0.000000  1
  Mn  Mn2  1  0.000000  0.000000  0.500000  1
  P  P3  1  0.986798  0.385929  0.245274  1
  P  P4  1  0.013202  0.614071  0.754726  1
  P  P5  1  0.396940  0.783423  0.290269  1
  P  P6  1  0.603060  0.216577  0.709731  1
  O  O7  1  0.089571  0.796353  0.645149  1
  O  O8  1  0.910429  0.203647  0.354851  1
  O  O9  1  0.287518  0.556273  0.804205  1
  O  O10  1  0.712482  0.443727  0.195795  1
  O  O11  1  0.132050  0.349314  0.092371  1
  O  O12  1  0.867950  0.650686  0.907629  1
  O  O13  1  0.214239  0.558827  0.342221  1
  O  O14  1  0.492941  0.217917  0.881745  1
  O  O15  1  0.507059  0.782083  0.118255  1
  O  O16  1  0.810237  0.093871  0.716139  1
  O  O17  1  0.189763  0.906129  0.283861  1
  O  O18  1  0.369498  0.175177  0.567442  1
  O  O19  1  0.630502  0.824823  0.432558  1
  O  O20  1  0.785761  0.441173  0.657779  1
