# generated using pymatgen
data_Ac6Ga3Sn7
_symmetry_space_group_name_H-M   'P 1'
_cell_length_a   6.82302612
_cell_length_b   6.82302773
_cell_length_c   10.79144025
_cell_angle_alpha   90.09495018
_cell_angle_beta   90.09495155
_cell_angle_gamma   102.35820550
_symmetry_Int_Tables_number   1
_chemical_formula_structural   Ac6Ga3Sn7
_chemical_formula_sum   'Ac6 Ga3 Sn7'
_cell_volume   490.73886706
_cell_formula_units_Z   1
loop_
 _symmetry_equiv_pos_site_id
 _symmetry_equiv_pos_as_xyz
  1  'x, y, z'
loop_
 _atom_site_type_symbol
 _atom_site_label
 _atom_site_symmetry_multiplicity
 _atom_site_fract_x
 _atom_site_fract_y
 _atom_site_fract_z
 _atom_site_occupancy
  Ac  Ac0  1  0.638827  0.638827  0.241546  1
  Ac  Ac1  1  0.360661  0.360661  0.751167  1
  Ac  Ac2  1  0.205641  0.800730  0.500044  1
  Ac  Ac3  1  0.202558  0.795148  0.001067  1
  Ac  Ac4  1  0.800730  0.205641  0.500044  1
  Ac  Ac5  1  0.795148  0.202558  0.001067  1
  Ga  Ga6  1  0.309924  0.309924  0.048178  1
  Ga  Ga7  1  0.689519  0.689519  0.948626  1
  Ga  Ga8  1  0.308478  0.308478  0.450694  1
  Sn  Sn9  1  0.035828  0.035828  0.249770  1
  Sn  Sn10  1  0.966263  0.966263  0.752987  1
  Sn  Sn11  1  0.682015  0.682015  0.545578  1
  Sn  Sn12  1  0.484235  0.093671  0.249793  1
  Sn  Sn13  1  0.912815  0.513685  0.754823  1
  Sn  Sn14  1  0.513685  0.912815  0.754823  1
  Sn  Sn15  1  0.093671  0.484235  0.249793  1
