# generated using pymatgen
data_SrCdSnPt
_symmetry_space_group_name_H-M   'P 1'
_cell_length_a   5.93212192
_cell_length_b   5.93212200
_cell_length_c   8.02031500
_cell_angle_alpha   90.00000000
_cell_angle_beta   90.00000000
_cell_angle_gamma   135.16318150
_symmetry_Int_Tables_number   1
_chemical_formula_structural   SrCdSnPt
_chemical_formula_sum   'Sr2 Cd2 Sn2 Pt2'
_cell_volume   199.00140667
_cell_formula_units_Z   2
loop_
 _symmetry_equiv_pos_site_id
 _symmetry_equiv_pos_as_xyz
  1  'x, y, z'
loop_
 _atom_site_type_symbol
 _atom_site_label
 _atom_site_symmetry_multiplicity
 _atom_site_fract_x
 _atom_site_fract_y
 _atom_site_fract_z
 _atom_site_occupancy
  Sr  Sr0  1  0.938710  0.061290  0.750000  1
  Sr  Sr1  1  0.063693  0.936307  0.250000  1
  Cd  Cd2  1  0.646777  0.353223  0.946361  1
  Cd  Cd3  1  0.646777  0.353223  0.553639  1
  Sn  Sn4  1  0.345534  0.654466  0.051375  1
  Sn  Sn5  1  0.345534  0.654466  0.448625  1
  Pt  Pt6  1  0.227043  0.772957  0.750000  1
  Pt  Pt7  1  0.785932  0.214068  0.250000  1
