# generated using pymatgen
data_Dy5HoAl24ZnRu7
_symmetry_space_group_name_H-M   'P 1'
_cell_length_a   8.83004021
_cell_length_b   8.83003945
_cell_length_c   9.53221405
_cell_angle_alpha   90.01607884
_cell_angle_beta   89.98391963
_cell_angle_gamma   119.96954709
_symmetry_Int_Tables_number   1
_chemical_formula_structural   Dy5HoAl24ZnRu7
_chemical_formula_sum   'Dy5 Ho1 Al24 Zn1 Ru7'
_cell_volume   643.84734219
_cell_formula_units_Z   1
loop_
 _symmetry_equiv_pos_site_id
 _symmetry_equiv_pos_as_xyz
  1  'x, y, z'
loop_
 _atom_site_type_symbol
 _atom_site_label
 _atom_site_symmetry_multiplicity
 _atom_site_fract_x
 _atom_site_fract_y
 _atom_site_fract_z
 _atom_site_occupancy
  Dy  Dy0  1  0.193083  0.385429  0.247197  1
  Dy  Dy1  1  0.806877  0.614365  0.752750  1
  Dy  Dy2  1  0.614571  0.806917  0.247197  1
  Dy  Dy3  1  0.385635  0.193123  0.752750  1
  Dy  Dy4  1  0.193961  0.806039  0.253678  1
  Ho  Ho5  1  0.805607  0.194393  0.746303  1
  Al  Al6  1  0.328880  0.671120  0.021026  1
  Al  Al7  1  0.671255  0.328745  0.978696  1
  Al  Al8  1  0.666377  0.333623  0.515992  1
  Al  Al9  1  0.333739  0.666261  0.484266  1
  Al  Al10  1  0.162018  0.324389  0.576436  1
  Al  Al11  1  0.837745  0.675488  0.423727  1
  Al  Al12  1  0.675611  0.837982  0.576436  1
  Al  Al13  1  0.849618  0.677850  0.081708  1
  Al  Al14  1  0.324512  0.162255  0.423727  1
  Al  Al15  1  0.150038  0.321927  0.918094  1
  Al  Al16  1  0.162400  0.837600  0.578591  1
  Al  Al17  1  0.322150  0.150382  0.081708  1
  Al  Al18  1  0.837621  0.162379  0.421745  1
  Al  Al19  1  0.678073  0.849962  0.918094  1
  Al  Al20  1  0.837192  0.162808  0.077621  1
  Al  Al21  1  0.162825  0.837175  0.922067  1
  Al  Al22  1  0.561569  0.121334  0.248426  1
  Al  Al23  1  0.438866  0.878992  0.751559  1
  Al  Al24  1  0.878666  0.438431  0.248426  1
  Al  Al25  1  0.121008  0.561134  0.751559  1
  Al  Al26  1  0.563857  0.436143  0.254873  1
  Al  Al27  1  0.436111  0.563889  0.745136  1
  Al  Al28  1  0.999185  0.000815  0.250418  1
  Al  Al29  1  0.000582  0.999418  0.749606  1
  Zn  Zn30  1  0.500041  0.499959  0.000023  1
  Ru  Ru31  1  0.500171  0.000082  0.999856  1
  Ru  Ru32  1  0.999918  0.499829  0.999856  1
  Ru  Ru33  1  0.500253  0.000135  0.500196  1
  Ru  Ru34  1  0.999865  0.499747  0.500196  1
  Ru  Ru35  1  0.500057  0.499943  0.500037  1
  Ru  Ru36  1  0.000048  0.999952  0.999981  1
  Ru  Ru37  1  0.000017  0.999983  0.500041  1
