# generated using pymatgen
data_YEr4Hf3(Ni4As3)4
_symmetry_space_group_name_H-M   'P 1'
_cell_length_a   12.71267100
_cell_length_b   12.71267035
_cell_length_c   3.91073600
_cell_angle_alpha   90.00000000
_cell_angle_beta   90.00000000
_cell_angle_gamma   120.00000429
_symmetry_Int_Tables_number   1
_chemical_formula_structural   YEr4Hf3(Ni4As3)4
_chemical_formula_sum   'Y1 Er4 Hf3 Ni16 As12'
_cell_volume   547.34695397
_cell_formula_units_Z   1
loop_
 _symmetry_equiv_pos_site_id
 _symmetry_equiv_pos_as_xyz
  1  'x, y, z'
loop_
 _atom_site_type_symbol
 _atom_site_label
 _atom_site_symmetry_multiplicity
 _atom_site_fract_x
 _atom_site_fract_y
 _atom_site_fract_z
 _atom_site_occupancy
  Y  Y0  1  0.666667  0.333333  0.000000  1
  Er  Er1  1  0.184438  0.184386  0.500000  1
  Er  Er2  1  0.815614  0.000052  0.500000  1
  Er  Er3  1  0.999948  0.815562  0.500000  1
  Er  Er4  1  0.333333  0.666667  0.000000  1
  Hf  Hf5  1  0.564055  0.564161  0.000000  1
  Hf  Hf6  1  0.435839  0.999894  0.000000  1
  Hf  Hf7  1  0.000106  0.435945  0.000000  1
  Ni  Ni8  1  0.722666  0.722719  0.500000  1
  Ni  Ni9  1  0.277281  0.999947  0.500000  1
  Ni  Ni10  1  0.000053  0.277334  0.500000  1
  Ni  Ni11  1  0.182634  0.376791  0.000000  1
  Ni  Ni12  1  0.623209  0.805842  0.000000  1
  Ni  Ni13  1  0.194158  0.817366  0.000000  1
  Ni  Ni14  1  0.805992  0.623456  0.000000  1
  Ni  Ni15  1  0.817463  0.194008  0.000000  1
  Ni  Ni16  1  0.376544  0.182537  0.000000  1
  Ni  Ni17  1  0.363245  0.483712  0.500000  1
  Ni  Ni18  1  0.516288  0.879536  0.500000  1
  Ni  Ni19  1  0.120464  0.636755  0.500000  1
  Ni  Ni20  1  0.879883  0.516641  0.500000  1
  Ni  Ni21  1  0.636760  0.120117  0.500000  1
  Ni  Ni22  1  0.483359  0.363240  0.500000  1
  Ni  Ni23  1  0.000000  0.000000  0.000000  1
  As  As24  1  0.822331  0.822353  0.000000  1
  As  As25  1  0.177647  0.999978  0.000000  1
  As  As26  1  0.000022  0.177669  0.000000  1
  As  As27  1  0.172668  0.479921  0.500000  1
  As  As28  1  0.520079  0.692748  0.500000  1
  As  As29  1  0.307252  0.827332  0.500000  1
  As  As30  1  0.692808  0.520635  0.500000  1
  As  As31  1  0.827827  0.307192  0.500000  1
  As  As32  1  0.479365  0.172173  0.500000  1
  As  As33  1  0.355979  0.355938  0.000000  1
  As  As34  1  0.644062  0.000042  0.000000  1
  As  As35  1  0.999958  0.644021  0.000000  1
