# generated using pymatgen
data_TbDyU2(CrSb3)4
_symmetry_space_group_name_H-M   'P 1'
_cell_length_a   6.02206000
_cell_length_b   6.25342605
_cell_length_c   12.57105699
_cell_angle_alpha   90.11462754
_cell_angle_beta   90.00000000
_cell_angle_gamma   90.00000000
_symmetry_Int_Tables_number   1
_chemical_formula_structural   TbDyU2(CrSb3)4
_chemical_formula_sum   'Tb1 Dy1 U2 Cr4 Sb12'
_cell_volume   473.40628839
_cell_formula_units_Z   1
loop_
 _symmetry_equiv_pos_site_id
 _symmetry_equiv_pos_as_xyz
  1  'x, y, z'
loop_
 _atom_site_type_symbol
 _atom_site_label
 _atom_site_symmetry_multiplicity
 _atom_site_fract_x
 _atom_site_fract_y
 _atom_site_fract_z
 _atom_site_occupancy
  Tb  Tb0  1  0.250000  0.504252  0.311531  1
  Dy  Dy1  1  0.750000  0.995982  0.311522  1
  U  U2  1  0.750000  0.503847  0.695024  1
  U  U3  1  0.250000  0.002384  0.694335  1
  Cr  Cr4  1  0.999093  0.748281  0.898695  1
  Cr  Cr5  1  0.999824  0.249213  0.098000  1
  Cr  Cr6  1  0.500176  0.249213  0.098000  1
  Cr  Cr7  1  0.500907  0.748281  0.898695  1
  Sb  Sb8  1  0.999909  0.750854  0.505017  1
  Sb  Sb9  1  0.999853  0.249679  0.502892  1
  Sb  Sb10  1  0.500147  0.249679  0.502892  1
  Sb  Sb11  1  0.500091  0.750854  0.505017  1
  Sb  Sb12  1  0.250000  0.599312  0.060988  1
  Sb  Sb13  1  0.750000  0.396808  0.935147  1
  Sb  Sb14  1  0.250000  0.098999  0.935510  1
  Sb  Sb15  1  0.750000  0.899511  0.061716  1
  Sb  Sb16  1  0.250000  0.999041  0.227941  1
  Sb  Sb17  1  0.750000  0.002206  0.765285  1
  Sb  Sb18  1  0.250000  0.500749  0.764360  1
  Sb  Sb19  1  0.750000  0.500857  0.227432  1
