# generated using pymatgen
data_Eu2Y(Co3P2)3
_symmetry_space_group_name_H-M   'P 1'
_cell_length_a   3.73927200
_cell_length_b   10.62170800
_cell_length_c   12.28764500
_cell_angle_alpha   90.00000000
_cell_angle_beta   90.00000000
_cell_angle_gamma   90.00000000
_symmetry_Int_Tables_number   1
_chemical_formula_structural   Eu2Y(Co3P2)3
_chemical_formula_sum   'Eu4 Y2 Co18 P12'
_cell_volume   488.03399123
_cell_formula_units_Z   2
loop_
 _symmetry_equiv_pos_site_id
 _symmetry_equiv_pos_as_xyz
  1  'x, y, z'
loop_
 _atom_site_type_symbol
 _atom_site_label
 _atom_site_symmetry_multiplicity
 _atom_site_fract_x
 _atom_site_fract_y
 _atom_site_fract_z
 _atom_site_occupancy
  Eu  Eu0  1  0.000000  0.500000  0.522799  1
  Eu  Eu1  1  0.500000  0.000000  0.476343  1
  Eu  Eu2  1  0.000000  0.680759  0.794875  1
  Eu  Eu3  1  0.000000  0.319241  0.794875  1
  Y  Y4  1  0.500000  0.818236  0.204756  1
  Y  Y5  1  0.500000  0.181764  0.204756  1
  Co  Co6  1  0.500000  0.500000  0.157035  1
  Co  Co7  1  0.000000  0.000000  0.844088  1
  Co  Co8  1  0.500000  0.500000  0.702910  1
  Co  Co9  1  0.000000  0.000000  0.295558  1
  Co  Co10  1  0.000000  0.500000  0.990841  1
  Co  Co11  1  0.500000  0.000000  0.013898  1
  Co  Co12  1  0.500000  0.332187  0.997527  1
  Co  Co13  1  0.500000  0.667813  0.997527  1
  Co  Co14  1  0.000000  0.165656  0.006838  1
  Co  Co15  1  0.000000  0.834344  0.006838  1
  Co  Co16  1  0.500000  0.296160  0.428023  1
  Co  Co17  1  0.500000  0.703840  0.428023  1
  Co  Co18  1  0.000000  0.203020  0.568097  1
  Co  Co19  1  0.000000  0.796980  0.568097  1
  Co  Co20  1  0.500000  0.881322  0.710173  1
  Co  Co21  1  0.500000  0.118678  0.710173  1
  Co  Co22  1  0.000000  0.620268  0.287792  1
  Co  Co23  1  0.000000  0.379732  0.287792  1
  P  P24  1  0.500000  0.500000  0.887667  1
  P  P25  1  0.000000  0.000000  0.116760  1
  P  P26  1  0.500000  0.500000  0.339067  1
  P  P27  1  0.000000  0.000000  0.660999  1
  P  P28  1  0.500000  0.305006  0.614448  1
  P  P29  1  0.500000  0.694994  0.614448  1
  P  P30  1  0.000000  0.192923  0.382176  1
  P  P31  1  0.000000  0.807077  0.382176  1
  P  P32  1  0.500000  0.847896  0.895186  1
  P  P33  1  0.500000  0.152104  0.895186  1
  P  P34  1  0.000000  0.654258  0.106128  1
  P  P35  1  0.000000  0.345742  0.106128  1
