# generated using pymatgen
data_Dy8Er2Ga3CoBi2
_symmetry_space_group_name_H-M   'P 1'
_cell_length_a   8.60405733
_cell_length_b   8.76179789
_cell_length_c   8.02719688
_cell_angle_alpha   61.47426909
_cell_angle_beta   63.47126543
_cell_angle_gamma   55.05444402
_symmetry_Int_Tables_number   1
_chemical_formula_structural   Dy8Er2Ga3CoBi2
_chemical_formula_sum   'Dy8 Er2 Ga3 Co1 Bi2'
_cell_volume   423.04236265
_cell_formula_units_Z   1
loop_
 _symmetry_equiv_pos_site_id
 _symmetry_equiv_pos_as_xyz
  1  'x, y, z'
loop_
 _atom_site_type_symbol
 _atom_site_label
 _atom_site_symmetry_multiplicity
 _atom_site_fract_x
 _atom_site_fract_y
 _atom_site_fract_z
 _atom_site_occupancy
  Dy  Dy0  1  0.797309  0.483052  0.516948  1
  Dy  Dy1  1  0.453218  0.807768  0.192232  1
  Dy  Dy2  1  0.296241  0.981028  0.721795  1
  Dy  Dy3  1  0.999065  0.278205  0.018972  1
  Dy  Dy4  1  0.192232  0.546782  0.453218  1
  Dy  Dy5  1  0.516948  0.202691  0.797309  1
  Dy  Dy6  1  0.721795  0.000935  0.296241  1
  Dy  Dy7  1  0.018972  0.703759  0.999065  1
  Er  Er8  1  0.501589  0.498411  0.999063  1
  Er  Er9  1  0.999063  0.000937  0.501589  1
  Ga  Ga10  1  0.866571  0.133429  0.866571  1
  Ga  Ga11  1  0.642285  0.357715  0.359254  1
  Ga  Ga12  1  0.359254  0.640746  0.642285  1
  Co  Co13  1  0.122648  0.877352  0.122648  1
  Bi  Bi14  1  0.756405  0.743595  0.756405  1
  Bi  Bi15  1  0.256405  0.243595  0.256405  1
