# generated using pymatgen
data_Hf18CoRe4NiMo4
_symmetry_space_group_name_H-M   'P 1'
_cell_length_a   8.64753029
_cell_length_b   8.64752970
_cell_length_c   8.47363400
_cell_angle_alpha   90.00000000
_cell_angle_beta   90.00000000
_cell_angle_gamma   119.97043159
_symmetry_Int_Tables_number   1
_chemical_formula_structural   Hf18CoRe4NiMo4
_chemical_formula_sum   'Hf18 Co1 Re4 Ni1 Mo4'
_cell_volume   548.92600897
_cell_formula_units_Z   1
loop_
 _symmetry_equiv_pos_site_id
 _symmetry_equiv_pos_as_xyz
  1  'x, y, z'
loop_
 _atom_site_type_symbol
 _atom_site_label
 _atom_site_symmetry_multiplicity
 _atom_site_fract_x
 _atom_site_fract_y
 _atom_site_fract_z
 _atom_site_occupancy
  Hf  Hf0  1  0.198883  0.801117  0.441417  1
  Hf  Hf1  1  0.199447  0.398181  0.443142  1
  Hf  Hf2  1  0.601819  0.800553  0.443142  1
  Hf  Hf3  1  0.799387  0.200613  0.559871  1
  Hf  Hf4  1  0.798826  0.598147  0.558121  1
  Hf  Hf5  1  0.401853  0.201174  0.558121  1
  Hf  Hf6  1  0.799387  0.200613  0.940129  1
  Hf  Hf7  1  0.798826  0.598147  0.941879  1
  Hf  Hf8  1  0.401853  0.201174  0.941879  1
  Hf  Hf9  1  0.198883  0.801117  0.058583  1
  Hf  Hf10  1  0.199447  0.398181  0.056858  1
  Hf  Hf11  1  0.601819  0.800553  0.056858  1
  Hf  Hf12  1  0.541992  0.458008  0.250000  1
  Hf  Hf13  1  0.541202  0.084146  0.250000  1
  Hf  Hf14  1  0.915854  0.458798  0.250000  1
  Hf  Hf15  1  0.458359  0.541641  0.750000  1
  Hf  Hf16  1  0.458949  0.916289  0.750000  1
  Hf  Hf17  1  0.083711  0.541051  0.750000  1
  Co  Co18  1  0.666111  0.333889  0.750000  1
  Re  Re19  1  0.888143  0.775385  0.250000  1
  Re  Re20  1  0.224615  0.111857  0.250000  1
  Re  Re21  1  0.111925  0.224869  0.750000  1
  Re  Re22  1  0.775131  0.888075  0.750000  1
  Ni  Ni23  1  0.333671  0.666329  0.250000  1
  Mo  Mo24  1  0.889522  0.110478  0.250000  1
  Mo  Mo25  1  0.110318  0.889682  0.750000  1
  Mo  Mo26  1  0.000035  0.999965  0.500461  1
  Mo  Mo27  1  0.000035  0.999965  0.999539  1
