# generated using pymatgen
data_Dy2Ho4VB14Mo
_symmetry_space_group_name_H-M   'P 1'
_cell_length_a   8.12914412
_cell_length_b   8.12914435
_cell_length_c   9.43649100
_cell_angle_alpha   90.00000000
_cell_angle_beta   90.00000000
_cell_angle_gamma   155.56436461
_symmetry_Int_Tables_number   1
_chemical_formula_structural   Dy2Ho4VB14Mo
_chemical_formula_sum   'Dy2 Ho4 V1 B14 Mo1'
_cell_volume   257.96156711
_cell_formula_units_Z   1
loop_
 _symmetry_equiv_pos_site_id
 _symmetry_equiv_pos_as_xyz
  1  'x, y, z'
loop_
 _atom_site_type_symbol
 _atom_site_label
 _atom_site_symmetry_multiplicity
 _atom_site_fract_x
 _atom_site_fract_y
 _atom_site_fract_z
 _atom_site_occupancy
  Dy  Dy0  1  0.257725  0.742275  0.250000  1
  Dy  Dy1  1  0.744974  0.255026  0.750000  1
  Ho  Ho2  1  0.606193  0.393807  0.061734  1
  Ho  Ho3  1  0.393292  0.606708  0.941730  1
  Ho  Ho4  1  0.393292  0.606708  0.558270  1
  Ho  Ho5  1  0.606193  0.393807  0.438266  1
  V  V6  1  0.447247  0.552753  0.250000  1
  B  B7  1  0.978876  0.021124  0.094955  1
  B  B8  1  0.019549  0.980451  0.909246  1
  B  B9  1  0.019549  0.980451  0.590754  1
  B  B10  1  0.978876  0.021124  0.405045  1
  B  B11  1  0.772811  0.227189  0.032667  1
  B  B12  1  0.227278  0.772722  0.968647  1
  B  B13  1  0.227278  0.772722  0.531353  1
  B  B14  1  0.772811  0.227189  0.467333  1
  B  B15  1  0.867406  0.132594  0.149784  1
  B  B16  1  0.134752  0.865248  0.853872  1
  B  B17  1  0.134752  0.865248  0.646128  1
  B  B18  1  0.867406  0.132594  0.350216  1
  B  B19  1  0.041151  0.958849  0.250000  1
  B  B20  1  0.955396  0.044604  0.750000  1
  Mo  Mo21  1  0.553192  0.446808  0.750000  1
