# generated using pymatgen
data_Er6MnAl24Tc2Rh5
_symmetry_space_group_name_H-M   'P 1'
_cell_length_a   8.75974500
_cell_length_b   8.77861608
_cell_length_c   9.48301900
_cell_angle_alpha   90.10990391
_cell_angle_beta   90.00000000
_cell_angle_gamma   119.92891134
_symmetry_Int_Tables_number   1
_chemical_formula_structural   Er6MnAl24Tc2Rh5
_chemical_formula_sum   'Er6 Mn1 Al24 Tc2 Rh5'
_cell_volume   631.98149839
_cell_formula_units_Z   1
loop_
 _symmetry_equiv_pos_site_id
 _symmetry_equiv_pos_as_xyz
  1  'x, y, z'
loop_
 _atom_site_type_symbol
 _atom_site_label
 _atom_site_symmetry_multiplicity
 _atom_site_fract_x
 _atom_site_fract_y
 _atom_site_fract_z
 _atom_site_occupancy
  Er  Er0  1  0.192159  0.384317  0.249659  1
  Er  Er1  1  0.807841  0.615683  0.750341  1
  Er  Er2  1  0.612936  0.809445  0.251386  1
  Er  Er3  1  0.387064  0.190555  0.748614  1
  Er  Er4  1  0.196509  0.809445  0.251386  1
  Er  Er5  1  0.803491  0.190555  0.748614  1
  Mn  Mn6  1  0.000000  0.000000  0.000000  1
  Al  Al7  1  0.333094  0.666188  0.023537  1
  Al  Al8  1  0.666906  0.333812  0.976463  1
  Al  Al9  1  0.666723  0.333444  0.524143  1
  Al  Al10  1  0.333277  0.666556  0.475857  1
  Al  Al11  1  0.162965  0.325930  0.578790  1
  Al  Al12  1  0.837035  0.674070  0.421210  1
  Al  Al13  1  0.673912  0.837584  0.578947  1
  Al  Al14  1  0.840230  0.680459  0.077499  1
  Al  Al15  1  0.326088  0.162416  0.421053  1
  Al  Al16  1  0.159770  0.319541  0.922501  1
  Al  Al17  1  0.163674  0.837584  0.578947  1
  Al  Al18  1  0.320751  0.161098  0.076717  1
  Al  Al19  1  0.836326  0.162416  0.421053  1
  Al  Al20  1  0.679249  0.838902  0.923283  1
  Al  Al21  1  0.840347  0.161098  0.076717  1
  Al  Al22  1  0.159653  0.838902  0.923283  1
  Al  Al23  1  0.563466  0.126934  0.248957  1
  Al  Al24  1  0.436534  0.873066  0.751043  1
  Al  Al25  1  0.875777  0.438403  0.248486  1
  Al  Al26  1  0.124223  0.561597  0.751514  1
  Al  Al27  1  0.562625  0.438403  0.248486  1
  Al  Al28  1  0.437375  0.561597  0.751514  1
  Al  Al29  1  0.000118  0.000237  0.244271  1
  Al  Al30  1  0.999882  0.999763  0.755729  1
  Tc  Tc31  1  0.500000  0.000000  0.500000  1
  Tc  Tc32  1  0.000000  0.000000  0.500000  1
  Rh  Rh33  1  0.500000  0.000000  0.000000  1
  Rh  Rh34  1  0.000000  0.500000  0.000000  1
  Rh  Rh35  1  0.500000  0.500000  0.000000  1
  Rh  Rh36  1  0.000000  0.500000  0.500000  1
  Rh  Rh37  1  0.500000  0.500000  0.500000  1
