# generated using pymatgen
data_Yb3YOsRu7
_symmetry_space_group_name_H-M   'P 1'
_cell_length_a   5.22979415
_cell_length_b   5.31544066
_cell_length_c   8.87523174
_cell_angle_alpha   89.99999722
_cell_angle_beta   90.06227038
_cell_angle_gamma   120.54324062
_symmetry_Int_Tables_number   1
_chemical_formula_structural   Yb3YOsRu7
_chemical_formula_sum   'Yb3 Y1 Os1 Ru7'
_cell_volume   212.48603011
_cell_formula_units_Z   1
loop_
 _symmetry_equiv_pos_site_id
 _symmetry_equiv_pos_as_xyz
  1  'x, y, z'
loop_
 _atom_site_type_symbol
 _atom_site_label
 _atom_site_symmetry_multiplicity
 _atom_site_fract_x
 _atom_site_fract_y
 _atom_site_fract_z
 _atom_site_occupancy
  Yb  Yb0  1  0.663739  0.331869  0.569654  1
  Yb  Yb1  1  0.660963  0.330482  0.935350  1
  Yb  Yb2  1  0.326392  0.663196  0.061549  1
  Y  Y3  1  0.329471  0.664735  0.432279  1
  Os  Os4  1  0.675540  0.837770  0.751024  1
  Ru  Ru5  1  0.980372  0.990186  0.500143  1
  Ru  Ru6  1  0.976657  0.988328  0.001312  1
  Ru  Ru7  1  0.832504  0.169266  0.249277  1
  Ru  Ru8  1  0.832504  0.663238  0.249277  1
  Ru  Ru9  1  0.356412  0.178205  0.250841  1
  Ru  Ru10  1  0.182723  0.831064  0.749648  1
  Ru  Ru11  1  0.182723  0.351659  0.749648  1
