# generated using pymatgen
data_Ba3Pb2O7
_symmetry_space_group_name_H-M   'P 1'
_cell_length_a   6.16659900
_cell_length_b   6.27418757
_cell_length_c   11.42509548
_cell_angle_alpha   105.93693746
_cell_angle_beta   90.00000000
_cell_angle_gamma   90.00000000
_symmetry_Int_Tables_number   1
_chemical_formula_structural   Ba3Pb2O7
_chemical_formula_sum   'Ba6 Pb4 O14'
_cell_volume   425.05141123
_cell_formula_units_Z   2
loop_
 _symmetry_equiv_pos_site_id
 _symmetry_equiv_pos_as_xyz
  1  'x, y, z'
loop_
 _atom_site_type_symbol
 _atom_site_label
 _atom_site_symmetry_multiplicity
 _atom_site_fract_x
 _atom_site_fract_y
 _atom_site_fract_z
 _atom_site_occupancy
  Ba  Ba0  1  0.250000  0.243876  0.000000  1
  Ba  Ba1  1  0.750001  0.756124  0.000000  1
  Ba  Ba2  1  0.250000  0.423027  0.371210  1
  Ba  Ba3  1  0.750001  0.948183  0.371210  1
  Ba  Ba4  1  0.250000  0.051817  0.628790  1
  Ba  Ba5  1  0.750001  0.576973  0.628790  1
  Pb  Pb6  1  0.750001  0.349891  0.197010  1
  Pb  Pb7  1  0.250000  0.847120  0.197010  1
  Pb  Pb8  1  0.750001  0.152880  0.802990  1
  Pb  Pb9  1  0.250000  0.650109  0.802990  1
  O  O10  1  0.750001  0.322533  0.000000  1
  O  O11  1  0.250000  0.677467  0.000000  1
  O  O12  1  0.000000  0.083877  0.167753  1
  O  O13  1  0.499999  0.083877  0.167753  1
  O  O14  1  0.000000  0.611949  0.223896  1
  O  O15  1  0.499999  0.611949  0.223896  1
  O  O16  1  0.250000  0.999941  0.393275  1
  O  O17  1  0.750001  0.393334  0.393275  1
  O  O18  1  0.250000  0.606666  0.606725  1
  O  O19  1  0.750001  0.000059  0.606725  1
  O  O20  1  0.000000  0.388051  0.776104  1
  O  O21  1  0.499999  0.388051  0.776104  1
  O  O22  1  0.000000  0.916123  0.832247  1
  O  O23  1  0.499999  0.916123  0.832247  1
