# generated using pymatgen
data_Hf2P2IrRu
_symmetry_space_group_name_H-M   'P 1'
_cell_length_a   3.83925200
_cell_length_b   6.46359000
_cell_length_c   7.35748600
_cell_angle_alpha   90.00000000
_cell_angle_beta   90.00000000
_cell_angle_gamma   90.00000000
_symmetry_Int_Tables_number   1
_chemical_formula_structural   Hf2P2IrRu
_chemical_formula_sum   'Hf4 P4 Ir2 Ru2'
_cell_volume   182.57859635
_cell_formula_units_Z   2
loop_
 _symmetry_equiv_pos_site_id
 _symmetry_equiv_pos_as_xyz
  1  'x, y, z'
loop_
 _atom_site_type_symbol
 _atom_site_label
 _atom_site_symmetry_multiplicity
 _atom_site_fract_x
 _atom_site_fract_y
 _atom_site_fract_z
 _atom_site_occupancy
  Hf  Hf0  1  0.750000  0.524247  0.322358  1
  Hf  Hf1  1  0.250000  0.977812  0.821671  1
  Hf  Hf2  1  0.750000  0.024247  0.177642  1
  Hf  Hf3  1  0.250000  0.477812  0.678329  1
  P  P4  1  0.250000  0.735166  0.117311  1
  P  P5  1  0.250000  0.235166  0.382689  1
  P  P6  1  0.750000  0.268648  0.872225  1
  P  P7  1  0.750000  0.768648  0.627775  1
  Ir  Ir8  1  0.250000  0.347269  0.064002  1
  Ir  Ir9  1  0.250000  0.847269  0.435998  1
  Ru  Ru10  1  0.750000  0.146857  0.558178  1
  Ru  Ru11  1  0.750000  0.646857  0.941822  1
