# generated using pymatgen
data_LuU3Ge2P4Ru7
_symmetry_space_group_name_H-M   'P 1'
_cell_length_a   7.10489471
_cell_length_b   7.07782282
_cell_length_c   7.08219021
_cell_angle_alpha   109.27788327
_cell_angle_beta   109.43317388
_cell_angle_gamma   109.75506282
_symmetry_Int_Tables_number   1
_chemical_formula_structural   LuU3Ge2P4Ru7
_chemical_formula_sum   'Lu1 U3 Ge2 P4 Ru7'
_cell_volume   273.97798427
_cell_formula_units_Z   1
loop_
 _symmetry_equiv_pos_site_id
 _symmetry_equiv_pos_as_xyz
  1  'x, y, z'
loop_
 _atom_site_type_symbol
 _atom_site_label
 _atom_site_symmetry_multiplicity
 _atom_site_fract_x
 _atom_site_fract_y
 _atom_site_fract_z
 _atom_site_occupancy
  Lu  Lu0  1  0.000877  0.500877  0.001755  1
  U  U1  1  0.001479  0.001608  0.487064  1
  U  U2  1  0.500659  0.000659  0.001319  1
  U  U3  1  0.485585  0.485456  0.487064  1
  Ge  Ge4  1  0.697495  0.001931  0.694403  1
  Ge  Ge5  1  0.996908  0.692471  0.694403  1
  P  P6  1  0.688583  0.683755  0.996554  1
  P  P7  1  0.319156  0.992649  0.316177  1
  P  P8  1  0.997022  0.323530  0.316177  1
  P  P9  1  0.307971  0.312799  0.996554  1
  Ru  Ru10  1  0.745912  0.245912  0.491824  1
  Ru  Ru11  1  0.744622  0.499037  0.245811  1
  Ru  Ru12  1  0.495058  0.250455  0.747968  1
  Ru  Ru13  1  0.252910  0.497513  0.747968  1
  Ru  Ru14  1  0.249472  0.749472  0.498945  1
  Ru  Ru15  1  0.501189  0.746774  0.245811  1
  Ru  Ru16  1  0.015101  0.015101  0.030202  1
