# generated using pymatgen
data_Th10Sn5BiTe2
_symmetry_space_group_name_H-M   'P 1'
_cell_length_a   9.63106800
_cell_length_b   9.63106633
_cell_length_c   6.66707600
_cell_angle_alpha   90.00000000
_cell_angle_beta   90.00000000
_cell_angle_gamma   119.87593288
_symmetry_Int_Tables_number   1
_chemical_formula_structural   Th10Sn5BiTe2
_chemical_formula_sum   'Th10 Sn5 Bi1 Te2'
_cell_volume   536.23659834
_cell_formula_units_Z   1
loop_
 _symmetry_equiv_pos_site_id
 _symmetry_equiv_pos_as_xyz
  1  'x, y, z'
loop_
 _atom_site_type_symbol
 _atom_site_label
 _atom_site_symmetry_multiplicity
 _atom_site_fract_x
 _atom_site_fract_y
 _atom_site_fract_z
 _atom_site_occupancy
  Th  Th0  1  0.004094  0.720390  0.750000  1
  Th  Th1  1  0.277998  0.277998  0.750000  1
  Th  Th2  1  0.331288  0.667460  0.497665  1
  Th  Th3  1  0.667460  0.331288  0.497665  1
  Th  Th4  1  0.720333  0.720333  0.250000  1
  Th  Th5  1  0.720390  0.004094  0.750000  1
  Th  Th6  1  0.999914  0.280505  0.250000  1
  Th  Th7  1  0.280505  0.999914  0.250000  1
  Th  Th8  1  0.331288  0.667460  0.002335  1
  Th  Th9  1  0.667460  0.331288  0.002335  1
  Sn  Sn10  1  0.000353  0.380602  0.750000  1
  Sn  Sn11  1  0.380602  0.000353  0.750000  1
  Sn  Sn12  1  0.620349  0.000131  0.250000  1
  Sn  Sn13  1  0.380012  0.380012  0.250000  1
  Sn  Sn14  1  0.000131  0.620349  0.250000  1
  Bi  Bi15  1  0.618956  0.618956  0.750000  1
  Te  Te16  1  0.999433  0.999433  0.000091  1
  Te  Te17  1  0.999433  0.999433  0.499909  1
