# generated using pymatgen
data_Tb9DySn5Bi
_symmetry_space_group_name_H-M   'P 1'
_cell_length_a   9.06254600
_cell_length_b   9.05979025
_cell_length_c   6.55813000
_cell_angle_alpha   90.00270562
_cell_angle_beta   89.99870862
_cell_angle_gamma   120.00965571
_symmetry_Int_Tables_number   1
_chemical_formula_structural   Tb9DySn5Bi
_chemical_formula_sum   'Tb9 Dy1 Sn5 Bi1'
_cell_volume   466.26922930
_cell_formula_units_Z   1
loop_
 _symmetry_equiv_pos_site_id
 _symmetry_equiv_pos_as_xyz
  1  'x, y, z'
loop_
 _atom_site_type_symbol
 _atom_site_label
 _atom_site_symmetry_multiplicity
 _atom_site_fract_x
 _atom_site_fract_y
 _atom_site_fract_z
 _atom_site_occupancy
  Tb  Tb0  1  0.994717  0.757435  0.750047  1
  Tb  Tb1  1  0.000365  0.239326  0.249960  1
  Tb  Tb2  1  0.761005  0.760695  0.249947  1
  Tb  Tb3  1  0.764372  0.999982  0.750045  1
  Tb  Tb4  1  0.237269  0.242586  0.750046  1
  Tb  Tb5  1  0.237995  0.999983  0.249965  1
  Tb  Tb6  1  0.332589  0.662768  0.498264  1
  Tb  Tb7  1  0.669804  0.337218  0.001737  1
  Tb  Tb8  1  0.669816  0.337239  0.498259  1
  Dy  Dy9  1  0.332573  0.662699  0.001788  1
  Sn  Sn10  1  0.395105  0.394015  0.249791  1
  Sn  Sn11  1  0.001543  0.606205  0.249819  1
  Sn  Sn12  1  0.999886  0.395657  0.750180  1
  Sn  Sn13  1  0.604011  0.604606  0.750176  1
  Sn  Sn14  1  0.605261  0.999768  0.249813  1
  Bi  Bi15  1  0.393690  0.999818  0.750162  1
