# generated using pymatgen
data_Hf4SiAs7
_symmetry_space_group_name_H-M   'P 1'
_cell_length_a   3.68509600
_cell_length_b   6.74051503
_cell_length_c   9.04969878
_cell_angle_alpha   89.77805523
_cell_angle_beta   90.00000000
_cell_angle_gamma   90.00000000
_symmetry_Int_Tables_number   1
_chemical_formula_structural   Hf4SiAs7
_chemical_formula_sum   'Hf4 Si1 As7'
_cell_volume   224.78780826
_cell_formula_units_Z   1
loop_
 _symmetry_equiv_pos_site_id
 _symmetry_equiv_pos_as_xyz
  1  'x, y, z'
loop_
 _atom_site_type_symbol
 _atom_site_label
 _atom_site_symmetry_multiplicity
 _atom_site_fract_x
 _atom_site_fract_y
 _atom_site_fract_z
 _atom_site_occupancy
  Hf  Hf0  1  0.000000  0.767139  0.659505  1
  Hf  Hf1  1  0.000000  0.272412  0.836716  1
  Hf  Hf2  1  0.500000  0.230163  0.336422  1
  Hf  Hf3  1  0.500000  0.732029  0.166897  1
  Si  Si4  1  0.000000  0.372278  0.542802  1
  As  As5  1  0.000000  0.420828  0.147626  1
  As  As6  1  0.000000  0.920211  0.353414  1
  As  As7  1  0.500000  0.584717  0.851227  1
  As  As8  1  0.500000  0.094688  0.643314  1
  As  As9  1  0.000000  0.877237  0.957100  1
  As  As10  1  0.500000  0.604752  0.463164  1
  As  As11  1  0.500000  0.123543  0.041812  1
