# generated using pymatgen
data_Na2Yb3P4
_symmetry_space_group_name_H-M   'P 1'
_cell_length_a   7.05275100
_cell_length_b   7.64224554
_cell_length_c   16.34699006
_cell_angle_alpha   62.13496714
_cell_angle_beta   90.00000000
_cell_angle_gamma   90.00000000
_symmetry_Int_Tables_number   1
_chemical_formula_structural   Na2Yb3P4
_chemical_formula_sum   'Na8 Yb12 P16'
_cell_volume   778.92326523
_cell_formula_units_Z   4
loop_
 _symmetry_equiv_pos_site_id
 _symmetry_equiv_pos_as_xyz
  1  'x, y, z'
loop_
 _atom_site_type_symbol
 _atom_site_label
 _atom_site_symmetry_multiplicity
 _atom_site_fract_x
 _atom_site_fract_y
 _atom_site_fract_z
 _atom_site_occupancy
  Na  Na0  1  0.865786  0.256884  0.250293  1
  Na  Na1  1  0.365786  0.743116  0.249707  1
  Na  Na2  1  0.134214  0.743116  0.749707  1
  Na  Na3  1  0.634214  0.256884  0.750293  1
  Na  Na4  1  0.685746  0.058540  0.123567  1
  Na  Na5  1  0.185746  0.941460  0.376433  1
  Na  Na6  1  0.314254  0.941460  0.876433  1
  Na  Na7  1  0.814254  0.058540  0.623567  1
  Yb  Yb8  1  0.536682  0.595682  0.101848  1
  Yb  Yb9  1  0.036682  0.404318  0.398152  1
  Yb  Yb10  1  0.462863  0.705568  0.601769  1
  Yb  Yb11  1  0.962863  0.294432  0.898231  1
  Yb  Yb12  1  0.463318  0.404318  0.898152  1
  Yb  Yb13  1  0.963318  0.595682  0.601848  1
  Yb  Yb14  1  0.537137  0.294432  0.398231  1
  Yb  Yb15  1  0.037137  0.705568  0.101769  1
  Yb  Yb16  1  0.315551  0.190677  0.626558  1
  Yb  Yb17  1  0.815551  0.809323  0.873442  1
  Yb  Yb18  1  0.684449  0.809323  0.373442  1
  Yb  Yb19  1  0.184449  0.190677  0.126558  1
  P  P20  1  0.859211  0.437603  0.036494  1
  P  P21  1  0.359211  0.562397  0.463506  1
  P  P22  1  0.141066  0.993330  0.536527  1
  P  P23  1  0.641066  0.006670  0.963473  1
  P  P24  1  0.140789  0.562397  0.963506  1
  P  P25  1  0.640789  0.437603  0.536494  1
  P  P26  1  0.858934  0.006670  0.463473  1
  P  P27  1  0.358934  0.993330  0.036527  1
  P  P28  1  0.980958  0.830692  0.250202  1
  P  P29  1  0.480958  0.169308  0.249798  1
  P  P30  1  0.019042  0.169308  0.749798  1
  P  P31  1  0.519042  0.830692  0.750202  1
  P  P32  1  0.753870  0.621162  0.252491  1
  P  P33  1  0.253870  0.378838  0.247509  1
  P  P34  1  0.246130  0.378838  0.747509  1
  P  P35  1  0.746130  0.621162  0.752491  1
