# generated using pymatgen
data_DyYTm10Al12V8O48
_symmetry_space_group_name_H-M   'P 1'
_cell_length_a   10.59212869
_cell_length_b   10.60096231
_cell_length_c   10.59119134
_cell_angle_alpha   109.47618276
_cell_angle_beta   109.34094702
_cell_angle_gamma   109.53967291
_symmetry_Int_Tables_number   1
_chemical_formula_structural   DyYTm10Al12V8O48
_chemical_formula_sum   'Dy1 Y1 Tm10 Al12 V8 O48'
_cell_volume   916.12517821
_cell_formula_units_Z   1
loop_
 _symmetry_equiv_pos_site_id
 _symmetry_equiv_pos_as_xyz
  1  'x, y, z'
loop_
 _atom_site_type_symbol
 _atom_site_label
 _atom_site_symmetry_multiplicity
 _atom_site_fract_x
 _atom_site_fract_y
 _atom_site_fract_z
 _atom_site_occupancy
  Dy  Dy0  1  0.751626  0.626062  0.875778  1
  Y  Y1  1  0.625283  0.249203  0.874261  1
  Tm  Tm2  1  0.374535  0.750454  0.125843  1
  Tm  Tm3  1  0.248353  0.374297  0.124185  1
  Tm  Tm4  1  0.375542  0.125978  0.252214  1
  Tm  Tm5  1  0.873775  0.626928  0.251119  1
  Tm  Tm6  1  0.750101  0.125705  0.373416  1
  Tm  Tm7  1  0.125163  0.250395  0.375254  1
  Tm  Tm8  1  0.249453  0.873859  0.626309  1
  Tm  Tm9  1  0.874990  0.749773  0.624533  1
  Tm  Tm10  1  0.126626  0.373548  0.749712  1
  Tm  Tm11  1  0.624324  0.873802  0.747436  1
  Al  Al12  1  0.875919  0.250011  0.126047  1
  Al  Al13  1  0.750507  0.875944  0.125954  1
  Al  Al14  1  0.125348  0.875231  0.250386  1
  Al  Al15  1  0.624952  0.375526  0.250586  1
  Al  Al16  1  0.250150  0.624788  0.375136  1
  Al  Al17  1  0.625185  0.750147  0.375248  1
  Al  Al18  1  0.750019  0.374873  0.623737  1
  Al  Al19  1  0.373568  0.249268  0.623665  1
  Al  Al20  1  0.875358  0.124628  0.749984  1
  Al  Al21  1  0.374934  0.625019  0.749993  1
  Al  Al22  1  0.248744  0.124412  0.874545  1
  Al  Al23  1  0.125318  0.750122  0.874629  1
  V  V24  1  0.000291  0.000573  0.000301  1
  V  V25  1  0.499962  0.999584  0.000296  1
  V  V26  1  0.499542  0.500512  0.000517  1
  V  V27  1  0.000964  0.500163  0.000544  1
  V  V28  1  0.499543  0.999311  0.499175  1
  V  V29  1  0.000190  0.499985  0.499965  1
  V  V30  1  0.999842  0.000003  0.499944  1
  V  V31  1  0.499625  0.499891  0.499253  1
  O  O32  1  0.210852  0.124523  0.026693  1
  O  O33  1  0.315705  0.901148  0.026129  1
  O  O34  1  0.713044  0.686919  0.088843  1
  O  O35  1  0.877548  0.402563  0.088681  1
  O  O36  1  0.974982  0.684426  0.100657  1
  O  O37  1  0.624667  0.416131  0.100253  1
  O  O38  1  0.598844  0.913423  0.126565  1
  O  O39  1  0.028214  0.213566  0.126072  1
  O  O40  1  0.212874  0.586751  0.185804  1
  O  O41  1  0.473540  0.599089  0.184972  1
  O  O42  1  0.585586  0.185077  0.211139  1
  O  O43  1  0.124550  0.026117  0.211043  1
  O  O44  1  0.473279  0.375266  0.289162  1
  O  O45  1  0.314587  0.913400  0.287130  1
  O  O46  1  0.912924  0.286845  0.314930  1
  O  O47  1  0.901984  0.026974  0.315938  1
  O  O48  1  0.289038  0.473624  0.375405  1
  O  O49  1  0.585755  0.901305  0.375418  1
  O  O50  1  0.815108  0.526602  0.401272  1
  O  O51  1  0.085834  0.875292  0.401682  1
  O  O52  1  0.814395  0.787144  0.412945  1
  O  O53  1  0.098729  0.624323  0.414811  1
  O  O54  1  0.374048  0.286526  0.471915  1
  O  O55  1  0.599222  0.184462  0.472970  1
  O  O56  1  0.400441  0.815068  0.526572  1
  O  O57  1  0.625810  0.713550  0.527639  1
  O  O58  1  0.901890  0.375658  0.585146  1
  O  O59  1  0.184916  0.212854  0.587001  1
  O  O60  1  0.914042  0.124831  0.598383  1
  O  O61  1  0.185261  0.473428  0.598927  1
  O  O62  1  0.710415  0.525168  0.621579  1
  O  O63  1  0.411325  0.096741  0.621302  1
  O  O64  1  0.097754  0.973369  0.684148  1
  O  O65  1  0.087468  0.712981  0.685344  1
  O  O66  1  0.685199  0.084271  0.710626  1
  O  O67  1  0.525227  0.624802  0.709166  1
  O  O68  1  0.414469  0.815292  0.789053  1
  O  O69  1  0.875785  0.973702  0.789224  1
  O  O70  1  0.789575  0.412855  0.813295  1
  O  O71  1  0.523568  0.401061  0.814011  1
  O  O72  1  0.973867  0.788191  0.874240  1
  O  O73  1  0.399094  0.084770  0.873750  1
  O  O74  1  0.026331  0.315251  0.900807  1
  O  O75  1  0.375287  0.585936  0.901461  1
  O  O76  1  0.286698  0.314163  0.913501  1
  O  O77  1  0.125433  0.598973  0.914121  1
  O  O78  1  0.685677  0.097612  0.975498  1
  O  O79  1  0.789437  0.877978  0.974816  1
