# generated using pymatgen
data_In7PPtO8
_symmetry_space_group_name_H-M   'P 1'
_cell_length_a   7.37489100
_cell_length_b   7.37489019
_cell_length_c   7.37489100
_cell_angle_alpha   119.99999914
_cell_angle_beta   90.00000000
_cell_angle_gamma   119.99999914
_symmetry_Int_Tables_number   1
_chemical_formula_structural   In7PPtO8
_chemical_formula_sum   'In7 P1 Pt1 O8'
_cell_volume   283.62975083
_cell_formula_units_Z   1
loop_
 _symmetry_equiv_pos_site_id
 _symmetry_equiv_pos_as_xyz
  1  'x, y, z'
loop_
 _atom_site_type_symbol
 _atom_site_label
 _atom_site_symmetry_multiplicity
 _atom_site_fract_x
 _atom_site_fract_y
 _atom_site_fract_z
 _atom_site_occupancy
  In  In0  1  0.253949  0.507897  0.253949  1
  In  In1  1  0.253949  0.000000  0.253949  1
  In  In2  1  0.746051  0.000000  0.253949  1
  In  In3  1  0.746051  0.492102  0.746051  1
  In  In4  1  0.253949  0.000000  0.746051  1
  In  In5  1  0.746051  0.000000  0.746051  1
  In  In6  1  0.250000  0.500000  0.750000  1
  P  P7  1  0.750000  0.500000  0.250000  1
  Pt  Pt8  1  0.000000  0.000000  0.000000  1
  O  O9  1  0.391056  0.782113  0.173169  1
  O  O10  1  0.009973  0.673316  0.336657  1
  O  O11  1  0.663343  0.673316  0.336657  1
  O  O12  1  0.663343  0.326684  0.336657  1
  O  O13  1  0.391056  0.782113  0.608944  1
  O  O14  1  0.391056  0.217887  0.608944  1
  O  O15  1  0.826831  0.217887  0.608944  1
  O  O16  1  0.663343  0.326684  0.990027  1
