# generated using pymatgen
data_TcMo(IrRu)3
_symmetry_space_group_name_H-M   'P 1'
_cell_length_a   5.51635050
_cell_length_b   5.50914363
_cell_length_c   4.37965900
_cell_angle_alpha   90.00000000
_cell_angle_beta   90.00000000
_cell_angle_gamma   120.24463045
_symmetry_Int_Tables_number   1
_chemical_formula_structural   TcMo(IrRu)3
_chemical_formula_sum   'Tc1 Mo1 Ir3 Ru3'
_cell_volume   114.98230985
_cell_formula_units_Z   1
loop_
 _symmetry_equiv_pos_site_id
 _symmetry_equiv_pos_as_xyz
  1  'x, y, z'
loop_
 _atom_site_type_symbol
 _atom_site_label
 _atom_site_symmetry_multiplicity
 _atom_site_fract_x
 _atom_site_fract_y
 _atom_site_fract_z
 _atom_site_occupancy
  Tc  Tc0  1  0.667445  0.332002  0.250000  1
  Mo  Mo1  1  0.334706  0.668715  0.750000  1
  Ir  Ir2  1  0.164294  0.330334  0.250000  1
  Ir  Ir3  1  0.833041  0.664618  0.750000  1
  Ir  Ir4  1  0.335483  0.166010  0.750000  1
  Ru  Ru5  1  0.669222  0.836282  0.250000  1
  Ru  Ru6  1  0.165610  0.835142  0.250000  1
  Ru  Ru7  1  0.830200  0.166897  0.750000  1
