# generated using pymatgen
data_Th6Co3Sb8Au3
_symmetry_space_group_name_H-M   'P 1'
_cell_length_a   8.53199231
_cell_length_b   8.53199370
_cell_length_c   8.56480904
_cell_angle_alpha   109.55868361
_cell_angle_beta   109.78053365
_cell_angle_gamma   108.91835044
_symmetry_Int_Tables_number   1
_chemical_formula_structural   Th6Co3Sb8Au3
_chemical_formula_sum   'Th6 Co3 Sb8 Au3'
_cell_volume   480.85122233
_cell_formula_units_Z   1
loop_
 _symmetry_equiv_pos_site_id
 _symmetry_equiv_pos_as_xyz
  1  'x, y, z'
loop_
 _atom_site_type_symbol
 _atom_site_label
 _atom_site_symmetry_multiplicity
 _atom_site_fract_x
 _atom_site_fract_y
 _atom_site_fract_z
 _atom_site_occupancy
  Th  Th0  1  0.379469  0.259515  0.634087  1
  Th  Th1  1  0.727579  0.859130  0.103640  1
  Th  Th2  1  0.255490  0.623939  0.396360  1
  Th  Th3  1  0.616475  0.366475  0.250000  1
  Th  Th4  1  0.885160  0.135160  0.750000  1
  Th  Th5  1  0.125428  0.745382  0.865913  1
  Co  Co6  1  0.252525  0.129032  0.876946  1
  Co  Co7  1  0.752086  0.375579  0.623054  1
  Co  Co8  1  0.377537  0.627537  0.750000  1
  Sb  Sb9  1  0.005186  0.340370  0.517180  1
  Sb  Sb10  1  0.824436  0.495150  0.979231  1
  Sb  Sb11  1  0.481493  0.991200  0.825180  1
  Sb  Sb12  1  0.666020  0.656313  0.674820  1
  Sb  Sb13  1  0.175792  0.169118  0.154395  1
  Sb  Sb14  1  0.323190  0.488005  0.982820  1
  Sb  Sb15  1  0.514722  0.021397  0.345605  1
  Sb  Sb16  1  0.015920  0.845206  0.520769  1
  Au  Au17  1  0.124547  0.874547  0.250000  1
  Au  Au18  1  0.623606  0.747583  0.374244  1
  Au  Au19  1  0.873339  0.249362  0.125756  1
