# generated using pymatgen
data_YLuZr2(Al3Rh)6
_symmetry_space_group_name_H-M   'P 1'
_cell_length_a   7.51592604
_cell_length_b   7.50013762
_cell_length_c   9.34859000
_cell_angle_alpha   90.00000000
_cell_angle_beta   90.00000000
_cell_angle_gamma   119.65632604
_symmetry_Int_Tables_number   1
_chemical_formula_structural   YLuZr2(Al3Rh)6
_chemical_formula_sum   'Y1 Lu1 Zr2 Al18 Rh6'
_cell_volume   457.95423724
_cell_formula_units_Z   1
loop_
 _symmetry_equiv_pos_site_id
 _symmetry_equiv_pos_as_xyz
  1  'x, y, z'
loop_
 _atom_site_type_symbol
 _atom_site_label
 _atom_site_symmetry_multiplicity
 _atom_site_fract_x
 _atom_site_fract_y
 _atom_site_fract_z
 _atom_site_occupancy
  Y  Y0  1  0.670709  0.993536  0.250000  1
  Lu  Lu1  1  0.328619  0.006365  0.750000  1
  Zr  Zr2  1  0.995201  0.671832  0.250000  1
  Zr  Zr3  1  0.005318  0.328509  0.750000  1
  Al  Al4  1  0.125878  0.123875  0.250000  1
  Al  Al5  1  0.875522  0.876633  0.750000  1
  Al  Al6  1  0.999551  0.337616  0.074411  1
  Al  Al7  1  0.001407  0.663129  0.923861  1
  Al  Al8  1  0.001407  0.663129  0.576139  1
  Al  Al9  1  0.332071  0.998148  0.422663  1
  Al  Al10  1  0.999551  0.337616  0.425589  1
  Al  Al11  1  0.667009  0.002025  0.579762  1
  Al  Al12  1  0.667009  0.002025  0.920238  1
  Al  Al13  1  0.332071  0.998148  0.077337  1
  Al  Al14  1  0.330923  0.332942  0.556182  1
  Al  Al15  1  0.669142  0.666295  0.445550  1
  Al  Al16  1  0.669142  0.666295  0.054450  1
  Al  Al17  1  0.330923  0.332942  0.943818  1
  Al  Al18  1  0.333952  0.548546  0.250000  1
  Al  Al19  1  0.664778  0.449930  0.750000  1
  Al  Al20  1  0.556200  0.344145  0.250000  1
  Al  Al21  1  0.443142  0.656430  0.750000  1
  Rh  Rh22  1  0.672064  0.327323  0.998914  1
  Rh  Rh23  1  0.327440  0.672539  0.000388  1
  Rh  Rh24  1  0.327440  0.672539  0.499612  1
  Rh  Rh25  1  0.672064  0.327323  0.501086  1
  Rh  Rh26  1  0.000733  0.000083  0.999478  1
  Rh  Rh27  1  0.000733  0.000083  0.500522  1
