# generated using pymatgen
data_La7Nd(LuIn5)4
_symmetry_space_group_name_H-M   'P 1'
_cell_length_a   6.80168097
_cell_length_b   10.70900843
_cell_length_c   12.66768100
_cell_angle_alpha   90.05409630
_cell_angle_beta   90.05358359
_cell_angle_gamma   90.08079690
_symmetry_Int_Tables_number   1
_chemical_formula_structural   La7Nd(LuIn5)4
_chemical_formula_sum   'La7 Nd1 Lu4 In20'
_cell_volume   922.70276296
_cell_formula_units_Z   1
loop_
 _symmetry_equiv_pos_site_id
 _symmetry_equiv_pos_as_xyz
  1  'x, y, z'
loop_
 _atom_site_type_symbol
 _atom_site_label
 _atom_site_symmetry_multiplicity
 _atom_site_fract_x
 _atom_site_fract_y
 _atom_site_fract_z
 _atom_site_occupancy
  La  La0  1  0.884729  0.488577  0.143315  1
  La  La1  1  0.615190  0.011993  0.643402  1
  La  La2  1  0.114868  0.988356  0.855801  1
  La  La3  1  0.384887  0.511838  0.357168  1
  La  La4  1  0.114672  0.511664  0.856561  1
  La  La5  1  0.385574  0.988260  0.356959  1
  La  La6  1  0.884420  0.011400  0.143276  1
  Nd  Nd7  1  0.615408  0.487652  0.643034  1
  Lu  Lu8  1  0.352952  0.749743  0.056116  1
  Lu  Lu9  1  0.147740  0.750852  0.556174  1
  Lu  Lu10  1  0.646801  0.249799  0.943974  1
  Lu  Lu11  1  0.852368  0.250128  0.444386  1
  In  In12  1  0.613436  0.748252  0.503474  1
  In  In13  1  0.887217  0.749858  0.000611  1
  In  In14  1  0.388733  0.250626  0.499559  1
  In  In15  1  0.111871  0.250087  0.998987  1
  In  In16  1  0.650298  0.749837  0.240160  1
  In  In17  1  0.848785  0.748108  0.738542  1
  In  In18  1  0.350096  0.251192  0.759263  1
  In  In19  1  0.149848  0.250013  0.260415  1
  In  In20  1  0.107437  0.749779  0.278929  1
  In  In21  1  0.392909  0.749331  0.778358  1
  In  In22  1  0.891197  0.252180  0.720791  1
  In  In23  1  0.607011  0.250341  0.221283  1
  In  In24  1  0.875205  0.543926  0.404747  1
  In  In25  1  0.624848  0.955498  0.904239  1
  In  In26  1  0.124552  0.045254  0.595825  1
  In  In27  1  0.375246  0.455591  0.095645  1
  In  In28  1  0.126163  0.456773  0.596570  1
  In  In29  1  0.374923  0.044281  0.095823  1
  In  In30  1  0.875335  0.955177  0.404271  1
  In  In31  1  0.625279  0.543632  0.902344  1
