# generated using pymatgen
data_Ac2AlOsI
_symmetry_space_group_name_H-M   'P 1'
_cell_length_a   4.41980800
_cell_length_b   4.41980763
_cell_length_c   18.92377800
_cell_angle_alpha   90.00000000
_cell_angle_beta   90.00000000
_cell_angle_gamma   120.00001776
_symmetry_Int_Tables_number   1
_chemical_formula_structural   Ac2AlOsI
_chemical_formula_sum   'Ac4 Al2 Os2 I2'
_cell_volume   320.14385431
_cell_formula_units_Z   2
loop_
 _symmetry_equiv_pos_site_id
 _symmetry_equiv_pos_as_xyz
  1  'x, y, z'
loop_
 _atom_site_type_symbol
 _atom_site_label
 _atom_site_symmetry_multiplicity
 _atom_site_fract_x
 _atom_site_fract_y
 _atom_site_fract_z
 _atom_site_occupancy
  Ac  Ac0  1  0.000000  0.000000  0.393319  1
  Ac  Ac1  1  0.000000  0.000000  0.893319  1
  Ac  Ac2  1  0.000000  0.000000  0.607841  1
  Ac  Ac3  1  0.000000  0.000000  0.107841  1
  Al  Al4  1  0.333333  0.666667  0.500557  1
  Al  Al5  1  0.666667  0.333333  0.000557  1
  Os  Os6  1  0.666667  0.333333  0.498869  1
  Os  Os7  1  0.333333  0.666667  0.998869  1
  I  I8  1  0.333333  0.666667  0.249414  1
  I  I9  1  0.666667  0.333333  0.749414  1
