# generated using pymatgen
data_YbHo(TmOs4)2
_symmetry_space_group_name_H-M   'P 1'
_cell_length_a   5.30171400
_cell_length_b   5.30171263
_cell_length_c   8.81432700
_cell_angle_alpha   90.00000000
_cell_angle_beta   90.00000000
_cell_angle_gamma   119.99999609
_symmetry_Int_Tables_number   1
_chemical_formula_structural   YbHo(TmOs4)2
_chemical_formula_sum   'Yb1 Ho1 Tm2 Os8'
_cell_volume   214.56174215
_cell_formula_units_Z   1
loop_
 _symmetry_equiv_pos_site_id
 _symmetry_equiv_pos_as_xyz
  1  'x, y, z'
loop_
 _atom_site_type_symbol
 _atom_site_label
 _atom_site_symmetry_multiplicity
 _atom_site_fract_x
 _atom_site_fract_y
 _atom_site_fract_z
 _atom_site_occupancy
  Yb  Yb0  1  0.333333  0.666667  0.062521  1
  Ho  Ho1  1  0.666667  0.333333  0.939433  1
  Tm  Tm2  1  0.333333  0.666667  0.429214  1
  Tm  Tm3  1  0.666667  0.333333  0.566323  1
  Os  Os4  1  0.000000  0.000000  0.501096  1
  Os  Os5  1  0.000000  0.000000  0.000757  1
  Os  Os6  1  0.827806  0.172194  0.251751  1
  Os  Os7  1  0.827806  0.655612  0.251751  1
  Os  Os8  1  0.344388  0.172194  0.251751  1
  Os  Os9  1  0.173038  0.826962  0.748467  1
  Os  Os10  1  0.173038  0.346076  0.748467  1
  Os  Os11  1  0.653924  0.826962  0.748467  1
