# generated using pymatgen
data_Pr12AlGa7Ir8
_symmetry_space_group_name_H-M   'P 1'
_cell_length_a   5.81165600
_cell_length_b   8.18955739
_cell_length_c   13.70407266
_cell_angle_alpha   90.03551848
_cell_angle_beta   90.00000000
_cell_angle_gamma   90.00000000
_symmetry_Int_Tables_number   1
_chemical_formula_structural   Pr12AlGa7Ir8
_chemical_formula_sum   'Pr12 Al1 Ga7 Ir8'
_cell_volume   652.24371037
_cell_formula_units_Z   1
loop_
 _symmetry_equiv_pos_site_id
 _symmetry_equiv_pos_as_xyz
  1  'x, y, z'
loop_
 _atom_site_type_symbol
 _atom_site_label
 _atom_site_symmetry_multiplicity
 _atom_site_fract_x
 _atom_site_fract_y
 _atom_site_fract_z
 _atom_site_occupancy
  Pr  Pr0  1  0.143591  0.894602  0.598773  1
  Pr  Pr1  1  0.855541  0.104953  0.098626  1
  Pr  Pr2  1  0.143591  0.605398  0.401227  1
  Pr  Pr3  1  0.855541  0.395047  0.901374  1
  Pr  Pr4  1  0.856176  0.104426  0.400707  1
  Pr  Pr5  1  0.144596  0.894865  0.901141  1
  Pr  Pr6  1  0.856176  0.395574  0.599293  1
  Pr  Pr7  1  0.144596  0.605135  0.098859  1
  Pr  Pr8  1  0.372310  0.252021  0.750510  1
  Pr  Pr9  1  0.627859  0.747932  0.249505  1
  Pr  Pr10  1  0.372310  0.247979  0.249490  1
  Pr  Pr11  1  0.627859  0.752068  0.750495  1
  Al  Al12  1  0.386934  0.250000  0.500000  1
  Ga  Ga13  1  0.865059  0.102666  0.749988  1
  Ga  Ga14  1  0.134923  0.897659  0.249901  1
  Ga  Ga15  1  0.865059  0.397334  0.250012  1
  Ga  Ga16  1  0.134923  0.602341  0.750099  1
  Ga  Ga17  1  0.620643  0.750000  0.000000  1
  Ga  Ga18  1  0.620427  0.750000  0.500000  1
  Ga  Ga19  1  0.379421  0.250000  0.000000  1
  Ir  Ir20  1  0.641752  0.032903  0.591627  1
  Ir  Ir21  1  0.355500  0.969093  0.091901  1
  Ir  Ir22  1  0.641752  0.467097  0.408373  1
  Ir  Ir23  1  0.355500  0.530907  0.908099  1
  Ir  Ir24  1  0.354426  0.971816  0.409070  1
  Ir  Ir25  1  0.644555  0.030553  0.908066  1
  Ir  Ir26  1  0.354426  0.528184  0.590930  1
  Ir  Ir27  1  0.644555  0.469447  0.091934  1
