# generated using pymatgen
data_Pr3Th2Sn2BiBr
_symmetry_space_group_name_H-M   'P 1'
_cell_length_a   9.64398543
_cell_length_b   9.64398583
_cell_length_c   6.75476900
_cell_angle_alpha   90.00000000
_cell_angle_beta   90.00000000
_cell_angle_gamma   120.49899411
_symmetry_Int_Tables_number   1
_chemical_formula_structural   Pr3Th2Sn2BiBr
_chemical_formula_sum   'Pr6 Th4 Sn4 Bi2 Br2'
_cell_volume   541.31304174
_cell_formula_units_Z   2
loop_
 _symmetry_equiv_pos_site_id
 _symmetry_equiv_pos_as_xyz
  1  'x, y, z'
loop_
 _atom_site_type_symbol
 _atom_site_label
 _atom_site_symmetry_multiplicity
 _atom_site_fract_x
 _atom_site_fract_y
 _atom_site_fract_z
 _atom_site_occupancy
  Pr  Pr0  1  0.272592  0.995500  0.750000  1
  Pr  Pr1  1  0.727408  0.004500  0.250000  1
  Pr  Pr2  1  0.995500  0.272592  0.750000  1
  Pr  Pr3  1  0.004500  0.727408  0.250000  1
  Pr  Pr4  1  0.729480  0.729480  0.750000  1
  Pr  Pr5  1  0.270520  0.270520  0.250000  1
  Th  Th6  1  0.330311  0.669689  0.500000  1
  Th  Th7  1  0.669689  0.330311  0.500000  1
  Th  Th8  1  0.669689  0.330311  0.000000  1
  Th  Th9  1  0.330311  0.669689  0.000000  1
  Sn  Sn10  1  0.614907  0.999113  0.750000  1
  Sn  Sn11  1  0.385093  0.000887  0.250000  1
  Sn  Sn12  1  0.999113  0.614907  0.750000  1
  Sn  Sn13  1  0.000887  0.385093  0.250000  1
  Bi  Bi14  1  0.383085  0.383085  0.750000  1
  Bi  Bi15  1  0.616915  0.616915  0.250000  1
  Br  Br16  1  0.000000  0.000000  0.500000  1
  Br  Br17  1  0.000000  0.000000  0.000000  1
