# generated using pymatgen
data_YbY2Ag(Pt2O7)2
_symmetry_space_group_name_H-M   'P 1'
_cell_length_a   7.20365325
_cell_length_b   7.30998299
_cell_length_c   7.32272000
_cell_angle_alpha   59.94233564
_cell_angle_beta   59.45170404
_cell_angle_gamma   59.56747257
_symmetry_Int_Tables_number   1
_chemical_formula_structural   YbY2Ag(Pt2O7)2
_chemical_formula_sum   'Yb1 Y2 Ag1 Pt4 O14'
_cell_volume   270.50769070
_cell_formula_units_Z   1
loop_
 _symmetry_equiv_pos_site_id
 _symmetry_equiv_pos_as_xyz
  1  'x, y, z'
loop_
 _atom_site_type_symbol
 _atom_site_label
 _atom_site_symmetry_multiplicity
 _atom_site_fract_x
 _atom_site_fract_y
 _atom_site_fract_z
 _atom_site_occupancy
  Yb  Yb0  1  0.125000  0.625000  0.125000  1
  Y  Y1  1  0.125000  0.125000  0.625000  1
  Y  Y2  1  0.125000  0.125000  0.125000  1
  Ag  Ag3  1  0.625000  0.125000  0.125000  1
  Pt  Pt4  1  0.625000  0.625000  0.625000  1
  Pt  Pt5  1  0.125000  0.625000  0.625000  1
  Pt  Pt6  1  0.625000  0.625000  0.125000  1
  Pt  Pt7  1  0.625000  0.125000  0.625000  1
  O  O8  1  0.284136  0.718310  0.709498  1
  O  O9  1  0.533386  0.957623  0.956093  1
  O  O10  1  0.708807  0.701124  0.295035  1
  O  O11  1  0.281558  0.285115  0.716663  1
  O  O12  1  0.981356  0.011513  0.003566  1
  O  O13  1  0.284136  0.718310  0.288057  1
  O  O14  1  0.716614  0.292377  0.697102  1
  O  O15  1  0.965864  0.531690  0.961943  1
  O  O16  1  0.541193  0.548876  0.954965  1
  O  O17  1  0.968442  0.964885  0.533337  1
  O  O18  1  0.268644  0.238487  0.246434  1
  O  O19  1  0.533386  0.957623  0.552898  1
  O  O20  1  0.716614  0.292377  0.293907  1
  O  O21  1  0.965864  0.531690  0.540502  1
