# generated using pymatgen
data_Zn6Cu6Pd11Pt
_symmetry_space_group_name_H-M   'P 1'
_cell_length_a   4.31487400
_cell_length_b   6.05158600
_cell_length_c   12.89351800
_cell_angle_alpha   90.00000000
_cell_angle_beta   90.00027054
_cell_angle_gamma   90.00000000
_symmetry_Int_Tables_number   1
_chemical_formula_structural   Zn6Cu6Pd11Pt
_chemical_formula_sum   'Zn6 Cu6 Pd11 Pt1'
_cell_volume   336.67336417
_cell_formula_units_Z   1
loop_
 _symmetry_equiv_pos_site_id
 _symmetry_equiv_pos_as_xyz
  1  'x, y, z'
loop_
 _atom_site_type_symbol
 _atom_site_label
 _atom_site_symmetry_multiplicity
 _atom_site_fract_x
 _atom_site_fract_y
 _atom_site_fract_z
 _atom_site_occupancy
  Zn  Zn0  1  0.000000  0.500140  0.000000  1
  Zn  Zn1  1  0.499721  0.000025  0.166740  1
  Zn  Zn2  1  0.999719  0.499781  0.333292  1
  Zn  Zn3  1  0.500000  0.000098  0.500000  1
  Zn  Zn4  1  0.000280  0.499781  0.666709  1
  Zn  Zn5  1  0.500279  0.000025  0.833260  1
  Cu  Cu6  1  0.000000  0.000325  0.000000  1
  Cu  Cu7  1  0.499730  0.499742  0.166591  1
  Cu  Cu8  1  0.999727  0.000090  0.333351  1
  Cu  Cu9  1  0.500000  0.500039  0.500000  1
  Cu  Cu10  1  0.000275  0.000090  0.666650  1
  Cu  Cu11  1  0.500272  0.499742  0.833409  1
  Pd  Pd12  1  0.500000  0.749669  0.000000  1
  Pd  Pd13  1  0.999745  0.249682  0.166790  1
  Pd  Pd14  1  0.999745  0.750355  0.166902  1
  Pd  Pd15  1  0.499745  0.250364  0.333405  1
  Pd  Pd16  1  0.499745  0.749641  0.333235  1
  Pd  Pd17  1  0.000000  0.249735  0.500000  1
  Pd  Pd18  1  0.000000  0.750318  0.500000  1
  Pd  Pd19  1  0.500254  0.250364  0.666594  1
  Pd  Pd20  1  0.500254  0.749641  0.666764  1
  Pd  Pd21  1  0.000255  0.249682  0.833211  1
  Pd  Pd22  1  0.000255  0.750355  0.833099  1
  Pt  Pt23  1  0.500000  0.250314  0.000000  1
