# generated using pymatgen
data_La2Nd6AlPd24
_symmetry_space_group_name_H-M   'P 1'
_cell_length_a   8.50829571
_cell_length_b   8.50829541
_cell_length_c   8.50829500
_cell_angle_alpha   89.97664611
_cell_angle_beta   89.97664611
_cell_angle_gamma   89.97664333
_symmetry_Int_Tables_number   1
_chemical_formula_structural   La2Nd6AlPd24
_chemical_formula_sum   'La2 Nd6 Al1 Pd24'
_cell_volume   615.92462401
_cell_formula_units_Z   1
loop_
 _symmetry_equiv_pos_site_id
 _symmetry_equiv_pos_as_xyz
  1  'x, y, z'
loop_
 _atom_site_type_symbol
 _atom_site_label
 _atom_site_symmetry_multiplicity
 _atom_site_fract_x
 _atom_site_fract_y
 _atom_site_fract_z
 _atom_site_occupancy
  La  La0  1  0.252966  0.252966  0.252966  1
  La  La1  1  0.747034  0.747034  0.747034  1
  Nd  Nd2  1  0.748052  0.748052  0.251975  1
  Nd  Nd3  1  0.748052  0.251975  0.748052  1
  Nd  Nd4  1  0.251948  0.251948  0.748025  1
  Nd  Nd5  1  0.251948  0.748025  0.251948  1
  Nd  Nd6  1  0.251975  0.748052  0.748052  1
  Nd  Nd7  1  0.748025  0.251948  0.251948  1
  Al  Al8  1  0.000000  0.000000  0.000000  1
  Pd  Pd9  1  0.260250  0.500585  0.999268  1
  Pd  Pd10  1  0.739750  0.499415  0.000732  1
  Pd  Pd11  1  0.999268  0.260250  0.500585  1
  Pd  Pd12  1  0.500585  0.260250  0.999268  1
  Pd  Pd13  1  0.000732  0.739750  0.499415  1
  Pd  Pd14  1  0.499415  0.739750  0.000732  1
  Pd  Pd15  1  0.500585  0.999268  0.260250  1
  Pd  Pd16  1  0.260250  0.999268  0.500585  1
  Pd  Pd17  1  0.499415  0.000732  0.739750  1
  Pd  Pd18  1  0.739750  0.000732  0.499415  1
  Pd  Pd19  1  0.999268  0.500585  0.260250  1
  Pd  Pd20  1  0.000732  0.499415  0.739750  1
  Pd  Pd21  1  0.253038  0.500871  0.500871  1
  Pd  Pd22  1  0.746962  0.499129  0.499129  1
  Pd  Pd23  1  0.500871  0.253038  0.500871  1
  Pd  Pd24  1  0.499129  0.746962  0.499129  1
  Pd  Pd25  1  0.500871  0.500871  0.253038  1
  Pd  Pd26  1  0.499129  0.499129  0.746962  1
  Pd  Pd27  1  0.291017  0.999192  0.999192  1
  Pd  Pd28  1  0.708983  0.000808  0.000808  1
  Pd  Pd29  1  0.999192  0.291017  0.999192  1
  Pd  Pd30  1  0.000808  0.708983  0.000808  1
  Pd  Pd31  1  0.999192  0.999192  0.291017  1
  Pd  Pd32  1  0.000808  0.000808  0.708983  1
