# generated using pymatgen
data_ErPaCoNi
_symmetry_space_group_name_H-M   'P 1'
_cell_length_a   5.92212482
_cell_length_b   5.92212530
_cell_length_c   3.82317100
_cell_angle_alpha   90.00000000
_cell_angle_beta   90.00000000
_cell_angle_gamma   144.69588209
_symmetry_Int_Tables_number   1
_chemical_formula_structural   ErPaCoNi
_chemical_formula_sum   'Er1 Pa1 Co1 Ni1'
_cell_volume   77.48966807
_cell_formula_units_Z   1
loop_
 _symmetry_equiv_pos_site_id
 _symmetry_equiv_pos_as_xyz
  1  'x, y, z'
loop_
 _atom_site_type_symbol
 _atom_site_label
 _atom_site_symmetry_multiplicity
 _atom_site_fract_x
 _atom_site_fract_y
 _atom_site_fract_z
 _atom_site_occupancy
  Er  Er0  1  0.149416  0.850584  0.000000  1
  Pa  Pa1  1  0.881955  0.118045  0.500000  1
  Co  Co2  1  0.402850  0.597150  0.000000  1
  Ni  Ni3  1  0.565779  0.434221  0.500000  1
