# generated using pymatgen
data_Dy2HoNbIn2Ir3
_symmetry_space_group_name_H-M   'P 1'
_cell_length_a   7.33300510
_cell_length_b   7.06007094
_cell_length_c   4.25879400
_cell_angle_alpha   90.00000000
_cell_angle_beta   90.00000000
_cell_angle_gamma   118.77621520
_symmetry_Int_Tables_number   1
_chemical_formula_structural   Dy2HoNbIn2Ir3
_chemical_formula_sum   'Dy2 Ho1 Nb1 In2 Ir3'
_cell_volume   193.25594899
_cell_formula_units_Z   1
loop_
 _symmetry_equiv_pos_site_id
 _symmetry_equiv_pos_as_xyz
  1  'x, y, z'
loop_
 _atom_site_type_symbol
 _atom_site_label
 _atom_site_symmetry_multiplicity
 _atom_site_fract_x
 _atom_site_fract_y
 _atom_site_fract_z
 _atom_site_occupancy
  Dy  Dy0  1  0.588383  0.586338  0.000000  1
  Dy  Dy1  1  0.411617  0.997955  0.000000  1
  Ho  Ho2  1  0.000000  0.403225  0.000000  1
  Nb  Nb3  1  0.000000  0.752872  0.500000  1
  In  In4  1  0.249728  0.251428  0.500000  1
  In  In5  1  0.750272  0.001700  0.500000  1
  Ir  Ir6  1  0.000000  0.963331  0.000000  1
  Ir  Ir7  1  0.686085  0.364617  0.500000  1
  Ir  Ir8  1  0.313915  0.678533  0.500000  1
