# generated using pymatgen
data_Li2ErSi(PPd4)5
_symmetry_space_group_name_H-M   'P 1'
_cell_length_a   8.59129103
_cell_length_b   8.60536232
_cell_length_c   8.60536241
_cell_angle_alpha   59.99633850
_cell_angle_beta   60.05406931
_cell_angle_gamma   60.05406896
_symmetry_Int_Tables_number   1
_chemical_formula_structural   Li2ErSi(PPd4)5
_chemical_formula_sum   'Li2 Er1 Si1 P5 Pd20'
_cell_volume   450.21935999
_cell_formula_units_Z   1
loop_
 _symmetry_equiv_pos_site_id
 _symmetry_equiv_pos_as_xyz
  1  'x, y, z'
loop_
 _atom_site_type_symbol
 _atom_site_label
 _atom_site_symmetry_multiplicity
 _atom_site_fract_x
 _atom_site_fract_y
 _atom_site_fract_z
 _atom_site_occupancy
  Li  Li0  1  0.999306  0.000694  0.000694  1
  Li  Li1  1  0.750376  0.749624  0.749624  1
  Er  Er2  1  0.251075  0.248925  0.248925  1
  Si  Si3  1  0.736411  0.263589  0.263589  1
  P  P4  1  0.737745  0.736165  0.261815  1
  P  P5  1  0.737745  0.261815  0.736165  1
  P  P6  1  0.264275  0.736165  0.261815  1
  P  P7  1  0.262525  0.737475  0.737475  1
  P  P8  1  0.264275  0.261815  0.736165  1
  Pd  Pd9  1  0.340747  0.002801  0.002801  1
  Pd  Pd10  1  0.000115  0.656359  0.343411  1
  Pd  Pd11  1  0.341900  0.002148  0.654224  1
  Pd  Pd12  1  0.001728  0.654224  0.002148  1
  Pd  Pd13  1  0.653110  0.343281  0.999662  1
  Pd  Pd14  1  0.618270  0.619825  0.143633  1
  Pd  Pd15  1  0.385783  0.842948  0.385489  1
  Pd  Pd16  1  0.145860  0.617994  0.617994  1
  Pd  Pd17  1  0.653110  0.999662  0.343281  1
  Pd  Pd18  1  0.000115  0.343411  0.656359  1
  Pd  Pd19  1  0.653651  0.002801  0.002801  1
  Pd  Pd20  1  0.003947  0.999662  0.343281  1
  Pd  Pd21  1  0.618270  0.143633  0.619825  1
  Pd  Pd22  1  0.341900  0.654224  0.002148  1
  Pd  Pd23  1  0.383319  0.385925  0.385925  1
  Pd  Pd24  1  0.618150  0.617994  0.617994  1
  Pd  Pd25  1  0.385783  0.385489  0.842948  1
  Pd  Pd26  1  0.001728  0.002148  0.654224  1
  Pd  Pd27  1  0.844833  0.385925  0.385925  1
  Pd  Pd28  1  0.003947  0.343281  0.999662  1
