# generated using pymatgen
data_Pr2Ga2Pd3Pt
_symmetry_space_group_name_H-M   'P 1'
_cell_length_a   5.81649800
_cell_length_b   7.15544784
_cell_length_c   7.63507200
_cell_angle_alpha   90.00000000
_cell_angle_beta   90.00000000
_cell_angle_gamma   89.69879734
_symmetry_Int_Tables_number   1
_chemical_formula_structural   Pr2Ga2Pd3Pt
_chemical_formula_sum   'Pr4 Ga4 Pd6 Pt2'
_cell_volume   317.76461827
_cell_formula_units_Z   2
loop_
 _symmetry_equiv_pos_site_id
 _symmetry_equiv_pos_as_xyz
  1  'x, y, z'
loop_
 _atom_site_type_symbol
 _atom_site_label
 _atom_site_symmetry_multiplicity
 _atom_site_fract_x
 _atom_site_fract_y
 _atom_site_fract_z
 _atom_site_occupancy
  Pr  Pr0  1  0.350869  0.750177  0.032910  1
  Pr  Pr1  1  0.149131  0.749823  0.532910  1
  Pr  Pr2  1  0.649670  0.248879  0.965644  1
  Pr  Pr3  1  0.850330  0.251121  0.465644  1
  Ga  Ga4  1  0.650567  0.749296  0.381395  1
  Ga  Ga5  1  0.849433  0.750704  0.881395  1
  Ga  Ga6  1  0.351138  0.249269  0.618741  1
  Ga  Ga7  1  0.148862  0.250731  0.118741  1
  Pd  Pd8  1  0.089285  0.053606  0.823268  1
  Pd  Pd9  1  0.410715  0.446394  0.323268  1
  Pd  Pd10  1  0.089498  0.445786  0.822198  1
  Pd  Pd11  1  0.410502  0.054214  0.322198  1
  Pd  Pd12  1  0.913589  0.948405  0.177672  1
  Pd  Pd13  1  0.586411  0.551595  0.677672  1
  Pt  Pt14  1  0.914173  0.554360  0.178172  1
  Pt  Pt15  1  0.585827  0.945640  0.678172  1
