# generated using pymatgen
data_HoLu5MgFe(Co4P3)4
_symmetry_space_group_name_H-M   'P 1'
_cell_length_a   3.67600500
_cell_length_b   10.49816800
_cell_length_c   12.13368900
_cell_angle_alpha   90.00000000
_cell_angle_beta   90.00000000
_cell_angle_gamma   90.00000000
_symmetry_Int_Tables_number   1
_chemical_formula_structural   HoLu5MgFe(Co4P3)4
_chemical_formula_sum   'Ho1 Lu5 Mg1 Fe1 Co16 P12'
_cell_volume   468.25505143
_cell_formula_units_Z   1
loop_
 _symmetry_equiv_pos_site_id
 _symmetry_equiv_pos_as_xyz
  1  'x, y, z'
loop_
 _atom_site_type_symbol
 _atom_site_label
 _atom_site_symmetry_multiplicity
 _atom_site_fract_x
 _atom_site_fract_y
 _atom_site_fract_z
 _atom_site_occupancy
  Ho  Ho0  1  0.500000  0.000000  0.477291  1
  Lu  Lu1  1  0.000000  0.500000  0.526473  1
  Lu  Lu2  1  0.500000  0.822650  0.206637  1
  Lu  Lu3  1  0.500000  0.177350  0.206637  1
  Lu  Lu4  1  0.000000  0.681632  0.794581  1
  Lu  Lu5  1  0.000000  0.318368  0.794581  1
  Mg  Mg6  1  0.500000  0.500000  0.155078  1
  Fe  Fe7  1  0.000000  0.000000  0.839237  1
  Co  Co8  1  0.500000  0.500000  0.704154  1
  Co  Co9  1  0.000000  0.000000  0.295478  1
  Co  Co10  1  0.000000  0.500000  0.986202  1
  Co  Co11  1  0.500000  0.000000  0.011538  1
  Co  Co12  1  0.500000  0.329246  0.992806  1
  Co  Co13  1  0.500000  0.670754  0.992806  1
  Co  Co14  1  0.000000  0.163922  0.001652  1
  Co  Co15  1  0.000000  0.836078  0.001652  1
  Co  Co16  1  0.500000  0.296583  0.433335  1
  Co  Co17  1  0.500000  0.703417  0.433335  1
  Co  Co18  1  0.000000  0.203305  0.570200  1
  Co  Co19  1  0.000000  0.796695  0.570200  1
  Co  Co20  1  0.500000  0.878360  0.707956  1
  Co  Co21  1  0.500000  0.121640  0.707956  1
  Co  Co22  1  0.000000  0.623715  0.293463  1
  Co  Co23  1  0.000000  0.376285  0.293463  1
  P  P24  1  0.500000  0.500000  0.882559  1
  P  P25  1  0.000000  0.000000  0.116666  1
  P  P26  1  0.500000  0.500000  0.356630  1
  P  P27  1  0.000000  0.000000  0.654330  1
  P  P28  1  0.500000  0.311545  0.618222  1
  P  P29  1  0.500000  0.688455  0.618222  1
  P  P30  1  0.000000  0.188435  0.384371  1
  P  P31  1  0.000000  0.811565  0.384371  1
  P  P32  1  0.500000  0.848160  0.888485  1
  P  P33  1  0.500000  0.151840  0.888485  1
  P  P34  1  0.000000  0.663833  0.105472  1
  P  P35  1  0.000000  0.336167  0.105472  1
