# generated using pymatgen
data_Ho2IrPdO7
_symmetry_space_group_name_H-M   'P 1'
_cell_length_a   7.23800492
_cell_length_b   7.27072315
_cell_length_c   7.23800397
_cell_angle_alpha   59.85034857
_cell_angle_beta   59.65783616
_cell_angle_gamma   59.85034165
_symmetry_Int_Tables_number   1
_chemical_formula_structural   Ho2IrPdO7
_chemical_formula_sum   'Ho4 Ir2 Pd2 O14'
_cell_volume   268.03014125
_cell_formula_units_Z   2
loop_
 _symmetry_equiv_pos_site_id
 _symmetry_equiv_pos_as_xyz
  1  'x, y, z'
loop_
 _atom_site_type_symbol
 _atom_site_label
 _atom_site_symmetry_multiplicity
 _atom_site_fract_x
 _atom_site_fract_y
 _atom_site_fract_z
 _atom_site_occupancy
  Ho  Ho0  1  0.625000  0.125000  0.125000  1
  Ho  Ho1  1  0.125000  0.625000  0.125000  1
  Ho  Ho2  1  0.125000  0.125000  0.625000  1
  Ho  Ho3  1  0.125000  0.125000  0.125000  1
  Ir  Ir4  1  0.625000  0.125000  0.625000  1
  Ir  Ir5  1  0.625000  0.625000  0.625000  1
  Pd  Pd6  1  0.125000  0.625000  0.625000  1
  Pd  Pd7  1  0.625000  0.625000  0.125000  1
  O  O8  1  0.711785  0.718430  0.288597  1
  O  O9  1  0.288597  0.281187  0.711785  1
  O  O10  1  0.710131  0.289869  0.710131  1
  O  O11  1  0.280718  0.719282  0.280718  1
  O  O12  1  0.288597  0.718430  0.711785  1
  O  O13  1  0.711785  0.281187  0.288597  1
  O  O14  1  0.538215  0.531570  0.961403  1
  O  O15  1  0.961403  0.968813  0.538215  1
  O  O16  1  0.539869  0.960131  0.539869  1
  O  O17  1  0.969282  0.530718  0.969282  1
  O  O18  1  0.961403  0.531570  0.538215  1
  O  O19  1  0.538215  0.968813  0.961403  1
  O  O20  1  0.250402  0.249598  0.250402  1
  O  O21  1  0.999598  0.000402  0.999598  1
