# generated using pymatgen
data_Tb5(InBi)2
_symmetry_space_group_name_H-M   'P 1'
_cell_length_a   8.91201200
_cell_length_b   8.91201100
_cell_length_c   8.20619100
_cell_angle_alpha   90.00000000
_cell_angle_beta   90.00000000
_cell_angle_gamma   125.12699582
_symmetry_Int_Tables_number   1
_chemical_formula_structural   Tb5(InBi)2
_chemical_formula_sum   'Tb10 In4 Bi4'
_cell_volume   533.06724458
_cell_formula_units_Z   2
loop_
 _symmetry_equiv_pos_site_id
 _symmetry_equiv_pos_as_xyz
  1  'x, y, z'
loop_
 _atom_site_type_symbol
 _atom_site_label
 _atom_site_symmetry_multiplicity
 _atom_site_fract_x
 _atom_site_fract_y
 _atom_site_fract_z
 _atom_site_occupancy
  Tb  Tb0  1  0.036107  0.304315  0.332824  1
  Tb  Tb1  1  0.963893  0.695685  0.667176  1
  Tb  Tb2  1  0.463893  0.195685  0.832824  1
  Tb  Tb3  1  0.804315  0.536107  0.167176  1
  Tb  Tb4  1  0.536107  0.804315  0.167176  1
  Tb  Tb5  1  0.195685  0.463893  0.832824  1
  Tb  Tb6  1  0.695685  0.963893  0.667176  1
  Tb  Tb7  1  0.304315  0.036107  0.332824  1
  Tb  Tb8  1  0.000000  0.000000  0.000000  1
  Tb  Tb9  1  0.500000  0.500000  0.500000  1
  In  In10  1  0.371567  0.371567  0.128458  1
  In  In11  1  0.628433  0.628433  0.871542  1
  In  In12  1  0.128433  0.128433  0.628458  1
  In  In13  1  0.871567  0.871567  0.371542  1
  Bi  Bi14  1  0.794478  0.205522  0.000000  1
  Bi  Bi15  1  0.205522  0.794478  0.000000  1
  Bi  Bi16  1  0.705522  0.294478  0.500000  1
  Bi  Bi17  1  0.294478  0.705522  0.500000  1
