# generated using pymatgen
data_Pr4ErSi12Ir19
_symmetry_space_group_name_H-M   'P 1'
_cell_length_a   12.91994600
_cell_length_b   12.91994611
_cell_length_c   4.02472200
_cell_angle_alpha   90.00000000
_cell_angle_beta   90.00000000
_cell_angle_gamma   120.00000484
_symmetry_Int_Tables_number   1
_chemical_formula_structural   Pr4ErSi12Ir19
_chemical_formula_sum   'Pr4 Er1 Si12 Ir19'
_cell_volume   581.81899904
_cell_formula_units_Z   1
loop_
 _symmetry_equiv_pos_site_id
 _symmetry_equiv_pos_as_xyz
  1  'x, y, z'
loop_
 _atom_site_type_symbol
 _atom_site_label
 _atom_site_symmetry_multiplicity
 _atom_site_fract_x
 _atom_site_fract_y
 _atom_site_fract_z
 _atom_site_occupancy
  Pr  Pr0  1  0.666667  0.333333  0.000000  1
  Pr  Pr1  1  0.814378  0.814172  0.500000  1
  Pr  Pr2  1  0.185828  0.000206  0.500000  1
  Pr  Pr3  1  0.999794  0.185622  0.500000  1
  Er  Er4  1  0.333333  0.666667  0.000000  1
  Si  Si5  1  0.688599  0.167742  0.500000  1
  Si  Si6  1  0.832258  0.520856  0.500000  1
  Si  Si7  1  0.479144  0.311401  0.500000  1
  Si  Si8  1  0.171400  0.689032  0.500000  1
  Si  Si9  1  0.517631  0.828600  0.500000  1
  Si  Si10  1  0.310968  0.482369  0.500000  1
  Si  Si11  1  0.629190  0.629303  0.000000  1
  Si  Si12  1  0.370697  0.999886  0.000000  1
  Si  Si13  1  0.000114  0.370810  0.000000  1
  Si  Si14  1  0.184013  0.185131  0.000000  1
  Si  Si15  1  0.814869  0.998882  0.000000  1
  Si  Si16  1  0.001118  0.815987  0.000000  1
  Ir  Ir17  1  0.803950  0.182101  0.000000  1
  Ir  Ir18  1  0.817899  0.621849  0.000000  1
  Ir  Ir19  1  0.378151  0.196050  0.000000  1
  Ir  Ir20  1  0.184152  0.802969  0.000000  1
  Ir  Ir21  1  0.618817  0.815848  0.000000  1
  Ir  Ir22  1  0.197031  0.381183  0.000000  1
  Ir  Ir23  1  0.446663  0.446735  0.000000  1
  Ir  Ir24  1  0.553265  0.999928  0.000000  1
  Ir  Ir25  1  0.000072  0.553337  0.000000  1
  Ir  Ir26  1  0.284915  0.286409  0.500000  1
  Ir  Ir27  1  0.713591  0.998506  0.500000  1
  Ir  Ir28  1  0.001494  0.715085  0.500000  1
  Ir  Ir29  1  0.875863  0.362458  0.500000  1
  Ir  Ir30  1  0.637542  0.513407  0.500000  1
  Ir  Ir31  1  0.486593  0.124137  0.500000  1
  Ir  Ir32  1  0.362824  0.872676  0.500000  1
  Ir  Ir33  1  0.509853  0.637176  0.500000  1
  Ir  Ir34  1  0.127324  0.490147  0.500000  1
  Ir  Ir35  1  0.000000  0.000000  0.000000  1
