# generated using pymatgen
data_Cs5Na(TcH9)3
_symmetry_space_group_name_H-M   'P 1'
_cell_length_a   10.21193665
_cell_length_b   10.21193516
_cell_length_c   6.19095100
_cell_angle_alpha   90.00000000
_cell_angle_beta   90.00000000
_cell_angle_gamma   122.51845184
_symmetry_Int_Tables_number   1
_chemical_formula_structural   Cs5Na(TcH9)3
_chemical_formula_sum   'Cs5 Na1 Tc3 H27'
_cell_volume   544.39431997
_cell_formula_units_Z   1
loop_
 _symmetry_equiv_pos_site_id
 _symmetry_equiv_pos_as_xyz
  1  'x, y, z'
loop_
 _atom_site_type_symbol
 _atom_site_label
 _atom_site_symmetry_multiplicity
 _atom_site_fract_x
 _atom_site_fract_y
 _atom_site_fract_z
 _atom_site_occupancy
  Cs  Cs0  1  0.248036  0.990105  0.500000  1
  Cs  Cs1  1  0.990105  0.248036  0.500000  1
  Cs  Cs2  1  0.593165  0.999897  0.000000  1
  Cs  Cs3  1  0.999897  0.593165  0.000000  1
  Cs  Cs4  1  0.420082  0.420082  0.000000  1
  Na  Na5  1  0.706154  0.706154  0.500000  1
  Tc  Tc6  1  0.972479  0.972479  0.000000  1
  Tc  Tc7  1  0.361371  0.673130  0.500000  1
  Tc  Tc8  1  0.673130  0.361371  0.500000  1
  H  H9  1  0.852975  0.964639  0.195946  1
  H  H10  1  0.964639  0.852975  0.195946  1
  H  H11  1  0.852975  0.964639  0.804054  1
  H  H12  1  0.964639  0.852975  0.804054  1
  H  H13  1  0.099937  0.099937  0.185351  1
  H  H14  1  0.099937  0.099937  0.814649  1
  H  H15  1  0.133995  0.968417  0.000000  1
  H  H16  1  0.968417  0.133995  0.000000  1
  H  H17  1  0.802701  0.802701  0.000000  1
  H  H18  1  0.257857  0.546219  0.300007  1
  H  H19  1  0.495993  0.704796  0.309610  1
  H  H20  1  0.257857  0.546219  0.699993  1
  H  H21  1  0.546219  0.257857  0.699993  1
  H  H22  1  0.333307  0.771445  0.304731  1
  H  H23  1  0.495993  0.704796  0.690390  1
  H  H24  1  0.704796  0.495993  0.690390  1
  H  H25  1  0.546219  0.257857  0.300007  1
  H  H26  1  0.333307  0.771445  0.695269  1
  H  H27  1  0.704796  0.495993  0.309610  1
  H  H28  1  0.771445  0.333307  0.695269  1
  H  H29  1  0.771445  0.333307  0.304731  1
  H  H30  1  0.383742  0.522999  0.500000  1
  H  H31  1  0.503934  0.859900  0.500000  1
  H  H32  1  0.522999  0.383742  0.500000  1
  H  H33  1  0.177796  0.627760  0.500000  1
  H  H34  1  0.859900  0.503934  0.500000  1
  H  H35  1  0.627760  0.177796  0.500000  1
