# generated using pymatgen
data_Ho2PbO2
_symmetry_space_group_name_H-M   'P 1'
_cell_length_a   7.57738626
_cell_length_b   7.57738652
_cell_length_c   7.57738668
_cell_angle_alpha   150.65354848
_cell_angle_beta   150.65354824
_cell_angle_gamma   41.98290304
_symmetry_Int_Tables_number   1
_chemical_formula_structural   Ho2PbO2
_chemical_formula_sum   'Ho2 Pb1 O2'
_cell_volume   104.25228345
_cell_formula_units_Z   1
loop_
 _symmetry_equiv_pos_site_id
 _symmetry_equiv_pos_as_xyz
  1  'x, y, z'
loop_
 _atom_site_type_symbol
 _atom_site_label
 _atom_site_symmetry_multiplicity
 _atom_site_fract_x
 _atom_site_fract_y
 _atom_site_fract_z
 _atom_site_occupancy
  Ho  Ho0  1  0.671708  0.671708  0.000000  1
  Ho  Ho1  1  0.328292  0.328292  0.000000  1
  Pb  Pb2  1  0.000000  0.000000  0.000000  1
  O  O3  1  0.750000  0.250000  0.500000  1
  O  O4  1  0.250000  0.750000  0.500000  1
