# generated using pymatgen
data_Er12Rh7
_symmetry_space_group_name_H-M   'P 1'
_cell_length_a   11.22131700
_cell_length_b   8.22662456
_cell_length_c   11.23629807
_cell_angle_alpha   57.30731869
_cell_angle_beta   90.00000000
_cell_angle_gamma   90.00000000
_symmetry_Int_Tables_number   1
_chemical_formula_structural   Er12Rh7
_chemical_formula_sum   'Er24 Rh14'
_cell_volume   872.93931685
_cell_formula_units_Z   2
loop_
 _symmetry_equiv_pos_site_id
 _symmetry_equiv_pos_as_xyz
  1  'x, y, z'
loop_
 _atom_site_type_symbol
 _atom_site_label
 _atom_site_symmetry_multiplicity
 _atom_site_fract_x
 _atom_site_fract_y
 _atom_site_fract_z
 _atom_site_occupancy
  Er  Er0  1  0.703125  0.237779  0.529610  1
  Er  Er1  1  0.203125  0.762221  0.970390  1
  Er  Er2  1  0.843573  0.506190  0.658029  1
  Er  Er3  1  0.343573  0.493810  0.841971  1
  Er  Er4  1  0.156427  0.493810  0.341971  1
  Er  Er5  1  0.656427  0.506190  0.158029  1
  Er  Er6  1  0.005138  0.846968  0.363864  1
  Er  Er7  1  0.505138  0.153032  0.136136  1
  Er  Er8  1  0.994862  0.153032  0.636136  1
  Er  Er9  1  0.494862  0.846968  0.863864  1
  Er  Er10  1  0.796875  0.237779  0.029610  1
  Er  Er11  1  0.296875  0.762221  0.470390  1
  Er  Er12  1  0.927116  0.776173  0.091976  1
  Er  Er13  1  0.427116  0.223827  0.408024  1
  Er  Er14  1  0.072884  0.223827  0.908024  1
  Er  Er15  1  0.572884  0.776173  0.591976  1
  Er  Er16  1  0.303364  0.244259  0.671406  1
  Er  Er17  1  0.803364  0.755741  0.828594  1
  Er  Er18  1  0.696636  0.755741  0.328594  1
  Er  Er19  1  0.196636  0.244259  0.171406  1
  Er  Er20  1  0.920852  0.274592  0.292500  1
  Er  Er21  1  0.420852  0.725408  0.207500  1
  Er  Er22  1  0.079148  0.725408  0.707500  1
  Er  Er23  1  0.579148  0.274592  0.792500  1
  Rh  Rh24  1  0.500000  0.500000  0.500000  1
  Rh  Rh25  1  0.000000  0.500000  0.000000  1
  Rh  Rh26  1  0.643808  0.911020  0.050980  1
  Rh  Rh27  1  0.143808  0.088980  0.449020  1
  Rh  Rh28  1  0.356192  0.088980  0.949020  1
  Rh  Rh29  1  0.856192  0.911020  0.550980  1
  Rh  Rh30  1  0.397282  0.488851  0.102855  1
  Rh  Rh31  1  0.897282  0.511149  0.397145  1
  Rh  Rh32  1  0.602718  0.511149  0.897145  1
  Rh  Rh33  1  0.102718  0.488851  0.602855  1
  Rh  Rh34  1  0.827406  0.110252  0.839521  1
  Rh  Rh35  1  0.327406  0.889748  0.660479  1
  Rh  Rh36  1  0.172594  0.889748  0.160479  1
  Rh  Rh37  1  0.672594  0.110252  0.339521  1
