# generated using pymatgen
data_Pa6AlZn5Pt6
_symmetry_space_group_name_H-M   'P 1'
_cell_length_a   7.05771962
_cell_length_b   7.05771917
_cell_length_c   8.29620662
_cell_angle_alpha   90.01193837
_cell_angle_beta   89.98806063
_cell_angle_gamma   120.33267457
_symmetry_Int_Tables_number   1
_chemical_formula_structural   Pa6AlZn5Pt6
_chemical_formula_sum   'Pa6 Al1 Zn5 Pt6'
_cell_volume   356.67552343
_cell_formula_units_Z   1
loop_
 _symmetry_equiv_pos_site_id
 _symmetry_equiv_pos_as_xyz
  1  'x, y, z'
loop_
 _atom_site_type_symbol
 _atom_site_label
 _atom_site_symmetry_multiplicity
 _atom_site_fract_x
 _atom_site_fract_y
 _atom_site_fract_z
 _atom_site_occupancy
  Pa  Pa0  1  0.000421  0.580565  0.751488  1
  Pa  Pa1  1  0.002174  0.581437  0.248465  1
  Pa  Pa2  1  0.580565  0.000421  0.248512  1
  Pa  Pa3  1  0.581437  0.002174  0.751535  1
  Pa  Pa4  1  0.414410  0.415256  0.248951  1
  Pa  Pa5  1  0.415256  0.414410  0.751049  1
  Al  Al6  1  0.770216  0.770216  0.500000  1
  Zn  Zn7  1  0.999838  0.243507  0.499918  1
  Zn  Zn8  1  0.759633  0.759633  0.000000  1
  Zn  Zn9  1  0.997864  0.234251  0.000100  1
  Zn  Zn10  1  0.243507  0.999838  0.500082  1
  Zn  Zn11  1  0.234251  0.997864  0.999900  1
  Pt  Pt12  1  0.346012  0.670622  0.501069  1
  Pt  Pt13  1  0.670622  0.346012  0.498931  1
  Pt  Pt14  1  0.664722  0.331929  0.001057  1
  Pt  Pt15  1  0.993645  0.993497  0.253253  1
  Pt  Pt16  1  0.993497  0.993645  0.746747  1
  Pt  Pt17  1  0.331929  0.664722  0.998943  1
