# generated using pymatgen
data_Lu2ZrIrF14
_symmetry_space_group_name_H-M   'P 1'
_cell_length_a   5.58498149
_cell_length_b   8.85236490
_cell_length_c   11.89085587
_cell_angle_alpha   62.64692145
_cell_angle_beta   90.10590960
_cell_angle_gamma   90.03144619
_symmetry_Int_Tables_number   1
_chemical_formula_structural   Lu2ZrIrF14
_chemical_formula_sum   'Lu4 Zr2 Ir2 F28'
_cell_volume   522.15595047
_cell_formula_units_Z   2
loop_
 _symmetry_equiv_pos_site_id
 _symmetry_equiv_pos_as_xyz
  1  'x, y, z'
loop_
 _atom_site_type_symbol
 _atom_site_label
 _atom_site_symmetry_multiplicity
 _atom_site_fract_x
 _atom_site_fract_y
 _atom_site_fract_z
 _atom_site_occupancy
  Lu  Lu0  1  0.256711  0.814511  0.272580  1
  Lu  Lu1  1  0.743289  0.185489  0.727420  1
  Lu  Lu2  1  0.758964  0.181728  0.240730  1
  Lu  Lu3  1  0.241036  0.818272  0.759270  1
  Zr  Zr4  1  0.755340  0.725896  0.045247  1
  Zr  Zr5  1  0.244660  0.274104  0.954753  1
  Ir  Ir6  1  0.259464  0.273870  0.454880  1
  Ir  Ir7  1  0.740536  0.726130  0.545120  1
  F  F8  1  0.940445  0.703794  0.417458  1
  F  F9  1  0.059555  0.296206  0.582542  1
  F  F10  1  0.471527  0.291764  0.081754  1
  F  F11  1  0.528473  0.708236  0.918246  1
  F  F12  1  0.482824  0.730742  0.157150  1
  F  F13  1  0.517176  0.269258  0.842850  1
  F  F14  1  0.968070  0.267437  0.362983  1
  F  F15  1  0.031930  0.732563  0.637017  1
  F  F16  1  0.971250  0.751767  0.175227  1
  F  F17  1  0.028750  0.248233  0.824773  1
  F  F18  1  0.455250  0.257026  0.322209  1
  F  F19  1  0.544750  0.742974  0.677791  1
  F  F20  1  0.782641  0.468412  0.145324  1
  F  F21  1  0.217359  0.531588  0.854676  1
  F  F22  1  0.262259  0.520716  0.359551  1
  F  F23  1  0.737741  0.479284  0.640449  1
  F  F24  1  0.944002  0.269977  0.055397  1
  F  F25  1  0.055998  0.730023  0.944603  1
  F  F26  1  0.440971  0.714173  0.459272  1
  F  F27  1  0.559029  0.285827  0.540728  1
  F  F28  1  0.736954  0.973489  0.454124  1
  F  F29  1  0.263046  0.026511  0.545876  1
  F  F30  1  0.247577  0.017612  0.063429  1
  F  F31  1  0.752423  0.982388  0.936571  1
  F  F32  1  0.570193  0.972153  0.242754  1
  F  F33  1  0.429807  0.027847  0.757246  1
  F  F34  1  0.072011  0.023399  0.274194  1
  F  F35  1  0.927989  0.976601  0.725806  1
