# generated using pymatgen
data_TbEr(Co3Si2)2
_symmetry_space_group_name_H-M   'P 1'
_cell_length_a   6.24351679
_cell_length_b   6.24289204
_cell_length_c   6.24351797
_cell_angle_alpha   130.58067085
_cell_angle_beta   113.06189273
_cell_angle_gamma   87.58240787
_symmetry_Int_Tables_number   1
_chemical_formula_structural   TbEr(Co3Si2)2
_chemical_formula_sum   'Tb1 Er1 Co6 Si4'
_cell_volume   161.99201904
_cell_formula_units_Z   1
loop_
 _symmetry_equiv_pos_site_id
 _symmetry_equiv_pos_as_xyz
  1  'x, y, z'
loop_
 _atom_site_type_symbol
 _atom_site_label
 _atom_site_symmetry_multiplicity
 _atom_site_fract_x
 _atom_site_fract_y
 _atom_site_fract_z
 _atom_site_occupancy
  Tb  Tb0  1  0.249989  0.529298  0.279309  1
  Er  Er1  1  0.750047  0.468880  0.718833  1
  Co  Co2  1  0.000071  0.000475  0.500557  1
  Co  Co3  1  0.499917  0.000475  0.000403  1
  Co  Co4  1  0.724561  0.001149  0.724515  1
  Co  Co5  1  0.223377  0.499943  0.724526  1
  Co  Co6  1  0.276634  0.001149  0.276586  1
  Co  Co7  1  0.775417  0.499943  0.276565  1
  Si  Si8  1  0.079990  0.872836  0.792846  1
  Si  Si9  1  0.918425  0.124935  0.206510  1
  Si  Si10  1  0.581568  0.788061  0.206492  1
  Si  Si11  1  0.420003  0.212859  0.792857  1
