# generated using pymatgen
data_Er6Tm2Tc3OsC8
_symmetry_space_group_name_H-M   'P 1'
_cell_length_a   5.04007200
_cell_length_b   6.50204211
_cell_length_c   9.75058203
_cell_angle_alpha   89.81623018
_cell_angle_beta   90.00000000
_cell_angle_gamma   90.00000000
_symmetry_Int_Tables_number   1
_chemical_formula_structural   Er6Tm2Tc3OsC8
_chemical_formula_sum   'Er6 Tm2 Tc3 Os1 C8'
_cell_volume   319.53234379
_cell_formula_units_Z   1
loop_
 _symmetry_equiv_pos_site_id
 _symmetry_equiv_pos_as_xyz
  1  'x, y, z'
loop_
 _atom_site_type_symbol
 _atom_site_label
 _atom_site_symmetry_multiplicity
 _atom_site_fract_x
 _atom_site_fract_y
 _atom_site_fract_z
 _atom_site_occupancy
  Er  Er0  1  0.750000  0.323048  0.442752  1
  Er  Er1  1  0.750000  0.824079  0.057569  1
  Er  Er2  1  0.250000  0.532433  0.216221  1
  Er  Er3  1  0.750000  0.465840  0.784209  1
  Er  Er4  1  0.750000  0.967950  0.713732  1
  Er  Er5  1  0.250000  0.032296  0.284086  1
  Tm  Tm6  1  0.250000  0.674717  0.557857  1
  Tm  Tm7  1  0.250000  0.174708  0.942084  1
  Tc  Tc8  1  0.250000  0.717632  0.867297  1
  Tc  Tc9  1  0.750000  0.283095  0.131657  1
  Tc  Tc10  1  0.750000  0.781949  0.368270  1
  Os  Os11  1  0.250000  0.217888  0.633002  1
  C  C12  1  0.250000  0.450571  0.758507  1
  C  C13  1  0.750000  0.549885  0.241434  1
  C  C14  1  0.750000  0.049973  0.259084  1
  C  C15  1  0.250000  0.951613  0.741342  1
  C  C16  1  0.250000  0.825227  0.051950  1
  C  C17  1  0.750000  0.175834  0.946822  1
  C  C18  1  0.750000  0.675407  0.553830  1
  C  C19  1  0.250000  0.325855  0.448294  1
