# generated using pymatgen
data_Ho16Cd4OsPd2Pt
_symmetry_space_group_name_H-M   'P 1'
_cell_length_a   9.66797621
_cell_length_b   9.66797612
_cell_length_c   9.68432989
_cell_angle_alpha   59.43555480
_cell_angle_beta   59.43555375
_cell_angle_gamma   59.41853769
_symmetry_Int_Tables_number   1
_chemical_formula_structural   Ho16Cd4OsPd2Pt
_chemical_formula_sum   'Ho16 Cd4 Os1 Pd2 Pt1'
_cell_volume   631.76473554
_cell_formula_units_Z   1
loop_
 _symmetry_equiv_pos_site_id
 _symmetry_equiv_pos_as_xyz
  1  'x, y, z'
loop_
 _atom_site_type_symbol
 _atom_site_label
 _atom_site_symmetry_multiplicity
 _atom_site_fract_x
 _atom_site_fract_y
 _atom_site_fract_z
 _atom_site_occupancy
  Ho  Ho0  1  0.351829  0.351829  0.353954  1
  Ho  Ho1  1  0.351041  0.351041  0.944041  1
  Ho  Ho2  1  0.349726  0.946291  0.351709  1
  Ho  Ho3  1  0.946291  0.349726  0.351709  1
  Ho  Ho4  1  0.815948  0.188391  0.188849  1
  Ho  Ho5  1  0.188135  0.810914  0.808997  1
  Ho  Ho6  1  0.188391  0.815948  0.188849  1
  Ho  Ho7  1  0.810914  0.188135  0.808997  1
  Ho  Ho8  1  0.188711  0.188711  0.814682  1
  Ho  Ho9  1  0.810103  0.810103  0.188299  1
  Ho  Ho10  1  0.934448  0.565467  0.567005  1
  Ho  Ho11  1  0.557917  0.937355  0.937323  1
  Ho  Ho12  1  0.565467  0.934448  0.567005  1
  Ho  Ho13  1  0.937355  0.557917  0.937323  1
  Ho  Ho14  1  0.566638  0.566638  0.934721  1
  Ho  Ho15  1  0.937545  0.937545  0.558013  1
  Cd  Cd16  1  0.580299  0.580299  0.580432  1
  Cd  Cd17  1  0.581092  0.581092  0.253489  1
  Cd  Cd18  1  0.581327  0.253568  0.580683  1
  Cd  Cd19  1  0.253568  0.581327  0.580683  1
  Os  Os20  1  0.144076  0.144076  0.143498  1
  Pd  Pd21  1  0.144699  0.570487  0.143950  1
  Pd  Pd22  1  0.570487  0.144699  0.143950  1
  Pt  Pt23  1  0.143993  0.143993  0.571837  1
