# generated using pymatgen
data_YbZrCl6
_symmetry_space_group_name_H-M   'P 1'
_cell_length_a   7.58180555
_cell_length_b   7.58180626
_cell_length_c   7.58180656
_cell_angle_alpha   53.58178577
_cell_angle_beta   53.58179097
_cell_angle_gamma   53.58178200
_symmetry_Int_Tables_number   1
_chemical_formula_structural   YbZrCl6
_chemical_formula_sum   'Yb1 Zr1 Cl6'
_cell_volume   261.90931724
_cell_formula_units_Z   1
loop_
 _symmetry_equiv_pos_site_id
 _symmetry_equiv_pos_as_xyz
  1  'x, y, z'
loop_
 _atom_site_type_symbol
 _atom_site_label
 _atom_site_symmetry_multiplicity
 _atom_site_fract_x
 _atom_site_fract_y
 _atom_site_fract_z
 _atom_site_occupancy
  Yb  Yb0  1  0.333285  0.333285  0.333285  1
  Zr  Zr1  1  0.666826  0.666826  0.666826  1
  Cl  Cl2  1  0.048921  0.454084  0.720788  1
  Cl  Cl3  1  0.306240  0.899671  0.570187  1
  Cl  Cl4  1  0.454084  0.720788  0.048921  1
  Cl  Cl5  1  0.570187  0.306240  0.899671  1
  Cl  Cl6  1  0.720788  0.048921  0.454084  1
  Cl  Cl7  1  0.899671  0.570187  0.306240  1
