# generated using pymatgen
data_La2Al2PdRh
_symmetry_space_group_name_H-M   'P 1'
_cell_length_a   4.47274300
_cell_length_b   7.10108944
_cell_length_c   8.03147000
_cell_angle_alpha   89.87669571
_cell_angle_beta   90.00000000
_cell_angle_gamma   90.00000000
_symmetry_Int_Tables_number   1
_chemical_formula_structural   La2Al2PdRh
_chemical_formula_sum   'La4 Al4 Pd2 Rh2'
_cell_volume   255.08972374
_cell_formula_units_Z   2
loop_
 _symmetry_equiv_pos_site_id
 _symmetry_equiv_pos_as_xyz
  1  'x, y, z'
loop_
 _atom_site_type_symbol
 _atom_site_label
 _atom_site_symmetry_multiplicity
 _atom_site_fract_x
 _atom_site_fract_y
 _atom_site_fract_z
 _atom_site_occupancy
  La  La0  1  0.250000  0.539865  0.182135  1
  La  La1  1  0.750000  0.460135  0.817865  1
  La  La2  1  0.750000  0.964030  0.675703  1
  La  La3  1  0.250000  0.035970  0.324297  1
  Al  Al4  1  0.250000  0.630060  0.561500  1
  Al  Al5  1  0.750000  0.369940  0.438500  1
  Al  Al6  1  0.750000  0.861534  0.064448  1
  Al  Al7  1  0.250000  0.138466  0.935552  1
  Pd  Pd8  1  0.250000  0.778056  0.881823  1
  Pd  Pd9  1  0.750000  0.221944  0.118177  1
  Rh  Rh10  1  0.750000  0.729745  0.385195  1
  Rh  Rh11  1  0.250000  0.270255  0.614805  1
