# generated using pymatgen
data_CoNF10
_symmetry_space_group_name_H-M   'P 1'
_cell_length_a   5.43218312
_cell_length_b   5.43218461
_cell_length_c   6.17365132
_cell_angle_alpha   90.98067212
_cell_angle_beta   89.01932311
_cell_angle_gamma   100.76565854
_symmetry_Int_Tables_number   1
_chemical_formula_structural   CoNF10
_chemical_formula_sum   'Co1 N1 F10'
_cell_volume   178.92535213
_cell_formula_units_Z   1
loop_
 _symmetry_equiv_pos_site_id
 _symmetry_equiv_pos_as_xyz
  1  'x, y, z'
loop_
 _atom_site_type_symbol
 _atom_site_label
 _atom_site_symmetry_multiplicity
 _atom_site_fract_x
 _atom_site_fract_y
 _atom_site_fract_z
 _atom_site_occupancy
  Co  Co0  1  0.312938  0.687063  0.240876  1
  N  N1  1  0.760761  0.239240  0.738429  1
  F  F2  1  0.156143  0.843858  0.049791  1
  F  F3  1  0.059456  0.434291  0.242650  1
  F  F4  1  0.565710  0.940545  0.242650  1
  F  F5  1  0.170858  0.829143  0.461174  1
  F  F6  1  0.470741  0.529260  0.430315  1
  F  F7  1  0.867571  0.132430  0.572888  1
  F  F8  1  0.511707  0.170674  0.727751  1
  F  F9  1  0.829327  0.488294  0.727751  1
  F  F10  1  0.839710  0.160291  0.924612  1
  F  F11  1  0.455084  0.544917  0.021111  1
