# generated using pymatgen
data_Li3Er3SnPb2
_symmetry_space_group_name_H-M   'P 1'
_cell_length_a   7.31293000
_cell_length_b   7.31292936
_cell_length_c   4.63143700
_cell_angle_alpha   90.00000000
_cell_angle_beta   90.00000000
_cell_angle_gamma   119.99999383
_symmetry_Int_Tables_number   1
_chemical_formula_structural   Li3Er3SnPb2
_chemical_formula_sum   'Li3 Er3 Sn1 Pb2'
_cell_volume   214.50094731
_cell_formula_units_Z   1
loop_
 _symmetry_equiv_pos_site_id
 _symmetry_equiv_pos_as_xyz
  1  'x, y, z'
loop_
 _atom_site_type_symbol
 _atom_site_label
 _atom_site_symmetry_multiplicity
 _atom_site_fract_x
 _atom_site_fract_y
 _atom_site_fract_z
 _atom_site_occupancy
  Li  Li0  1  0.237646  0.006765  0.500000  1
  Li  Li1  1  0.769120  0.762354  0.500000  1
  Li  Li2  1  0.993235  0.230880  0.500000  1
  Er  Er3  1  0.997663  0.558697  0.000000  1
  Er  Er4  1  0.561034  0.002337  0.000000  1
  Er  Er5  1  0.441303  0.438966  0.000000  1
  Sn  Sn6  1  0.666667  0.333333  0.500000  1
  Pb  Pb7  1  0.333333  0.666667  0.500000  1
  Pb  Pb8  1  0.000000  0.000000  0.000000  1
