# generated using pymatgen
data_Er3ZrHgAu4
_symmetry_space_group_name_H-M   'P 1'
_cell_length_a   7.94912870
_cell_length_b   7.94912992
_cell_length_c   7.94912900
_cell_angle_alpha   65.76167980
_cell_angle_beta   65.76167584
_cell_angle_gamma   65.76166793
_symmetry_Int_Tables_number   1
_chemical_formula_structural   Er3ZrHgAu4
_chemical_formula_sum   'Er6 Zr2 Hg2 Au8'
_cell_volume   399.55905453
_cell_formula_units_Z   2
loop_
 _symmetry_equiv_pos_site_id
 _symmetry_equiv_pos_as_xyz
  1  'x, y, z'
loop_
 _atom_site_type_symbol
 _atom_site_label
 _atom_site_symmetry_multiplicity
 _atom_site_fract_x
 _atom_site_fract_y
 _atom_site_fract_z
 _atom_site_occupancy
  Er  Er0  1  0.891877  0.189425  0.610580  1
  Er  Er1  1  0.610580  0.891877  0.189425  1
  Er  Er2  1  0.189425  0.610580  0.891877  1
  Er  Er3  1  0.108123  0.810575  0.389420  1
  Er  Er4  1  0.389420  0.108123  0.810575  1
  Er  Er5  1  0.810575  0.389420  0.108123  1
  Zr  Zr6  1  0.663055  0.663055  0.663055  1
  Zr  Zr7  1  0.336945  0.336945  0.336945  1
  Hg  Hg8  1  0.000000  0.000000  0.000000  1
  Hg  Hg9  1  0.500000  0.500000  0.500000  1
  Au  Au10  1  0.810446  0.810446  0.810446  1
  Au  Au11  1  0.189554  0.189554  0.189554  1
  Au  Au12  1  0.935275  0.551185  0.320008  1
  Au  Au13  1  0.320008  0.935275  0.551185  1
  Au  Au14  1  0.551185  0.320008  0.935275  1
  Au  Au15  1  0.064725  0.448815  0.679992  1
  Au  Au16  1  0.679992  0.064725  0.448815  1
  Au  Au17  1  0.448815  0.679992  0.064725  1
