# generated using pymatgen
data_Pr3Al6Ga4Ni
_symmetry_space_group_name_H-M   'P 1'
_cell_length_a   4.23808800
_cell_length_b   4.30525000
_cell_length_c   15.68416100
_cell_angle_alpha   90.00000000
_cell_angle_beta   90.00000000
_cell_angle_gamma   90.00000000
_symmetry_Int_Tables_number   1
_chemical_formula_structural   Pr3Al6Ga4Ni
_chemical_formula_sum   'Pr3 Al6 Ga4 Ni1'
_cell_volume   286.17364644
_cell_formula_units_Z   1
loop_
 _symmetry_equiv_pos_site_id
 _symmetry_equiv_pos_as_xyz
  1  'x, y, z'
loop_
 _atom_site_type_symbol
 _atom_site_label
 _atom_site_symmetry_multiplicity
 _atom_site_fract_x
 _atom_site_fract_y
 _atom_site_fract_z
 _atom_site_occupancy
  Pr  Pr0  1  0.000000  0.500000  0.500000  1
  Pr  Pr1  1  0.000000  0.000000  0.247433  1
  Pr  Pr2  1  0.000000  0.000000  0.752567  1
  Al  Al3  1  0.500000  0.000000  0.418657  1
  Al  Al4  1  0.500000  0.000000  0.581343  1
  Al  Al5  1  0.500000  0.000000  0.083895  1
  Al  Al6  1  0.500000  0.000000  0.916105  1
  Al  Al7  1  0.000000  0.500000  0.083574  1
  Al  Al8  1  0.000000  0.500000  0.916426  1
  Ga  Ga9  1  0.500000  0.500000  0.184207  1
  Ga  Ga10  1  0.500000  0.500000  0.815793  1
  Ga  Ga11  1  0.500000  0.500000  0.340380  1
  Ga  Ga12  1  0.500000  0.500000  0.659620  1
  Ni  Ni13  1  0.000000  0.000000  0.000000  1
