# generated using pymatgen
data_Dy4Ho4Sc12Si15Os
_symmetry_space_group_name_H-M   'P 1'
_cell_length_a   7.07074506
_cell_length_b   7.42674280
_cell_length_c   13.93001711
_cell_angle_alpha   90.00468773
_cell_angle_beta   89.98634533
_cell_angle_gamma   90.18674770
_symmetry_Int_Tables_number   1
_chemical_formula_structural   Dy4Ho4Sc12Si15Os
_chemical_formula_sum   'Dy4 Ho4 Sc12 Si15 Os1'
_cell_volume   731.49757719
_cell_formula_units_Z   1
loop_
 _symmetry_equiv_pos_site_id
 _symmetry_equiv_pos_as_xyz
  1  'x, y, z'
loop_
 _atom_site_type_symbol
 _atom_site_label
 _atom_site_symmetry_multiplicity
 _atom_site_fract_x
 _atom_site_fract_y
 _atom_site_fract_z
 _atom_site_occupancy
  Dy  Dy0  1  0.511647  0.323401  0.095768  1
  Dy  Dy1  1  0.011826  0.179470  0.403866  1
  Dy  Dy2  1  0.511673  0.323481  0.403728  1
  Dy  Dy3  1  0.488370  0.676114  0.595725  1
  Ho  Ho4  1  0.012140  0.179708  0.096203  1
  Ho  Ho5  1  0.990136  0.827460  0.903763  1
  Ho  Ho6  1  0.488030  0.676492  0.904084  1
  Ho  Ho7  1  0.990166  0.827524  0.596616  1
  Sc  Sc8  1  0.155625  0.497456  0.750230  1
  Sc  Sc9  1  0.839244  0.496286  0.249838  1
  Sc  Sc10  1  0.340288  0.006349  0.249786  1
  Sc  Sc11  1  0.667726  0.996515  0.750150  1
  Sc  Sc12  1  0.316434  0.170971  0.627810  1
  Sc  Sc13  1  0.673061  0.826620  0.373615  1
  Sc  Sc14  1  0.171924  0.678526  0.373994  1
  Sc  Sc15  1  0.672883  0.826401  0.126020  1
  Sc  Sc16  1  0.836803  0.318422  0.627975  1
  Sc  Sc17  1  0.316302  0.170970  0.872516  1
  Sc  Sc18  1  0.837076  0.318233  0.872505  1
  Sc  Sc19  1  0.172026  0.678466  0.125671  1
  Si  Si20  1  0.969926  0.885933  0.249757  1
  Si  Si21  1  0.470309  0.615154  0.249856  1
  Si  Si22  1  0.528338  0.388620  0.750225  1
  Si  Si23  1  0.285273  0.865586  0.750250  1
  Si  Si24  1  0.714418  0.131188  0.249636  1
  Si  Si25  1  0.214309  0.371433  0.249735  1
  Si  Si26  1  0.778104  0.626176  0.750346  1
  Si  Si27  1  0.159038  0.469095  0.537364  1
  Si  Si28  1  0.844782  0.536793  0.461725  1
  Si  Si29  1  0.345309  0.966022  0.460069  1
  Si  Si30  1  0.845059  0.536034  0.038343  1
  Si  Si31  1  0.655109  0.033984  0.538557  1
  Si  Si32  1  0.159674  0.468920  0.962698  1
  Si  Si33  1  0.654676  0.033286  0.961348  1
  Si  Si34  1  0.344777  0.965843  0.039892  1
  Os  Os35  1  0.027517  0.107071  0.750337  1
