# generated using pymatgen
data_Dy5Ga2Ru3
_symmetry_space_group_name_H-M   'P 1'
_cell_length_a   8.32233507
_cell_length_b   8.32233584
_cell_length_c   8.32233500
_cell_angle_alpha   109.47121371
_cell_angle_beta   109.47121558
_cell_angle_gamma   109.47122725
_symmetry_Int_Tables_number   1
_chemical_formula_structural   Dy5Ga2Ru3
_chemical_formula_sum   'Dy10 Ga4 Ru6'
_cell_volume   443.72486556
_cell_formula_units_Z   2
loop_
 _symmetry_equiv_pos_site_id
 _symmetry_equiv_pos_as_xyz
  1  'x, y, z'
loop_
 _atom_site_type_symbol
 _atom_site_label
 _atom_site_symmetry_multiplicity
 _atom_site_fract_x
 _atom_site_fract_y
 _atom_site_fract_z
 _atom_site_occupancy
  Dy  Dy0  1  0.000000  0.216569  0.000000  1
  Dy  Dy1  1  0.750000  0.432495  0.182496  1
  Dy  Dy2  1  0.432496  0.682497  0.250000  1
  Dy  Dy3  1  0.250000  0.067504  0.317505  1
  Dy  Dy4  1  0.216569  0.500001  0.500001  1
  Dy  Dy5  1  0.817504  0.250000  0.567504  1
  Dy  Dy6  1  0.500000  0.000000  0.716569  1
  Dy  Dy7  1  0.067504  0.817504  0.750000  1
  Dy  Dy8  1  0.283431  0.283431  0.783432  1
  Dy  Dy9  1  0.682497  0.750000  0.932496  1
  Ga  Ga10  1  0.000000  0.587327  0.000000  1
  Ga  Ga11  1  0.500000  0.000000  0.087327  1
  Ga  Ga12  1  0.912673  0.912673  0.412673  1
  Ga  Ga13  1  0.587327  0.500000  0.500000  1
  Ru  Ru14  1  0.375309  0.250000  0.125309  1
  Ru  Ru15  1  0.874692  0.124692  0.249999  1
  Ru  Ru16  1  0.124692  0.750000  0.374691  1
  Ru  Ru17  1  0.750000  0.874692  0.624692  1
  Ru  Ru18  1  0.625308  0.375309  0.750000  1
  Ru  Ru19  1  0.250000  0.625308  0.875309  1
