# generated using pymatgen
data_Pr8Mo(OsO8)3
_symmetry_space_group_name_H-M   'P 1'
_cell_length_a   5.47086632
_cell_length_b   9.43779382
_cell_length_c   10.30927648
_cell_angle_alpha   89.88958238
_cell_angle_beta   89.95131216
_cell_angle_gamma   89.96203938
_symmetry_Int_Tables_number   1
_chemical_formula_structural   Pr8Mo(OsO8)3
_chemical_formula_sum   'Pr8 Mo1 Os3 O24'
_cell_volume   532.29663115
_cell_formula_units_Z   1
loop_
 _symmetry_equiv_pos_site_id
 _symmetry_equiv_pos_as_xyz
  1  'x, y, z'
loop_
 _atom_site_type_symbol
 _atom_site_label
 _atom_site_symmetry_multiplicity
 _atom_site_fract_x
 _atom_site_fract_y
 _atom_site_fract_z
 _atom_site_occupancy
  Pr  Pr0  1  0.032389  0.215658  0.132713  1
  Pr  Pr1  1  0.465786  0.781254  0.631743  1
  Pr  Pr2  1  0.966243  0.715567  0.368216  1
  Pr  Pr3  1  0.529911  0.281810  0.868502  1
  Pr  Pr4  1  0.026287  0.102025  0.536450  1
  Pr  Pr5  1  0.474593  0.898062  0.038442  1
  Pr  Pr6  1  0.977030  0.605008  0.963918  1
  Pr  Pr7  1  0.526409  0.398923  0.460767  1
  Mo  Mo8  1  0.041823  0.494564  0.648890  1
  Os  Os9  1  0.543814  0.002375  0.355226  1
  Os  Os10  1  0.956123  0.997403  0.853706  1
  Os  Os11  1  0.456695  0.502456  0.144137  1
  O  O12  1  0.434897  0.149210  0.475806  1
  O  O13  1  0.065723  0.852509  0.978359  1
  O  O14  1  0.566427  0.649842  0.022491  1
  O  O15  1  0.932199  0.349162  0.524597  1
  O  O16  1  0.720262  0.389693  0.067492  1
  O  O17  1  0.777587  0.608510  0.564875  1
  O  O18  1  0.280091  0.889672  0.432447  1
  O  O19  1  0.219491  0.109410  0.932995  1
  O  O20  1  0.245414  0.409730  0.006916  1
  O  O21  1  0.251053  0.590730  0.509826  1
  O  O22  1  0.753984  0.909586  0.492261  1
  O  O23  1  0.744445  0.090775  0.991236  1
  O  O24  1  0.193386  0.634372  0.178000  1
  O  O25  1  0.309420  0.364435  0.676489  1
  O  O26  1  0.806394  0.133878  0.320879  1
  O  O27  1  0.693644  0.867347  0.822471  1
  O  O28  1  0.333721  0.055392  0.214990  1
  O  O29  1  0.169690  0.947150  0.713986  1
  O  O30  1  0.667080  0.555678  0.284459  1
  O  O31  1  0.832979  0.447651  0.786855  1
  O  O32  1  0.318745  0.364093  0.257009  1
  O  O33  1  0.182971  0.634761  0.759333  1
  O  O34  1  0.681003  0.864402  0.242383  1
  O  O35  1  0.822291  0.136904  0.741134  1
