# generated using pymatgen
data_Tm6Al16Os5Rh2
_symmetry_space_group_name_H-M   'P 1'
_cell_length_a   8.89522416
_cell_length_b   8.94103530
_cell_length_c   8.89522399
_cell_angle_alpha   59.82949328
_cell_angle_beta   60.28407002
_cell_angle_gamma   59.82948806
_symmetry_Int_Tables_number   1
_chemical_formula_structural   Tm6Al16Os5Rh2
_chemical_formula_sum   'Tm6 Al16 Os5 Rh2'
_cell_volume   500.01303572
_cell_formula_units_Z   1
loop_
 _symmetry_equiv_pos_site_id
 _symmetry_equiv_pos_as_xyz
  1  'x, y, z'
loop_
 _atom_site_type_symbol
 _atom_site_label
 _atom_site_symmetry_multiplicity
 _atom_site_fract_x
 _atom_site_fract_y
 _atom_site_fract_z
 _atom_site_occupancy
  Tm  Tm0  1  0.707366  0.713043  0.292634  1
  Tm  Tm1  1  0.290837  0.709163  0.290837  1
  Tm  Tm2  1  0.707366  0.286957  0.292634  1
  Tm  Tm3  1  0.292634  0.286957  0.707366  1
  Tm  Tm4  1  0.709163  0.290837  0.709163  1
  Tm  Tm5  1  0.292634  0.713043  0.707366  1
  Al  Al6  1  0.878746  0.877962  0.365330  1
  Al  Al7  1  0.878833  0.362952  0.878833  1
  Al  Al8  1  0.365330  0.877962  0.878746  1
  Al  Al9  1  0.878833  0.879382  0.878833  1
  Al  Al10  1  0.121254  0.122038  0.634670  1
  Al  Al11  1  0.121167  0.637048  0.121167  1
  Al  Al12  1  0.634670  0.122038  0.121254  1
  Al  Al13  1  0.121167  0.120618  0.121167  1
  Al  Al14  1  0.667338  0.667180  0.998302  1
  Al  Al15  1  0.668324  0.996433  0.668324  1
  Al  Al16  1  0.998302  0.667180  0.667338  1
  Al  Al17  1  0.668324  0.666918  0.668324  1
  Al  Al18  1  0.332662  0.332820  0.001698  1
  Al  Al19  1  0.331676  0.003567  0.331676  1
  Al  Al20  1  0.001698  0.332820  0.332662  1
  Al  Al21  1  0.331676  0.333082  0.331676  1
  Os  Os22  1  0.000000  0.000000  0.500000  1
  Os  Os23  1  0.500000  0.000000  0.500000  1
  Os  Os24  1  0.000000  0.500000  0.500000  1
  Os  Os25  1  0.500000  0.500000  0.000000  1
  Os  Os26  1  0.500000  0.000000  0.000000  1
  Rh  Rh27  1  0.000000  0.000000  0.000000  1
  Rh  Rh28  1  0.000000  0.500000  0.000000  1
