# generated using pymatgen
data_Nd3(WN3)2
_symmetry_space_group_name_H-M   'P 1'
_cell_length_a   3.99741880
_cell_length_b   3.99741905
_cell_length_c   10.18942615
_cell_angle_alpha   101.31221005
_cell_angle_beta   101.31221111
_cell_angle_gamma   90.00000468
_symmetry_Int_Tables_number   1
_chemical_formula_structural   Nd3(WN3)2
_chemical_formula_sum   'Nd3 W2 N6'
_cell_volume   156.43027327
_cell_formula_units_Z   1
loop_
 _symmetry_equiv_pos_site_id
 _symmetry_equiv_pos_as_xyz
  1  'x, y, z'
loop_
 _atom_site_type_symbol
 _atom_site_label
 _atom_site_symmetry_multiplicity
 _atom_site_fract_x
 _atom_site_fract_y
 _atom_site_fract_z
 _atom_site_occupancy
  Nd  Nd0  1  0.000000  0.000000  0.000000  1
  Nd  Nd1  1  0.182472  0.182472  0.364944  1
  Nd  Nd2  1  0.817528  0.817528  0.635055  1
  W  W3  1  0.595717  0.595717  0.191433  1
  W  W4  1  0.404283  0.404283  0.808567  1
  N  N5  1  0.587646  0.087646  0.175290  1
  N  N6  1  0.087646  0.587646  0.175290  1
  N  N7  1  0.697345  0.697345  0.394690  1
  N  N8  1  0.302655  0.302655  0.605310  1
  N  N9  1  0.912355  0.412355  0.824711  1
  N  N10  1  0.412355  0.912355  0.824711  1
