# generated using pymatgen
data_Pr8Tl3Pd8Pb
_symmetry_space_group_name_H-M   'P 1'
_cell_length_a   7.98070900
_cell_length_b   7.98070900
_cell_length_c   7.77197400
_cell_angle_alpha   90.00000000
_cell_angle_beta   90.00000000
_cell_angle_gamma   90.00000000
_symmetry_Int_Tables_number   1
_chemical_formula_structural   Pr8Tl3Pd8Pb
_chemical_formula_sum   'Pr8 Tl3 Pd8 Pb1'
_cell_volume   495.01036188
_cell_formula_units_Z   1
loop_
 _symmetry_equiv_pos_site_id
 _symmetry_equiv_pos_as_xyz
  1  'x, y, z'
loop_
 _atom_site_type_symbol
 _atom_site_label
 _atom_site_symmetry_multiplicity
 _atom_site_fract_x
 _atom_site_fract_y
 _atom_site_fract_z
 _atom_site_occupancy
  Pr  Pr0  1  0.174630  0.176964  0.999559  1
  Pr  Pr1  1  0.825370  0.823036  0.999559  1
  Pr  Pr2  1  0.676964  0.325370  0.500441  1
  Pr  Pr3  1  0.323036  0.674630  0.500441  1
  Pr  Pr4  1  0.676186  0.326243  0.999603  1
  Pr  Pr5  1  0.323814  0.673757  0.999603  1
  Pr  Pr6  1  0.826243  0.823814  0.500397  1
  Pr  Pr7  1  0.173757  0.176186  0.500397  1
  Tl  Tl8  1  0.500000  0.000000  0.750000  1
  Tl  Tl9  1  0.000000  0.500000  0.250000  1
  Tl  Tl10  1  0.000000  0.500000  0.750000  1
  Pd  Pd11  1  0.372576  0.380478  0.251118  1
  Pd  Pd12  1  0.623578  0.624709  0.748909  1
  Pd  Pd13  1  0.627424  0.619522  0.251118  1
  Pd  Pd14  1  0.875291  0.123578  0.751091  1
  Pd  Pd15  1  0.880478  0.127424  0.248882  1
  Pd  Pd16  1  0.376422  0.375291  0.748909  1
  Pd  Pd17  1  0.119522  0.872576  0.248882  1
  Pd  Pd18  1  0.124709  0.876422  0.751091  1
  Pb  Pb19  1  0.500000  0.000000  0.250000  1
