# generated using pymatgen
data_Yb2Dy3Ru2
_symmetry_space_group_name_H-M   'P 1'
_cell_length_a   8.50617793
_cell_length_b   8.50617803
_cell_length_c   7.30040096
_cell_angle_alpha   82.77545895
_cell_angle_beta   82.77545637
_cell_angle_gamma   43.90758255
_symmetry_Int_Tables_number   1
_chemical_formula_structural   Yb2Dy3Ru2
_chemical_formula_sum   'Yb4 Dy6 Ru4'
_cell_volume   362.93678619
_cell_formula_units_Z   2
loop_
 _symmetry_equiv_pos_site_id
 _symmetry_equiv_pos_as_xyz
  1  'x, y, z'
loop_
 _atom_site_type_symbol
 _atom_site_label
 _atom_site_symmetry_multiplicity
 _atom_site_fract_x
 _atom_site_fract_y
 _atom_site_fract_z
 _atom_site_occupancy
  Yb  Yb0  1  0.199670  0.986634  0.583840  1
  Yb  Yb1  1  0.013366  0.800330  0.916160  1
  Yb  Yb2  1  0.210391  0.354828  0.310316  1
  Yb  Yb3  1  0.645172  0.789609  0.189684  1
  Dy  Dy4  1  0.808583  0.620898  0.680887  1
  Dy  Dy5  1  0.379102  0.191417  0.819113  1
  Dy  Dy6  1  0.972009  0.203228  0.077066  1
  Dy  Dy7  1  0.796772  0.027991  0.422934  1
  Dy  Dy8  1  0.558273  0.441727  0.750000  1
  Dy  Dy9  1  0.413264  0.586736  0.250000  1
  Ru  Ru10  1  0.167413  0.590000  0.579434  1
  Ru  Ru11  1  0.410000  0.832587  0.920566  1
  Ru  Ru12  1  0.810915  0.384927  0.423700  1
  Ru  Ru13  1  0.615073  0.189085  0.076300  1
