# generated using pymatgen
data_Ho6Al24Ru5Pt3
_symmetry_space_group_name_H-M   'P 1'
_cell_length_a   8.84103718
_cell_length_b   8.83765384
_cell_length_c   9.50069160
_cell_angle_alpha   90.21726892
_cell_angle_beta   89.98818068
_cell_angle_gamma   119.81546769
_symmetry_Int_Tables_number   1
_chemical_formula_structural   Ho6Al24Ru5Pt3
_chemical_formula_sum   'Ho6 Al24 Ru5 Pt3'
_cell_volume   644.06052004
_cell_formula_units_Z   1
loop_
 _symmetry_equiv_pos_site_id
 _symmetry_equiv_pos_as_xyz
  1  'x, y, z'
loop_
 _atom_site_type_symbol
 _atom_site_label
 _atom_site_symmetry_multiplicity
 _atom_site_fract_x
 _atom_site_fract_y
 _atom_site_fract_z
 _atom_site_occupancy
  Ho  Ho0  1  0.190391  0.386622  0.251502  1
  Ho  Ho1  1  0.809609  0.613378  0.748498  1
  Ho  Ho2  1  0.613782  0.808437  0.250944  1
  Ho  Ho3  1  0.386218  0.191563  0.749056  1
  Ho  Ho4  1  0.192413  0.805220  0.250681  1
  Ho  Ho5  1  0.807587  0.194780  0.749319  1
  Al  Al6  1  0.327910  0.663556  0.027302  1
  Al  Al7  1  0.672090  0.336444  0.972698  1
  Al  Al8  1  0.669092  0.330472  0.524423  1
  Al  Al9  1  0.330908  0.669528  0.475577  1
  Al  Al10  1  0.157695  0.324572  0.577016  1
  Al  Al11  1  0.842305  0.675428  0.422984  1
  Al  Al12  1  0.676010  0.842406  0.577456  1
  Al  Al13  1  0.842185  0.675480  0.077302  1
  Al  Al14  1  0.323990  0.157594  0.422544  1
  Al  Al15  1  0.157815  0.324520  0.922698  1
  Al  Al16  1  0.162513  0.835863  0.576474  1
  Al  Al17  1  0.322022  0.161635  0.078891  1
  Al  Al18  1  0.837487  0.164137  0.423526  1
  Al  Al19  1  0.677978  0.838365  0.921109  1
  Al  Al20  1  0.842131  0.167527  0.077105  1
  Al  Al21  1  0.157869  0.832473  0.922895  1
  Al  Al22  1  0.562266  0.125299  0.253523  1
  Al  Al23  1  0.437734  0.874701  0.746477  1
  Al  Al24  1  0.877591  0.439272  0.249622  1
  Al  Al25  1  0.122409  0.560728  0.750378  1
  Al  Al26  1  0.563739  0.436681  0.249397  1
  Al  Al27  1  0.436261  0.563319  0.750603  1
  Al  Al28  1  0.997837  0.999955  0.250184  1
  Al  Al29  1  0.002163  0.000045  0.749816  1
  Ru  Ru30  1  0.000000  0.500000  0.000000  1
  Ru  Ru31  1  0.500000  0.000000  0.500000  1
  Ru  Ru32  1  0.000000  0.500000  0.500000  1
  Ru  Ru33  1  0.000000  0.000000  0.000000  1
  Ru  Ru34  1  0.000000  0.000000  0.500000  1
  Pt  Pt35  1  0.500000  0.000000  0.000000  1
  Pt  Pt36  1  0.500000  0.500000  0.000000  1
  Pt  Pt37  1  0.500000  0.500000  0.500000  1
