# generated using pymatgen
data_Ta5(MnP)4
_symmetry_space_group_name_H-M   'P 1'
_cell_length_a   7.20019560
_cell_length_b   7.20019589
_cell_length_c   7.20019529
_cell_angle_alpha   93.55706660
_cell_angle_beta   93.55706745
_cell_angle_gamma   151.15342773
_symmetry_Int_Tables_number   1
_chemical_formula_structural   Ta5(MnP)4
_chemical_formula_sum   'Ta5 Mn4 P4'
_cell_volume   174.41786086
_cell_formula_units_Z   1
loop_
 _symmetry_equiv_pos_site_id
 _symmetry_equiv_pos_as_xyz
  1  'x, y, z'
loop_
 _atom_site_type_symbol
 _atom_site_label
 _atom_site_symmetry_multiplicity
 _atom_site_fract_x
 _atom_site_fract_y
 _atom_site_fract_z
 _atom_site_occupancy
  Ta  Ta0  1  0.500000  0.500000  0.000000  1
  Ta  Ta1  1  0.800974  0.130049  0.931022  1
  Ta  Ta2  1  0.130049  0.199026  0.329075  1
  Ta  Ta3  1  0.869951  0.800974  0.670925  1
  Ta  Ta4  1  0.199026  0.869951  0.068978  1
  Mn  Mn5  1  0.925925  0.398361  0.324286  1
  Mn  Mn6  1  0.074075  0.601639  0.675714  1
  Mn  Mn7  1  0.601639  0.925925  0.527562  1
  Mn  Mn8  1  0.398361  0.074075  0.472438  1
  P  P9  1  0.556424  0.240581  0.797005  1
  P  P10  1  0.240581  0.443576  0.684156  1
  P  P11  1  0.759419  0.556424  0.315844  1
  P  P12  1  0.443576  0.759419  0.202995  1
