# generated using pymatgen
data_La5Sm(BiO7)2
_symmetry_space_group_name_H-M   'P 1'
_cell_length_a   6.81986964
_cell_length_b   6.84688112
_cell_length_c   8.03873083
_cell_angle_alpha   106.93326862
_cell_angle_beta   89.88588752
_cell_angle_gamma   98.42487182
_symmetry_Int_Tables_number   1
_chemical_formula_structural   La5Sm(BiO7)2
_chemical_formula_sum   'La5 Sm1 Bi2 O14'
_cell_volume   354.88962113
_cell_formula_units_Z   1
loop_
 _symmetry_equiv_pos_site_id
 _symmetry_equiv_pos_as_xyz
  1  'x, y, z'
loop_
 _atom_site_type_symbol
 _atom_site_label
 _atom_site_symmetry_multiplicity
 _atom_site_fract_x
 _atom_site_fract_y
 _atom_site_fract_z
 _atom_site_occupancy
  La  La0  1  0.534237  0.996644  0.746764  1
  La  La1  1  0.265317  0.533874  0.883183  1
  La  La2  1  0.733125  0.469298  0.120062  1
  La  La3  1  0.740644  0.482857  0.616336  1
  La  La4  1  0.259387  0.515134  0.379981  1
  Sm  Sm5  1  0.461324  0.003876  0.252837  1
  Bi  Bi6  1  0.999827  0.000236  0.498427  1
  Bi  Bi7  1  0.999319  0.000014  0.001994  1
  O  O8  1  0.442416  0.649592  0.168208  1
  O  O9  1  0.559798  0.357090  0.833955  1
  O  O10  1  0.296151  0.930955  0.960494  1
  O  O11  1  0.705003  0.067612  0.051597  1
  O  O12  1  0.292703  0.928711  0.505752  1
  O  O13  1  0.708175  0.069595  0.481296  1
  O  O14  1  0.542767  0.358558  0.343381  1
  O  O15  1  0.452787  0.636917  0.654203  1
  O  O16  1  0.923705  0.674697  0.952751  1
  O  O17  1  0.076478  0.325081  0.047443  1
  O  O18  1  0.072722  0.333425  0.613974  1
  O  O19  1  0.924379  0.665664  0.387307  1
  O  O20  1  0.894847  0.920791  0.729498  1
  O  O21  1  0.114890  0.079379  0.270556  1
