# generated using pymatgen
data_Gd3Ho(CrB4)4
_symmetry_space_group_name_H-M   'P 1'
_cell_length_a   3.45871500
_cell_length_b   5.95352003
_cell_length_c   11.50829564
_cell_angle_alpha   89.96408320
_cell_angle_beta   90.00000000
_cell_angle_gamma   90.00000000
_symmetry_Int_Tables_number   1
_chemical_formula_structural   Gd3Ho(CrB4)4
_chemical_formula_sum   'Gd3 Ho1 Cr4 B16'
_cell_volume   236.97335710
_cell_formula_units_Z   1
loop_
 _symmetry_equiv_pos_site_id
 _symmetry_equiv_pos_as_xyz
  1  'x, y, z'
loop_
 _atom_site_type_symbol
 _atom_site_label
 _atom_site_symmetry_multiplicity
 _atom_site_fract_x
 _atom_site_fract_y
 _atom_site_fract_z
 _atom_site_occupancy
  Gd  Gd0  1  0.000000  0.624056  0.349090  1
  Gd  Gd1  1  0.000000  0.375852  0.651197  1
  Gd  Gd2  1  0.000000  0.124074  0.150499  1
  Ho  Ho3  1  0.000000  0.875713  0.849175  1
  Cr  Cr4  1  0.000000  0.624062  0.079825  1
  Cr  Cr5  1  0.000000  0.376718  0.918821  1
  Cr  Cr6  1  0.000000  0.122999  0.420049  1
  Cr  Cr7  1  0.000000  0.876219  0.581364  1
  B  B8  1  0.500000  0.779810  0.183211  1
  B  B9  1  0.500000  0.218948  0.816215  1
  B  B10  1  0.500000  0.279672  0.316468  1
  B  B11  1  0.500000  0.720188  0.684672  1
  B  B12  1  0.500000  0.862446  0.031704  1
  B  B13  1  0.500000  0.137652  0.966886  1
  B  B14  1  0.500000  0.361675  0.467688  1
  B  B15  1  0.500000  0.638140  0.533057  1
  B  B16  1  0.500000  0.886924  0.453853  1
  B  B17  1  0.500000  0.112568  0.547015  1
  B  B18  1  0.500000  0.387397  0.045878  1
  B  B19  1  0.500000  0.614060  0.952757  1
  B  B20  1  0.500000  0.975219  0.309397  1
  B  B21  1  0.500000  0.024432  0.691879  1
  B  B22  1  0.500000  0.475308  0.190354  1
  B  B23  1  0.500000  0.525870  0.808947  1
