# generated using pymatgen
data_YbGaGeN3
_symmetry_space_group_name_H-M   'P 1'
_cell_length_a   5.22766900
_cell_length_b   5.90570828
_cell_length_c   5.87116507
_cell_angle_alpha   119.84405182
_cell_angle_beta   90.00000000
_cell_angle_gamma   90.00000000
_symmetry_Int_Tables_number   1
_chemical_formula_structural   YbGaGeN3
_chemical_formula_sum   'Yb2 Ga2 Ge2 N6'
_cell_volume   157.22272484
_cell_formula_units_Z   2
loop_
 _symmetry_equiv_pos_site_id
 _symmetry_equiv_pos_as_xyz
  1  'x, y, z'
loop_
 _atom_site_type_symbol
 _atom_site_label
 _atom_site_symmetry_multiplicity
 _atom_site_fract_x
 _atom_site_fract_y
 _atom_site_fract_z
 _atom_site_occupancy
  Yb  Yb0  1  0.996549  0.683518  0.681372  1
  Yb  Yb1  1  0.496549  0.316482  0.318628  1
  Ga  Ga2  1  0.529378  0.007463  0.667780  1
  Ga  Ga3  1  0.029378  0.992537  0.332220  1
  Ge  Ge4  1  0.524978  0.666564  0.010245  1
  Ge  Ge5  1  0.024978  0.333436  0.989755  1
  N  N6  1  0.468786  0.713057  0.723877  1
  N  N7  1  0.968786  0.286943  0.276123  1
  N  N8  1  0.896408  0.068833  0.672465  1
  N  N9  1  0.882102  0.656737  0.061700  1
  N  N10  1  0.396408  0.931167  0.327535  1
  N  N11  1  0.382102  0.343263  0.938300  1
