# generated using pymatgen
data_Li8Nd8Sn3Bi5
_symmetry_space_group_name_H-M   'P 1'
_cell_length_a   9.71447190
_cell_length_b   9.71853458
_cell_length_c   7.56174981
_cell_angle_alpha   89.99999640
_cell_angle_beta   89.91517418
_cell_angle_gamma   120.01383169
_symmetry_Int_Tables_number   1
_chemical_formula_structural   Li8Nd8Sn3Bi5
_chemical_formula_sum   'Li8 Nd8 Sn3 Bi5'
_cell_volume   618.17542203
_cell_formula_units_Z   1
loop_
 _symmetry_equiv_pos_site_id
 _symmetry_equiv_pos_as_xyz
  1  'x, y, z'
loop_
 _atom_site_type_symbol
 _atom_site_label
 _atom_site_symmetry_multiplicity
 _atom_site_fract_x
 _atom_site_fract_y
 _atom_site_fract_z
 _atom_site_occupancy
  Li  Li0  1  0.170829  0.336325  0.283672  1
  Li  Li1  1  0.170829  0.834505  0.283672  1
  Li  Li2  1  0.661706  0.830853  0.285684  1
  Li  Li3  1  0.830657  0.662442  0.785121  1
  Li  Li4  1  0.830657  0.168215  0.785121  1
  Li  Li5  1  0.338319  0.169159  0.787332  1
  Li  Li6  1  0.334105  0.667053  0.665937  1
  Li  Li7  1  0.662835  0.331417  0.167356  1
  Nd  Nd8  1  0.510510  0.028743  0.491625  1
  Nd  Nd9  1  0.510510  0.481768  0.491625  1
  Nd  Nd10  1  0.974860  0.487431  0.493541  1
  Nd  Nd11  1  0.484437  0.976230  0.996458  1
  Nd  Nd12  1  0.484437  0.508206  0.996458  1
  Nd  Nd13  1  0.025195  0.512597  0.994920  1
  Nd  Nd14  1  0.004930  0.002465  0.499535  1
  Nd  Nd15  1  0.005631  0.002816  0.004677  1
  Sn  Sn16  1  0.332709  0.166354  0.232944  1
  Sn  Sn17  1  0.332547  0.666274  0.262780  1
  Sn  Sn18  1  0.667441  0.333720  0.762800  1
  Bi  Bi19  1  0.166216  0.333143  0.734292  1
  Bi  Bi20  1  0.166216  0.833074  0.734292  1
  Bi  Bi21  1  0.666849  0.833425  0.734055  1
  Bi  Bi22  1  0.833786  0.666766  0.234039  1
  Bi  Bi23  1  0.833786  0.167019  0.234039  1
