# generated using pymatgen
data_Ce4Sm3Ho(Pt2Pb)4
_symmetry_space_group_name_H-M   'P 1'
_cell_length_a   8.00140305
_cell_length_b   8.00140290
_cell_length_c   7.33672600
_cell_angle_alpha   90.00000000
_cell_angle_beta   90.00000000
_cell_angle_gamma   89.86253550
_symmetry_Int_Tables_number   1
_chemical_formula_structural   Ce4Sm3Ho(Pt2Pb)4
_chemical_formula_sum   'Ce4 Sm3 Ho1 Pt8 Pb4'
_cell_volume   469.71381847
_cell_formula_units_Z   1
loop_
 _symmetry_equiv_pos_site_id
 _symmetry_equiv_pos_as_xyz
  1  'x, y, z'
loop_
 _atom_site_type_symbol
 _atom_site_label
 _atom_site_symmetry_multiplicity
 _atom_site_fract_x
 _atom_site_fract_y
 _atom_site_fract_z
 _atom_site_occupancy
  Ce  Ce0  1  0.674827  0.674827  0.000000  1
  Ce  Ce1  1  0.823833  0.176017  0.500000  1
  Ce  Ce2  1  0.323162  0.323162  0.000000  1
  Ce  Ce3  1  0.176017  0.823833  0.500000  1
  Sm  Sm4  1  0.663210  0.663210  0.500000  1
  Sm  Sm5  1  0.837482  0.164118  0.000000  1
  Sm  Sm6  1  0.164118  0.837482  0.000000  1
  Ho  Ho7  1  0.338607  0.338607  0.500000  1
  Pt  Pt8  1  0.873311  0.873311  0.736095  1
  Pt  Pt9  1  0.130718  0.130718  0.730628  1
  Pt  Pt10  1  0.625275  0.370616  0.761520  1
  Pt  Pt11  1  0.625275  0.370616  0.238480  1
  Pt  Pt12  1  0.370616  0.625275  0.238480  1
  Pt  Pt13  1  0.130718  0.130718  0.269372  1
  Pt  Pt14  1  0.873311  0.873311  0.263905  1
  Pt  Pt15  1  0.370616  0.625275  0.761520  1
  Pb  Pb16  1  0.499739  0.999714  0.749393  1
  Pb  Pb17  1  0.499739  0.999714  0.250607  1
  Pb  Pb18  1  0.999714  0.499739  0.749393  1
  Pb  Pb19  1  0.999714  0.499739  0.250607  1
