# generated using pymatgen
data_LaTh3(PPd14)2
_symmetry_space_group_name_H-M   'P 1'
_cell_length_a   9.03970000
_cell_length_b   9.03970000
_cell_length_c   7.08243000
_cell_angle_alpha   90.00000000
_cell_angle_beta   90.00000000
_cell_angle_gamma   90.00000000
_symmetry_Int_Tables_number   1
_chemical_formula_structural   LaTh3(PPd14)2
_chemical_formula_sum   'La1 Th3 P2 Pd28'
_cell_volume   578.74909703
_cell_formula_units_Z   1
loop_
 _symmetry_equiv_pos_site_id
 _symmetry_equiv_pos_as_xyz
  1  'x, y, z'
loop_
 _atom_site_type_symbol
 _atom_site_label
 _atom_site_symmetry_multiplicity
 _atom_site_fract_x
 _atom_site_fract_y
 _atom_site_fract_z
 _atom_site_occupancy
  La  La0  1  0.500000  0.000000  0.934722  1
  Th  Th1  1  0.000000  0.500000  0.068132  1
  Th  Th2  1  0.000000  0.000000  0.500683  1
  Th  Th3  1  0.500000  0.500000  0.500683  1
  P  P4  1  0.500000  0.000000  0.447079  1
  P  P5  1  0.000000  0.500000  0.555474  1
  Pd  Pd6  1  0.335896  0.835896  0.611789  1
  Pd  Pd7  1  0.335896  0.164104  0.611789  1
  Pd  Pd8  1  0.664104  0.835896  0.611789  1
  Pd  Pd9  1  0.664104  0.164104  0.611789  1
  Pd  Pd10  1  0.162856  0.662856  0.385685  1
  Pd  Pd11  1  0.162856  0.337144  0.385685  1
  Pd  Pd12  1  0.837144  0.662856  0.385685  1
  Pd  Pd13  1  0.837144  0.337144  0.385685  1
  Pd  Pd14  1  0.500000  0.769633  0.259940  1
  Pd  Pd15  1  0.500000  0.230367  0.259940  1
  Pd  Pd16  1  0.269633  0.000000  0.259940  1
  Pd  Pd17  1  0.730367  0.000000  0.259940  1
  Pd  Pd18  1  0.000000  0.728202  0.742229  1
  Pd  Pd19  1  0.000000  0.271798  0.742229  1
  Pd  Pd20  1  0.228202  0.500000  0.742229  1
  Pd  Pd21  1  0.771798  0.500000  0.742229  1
  Pd  Pd22  1  0.500000  0.349596  0.851579  1
  Pd  Pd23  1  0.500000  0.650404  0.851579  1
  Pd  Pd24  1  0.849596  0.000000  0.851579  1
  Pd  Pd25  1  0.150404  0.000000  0.851579  1
  Pd  Pd26  1  0.000000  0.150971  0.147384  1
  Pd  Pd27  1  0.000000  0.849029  0.147384  1
  Pd  Pd28  1  0.650971  0.500000  0.147384  1
  Pd  Pd29  1  0.349029  0.500000  0.147384  1
  Pd  Pd30  1  0.248619  0.748619  0.999700  1
  Pd  Pd31  1  0.248619  0.251381  0.999700  1
  Pd  Pd32  1  0.751381  0.748619  0.999700  1
  Pd  Pd33  1  0.751381  0.251381  0.999700  1
