# generated using pymatgen
data_Yb2ErPaPt4
_symmetry_space_group_name_H-M   'P 1'
_cell_length_a   4.40041700
_cell_length_b   5.64368692
_cell_length_c   7.18548166
_cell_angle_alpha   88.86529673
_cell_angle_beta   90.00000000
_cell_angle_gamma   90.00000000
_symmetry_Int_Tables_number   1
_chemical_formula_structural   Yb2ErPaPt4
_chemical_formula_sum   'Yb2 Er1 Pa1 Pt4'
_cell_volume   178.41339607
_cell_formula_units_Z   1
loop_
 _symmetry_equiv_pos_site_id
 _symmetry_equiv_pos_as_xyz
  1  'x, y, z'
loop_
 _atom_site_type_symbol
 _atom_site_label
 _atom_site_symmetry_multiplicity
 _atom_site_fract_x
 _atom_site_fract_y
 _atom_site_fract_z
 _atom_site_occupancy
  Yb  Yb0  1  0.750000  0.855360  0.815129  1
  Yb  Yb1  1  0.250000  0.357023  0.683229  1
  Er  Er2  1  0.750000  0.641932  0.322371  1
  Pa  Pa3  1  0.250000  0.141841  0.182810  1
  Pt  Pt4  1  0.750000  0.156512  0.435827  1
  Pt  Pt5  1  0.250000  0.848640  0.527717  1
  Pt  Pt6  1  0.250000  0.664385  0.059516  1
  Pt  Pt7  1  0.750000  0.334307  0.973402  1
