# generated using pymatgen
data_ZrGa11(RuRh)6
_symmetry_space_group_name_H-M   'P 1'
_cell_length_a   4.31201700
_cell_length_b   6.12536000
_cell_length_c   12.99203100
_cell_angle_alpha   90.00000000
_cell_angle_beta   90.00028728
_cell_angle_gamma   90.00000000
_symmetry_Int_Tables_number   1
_chemical_formula_structural   ZrGa11(RuRh)6
_chemical_formula_sum   'Zr1 Ga11 Ru6 Rh6'
_cell_volume   343.15405140
_cell_formula_units_Z   1
loop_
 _symmetry_equiv_pos_site_id
 _symmetry_equiv_pos_as_xyz
  1  'x, y, z'
loop_
 _atom_site_type_symbol
 _atom_site_label
 _atom_site_symmetry_multiplicity
 _atom_site_fract_x
 _atom_site_fract_y
 _atom_site_fract_z
 _atom_site_occupancy
  Zr  Zr0  1  0.500000  0.250483  0.000000  1
  Ga  Ga1  1  0.500000  0.750017  0.000000  1
  Ga  Ga2  1  0.000111  0.250087  0.165541  1
  Ga  Ga3  1  0.000127  0.750132  0.170305  1
  Ga  Ga4  1  0.500139  0.249306  0.334575  1
  Ga  Ga5  1  0.500138  0.750871  0.338160  1
  Ga  Ga6  1  0.000000  0.250214  0.500000  1
  Ga  Ga7  1  0.000000  0.749608  0.500000  1
  Ga  Ga8  1  0.499861  0.249306  0.665426  1
  Ga  Ga9  1  0.499862  0.750871  0.661841  1
  Ga  Ga10  1  0.999890  0.250087  0.834459  1
  Ga  Ga11  1  0.999874  0.750132  0.829695  1
  Ru  Ru12  1  0.000000  0.983397  0.000000  1
  Ru  Ru13  1  0.500108  0.507279  0.171960  1
  Ru  Ru14  1  0.000117  0.000700  0.333866  1
  Ru  Ru15  1  0.500000  0.500004  0.500000  1
  Ru  Ru16  1  0.999883  0.000700  0.666133  1
  Ru  Ru17  1  0.499893  0.507279  0.828040  1
  Rh  Rh18  1  0.000000  0.514122  0.000000  1
  Rh  Rh19  1  0.500118  0.994641  0.171290  1
  Rh  Rh20  1  0.000126  0.496909  0.333134  1
  Rh  Rh21  1  0.500000  0.002298  0.500000  1
  Rh  Rh22  1  0.999875  0.496909  0.666867  1
  Rh  Rh23  1  0.499882  0.994641  0.828709  1
