# generated using pymatgen
data_Tb8Ho4Co4SnPt
_symmetry_space_group_name_H-M   'P 1'
_cell_length_a   8.33149203
_cell_length_b   8.33149319
_cell_length_c   8.33149300
_cell_angle_alpha   111.30018861
_cell_angle_beta   110.28915415
_cell_angle_gamma   106.85721695
_symmetry_Int_Tables_number   1
_chemical_formula_structural   Tb8Ho4Co4SnPt
_chemical_formula_sum   'Tb8 Ho4 Co4 Sn1 Pt1'
_cell_volume   444.46383990
_cell_formula_units_Z   1
loop_
 _symmetry_equiv_pos_site_id
 _symmetry_equiv_pos_as_xyz
  1  'x, y, z'
loop_
 _atom_site_type_symbol
 _atom_site_label
 _atom_site_symmetry_multiplicity
 _atom_site_fract_x
 _atom_site_fract_y
 _atom_site_fract_z
 _atom_site_occupancy
  Tb  Tb0  1  0.413500  0.215177  0.198324  1
  Tb  Tb1  1  0.586500  0.784823  0.801676  1
  Tb  Tb2  1  0.016853  0.215177  0.801676  1
  Tb  Tb3  1  0.983147  0.784823  0.198324  1
  Tb  Tb4  1  0.184367  0.290859  0.475225  1
  Tb  Tb5  1  0.815633  0.709141  0.524775  1
  Tb  Tb6  1  0.184367  0.709141  0.893507  1
  Tb  Tb7  1  0.815633  0.290859  0.106493  1
  Ho  Ho8  1  0.317058  0.624639  0.307581  1
  Ho  Ho9  1  0.682942  0.375361  0.692419  1
  Ho  Ho10  1  0.317058  0.009477  0.692419  1
  Ho  Ho11  1  0.682942  0.990523  0.307581  1
  Co  Co12  1  0.376933  0.000000  0.376933  1
  Co  Co13  1  0.623067  0.000000  0.623067  1
  Co  Co14  1  0.112396  0.612396  0.500000  1
  Co  Co15  1  0.887604  0.387604  0.500000  1
  Sn  Sn16  1  0.500000  0.500000  0.000000  1
  Pt  Pt17  1  0.000000  0.000000  0.000000  1
