# generated using pymatgen
data_Tm2Co5P6Ru4Rh
_symmetry_space_group_name_H-M   'P 1'
_cell_length_a   3.75475900
_cell_length_b   10.52441900
_cell_length_c   12.03788200
_cell_angle_alpha   90.00000000
_cell_angle_beta   90.00000000
_cell_angle_gamma   90.00000000
_symmetry_Int_Tables_number   1
_chemical_formula_structural   Tm2Co5P6Ru4Rh
_chemical_formula_sum   'Tm4 Co10 P12 Ru8 Rh2'
_cell_volume   475.69685352
_cell_formula_units_Z   2
loop_
 _symmetry_equiv_pos_site_id
 _symmetry_equiv_pos_as_xyz
  1  'x, y, z'
loop_
 _atom_site_type_symbol
 _atom_site_label
 _atom_site_symmetry_multiplicity
 _atom_site_fract_x
 _atom_site_fract_y
 _atom_site_fract_z
 _atom_site_occupancy
  Tm  Tm0  1  0.250000  0.586125  0.709807  1
  Tm  Tm1  1  0.250000  0.913875  0.209807  1
  Tm  Tm2  1  0.750000  0.417449  0.292437  1
  Tm  Tm3  1  0.750000  0.082551  0.792437  1
  Co  Co4  1  0.750000  0.775544  0.821097  1
  Co  Co5  1  0.750000  0.724456  0.321097  1
  Co  Co6  1  0.250000  0.880553  0.697731  1
  Co  Co7  1  0.250000  0.619447  0.197731  1
  Co  Co8  1  0.750000  0.108552  0.302055  1
  Co  Co9  1  0.750000  0.391448  0.802055  1
  Co  Co10  1  0.250000  0.463346  0.933106  1
  Co  Co11  1  0.250000  0.036654  0.433106  1
  Co  Co12  1  0.750000  0.538170  0.066597  1
  Co  Co13  1  0.750000  0.961830  0.566597  1
  P  P14  1  0.250000  0.427502  0.112602  1
  P  P15  1  0.250000  0.072498  0.612602  1
  P  P16  1  0.750000  0.578642  0.887634  1
  P  P17  1  0.750000  0.921358  0.387634  1
  P  P18  1  0.250000  0.269880  0.870995  1
  P  P19  1  0.250000  0.230120  0.370995  1
  P  P20  1  0.750000  0.726072  0.137330  1
  P  P21  1  0.750000  0.773928  0.637330  1
  P  P22  1  0.250000  0.602504  0.381134  1
  P  P23  1  0.250000  0.897496  0.881134  1
  P  P24  1  0.750000  0.399041  0.614177  1
  P  P25  1  0.750000  0.100959  0.114177  1
  Ru  Ru26  1  0.250000  0.708344  0.981980  1
  Ru  Ru27  1  0.250000  0.791656  0.481980  1
  Ru  Ru28  1  0.750000  0.290452  0.009418  1
  Ru  Ru29  1  0.750000  0.209548  0.509418  1
  Ru  Ru30  1  0.250000  0.410173  0.484203  1
  Ru  Ru31  1  0.250000  0.089827  0.984203  1
  Ru  Ru32  1  0.250000  0.224243  0.179842  1
  Ru  Ru33  1  0.250000  0.275757  0.679842  1
  Rh  Rh34  1  0.750000  0.599380  0.517855  1
  Rh  Rh35  1  0.750000  0.900620  0.017855  1
