# generated using pymatgen
data_Nb4Co2PtSe12
_symmetry_space_group_name_H-M   'P 1'
_cell_length_a   7.58938136
_cell_length_b   7.58938056
_cell_length_c   19.50618762
_cell_angle_alpha   69.56519871
_cell_angle_beta   69.56520925
_cell_angle_gamma   25.83475306
_symmetry_Int_Tables_number   1
_chemical_formula_structural   Nb4Co2PtSe12
_chemical_formula_sum   'Nb4 Co2 Pt1 Se12'
_cell_volume   457.11991294
_cell_formula_units_Z   1
loop_
 _symmetry_equiv_pos_site_id
 _symmetry_equiv_pos_as_xyz
  1  'x, y, z'
loop_
 _atom_site_type_symbol
 _atom_site_label
 _atom_site_symmetry_multiplicity
 _atom_site_fract_x
 _atom_site_fract_y
 _atom_site_fract_z
 _atom_site_occupancy
  Nb  Nb0  1  0.739544  0.739544  0.590229  1
  Nb  Nb1  1  0.260456  0.260456  0.409771  1
  Nb  Nb2  1  0.618014  0.618014  0.850469  1
  Nb  Nb3  1  0.381986  0.381986  0.149531  1
  Co  Co4  1  0.778001  0.778001  0.280227  1
  Co  Co5  1  0.221999  0.221999  0.719773  1
  Pt  Pt6  1  0.000000  0.000000  0.000000  1
  Se  Se7  1  0.866146  0.866146  0.452332  1
  Se  Se8  1  0.027767  0.027767  0.117488  1
  Se  Se9  1  0.794981  0.794981  0.766557  1
  Se  Se10  1  0.393757  0.393757  0.280618  1
  Se  Se11  1  0.176468  0.176468  0.929240  1
  Se  Se12  1  0.606243  0.606243  0.719382  1
  Se  Se13  1  0.133854  0.133854  0.547668  1
  Se  Se14  1  0.823532  0.823532  0.070760  1
  Se  Se15  1  0.359536  0.359536  0.610648  1
  Se  Se16  1  0.972233  0.972233  0.882512  1
  Se  Se17  1  0.205019  0.205019  0.233443  1
  Se  Se18  1  0.640464  0.640464  0.389352  1
