# generated using pymatgen
data_HoEr5Th2(MgIr)2
_symmetry_space_group_name_H-M   'P 1'
_cell_length_a   9.75114677
_cell_length_b   9.75114591
_cell_length_c   9.74956500
_cell_angle_alpha   60.00535954
_cell_angle_beta   60.00536245
_cell_angle_gamma   59.98927807
_symmetry_Int_Tables_number   1
_chemical_formula_structural   HoEr5Th2(MgIr)2
_chemical_formula_sum   'Ho2 Er10 Th4 Mg4 Ir4'
_cell_volume   655.51338947
_cell_formula_units_Z   2
loop_
 _symmetry_equiv_pos_site_id
 _symmetry_equiv_pos_as_xyz
  1  'x, y, z'
loop_
 _atom_site_type_symbol
 _atom_site_label
 _atom_site_symmetry_multiplicity
 _atom_site_fract_x
 _atom_site_fract_y
 _atom_site_fract_z
 _atom_site_occupancy
  Ho  Ho0  1  0.565700  0.565700  0.934300  1
  Ho  Ho1  1  0.934300  0.934300  0.565700  1
  Er  Er2  1  0.813072  0.186928  0.186928  1
  Er  Er3  1  0.186928  0.813072  0.813072  1
  Er  Er4  1  0.186928  0.813072  0.186928  1
  Er  Er5  1  0.813072  0.186928  0.813072  1
  Er  Er6  1  0.186992  0.186992  0.813008  1
  Er  Er7  1  0.813008  0.813008  0.186992  1
  Er  Er8  1  0.934445  0.565555  0.565555  1
  Er  Er9  1  0.565555  0.934445  0.934445  1
  Er  Er10  1  0.565555  0.934445  0.565555  1
  Er  Er11  1  0.934445  0.565555  0.934445  1
  Th  Th12  1  0.348541  0.348541  0.348662  1
  Th  Th13  1  0.348541  0.348541  0.954255  1
  Th  Th14  1  0.348662  0.954255  0.348541  1
  Th  Th15  1  0.954255  0.348662  0.348541  1
  Mg  Mg16  1  0.580869  0.580869  0.580821  1
  Mg  Mg17  1  0.580869  0.580869  0.257439  1
  Mg  Mg18  1  0.580821  0.257439  0.580869  1
  Mg  Mg19  1  0.257439  0.580821  0.580869  1
  Ir  Ir20  1  0.142781  0.142781  0.142687  1
  Ir  Ir21  1  0.142781  0.142781  0.571753  1
  Ir  Ir22  1  0.142687  0.571753  0.142781  1
  Ir  Ir23  1  0.571753  0.142687  0.142781  1
