# generated using pymatgen
data_Ti2Nb(MoP)3
_symmetry_space_group_name_H-M   'P 1'
_cell_length_a   6.75282944
_cell_length_b   6.81614394
_cell_length_c   3.31343400
_cell_angle_alpha   90.00000000
_cell_angle_beta   90.00000000
_cell_angle_gamma   120.31065277
_symmetry_Int_Tables_number   1
_chemical_formula_structural   Ti2Nb(MoP)3
_chemical_formula_sum   'Ti2 Nb1 Mo3 P3'
_cell_volume   131.66352250
_cell_formula_units_Z   1
loop_
 _symmetry_equiv_pos_site_id
 _symmetry_equiv_pos_as_xyz
  1  'x, y, z'
loop_
 _atom_site_type_symbol
 _atom_site_label
 _atom_site_symmetry_multiplicity
 _atom_site_fract_x
 _atom_site_fract_y
 _atom_site_fract_z
 _atom_site_occupancy
  Ti  Ti0  1  0.400289  0.403733  0.500000  1
  Ti  Ti1  1  0.599711  0.003444  0.500000  1
  Nb  Nb2  1  0.000000  0.595952  0.500000  1
  Mo  Mo3  1  0.258427  0.000260  0.000000  1
  Mo  Mo4  1  0.741573  0.741833  0.000000  1
  Mo  Mo5  1  0.000000  0.255829  0.000000  1
  P  P6  1  0.662051  0.330376  0.000000  1
  P  P7  1  0.337949  0.668327  0.000000  1
  P  P8  1  0.000000  0.000246  0.500000  1
