# generated using pymatgen
data_Er3LuInPt11
_symmetry_space_group_name_H-M   'P 1'
_cell_length_a   4.16696500
_cell_length_b   5.81435933
_cell_length_c   11.61534505
_cell_angle_alpha   88.01454875
_cell_angle_beta   90.00000000
_cell_angle_gamma   90.00000000
_symmetry_Int_Tables_number   1
_chemical_formula_structural   Er3LuInPt11
_chemical_formula_sum   'Er3 Lu1 In1 Pt11'
_cell_volume   281.25032454
_cell_formula_units_Z   1
loop_
 _symmetry_equiv_pos_site_id
 _symmetry_equiv_pos_as_xyz
  1  'x, y, z'
loop_
 _atom_site_type_symbol
 _atom_site_label
 _atom_site_symmetry_multiplicity
 _atom_site_fract_x
 _atom_site_fract_y
 _atom_site_fract_z
 _atom_site_occupancy
  Er  Er0  1  0.500000  0.759039  0.376042  1
  Er  Er1  1  0.500000  0.714909  0.862368  1
  Er  Er2  1  0.500000  0.285077  0.137618  1
  Lu  Lu3  1  0.500000  0.240987  0.623866  1
  In  In4  1  0.000000  0.000015  0.999952  1
  Pt  Pt5  1  0.000000  0.019688  0.249795  1
  Pt  Pt6  1  0.000000  0.981114  0.749819  1
  Pt  Pt7  1  0.000000  0.499956  0.999946  1
  Pt  Pt8  1  0.000000  0.499240  0.500441  1
  Pt  Pt9  1  0.000000  0.521659  0.250111  1
  Pt  Pt10  1  0.000000  0.477575  0.749485  1
  Pt  Pt11  1  0.500000  0.258383  0.378010  1
  Pt  Pt12  1  0.500000  0.225835  0.879190  1
  Pt  Pt13  1  0.500000  0.774208  0.120396  1
  Pt  Pt14  1  0.500000  0.741589  0.622534  1
  Pt  Pt15  1  0.000000  0.000725  0.500428  1
