# generated using pymatgen
data_Ba2NaAlP3
_symmetry_space_group_name_H-M   'P 1'
_cell_length_a   8.41231387
_cell_length_b   8.41231549
_cell_length_c   12.16982873
_cell_angle_alpha   75.84422883
_cell_angle_beta   75.84422947
_cell_angle_gamma   67.74888331
_symmetry_Int_Tables_number   1
_chemical_formula_structural   Ba2NaAlP3
_chemical_formula_sum   'Ba8 Na4 Al4 P12'
_cell_volume   761.72646559
_cell_formula_units_Z   4
loop_
 _symmetry_equiv_pos_site_id
 _symmetry_equiv_pos_as_xyz
  1  'x, y, z'
loop_
 _atom_site_type_symbol
 _atom_site_label
 _atom_site_symmetry_multiplicity
 _atom_site_fract_x
 _atom_site_fract_y
 _atom_site_fract_z
 _atom_site_occupancy
  Ba  Ba0  1  0.746212  0.193273  0.686631  1
  Ba  Ba1  1  0.253788  0.806727  0.313369  1
  Ba  Ba2  1  0.193273  0.746212  0.686631  1
  Ba  Ba3  1  0.500000  0.000000  0.500000  1
  Ba  Ba4  1  0.806727  0.253788  0.313369  1
  Ba  Ba5  1  0.000000  0.500000  0.000000  1
  Ba  Ba6  1  0.500000  0.000000  0.000000  1
  Ba  Ba7  1  0.000000  0.500000  0.500000  1
  Na  Na8  1  0.301364  0.698636  0.000000  1
  Na  Na9  1  0.357791  0.357791  0.229788  1
  Na  Na10  1  0.642209  0.642209  0.770212  1
  Na  Na11  1  0.698636  0.301364  0.000000  1
  Al  Al12  1  0.698375  0.698375  0.262472  1
  Al  Al13  1  0.091347  0.091347  0.884178  1
  Al  Al14  1  0.908653  0.908653  0.115822  1
  Al  Al15  1  0.301625  0.301625  0.737528  1
  P  P16  1  0.013835  0.619163  0.227139  1
  P  P17  1  0.589500  0.589500  0.138874  1
  P  P18  1  0.986165  0.380837  0.772861  1
  P  P19  1  0.083183  0.083183  0.487672  1
  P  P20  1  0.584311  0.584311  0.483037  1
  P  P21  1  0.915815  0.915815  0.911819  1
  P  P22  1  0.084185  0.084185  0.088181  1
  P  P23  1  0.410500  0.410500  0.861126  1
  P  P24  1  0.619163  0.013835  0.227139  1
  P  P25  1  0.916817  0.916817  0.512328  1
  P  P26  1  0.380837  0.986165  0.772861  1
  P  P27  1  0.415689  0.415689  0.516963  1
