# generated using pymatgen
data_Hf9TiFeRe3
_symmetry_space_group_name_H-M   'P 1'
_cell_length_a   8.61977500
_cell_length_b   8.61977464
_cell_length_c   8.39402700
_cell_angle_alpha   90.00000000
_cell_angle_beta   90.00000000
_cell_angle_gamma   119.99999754
_symmetry_Int_Tables_number   1
_chemical_formula_structural   Hf9TiFeRe3
_chemical_formula_sum   'Hf18 Ti2 Fe2 Re6'
_cell_volume   540.12321693
_cell_formula_units_Z   2
loop_
 _symmetry_equiv_pos_site_id
 _symmetry_equiv_pos_as_xyz
  1  'x, y, z'
loop_
 _atom_site_type_symbol
 _atom_site_label
 _atom_site_symmetry_multiplicity
 _atom_site_fract_x
 _atom_site_fract_y
 _atom_site_fract_z
 _atom_site_occupancy
  Hf  Hf0  1  0.201111  0.798889  0.441104  1
  Hf  Hf1  1  0.201111  0.402222  0.441104  1
  Hf  Hf2  1  0.597778  0.798889  0.441104  1
  Hf  Hf3  1  0.798889  0.201111  0.558896  1
  Hf  Hf4  1  0.798889  0.597778  0.558896  1
  Hf  Hf5  1  0.402222  0.201111  0.558896  1
  Hf  Hf6  1  0.798889  0.201111  0.941104  1
  Hf  Hf7  1  0.798889  0.597778  0.941104  1
  Hf  Hf8  1  0.402222  0.201111  0.941104  1
  Hf  Hf9  1  0.201111  0.798889  0.058896  1
  Hf  Hf10  1  0.201111  0.402222  0.058896  1
  Hf  Hf11  1  0.597778  0.798889  0.058896  1
  Hf  Hf12  1  0.541516  0.458484  0.250000  1
  Hf  Hf13  1  0.541516  0.083033  0.250000  1
  Hf  Hf14  1  0.916967  0.458484  0.250000  1
  Hf  Hf15  1  0.458484  0.541516  0.750000  1
  Hf  Hf16  1  0.458484  0.916967  0.750000  1
  Hf  Hf17  1  0.083033  0.541516  0.750000  1
  Ti  Ti18  1  0.000000  0.000000  0.500000  1
  Ti  Ti19  1  0.000000  0.000000  0.000000  1
  Fe  Fe20  1  0.333333  0.666667  0.250000  1
  Fe  Fe21  1  0.666667  0.333333  0.750000  1
  Re  Re22  1  0.886406  0.113594  0.250000  1
  Re  Re23  1  0.886406  0.772813  0.250000  1
  Re  Re24  1  0.227187  0.113594  0.250000  1
  Re  Re25  1  0.113594  0.886406  0.750000  1
  Re  Re26  1  0.113594  0.227187  0.750000  1
  Re  Re27  1  0.772813  0.886406  0.750000  1
