# generated using pymatgen
data_Dy3HoHgRh
_symmetry_space_group_name_H-M   'P 1'
_cell_length_a   9.58066998
_cell_length_b   9.58067107
_cell_length_c   9.58297009
_cell_angle_alpha   59.97899238
_cell_angle_beta   59.97898934
_cell_angle_gamma   59.97586847
_symmetry_Int_Tables_number   1
_chemical_formula_structural   Dy3HoHgRh
_chemical_formula_sum   'Dy12 Ho4 Hg4 Rh4'
_cell_volume   621.66976312
_cell_formula_units_Z   4
loop_
 _symmetry_equiv_pos_site_id
 _symmetry_equiv_pos_as_xyz
  1  'x, y, z'
loop_
 _atom_site_type_symbol
 _atom_site_label
 _atom_site_symmetry_multiplicity
 _atom_site_fract_x
 _atom_site_fract_y
 _atom_site_fract_z
 _atom_site_occupancy
  Dy  Dy0  1  0.148407  0.148407  0.553801  1
  Dy  Dy1  1  0.563621  0.936755  0.563176  1
  Dy  Dy2  1  0.148891  0.148891  0.149257  1
  Dy  Dy3  1  0.310645  0.310645  0.689591  1
  Dy  Dy4  1  0.936755  0.563621  0.563176  1
  Dy  Dy5  1  0.563283  0.563283  0.936996  1
  Dy  Dy6  1  0.563140  0.936498  0.936739  1
  Dy  Dy7  1  0.936498  0.563140  0.936739  1
  Dy  Dy8  1  0.148228  0.553965  0.148590  1
  Dy  Dy9  1  0.310984  0.689566  0.689168  1
  Dy  Dy10  1  0.689566  0.310984  0.689168  1
  Dy  Dy11  1  0.553965  0.148228  0.148590  1
  Ho  Ho12  1  0.689735  0.310749  0.310592  1
  Ho  Ho13  1  0.689293  0.689293  0.310930  1
  Ho  Ho14  1  0.310749  0.689735  0.310592  1
  Ho  Ho15  1  0.936720  0.936720  0.562855  1
  Hg  Hg16  1  0.915072  0.915072  0.254929  1
  Hg  Hg17  1  0.254707  0.915054  0.915164  1
  Hg  Hg18  1  0.915054  0.254707  0.915164  1
  Hg  Hg19  1  0.915257  0.915257  0.915154  1
  Rh  Rh20  1  0.357589  0.357589  0.357379  1
  Rh  Rh21  1  0.927670  0.357124  0.357088  1
  Rh  Rh22  1  0.357047  0.357047  0.928074  1
  Rh  Rh23  1  0.357124  0.927670  0.357088  1
