# generated using pymatgen
data_Tb20Si12N
_symmetry_space_group_name_H-M   'P 1'
_cell_length_a   14.71969600
_cell_length_b   6.40793018
_cell_length_c   8.44801101
_cell_angle_alpha   89.88625838
_cell_angle_beta   90.00000000
_cell_angle_gamma   90.00000000
_symmetry_Int_Tables_number   1
_chemical_formula_structural   Tb20Si12N
_chemical_formula_sum   'Tb20 Si12 N1'
_cell_volume   796.83834920
_cell_formula_units_Z   1
loop_
 _symmetry_equiv_pos_site_id
 _symmetry_equiv_pos_as_xyz
  1  'x, y, z'
loop_
 _atom_site_type_symbol
 _atom_site_label
 _atom_site_symmetry_multiplicity
 _atom_site_fract_x
 _atom_site_fract_y
 _atom_site_fract_z
 _atom_site_occupancy
  Tb  Tb0  1  0.664028  0.500000  0.500000  1
  Tb  Tb1  1  0.170305  0.500000  0.000000  1
  Tb  Tb2  1  0.829695  0.500000  0.000000  1
  Tb  Tb3  1  0.335972  0.500000  0.500000  1
  Tb  Tb4  1  0.839038  0.000000  0.000000  1
  Tb  Tb5  1  0.328740  0.000000  0.500000  1
  Tb  Tb6  1  0.671260  0.000000  0.500000  1
  Tb  Tb7  1  0.160962  0.000000  0.000000  1
  Tb  Tb8  1  0.500000  0.246595  0.754257  1
  Tb  Tb9  1  0.000000  0.274915  0.267541  1
  Tb  Tb10  1  0.621013  0.248238  0.122607  1
  Tb  Tb11  1  0.116686  0.268576  0.619435  1
  Tb  Tb12  1  0.883314  0.268576  0.619435  1
  Tb  Tb13  1  0.378987  0.248238  0.122607  1
  Tb  Tb14  1  0.000000  0.725085  0.732459  1
  Tb  Tb15  1  0.500000  0.753405  0.245743  1
  Tb  Tb16  1  0.883314  0.731424  0.380565  1
  Tb  Tb17  1  0.378987  0.751762  0.877393  1
  Tb  Tb18  1  0.621013  0.751762  0.877393  1
  Tb  Tb19  1  0.116686  0.731424  0.380565  1
  Si  Si20  1  0.000000  0.263389  0.901616  1
  Si  Si21  1  0.500000  0.242641  0.396179  1
  Si  Si22  1  0.800769  0.255503  0.300898  1
  Si  Si23  1  0.301639  0.246085  0.801723  1
  Si  Si24  1  0.698361  0.246085  0.801723  1
  Si  Si25  1  0.199231  0.255503  0.300898  1
  Si  Si26  1  0.500000  0.757359  0.603821  1
  Si  Si27  1  0.000000  0.736611  0.098384  1
  Si  Si28  1  0.698361  0.753915  0.198277  1
  Si  Si29  1  0.199231  0.744497  0.699102  1
  Si  Si30  1  0.800769  0.744497  0.699102  1
  Si  Si31  1  0.301639  0.753915  0.198277  1
  N  N32  1  0.000000  0.500000  0.500000  1
