# generated using pymatgen
data_TbNd4P12Pd3Ru16
_symmetry_space_group_name_H-M   'P 1'
_cell_length_a   4.01173900
_cell_length_b   12.68402629
_cell_length_c   12.68285404
_cell_angle_alpha   120.00065507
_cell_angle_beta   90.00000000
_cell_angle_gamma   90.00000000
_symmetry_Int_Tables_number   1
_chemical_formula_structural   TbNd4P12Pd3Ru16
_chemical_formula_sum   'Tb1 Nd4 P12 Pd3 Ru16'
_cell_volume   558.90058367
_cell_formula_units_Z   1
loop_
 _symmetry_equiv_pos_site_id
 _symmetry_equiv_pos_as_xyz
  1  'x, y, z'
loop_
 _atom_site_type_symbol
 _atom_site_label
 _atom_site_symmetry_multiplicity
 _atom_site_fract_x
 _atom_site_fract_y
 _atom_site_fract_z
 _atom_site_occupancy
  Tb  Tb0  1  0.000000  0.666699  0.333390  1
  Nd  Nd1  1  0.500000  0.999845  0.181807  1
  Nd  Nd2  1  0.500000  0.181935  0.000132  1
  Nd  Nd3  1  0.500000  0.818109  0.818080  1
  Nd  Nd4  1  0.000000  0.333322  0.666669  1
  P  P5  1  0.000000  0.999392  0.811131  1
  P  P6  1  0.000000  0.811724  0.000623  1
  P  P7  1  0.000000  0.188944  0.188194  1
  P  P8  1  0.500000  0.299609  0.478011  1
  P  P9  1  0.500000  0.178414  0.700353  1
  P  P10  1  0.500000  0.521928  0.821589  1
  P  P11  1  0.500000  0.819434  0.519302  1
  P  P12  1  0.500000  0.480738  0.300165  1
  P  P13  1  0.500000  0.699846  0.180581  1
  P  P14  1  0.000000  0.000111  0.368635  1
  P  P15  1  0.000000  0.368567  0.999881  1
  P  P16  1  0.000000  0.631349  0.631467  1
  Pd  Pd17  1  0.000000  0.000055  0.553503  1
  Pd  Pd18  1  0.000000  0.553453  0.999952  1
  Pd  Pd19  1  0.000000  0.446515  0.446566  1
  Ru  Ru20  1  0.500000  0.999102  0.710009  1
  Ru  Ru21  1  0.500000  0.710870  0.000914  1
  Ru  Ru22  1  0.500000  0.290026  0.289070  1
  Ru  Ru23  1  0.000000  0.194139  0.379348  1
  Ru  Ru24  1  0.000000  0.185269  0.805849  1
  Ru  Ru25  1  0.000000  0.620561  0.814740  1
  Ru  Ru26  1  0.000000  0.813271  0.618423  1
  Ru  Ru27  1  0.000000  0.381628  0.194858  1
  Ru  Ru28  1  0.000000  0.805134  0.186769  1
  Ru  Ru29  1  0.500000  0.122082  0.491276  1
  Ru  Ru30  1  0.500000  0.369210  0.877894  1
  Ru  Ru31  1  0.500000  0.508618  0.630741  1
  Ru  Ru32  1  0.500000  0.630182  0.505839  1
  Ru  Ru33  1  0.500000  0.494225  0.124373  1
  Ru  Ru34  1  0.500000  0.875605  0.369871  1
  Ru  Ru35  1  0.000000  0.999988  0.999999  1
