# generated using pymatgen
data_GaSb2(TeBr2)2
_symmetry_space_group_name_H-M   'P 1'
_cell_length_a   10.16231101
_cell_length_b   12.21929672
_cell_length_c   13.27516632
_cell_angle_alpha   65.29819290
_cell_angle_beta   77.70393879
_cell_angle_gamma   72.26040900
_symmetry_Int_Tables_number   1
_chemical_formula_structural   GaSb2(TeBr2)2
_chemical_formula_sum   'Ga4 Sb8 Te8 Br16'
_cell_volume   1419.40616989
_cell_formula_units_Z   4
loop_
 _symmetry_equiv_pos_site_id
 _symmetry_equiv_pos_as_xyz
  1  'x, y, z'
loop_
 _atom_site_type_symbol
 _atom_site_label
 _atom_site_symmetry_multiplicity
 _atom_site_fract_x
 _atom_site_fract_y
 _atom_site_fract_z
 _atom_site_occupancy
  Ga  Ga0  1  0.792906  0.314570  0.547258  1
  Ga  Ga1  1  0.207094  0.685430  0.452742  1
  Ga  Ga2  1  0.886199  0.808233  0.022253  1
  Ga  Ga3  1  0.113801  0.191767  0.977747  1
  Sb  Sb4  1  0.351484  0.987680  0.426909  1
  Sb  Sb5  1  0.648516  0.012320  0.573091  1
  Sb  Sb6  1  0.557331  0.620984  0.679515  1
  Sb  Sb7  1  0.442669  0.379016  0.320485  1
  Sb  Sb8  1  0.568390  0.859660  0.808339  1
  Sb  Sb9  1  0.431610  0.140340  0.191661  1
  Sb  Sb10  1  0.704968  0.432563  0.007995  1
  Sb  Sb11  1  0.295032  0.567437  0.992005  1
  Te  Te12  1  0.627933  0.846728  0.473411  1
  Te  Te13  1  0.372067  0.153272  0.526589  1
  Te  Te14  1  0.346224  0.791119  0.761077  1
  Te  Te15  1  0.653776  0.208881  0.238923  1
  Te  Te16  1  0.764722  0.649103  0.778825  1
  Te  Te17  1  0.235278  0.350897  0.221175  1
  Te  Te18  1  0.506139  0.392333  0.913164  1
  Te  Te19  1  0.493861  0.607667  0.086836  1
  Br  Br20  1  0.712942  0.444377  0.370209  1
  Br  Br21  1  0.287058  0.555623  0.629791  1
  Br  Br22  1  0.607513  0.231630  0.668998  1
  Br  Br23  1  0.392487  0.768370  0.331002  1
  Br  Br24  1  0.853742  0.438067  0.620061  1
  Br  Br25  1  0.146258  0.561933  0.379939  1
  Br  Br26  1  0.983404  0.154918  0.529907  1
  Br  Br27  1  0.016596  0.845082  0.470093  1
  Br  Br28  1  0.886761  0.596947  0.075827  1
  Br  Br29  1  0.113239  0.403053  0.924173  1
  Br  Br30  1  0.866134  0.910003  0.827646  1
  Br  Br31  1  0.133866  0.089997  0.172354  1
  Br  Br32  1  0.107172  0.810010  0.053685  1
  Br  Br33  1  0.892828  0.189990  0.946315  1
  Br  Br34  1  0.703645  0.898246  0.126382  1
  Br  Br35  1  0.296355  0.101754  0.873618  1
