# generated using pymatgen
data_Tb3Tm(CuP)6
_symmetry_space_group_name_H-M   'P 1'
_cell_length_a   3.85413400
_cell_length_b   10.68142100
_cell_length_c   12.93528600
_cell_angle_alpha   90.00000000
_cell_angle_beta   90.00000000
_cell_angle_gamma   90.00000000
_symmetry_Int_Tables_number   1
_chemical_formula_structural   Tb3Tm(CuP)6
_chemical_formula_sum   'Tb6 Tm2 Cu12 P12'
_cell_volume   532.51504011
_cell_formula_units_Z   2
loop_
 _symmetry_equiv_pos_site_id
 _symmetry_equiv_pos_as_xyz
  1  'x, y, z'
loop_
 _atom_site_type_symbol
 _atom_site_label
 _atom_site_symmetry_multiplicity
 _atom_site_fract_x
 _atom_site_fract_y
 _atom_site_fract_z
 _atom_site_occupancy
  Tb  Tb0  1  0.250000  0.931691  0.793526  1
  Tb  Tb1  1  0.750000  0.431691  0.706474  1
  Tb  Tb2  1  0.250000  0.568306  0.291658  1
  Tb  Tb3  1  0.750000  0.068306  0.208342  1
  Tb  Tb4  1  0.250000  0.841059  0.503480  1
  Tb  Tb5  1  0.750000  0.341059  0.996520  1
  Tm  Tm6  1  0.250000  0.658840  0.002981  1
  Tm  Tm7  1  0.750000  0.158840  0.497019  1
  Cu  Cu8  1  0.250000  0.403705  0.512343  1
  Cu  Cu9  1  0.750000  0.903705  0.987657  1
  Cu  Cu10  1  0.250000  0.095569  0.012426  1
  Cu  Cu11  1  0.750000  0.595569  0.487574  1
  Cu  Cu12  1  0.250000  0.271175  0.332420  1
  Cu  Cu13  1  0.750000  0.771175  0.167580  1
  Cu  Cu14  1  0.250000  0.229304  0.830574  1
  Cu  Cu15  1  0.750000  0.729304  0.669426  1
  Cu  Cu16  1  0.250000  0.859592  0.280863  1
  Cu  Cu17  1  0.750000  0.359592  0.219137  1
  Cu  Cu18  1  0.250000  0.641592  0.781461  1
  Cu  Cu19  1  0.750000  0.141592  0.718539  1
  P  P20  1  0.250000  0.241298  0.641089  1
  P  P21  1  0.750000  0.741298  0.858911  1
  P  P22  1  0.250000  0.257197  0.143578  1
  P  P23  1  0.750000  0.757197  0.356422  1
  P  P24  1  0.250000  0.604661  0.601975  1
  P  P25  1  0.750000  0.104661  0.898025  1
  P  P26  1  0.250000  0.893910  0.101171  1
  P  P27  1  0.750000  0.393910  0.398829  1
  P  P28  1  0.250000  0.057280  0.371488  1
  P  P29  1  0.750000  0.557280  0.128512  1
  P  P30  1  0.250000  0.444821  0.868907  1
  P  P31  1  0.750000  0.944821  0.631093  1
