# generated using pymatgen
data_LiPt3O8
_symmetry_space_group_name_H-M   'P 1'
_cell_length_a   4.60957600
_cell_length_b   5.52069299
_cell_length_c   10.47894711
_cell_angle_alpha   81.86074549
_cell_angle_beta   90.00000000
_cell_angle_gamma   90.00000000
_symmetry_Int_Tables_number   1
_chemical_formula_structural   LiPt3O8
_chemical_formula_sum   'Li2 Pt6 O16'
_cell_volume   263.98262695
_cell_formula_units_Z   2
loop_
 _symmetry_equiv_pos_site_id
 _symmetry_equiv_pos_as_xyz
  1  'x, y, z'
loop_
 _atom_site_type_symbol
 _atom_site_label
 _atom_site_symmetry_multiplicity
 _atom_site_fract_x
 _atom_site_fract_y
 _atom_site_fract_z
 _atom_site_occupancy
  Li  Li0  1  0.500000  0.000000  0.500000  1
  Li  Li1  1  0.000000  0.000000  0.000000  1
  Pt  Pt2  1  0.500000  0.500000  0.000000  1
  Pt  Pt3  1  0.000000  0.500000  0.500000  1
  Pt  Pt4  1  0.983168  0.758172  0.752355  1
  Pt  Pt5  1  0.483168  0.241828  0.747645  1
  Pt  Pt6  1  0.016832  0.241828  0.247645  1
  Pt  Pt7  1  0.516832  0.758172  0.252355  1
  O  O8  1  0.319903  0.769256  0.081786  1
  O  O9  1  0.819903  0.230744  0.418214  1
  O  O10  1  0.680097  0.230744  0.918214  1
  O  O11  1  0.180097  0.769256  0.581786  1
  O  O12  1  0.212208  0.514653  0.328929  1
  O  O13  1  0.712208  0.485347  0.171071  1
  O  O14  1  0.787792  0.485347  0.671071  1
  O  O15  1  0.287792  0.514653  0.828929  1
  O  O16  1  0.701599  0.731097  0.425245  1
  O  O17  1  0.201599  0.268903  0.074755  1
  O  O18  1  0.298401  0.268903  0.574755  1
  O  O19  1  0.798401  0.731097  0.925245  1
  O  O20  1  0.186372  0.019230  0.828214  1
  O  O21  1  0.686372  0.980770  0.671786  1
  O  O22  1  0.813628  0.980770  0.171786  1
  O  O23  1  0.313628  0.019230  0.328214  1
