# generated using pymatgen
data_TbPa(Al4Fe)2
_symmetry_space_group_name_H-M   'P 1'
_cell_length_a   7.53065900
_cell_length_b   4.08917100
_cell_length_c   6.66412600
_cell_angle_alpha   90.00000000
_cell_angle_beta   90.00000000
_cell_angle_gamma   90.00000000
_symmetry_Int_Tables_number   1
_chemical_formula_structural   TbPa(Al4Fe)2
_chemical_formula_sum   'Tb1 Pa1 Al8 Fe2'
_cell_volume   205.21611161
_cell_formula_units_Z   1
loop_
 _symmetry_equiv_pos_site_id
 _symmetry_equiv_pos_as_xyz
  1  'x, y, z'
loop_
 _atom_site_type_symbol
 _atom_site_label
 _atom_site_symmetry_multiplicity
 _atom_site_fract_x
 _atom_site_fract_y
 _atom_site_fract_z
 _atom_site_occupancy
  Tb  Tb0  1  0.750000  0.000000  0.878994  1
  Pa  Pa1  1  0.250000  0.000000  0.103202  1
  Al  Al2  1  0.566850  0.500000  0.194786  1
  Al  Al3  1  0.933150  0.500000  0.194786  1
  Al  Al4  1  0.250000  0.500000  0.453094  1
  Al  Al5  1  0.006701  0.000000  0.498351  1
  Al  Al6  1  0.493299  0.000000  0.498351  1
  Al  Al7  1  0.750000  0.500000  0.540987  1
  Al  Al8  1  0.065508  0.500000  0.803601  1
  Al  Al9  1  0.434492  0.500000  0.803601  1
  Fe  Fe10  1  0.750000  0.000000  0.303491  1
  Fe  Fe11  1  0.250000  0.000000  0.726756  1
