# generated using pymatgen
data_Tb8Ho4Co4RuPb
_symmetry_space_group_name_H-M   'P 1'
_cell_length_a   8.33710599
_cell_length_b   8.33710773
_cell_length_c   8.33710529
_cell_angle_alpha   111.22512285
_cell_angle_beta   110.45832839
_cell_angle_gamma   106.76461158
_symmetry_Int_Tables_number   1
_chemical_formula_structural   Tb8Ho4Co4RuPb
_chemical_formula_sum   'Tb8 Ho4 Co4 Ru1 Pb1'
_cell_volume   445.32860556
_cell_formula_units_Z   1
loop_
 _symmetry_equiv_pos_site_id
 _symmetry_equiv_pos_as_xyz
  1  'x, y, z'
loop_
 _atom_site_type_symbol
 _atom_site_label
 _atom_site_symmetry_multiplicity
 _atom_site_fract_x
 _atom_site_fract_y
 _atom_site_fract_z
 _atom_site_occupancy
  Tb  Tb0  1  0.406503  0.213042  0.193461  1
  Tb  Tb1  1  0.593497  0.786958  0.806539  1
  Tb  Tb2  1  0.019581  0.213042  0.806539  1
  Tb  Tb3  1  0.980419  0.786958  0.193461  1
  Tb  Tb4  1  0.184006  0.288305  0.472312  1
  Tb  Tb5  1  0.815994  0.711695  0.527688  1
  Tb  Tb6  1  0.184007  0.711695  0.895701  1
  Tb  Tb7  1  0.815993  0.288305  0.104299  1
  Ho  Ho8  1  0.313603  0.622340  0.308737  1
  Ho  Ho9  1  0.686397  0.377660  0.691263  1
  Ho  Ho10  1  0.313602  0.004864  0.691261  1
  Ho  Ho11  1  0.686398  0.995136  0.308739  1
  Co  Co12  1  0.379474  0.000000  0.379474  1
  Co  Co13  1  0.620526  0.000000  0.620526  1
  Co  Co14  1  0.111626  0.611625  0.499999  1
  Co  Co15  1  0.888374  0.388375  0.500001  1
  Ru  Ru16  1  0.000000  0.000000  0.000000  1
  Pb  Pb17  1  0.500000  0.500000  0.000000  1
