# generated using pymatgen
data_SmDy5C3Cl5
_symmetry_space_group_name_H-M   'P 1'
_cell_length_a   3.67255043
_cell_length_b   8.36261206
_cell_length_c   10.38822337
_cell_angle_alpha   85.52984571
_cell_angle_beta   79.75470583
_cell_angle_gamma   77.32234296
_symmetry_Int_Tables_number   1
_chemical_formula_structural   SmDy5C3Cl5
_chemical_formula_sum   'Sm1 Dy5 C3 Cl5'
_cell_volume   306.05142857
_cell_formula_units_Z   1
loop_
 _symmetry_equiv_pos_site_id
 _symmetry_equiv_pos_as_xyz
  1  'x, y, z'
loop_
 _atom_site_type_symbol
 _atom_site_label
 _atom_site_symmetry_multiplicity
 _atom_site_fract_x
 _atom_site_fract_y
 _atom_site_fract_z
 _atom_site_occupancy
  Sm  Sm0  1  0.431343  0.924279  0.216916  1
  Dy  Dy1  1  0.575215  0.074572  0.777471  1
  Dy  Dy2  1  0.959310  0.429146  0.656001  1
  Dy  Dy3  1  0.682829  0.179934  0.457076  1
  Dy  Dy4  1  0.045514  0.568628  0.344605  1
  Dy  Dy5  1  0.320672  0.819096  0.543157  1
  C  C6  1  0.127722  0.123351  0.624846  1
  C  C7  1  0.875988  0.874402  0.376362  1
  C  C8  1  0.502729  0.498456  0.500318  1
  Cl  Cl9  1  0.752758  0.746268  0.751269  1
  Cl  Cl10  1  0.381835  0.378719  0.863125  1
  Cl  Cl11  1  0.247978  0.255628  0.249044  1
  Cl  Cl12  1  0.628367  0.611701  0.136322  1
  Cl  Cl13  1  0.004959  0.999410  0.992804  1
