# generated using pymatgen
data_Er9Lu(CoBi2)2
_symmetry_space_group_name_H-M   'P 1'
_cell_length_a   7.88585083
_cell_length_b   8.83917529
_cell_length_c   12.33134719
_cell_angle_alpha   89.94728426
_cell_angle_beta   90.10806043
_cell_angle_gamma   89.94931528
_symmetry_Int_Tables_number   1
_chemical_formula_structural   Er9Lu(CoBi2)2
_chemical_formula_sum   'Er18 Lu2 Co4 Bi8'
_cell_volume   859.54714661
_cell_formula_units_Z   2
loop_
 _symmetry_equiv_pos_site_id
 _symmetry_equiv_pos_as_xyz
  1  'x, y, z'
loop_
 _atom_site_type_symbol
 _atom_site_label
 _atom_site_symmetry_multiplicity
 _atom_site_fract_x
 _atom_site_fract_y
 _atom_site_fract_z
 _atom_site_occupancy
  Er  Er0  1  0.654775  0.750003  0.699758  1
  Er  Er1  1  0.345225  0.249997  0.300242  1
  Er  Er2  1  0.154139  0.250325  0.800534  1
  Er  Er3  1  0.845861  0.749675  0.199466  1
  Er  Er4  1  0.120259  0.749105  0.814533  1
  Er  Er5  1  0.879741  0.250895  0.185467  1
  Er  Er6  1  0.620561  0.249737  0.686093  1
  Er  Er7  1  0.379439  0.750263  0.313907  1
  Er  Er8  1  0.554686  0.749163  0.997138  1
  Er  Er9  1  0.445314  0.250837  0.002862  1
  Er  Er10  1  0.053788  0.250066  0.502690  1
  Er  Er11  1  0.946212  0.749934  0.497310  1
  Er  Er12  1  0.326493  0.536727  0.564454  1
  Er  Er13  1  0.173411  0.963690  0.064356  1
  Er  Er14  1  0.673507  0.463273  0.435546  1
  Er  Er15  1  0.826589  0.036310  0.935644  1
  Er  Er16  1  0.673592  0.036739  0.435579  1
  Er  Er17  1  0.326408  0.963261  0.564421  1
  Lu  Lu18  1  0.829250  0.463207  0.935937  1
  Lu  Lu19  1  0.170750  0.536793  0.064063  1
  Co  Co20  1  0.937144  0.748739  0.993291  1
  Co  Co21  1  0.062856  0.251261  0.006709  1
  Co  Co22  1  0.436400  0.250000  0.507051  1
  Co  Co23  1  0.563600  0.750000  0.492949  1
  Bi  Bi24  1  0.933141  0.007487  0.673423  1
  Bi  Bi25  1  0.066859  0.992513  0.326577  1
  Bi  Bi26  1  0.433007  0.992392  0.826831  1
  Bi  Bi27  1  0.067257  0.507618  0.326478  1
  Bi  Bi28  1  0.566993  0.007608  0.173169  1
  Bi  Bi29  1  0.932743  0.492382  0.673522  1
  Bi  Bi30  1  0.565579  0.492695  0.173246  1
  Bi  Bi31  1  0.434421  0.507305  0.826754  1
