# generated using pymatgen
data_DyTm2U(Co3Si5)2
_symmetry_space_group_name_H-M   'P 1'
_cell_length_a   5.50010929
_cell_length_b   7.76719016
_cell_length_c   7.79170412
_cell_angle_alpha   75.40722135
_cell_angle_beta   69.33235572
_cell_angle_gamma   69.26412940
_symmetry_Int_Tables_number   1
_chemical_formula_structural   DyTm2U(Co3Si5)2
_chemical_formula_sum   'Dy1 Tm2 U1 Co6 Si10'
_cell_volume   288.18496045
_cell_formula_units_Z   1
loop_
 _symmetry_equiv_pos_site_id
 _symmetry_equiv_pos_as_xyz
  1  'x, y, z'
loop_
 _atom_site_type_symbol
 _atom_site_label
 _atom_site_symmetry_multiplicity
 _atom_site_fract_x
 _atom_site_fract_y
 _atom_site_fract_z
 _atom_site_occupancy
  Dy  Dy0  1  0.634114  0.599502  0.132269  1
  Tm  Tm1  1  0.131885  0.133739  0.602491  1
  Tm  Tm2  1  0.366688  0.399484  0.867141  1
  U  U3  1  0.865519  0.867199  0.401763  1
  Co  Co4  1  0.246912  0.000506  0.002227  1
  Co  Co5  1  0.750355  0.000506  0.002227  1
  Co  Co6  1  0.640263  0.243490  0.475984  1
  Co  Co7  1  0.360514  0.754852  0.524121  1
  Co  Co8  1  0.135962  0.476656  0.251421  1
  Co  Co9  1  0.865871  0.523617  0.744640  1
  Si  Si10  1  0.255018  0.498533  0.498429  1
  Si  Si11  1  0.748022  0.498533  0.498429  1
  Si  Si12  1  0.021141  0.230550  0.229219  1
  Si  Si13  1  0.481448  0.770965  0.770981  1
  Si  Si14  1  0.976606  0.770965  0.770981  1
  Si  Si15  1  0.519090  0.230550  0.229219  1
  Si  Si16  1  0.601775  0.052193  0.744257  1
  Si  Si17  1  0.398430  0.947097  0.256042  1
  Si  Si18  1  0.102281  0.741790  0.053648  1
  Si  Si19  1  0.898107  0.259274  0.944512  1
