# generated using pymatgen
data_Sc15Al(Pt2O)4
_symmetry_space_group_name_H-M   'P 1'
_cell_length_a   8.65317802
_cell_length_b   8.73016214
_cell_length_c   8.65317900
_cell_angle_alpha   60.29127684
_cell_angle_beta   60.00000009
_cell_angle_gamma   60.29127245
_symmetry_Int_Tables_number   1
_chemical_formula_structural   Sc15Al(Pt2O)4
_chemical_formula_sum   'Sc15 Al1 Pt8 O4'
_cell_volume   464.25512355
_cell_formula_units_Z   1
loop_
 _symmetry_equiv_pos_site_id
 _symmetry_equiv_pos_as_xyz
  1  'x, y, z'
loop_
 _atom_site_type_symbol
 _atom_site_label
 _atom_site_symmetry_multiplicity
 _atom_site_fract_x
 _atom_site_fract_y
 _atom_site_fract_z
 _atom_site_occupancy
  Sc  Sc0  1  0.125000  0.625000  0.625000  1
  Sc  Sc1  1  0.625000  0.625000  0.125000  1
  Sc  Sc2  1  0.625000  0.625000  0.625000  1
  Sc  Sc3  1  0.817596  0.817413  0.182496  1
  Sc  Sc4  1  0.187745  0.180706  0.815775  1
  Sc  Sc5  1  0.815775  0.180706  0.815775  1
  Sc  Sc6  1  0.182496  0.817413  0.182496  1
  Sc  Sc7  1  0.182496  0.817413  0.817596  1
  Sc  Sc8  1  0.815775  0.180706  0.187745  1
  Sc  Sc9  1  0.432404  0.432587  0.067504  1
  Sc  Sc10  1  0.062255  0.069294  0.434225  1
  Sc  Sc11  1  0.434225  0.069294  0.434225  1
  Sc  Sc12  1  0.067504  0.432587  0.067504  1
  Sc  Sc13  1  0.067504  0.432587  0.432404  1
  Sc  Sc14  1  0.434225  0.069294  0.062255  1
  Al  Al15  1  0.625000  0.125000  0.625000  1
  Pt  Pt16  1  0.762896  0.402370  0.417366  1
  Pt  Pt17  1  0.409392  0.771822  0.409392  1
  Pt  Pt18  1  0.417366  0.402370  0.762896  1
  Pt  Pt19  1  0.417366  0.402370  0.417366  1
  Pt  Pt20  1  0.487104  0.847630  0.832634  1
  Pt  Pt21  1  0.840608  0.478178  0.840608  1
  Pt  Pt22  1  0.832634  0.847630  0.487104  1
  Pt  Pt23  1  0.832634  0.847630  0.832634  1
  O  O24  1  0.625000  0.125000  0.125000  1
  O  O25  1  0.125000  0.625000  0.125000  1
  O  O26  1  0.125000  0.125000  0.625000  1
  O  O27  1  0.125000  0.125000  0.125000  1
