# generated using pymatgen
data_Na(CeB8)3
_symmetry_space_group_name_H-M   'P 1'
_cell_length_a   4.13914600
_cell_length_b   5.84042300
_cell_length_c   11.73837700
_cell_angle_alpha   90.00000000
_cell_angle_beta   90.00000000
_cell_angle_gamma   90.00000000
_symmetry_Int_Tables_number   1
_chemical_formula_structural   Na(CeB8)3
_chemical_formula_sum   'Na1 Ce3 B24'
_cell_volume   283.76779248
_cell_formula_units_Z   1
loop_
 _symmetry_equiv_pos_site_id
 _symmetry_equiv_pos_as_xyz
  1  'x, y, z'
loop_
 _atom_site_type_symbol
 _atom_site_label
 _atom_site_symmetry_multiplicity
 _atom_site_fract_x
 _atom_site_fract_y
 _atom_site_fract_z
 _atom_site_occupancy
  Na  Na0  1  0.000000  0.000000  0.000000  1
  Ce  Ce1  1  0.000000  0.500000  0.248492  1
  Ce  Ce2  1  0.000000  0.000000  0.500000  1
  Ce  Ce3  1  0.000000  0.500000  0.751508  1
  B  B4  1  0.198668  0.500000  0.500000  1
  B  B5  1  0.199954  0.000000  0.750239  1
  B  B6  1  0.200624  0.500000  0.000000  1
  B  B7  1  0.199954  0.000000  0.249761  1
  B  B8  1  0.500000  0.650793  0.575175  1
  B  B9  1  0.500000  0.150292  0.824737  1
  B  B10  1  0.500000  0.650667  0.074320  1
  B  B11  1  0.500000  0.150804  0.324998  1
  B  B12  1  0.500000  0.349207  0.575175  1
  B  B13  1  0.500000  0.849708  0.824737  1
  B  B14  1  0.500000  0.349333  0.074320  1
  B  B15  1  0.500000  0.849196  0.324998  1
  B  B16  1  0.500000  0.349207  0.424825  1
  B  B17  1  0.500000  0.849196  0.675002  1
  B  B18  1  0.500000  0.349333  0.925680  1
  B  B19  1  0.500000  0.849708  0.175263  1
  B  B20  1  0.500000  0.650793  0.424825  1
  B  B21  1  0.500000  0.150804  0.675002  1
  B  B22  1  0.500000  0.650667  0.925680  1
  B  B23  1  0.500000  0.150292  0.175263  1
  B  B24  1  0.801332  0.500000  0.500000  1
  B  B25  1  0.800046  0.000000  0.750239  1
  B  B26  1  0.799376  0.500000  0.000000  1
  B  B27  1  0.800046  0.000000  0.249761  1
