# generated using pymatgen
data_HoCu3AgPt
_symmetry_space_group_name_H-M   'P 1'
_cell_length_a   5.18363690
_cell_length_b   5.18363644
_cell_length_c   5.18363608
_cell_angle_alpha   58.94592853
_cell_angle_beta   58.94593151
_cell_angle_gamma   58.94592209
_symmetry_Int_Tables_number   1
_chemical_formula_structural   HoCu3AgPt
_chemical_formula_sum   'Ho1 Cu3 Ag1 Pt1'
_cell_volume   96.12039106
_cell_formula_units_Z   1
loop_
 _symmetry_equiv_pos_site_id
 _symmetry_equiv_pos_as_xyz
  1  'x, y, z'
loop_
 _atom_site_type_symbol
 _atom_site_label
 _atom_site_symmetry_multiplicity
 _atom_site_fract_x
 _atom_site_fract_y
 _atom_site_fract_z
 _atom_site_occupancy
  Ho  Ho0  1  0.252286  0.252286  0.252286  1
  Cu  Cu1  1  0.624052  0.624052  0.121651  1
  Cu  Cu2  1  0.624052  0.121651  0.624052  1
  Cu  Cu3  1  0.121651  0.624052  0.624052  1
  Ag  Ag4  1  0.004439  0.004439  0.004439  1
  Pt  Pt5  1  0.623521  0.623521  0.623521  1
