# generated using pymatgen
data_Dy3ZnIn3CuRu
_symmetry_space_group_name_H-M   'P 1'
_cell_length_a   7.59290100
_cell_length_b   7.59290075
_cell_length_c   3.91832500
_cell_angle_alpha   90.00000000
_cell_angle_beta   90.00000000
_cell_angle_gamma   120.00001416
_symmetry_Int_Tables_number   1
_chemical_formula_structural   Dy3ZnIn3CuRu
_chemical_formula_sum   'Dy3 Zn1 In3 Cu1 Ru1'
_cell_volume   195.63496874
_cell_formula_units_Z   1
loop_
 _symmetry_equiv_pos_site_id
 _symmetry_equiv_pos_as_xyz
  1  'x, y, z'
loop_
 _atom_site_type_symbol
 _atom_site_label
 _atom_site_symmetry_multiplicity
 _atom_site_fract_x
 _atom_site_fract_y
 _atom_site_fract_z
 _atom_site_occupancy
  Dy  Dy0  1  0.395371  0.975604  0.500000  1
  Dy  Dy1  1  0.024396  0.419766  0.500000  1
  Dy  Dy2  1  0.580234  0.604629  0.500000  1
  Zn  Zn3  1  0.666667  0.333333  0.000000  1
  In  In4  1  0.747030  0.001064  0.000000  1
  In  In5  1  0.998936  0.745966  0.000000  1
  In  In6  1  0.254034  0.252970  0.000000  1
  Cu  Cu7  1  0.000000  0.000000  0.500000  1
  Ru  Ru8  1  0.333333  0.666667  0.000000  1
