# generated using pymatgen
data_Dy8Be(Si5Mo4)3
_symmetry_space_group_name_H-M   'P 1'
_cell_length_a   6.76355458
_cell_length_b   6.94582668
_cell_length_c   12.93037400
_cell_angle_alpha   90.00000000
_cell_angle_beta   90.00000000
_cell_angle_gamma   89.82663522
_symmetry_Int_Tables_number   1
_chemical_formula_structural   Dy8Be(Si5Mo4)3
_chemical_formula_sum   'Dy8 Be1 Si15 Mo12'
_cell_volume   607.44650797
_cell_formula_units_Z   1
loop_
 _symmetry_equiv_pos_site_id
 _symmetry_equiv_pos_as_xyz
  1  'x, y, z'
loop_
 _atom_site_type_symbol
 _atom_site_label
 _atom_site_symmetry_multiplicity
 _atom_site_fract_x
 _atom_site_fract_y
 _atom_site_fract_z
 _atom_site_occupancy
  Dy  Dy0  1  0.997081  0.166514  0.093361  1
  Dy  Dy1  1  0.000671  0.834497  0.904591  1
  Dy  Dy2  1  0.499944  0.669953  0.903957  1
  Dy  Dy3  1  0.000671  0.834497  0.595409  1
  Dy  Dy4  1  0.495961  0.333515  0.093363  1
  Dy  Dy5  1  0.997081  0.166514  0.406639  1
  Dy  Dy6  1  0.495961  0.333515  0.406637  1
  Dy  Dy7  1  0.499944  0.669953  0.596043  1
  Be  Be8  1  0.041628  0.135462  0.750000  1
  Si  Si9  1  0.964617  0.865573  0.250000  1
  Si  Si10  1  0.465145  0.634844  0.250000  1
  Si  Si11  1  0.536758  0.365594  0.750000  1
  Si  Si12  1  0.297435  0.882338  0.750000  1
  Si  Si13  1  0.695610  0.129778  0.250000  1
  Si  Si14  1  0.196177  0.370002  0.250000  1
  Si  Si15  1  0.804074  0.625849  0.750000  1
  Si  Si16  1  0.159856  0.456346  0.547010  1
  Si  Si17  1  0.840008  0.541068  0.454345  1
  Si  Si18  1  0.340367  0.957152  0.453357  1
  Si  Si19  1  0.840008  0.541068  0.045655  1
  Si  Si20  1  0.660067  0.043981  0.546319  1
  Si  Si21  1  0.159856  0.456346  0.952990  1
  Si  Si22  1  0.660067  0.043981  0.953681  1
  Si  Si23  1  0.340367  0.957152  0.046643  1
  Mo  Mo24  1  0.166215  0.493470  0.750000  1
  Mo  Mo25  1  0.833387  0.498831  0.250000  1
  Mo  Mo26  1  0.333587  0.000583  0.250000  1
  Mo  Mo27  1  0.667616  0.004038  0.750000  1
  Mo  Mo28  1  0.330235  0.166163  0.625795  1
  Mo  Mo29  1  0.669935  0.835448  0.375012  1
  Mo  Mo30  1  0.168408  0.664186  0.374743  1
  Mo  Mo31  1  0.669935  0.835448  0.124988  1
  Mo  Mo32  1  0.836344  0.327997  0.627788  1
  Mo  Mo33  1  0.330235  0.166163  0.874205  1
  Mo  Mo34  1  0.836344  0.327997  0.872212  1
  Mo  Mo35  1  0.168408  0.664186  0.125257  1
