# generated using pymatgen
data_Ho3Er2(SiSb)2
_symmetry_space_group_name_H-M   'P 1'
_cell_length_a   8.48822998
_cell_length_b   8.50308451
_cell_length_c   7.84177100
_cell_angle_alpha   90.09927446
_cell_angle_beta   90.04797920
_cell_angle_gamma   125.26016290
_symmetry_Int_Tables_number   1
_chemical_formula_structural   Ho3Er2(SiSb)2
_chemical_formula_sum   'Ho6 Er4 Si4 Sb4'
_cell_volume   462.15010933
_cell_formula_units_Z   2
loop_
 _symmetry_equiv_pos_site_id
 _symmetry_equiv_pos_as_xyz
  1  'x, y, z'
loop_
 _atom_site_type_symbol
 _atom_site_label
 _atom_site_symmetry_multiplicity
 _atom_site_fract_x
 _atom_site_fract_y
 _atom_site_fract_z
 _atom_site_occupancy
  Ho  Ho0  1  0.459244  0.207244  0.833655  1
  Ho  Ho1  1  0.793550  0.541359  0.166497  1
  Ho  Ho2  1  0.540756  0.792756  0.166345  1
  Ho  Ho3  1  0.206450  0.458641  0.833503  1
  Ho  Ho4  1  0.706700  0.958790  0.666457  1
  Ho  Ho5  1  0.293300  0.041210  0.333543  1
  Er  Er6  1  0.041069  0.291262  0.334165  1
  Er  Er7  1  0.958931  0.708738  0.665835  1
  Er  Er8  1  0.000000  0.000000  0.000000  1
  Er  Er9  1  0.500000  0.500000  0.500000  1
  Si  Si10  1  0.368148  0.368708  0.130881  1
  Si  Si11  1  0.631852  0.631292  0.869119  1
  Si  Si12  1  0.130747  0.130674  0.629856  1
  Si  Si13  1  0.869253  0.869326  0.370144  1
  Sb  Sb14  1  0.794646  0.205712  0.001310  1
  Sb  Sb15  1  0.205354  0.794288  0.998690  1
  Sb  Sb16  1  0.707729  0.295568  0.500534  1
  Sb  Sb17  1  0.292271  0.704432  0.499466  1
