# generated using pymatgen
data_La3AlCd2Pt3
_symmetry_space_group_name_H-M   'P 1'
_cell_length_a   7.77045657
_cell_length_b   7.64332130
_cell_length_c   4.10647900
_cell_angle_alpha   90.00000000
_cell_angle_beta   90.00000000
_cell_angle_gamma   119.46023734
_symmetry_Int_Tables_number   1
_chemical_formula_structural   La3AlCd2Pt3
_chemical_formula_sum   'La3 Al1 Cd2 Pt3'
_cell_volume   212.35643196
_cell_formula_units_Z   1
loop_
 _symmetry_equiv_pos_site_id
 _symmetry_equiv_pos_as_xyz
  1  'x, y, z'
loop_
 _atom_site_type_symbol
 _atom_site_label
 _atom_site_symmetry_multiplicity
 _atom_site_fract_x
 _atom_site_fract_y
 _atom_site_fract_z
 _atom_site_occupancy
  La  La0  1  0.410649  0.410316  0.500000  1
  La  La1  1  0.589351  0.999667  0.500000  1
  La  La2  1  0.000000  0.578669  0.500000  1
  Al  Al3  1  0.000000  0.243933  0.000000  1
  Cd  Cd4  1  0.759390  0.756602  0.000000  1
  Cd  Cd5  1  0.240610  0.997212  0.000000  1
  Pt  Pt6  1  0.684886  0.326653  0.000000  1
  Pt  Pt7  1  0.315114  0.641768  0.000000  1
  Pt  Pt8  1  0.000000  0.045181  0.500000  1
