# generated using pymatgen
data_Er4ReTcRu6
_symmetry_space_group_name_H-M   'P 1'
_cell_length_a   5.14689073
_cell_length_b   5.34780863
_cell_length_c   8.99373300
_cell_angle_alpha   90.00000000
_cell_angle_beta   90.00000000
_cell_angle_gamma   119.42572230
_symmetry_Int_Tables_number   1
_chemical_formula_structural   Er4ReTcRu6
_chemical_formula_sum   'Er4 Re1 Tc1 Ru6'
_cell_volume   215.61334096
_cell_formula_units_Z   1
loop_
 _symmetry_equiv_pos_site_id
 _symmetry_equiv_pos_as_xyz
  1  'x, y, z'
loop_
 _atom_site_type_symbol
 _atom_site_label
 _atom_site_symmetry_multiplicity
 _atom_site_fract_x
 _atom_site_fract_y
 _atom_site_fract_z
 _atom_site_occupancy
  Er  Er0  1  0.330676  0.668409  0.434504  1
  Er  Er1  1  0.658144  0.327854  0.565920  1
  Er  Er2  1  0.658144  0.327854  0.934080  1
  Er  Er3  1  0.330676  0.668409  0.065496  1
  Re  Re4  1  0.682688  0.840963  0.750000  1
  Tc  Tc5  1  0.836203  0.167114  0.250000  1
  Ru  Ru6  1  0.975920  0.994295  0.499885  1
  Ru  Ru7  1  0.975920  0.994295  0.000115  1
  Ru  Ru8  1  0.833894  0.660577  0.250000  1
  Ru  Ru9  1  0.351880  0.170288  0.250000  1
  Ru  Ru10  1  0.184591  0.829998  0.750000  1
  Ru  Ru11  1  0.181262  0.349945  0.750000  1
