# generated using pymatgen
data_Ta3Be6Si2W
_symmetry_space_group_name_H-M   'P 1'
_cell_length_a   4.59900800
_cell_length_b   4.59900734
_cell_length_c   7.70763800
_cell_angle_alpha   90.00000000
_cell_angle_beta   90.00000000
_cell_angle_gamma   120.00000474
_symmetry_Int_Tables_number   1
_chemical_formula_structural   Ta3Be6Si2W
_chemical_formula_sum   'Ta3 Be6 Si2 W1'
_cell_volume   141.18227899
_cell_formula_units_Z   1
loop_
 _symmetry_equiv_pos_site_id
 _symmetry_equiv_pos_as_xyz
  1  'x, y, z'
loop_
 _atom_site_type_symbol
 _atom_site_label
 _atom_site_symmetry_multiplicity
 _atom_site_fract_x
 _atom_site_fract_y
 _atom_site_fract_z
 _atom_site_occupancy
  Ta  Ta0  1  0.666667  0.333333  0.560044  1
  Ta  Ta1  1  0.666667  0.333333  0.936321  1
  Ta  Ta2  1  0.333333  0.666667  0.065356  1
  Be  Be3  1  0.826617  0.173383  0.251476  1
  Be  Be4  1  0.826617  0.653234  0.251476  1
  Be  Be5  1  0.346766  0.173383  0.251476  1
  Be  Be6  1  0.173658  0.826342  0.748548  1
  Be  Be7  1  0.173658  0.347316  0.748548  1
  Be  Be8  1  0.652684  0.826342  0.748548  1
  Si  Si9  1  0.000000  0.000000  0.499575  1
  Si  Si10  1  0.000000  0.000000  0.001391  1
  W  W11  1  0.333333  0.666667  0.437241  1
