# generated using pymatgen
data_Er6Zn22AuC
_symmetry_space_group_name_H-M   'P 1'
_cell_length_a   8.95278063
_cell_length_b   8.95278515
_cell_length_c   8.95277800
_cell_angle_alpha   59.91599076
_cell_angle_beta   59.91603317
_cell_angle_gamma   59.91608969
_symmetry_Int_Tables_number   1
_chemical_formula_structural   Er6Zn22AuC
_chemical_formula_sum   'Er6 Zn22 Au1 C1'
_cell_volume   506.44345453
_cell_formula_units_Z   1
loop_
 _symmetry_equiv_pos_site_id
 _symmetry_equiv_pos_as_xyz
  1  'x, y, z'
loop_
 _atom_site_type_symbol
 _atom_site_label
 _atom_site_symmetry_multiplicity
 _atom_site_fract_x
 _atom_site_fract_y
 _atom_site_fract_z
 _atom_site_occupancy
  Er  Er0  1  0.696963  0.305617  0.305616  1
  Er  Er1  1  0.305947  0.694386  0.694409  1
  Er  Er2  1  0.305616  0.696964  0.305617  1
  Er  Er3  1  0.694385  0.305948  0.694410  1
  Er  Er4  1  0.305613  0.305615  0.696969  1
  Er  Er5  1  0.694394  0.694395  0.305924  1
  Zn  Zn6  1  0.877159  0.877158  0.877168  1
  Zn  Zn7  1  0.123198  0.123197  0.632193  1
  Zn  Zn8  1  0.123201  0.632219  0.123172  1
  Zn  Zn9  1  0.879088  0.879087  0.363866  1
  Zn  Zn10  1  0.879085  0.363841  0.879118  1
  Zn  Zn11  1  0.632219  0.123200  0.123173  1
  Zn  Zn12  1  0.363842  0.879085  0.879117  1
  Zn  Zn13  1  0.504007  0.999780  0.999782  1
  Zn  Zn14  1  0.000693  0.500492  0.500501  1
  Zn  Zn15  1  0.999781  0.504007  0.999782  1
  Zn  Zn16  1  0.500492  0.000693  0.500501  1
  Zn  Zn17  1  0.999785  0.999785  0.503997  1
  Zn  Zn18  1  0.500494  0.500494  0.000689  1
  Zn  Zn19  1  0.329165  0.329165  0.329169  1
  Zn  Zn20  1  0.672137  0.672137  0.672108  1
  Zn  Zn21  1  0.328431  0.328430  0.015206  1
  Zn  Zn22  1  0.328421  0.015244  0.328439  1
  Zn  Zn23  1  0.671499  0.671499  0.986145  1
  Zn  Zn24  1  0.671512  0.986111  0.671508  1
  Zn  Zn25  1  0.015245  0.328421  0.328438  1
  Zn  Zn26  1  0.986112  0.671511  0.671508  1
  Zn  Zn27  1  0.994954  0.994955  0.994957  1
  Au  Au28  1  0.116155  0.116155  0.116122  1
  C  C29  1  0.500410  0.500412  0.500397  1
