# generated using pymatgen
data_LaEr5(MoO7)2
_symmetry_space_group_name_H-M   'P 1'
_cell_length_a   6.43487747
_cell_length_b   6.43487745
_cell_length_c   7.51505361
_cell_angle_alpha   90.09355276
_cell_angle_beta   89.90644105
_cell_angle_gamma   108.94861190
_symmetry_Int_Tables_number   1
_chemical_formula_structural   LaEr5(MoO7)2
_chemical_formula_sum   'La1 Er5 Mo2 O14'
_cell_volume   294.31728056
_cell_formula_units_Z   1
loop_
 _symmetry_equiv_pos_site_id
 _symmetry_equiv_pos_as_xyz
  1  'x, y, z'
loop_
 _atom_site_type_symbol
 _atom_site_label
 _atom_site_symmetry_multiplicity
 _atom_site_fract_x
 _atom_site_fract_y
 _atom_site_fract_z
 _atom_site_occupancy
  La  La0  1  0.500000  0.500000  0.000000  1
  Er  Er1  1  0.500000  0.500000  0.500000  1
  Er  Er2  1  0.534797  0.001513  0.745465  1
  Er  Er3  1  0.001513  0.534797  0.254535  1
  Er  Er4  1  0.465203  0.998487  0.254535  1
  Er  Er5  1  0.998487  0.465203  0.745465  1
  Mo  Mo6  1  0.000000  0.000000  0.500000  1
  Mo  Mo7  1  0.000000  0.000000  0.000000  1
  O  O8  1  0.677871  0.926078  0.469592  1
  O  O9  1  0.926078  0.677871  0.530408  1
  O  O10  1  0.677387  0.930345  0.031492  1
  O  O11  1  0.930345  0.677387  0.968508  1
  O  O12  1  0.322129  0.073922  0.530408  1
  O  O13  1  0.073922  0.322129  0.469592  1
  O  O14  1  0.322613  0.069655  0.968508  1
  O  O15  1  0.069655  0.322613  0.031492  1
  O  O16  1  0.925905  0.074095  0.750121  1
  O  O17  1  0.074095  0.925905  0.249879  1
  O  O18  1  0.364535  0.635465  0.736568  1
  O  O19  1  0.635465  0.364535  0.263432  1
  O  O20  1  0.639951  0.360049  0.737789  1
  O  O21  1  0.360049  0.639951  0.262211  1
