# generated using pymatgen
data_Pr4Ga2Ir3Pd
_symmetry_space_group_name_H-M   'P 1'
_cell_length_a   5.77149458
_cell_length_b   5.80257326
_cell_length_c   7.98832236
_cell_angle_alpha   77.49934969
_cell_angle_beta   77.97662029
_cell_angle_gamma   59.41223911
_symmetry_Int_Tables_number   1
_chemical_formula_structural   Pr4Ga2Ir3Pd
_chemical_formula_sum   'Pr4 Ga2 Ir3 Pd1'
_cell_volume   223.30052520
_cell_formula_units_Z   1
loop_
 _symmetry_equiv_pos_site_id
 _symmetry_equiv_pos_as_xyz
  1  'x, y, z'
loop_
 _atom_site_type_symbol
 _atom_site_label
 _atom_site_symmetry_multiplicity
 _atom_site_fract_x
 _atom_site_fract_y
 _atom_site_fract_z
 _atom_site_occupancy
  Pr  Pr0  1  0.791442  0.509418  0.352549  1
  Pr  Pr1  1  0.497824  0.204922  0.145414  1
  Pr  Pr2  1  0.214342  0.488019  0.652541  1
  Pr  Pr3  1  0.490711  0.793658  0.850827  1
  Ga  Ga4  1  0.141567  0.864458  0.243775  1
  Ga  Ga5  1  0.867217  0.138304  0.754908  1
  Ir  Ir6  1  0.998691  0.726188  0.006656  1
  Ir  Ir7  1  0.262286  0.995486  0.492070  1
  Ir  Ir8  1  0.996590  0.279208  0.998000  1
  Pd  Pd9  1  0.739329  0.000341  0.503259  1
