# generated using pymatgen
data_Ho4ErBi3C
_symmetry_space_group_name_H-M   'P 1'
_cell_length_a   6.46056901
_cell_length_b   9.10747123
_cell_length_c   9.10769605
_cell_angle_alpha   119.99574035
_cell_angle_beta   90.00432184
_cell_angle_gamma   90.00033975
_symmetry_Int_Tables_number   1
_chemical_formula_structural   Ho4ErBi3C
_chemical_formula_sum   'Ho8 Er2 Bi6 C2'
_cell_volume   464.11582346
_cell_formula_units_Z   2
loop_
 _symmetry_equiv_pos_site_id
 _symmetry_equiv_pos_as_xyz
  1  'x, y, z'
loop_
 _atom_site_type_symbol
 _atom_site_label
 _atom_site_symmetry_multiplicity
 _atom_site_fract_x
 _atom_site_fract_y
 _atom_site_fract_z
 _atom_site_occupancy
  Ho  Ho0  1  0.500030  0.333311  0.666657  1
  Ho  Ho1  1  0.500029  0.666706  0.333292  1
  Ho  Ho2  1  0.999969  0.666696  0.333287  1
  Ho  Ho3  1  0.999965  0.333327  0.666667  1
  Ho  Ho4  1  0.750006  0.999938  0.207362  1
  Ho  Ho5  1  0.249994  0.792639  0.999878  1
  Ho  Ho6  1  0.250006  0.207452  0.207248  1
  Ho  Ho7  1  0.250004  0.000088  0.792627  1
  Er  Er8  1  0.750003  0.205756  0.999876  1
  Er  Er9  1  0.750005  0.794080  0.794002  1
  Bi  Bi10  1  0.750002  0.598555  0.999701  1
  Bi  Bi11  1  0.749991  0.401477  0.401221  1
  Bi  Bi12  1  0.750004  0.999960  0.599053  1
  Bi  Bi13  1  0.250000  0.401367  0.000064  1
  Bi  Bi14  1  0.250006  0.598652  0.598679  1
  Bi  Bi15  1  0.249989  0.000034  0.401220  1
  C  C16  1  0.500767  0.999979  0.999577  1
  C  C17  1  0.999231  0.999982  0.999588  1
