# generated using pymatgen
data_Yb2Al20Os3Pt
_symmetry_space_group_name_H-M   'P 1'
_cell_length_a   6.88270441
_cell_length_b   6.88587280
_cell_length_c   9.15879623
_cell_angle_alpha   90.35782817
_cell_angle_beta   90.10643509
_cell_angle_gamma   96.49841939
_symmetry_Int_Tables_number   1
_chemical_formula_structural   Yb2Al20Os3Pt
_chemical_formula_sum   'Yb2 Al20 Os3 Pt1'
_cell_volume   431.26800552
_cell_formula_units_Z   1
loop_
 _symmetry_equiv_pos_site_id
 _symmetry_equiv_pos_as_xyz
  1  'x, y, z'
loop_
 _atom_site_type_symbol
 _atom_site_label
 _atom_site_symmetry_multiplicity
 _atom_site_fract_x
 _atom_site_fract_y
 _atom_site_fract_z
 _atom_site_occupancy
  Yb  Yb0  1  0.628997  0.375024  0.748894  1
  Yb  Yb1  1  0.371003  0.624976  0.251106  1
  Al  Al2  1  0.277314  0.019411  0.744088  1
  Al  Al3  1  0.019061  0.281934  0.249352  1
  Al  Al4  1  0.722686  0.980589  0.255912  1
  Al  Al5  1  0.980939  0.718066  0.750648  1
  Al  Al6  1  0.882006  0.125742  0.951062  1
  Al  Al7  1  0.117994  0.874258  0.048938  1
  Al  Al8  1  0.876675  0.124607  0.545808  1
  Al  Al9  1  0.123325  0.875393  0.454192  1
  Al  Al10  1  0.648361  0.916126  0.747419  1
  Al  Al11  1  0.916934  0.645374  0.251047  1
  Al  Al12  1  0.351639  0.083874  0.252581  1
  Al  Al13  1  0.083066  0.354626  0.748953  1
  Al  Al14  1  0.340406  0.653423  0.895763  1
  Al  Al15  1  0.659594  0.346577  0.104237  1
  Al  Al16  1  0.344147  0.657801  0.599401  1
  Al  Al17  1  0.655853  0.342199  0.400599  1
  Al  Al18  1  0.725202  0.720557  0.997022  1
  Al  Al19  1  0.722216  0.721037  0.500024  1
  Al  Al20  1  0.274798  0.279443  0.002978  1
  Al  Al21  1  0.277784  0.278963  0.499976  1
  Os  Os22  1  0.000000  0.500000  0.000000  1
  Os  Os23  1  0.500000  0.000000  0.500000  1
  Os  Os24  1  0.000000  0.500000  0.500000  1
  Pt  Pt25  1  0.500000  0.000000  0.000000  1
