# generated using pymatgen
data_MgScGa3Rh
_symmetry_space_group_name_H-M   'P 1'
_cell_length_a   5.26883700
_cell_length_b   5.26883752
_cell_length_c   8.46104700
_cell_angle_alpha   90.00000000
_cell_angle_beta   90.00000000
_cell_angle_gamma   120.00000303
_symmetry_Int_Tables_number   1
_chemical_formula_structural   MgScGa3Rh
_chemical_formula_sum   'Mg2 Sc2 Ga6 Rh2'
_cell_volume   203.41561826
_cell_formula_units_Z   2
loop_
 _symmetry_equiv_pos_site_id
 _symmetry_equiv_pos_as_xyz
  1  'x, y, z'
loop_
 _atom_site_type_symbol
 _atom_site_label
 _atom_site_symmetry_multiplicity
 _atom_site_fract_x
 _atom_site_fract_y
 _atom_site_fract_z
 _atom_site_occupancy
  Mg  Mg0  1  0.666667  0.333333  0.055849  1
  Mg  Mg1  1  0.666667  0.333333  0.444152  1
  Sc  Sc2  1  0.333333  0.666666  0.552664  1
  Sc  Sc3  1  0.333333  0.666666  0.947336  1
  Ga  Ga4  1  0.168993  0.337987  0.250000  1
  Ga  Ga5  1  0.168993  0.831007  0.250000  1
  Ga  Ga6  1  0.662014  0.831007  0.250000  1
  Ga  Ga7  1  0.334062  0.167030  0.750000  1
  Ga  Ga8  1  0.832969  0.167030  0.750000  1
  Ga  Ga9  1  0.832969  0.665938  0.750000  1
  Rh  Rh10  1  0.000000  0.000000  0.003912  1
  Rh  Rh11  1  0.000000  0.000000  0.496089  1
