# generated using pymatgen
data_Ho2ErCdIn4
_symmetry_space_group_name_H-M   'P 1'
_cell_length_a   6.32885402
_cell_length_b   6.32885381
_cell_length_c   10.46800300
_cell_angle_alpha   90.00000000
_cell_angle_beta   90.00000000
_cell_angle_gamma   102.81075692
_symmetry_Int_Tables_number   1
_chemical_formula_structural   Ho2ErCdIn4
_chemical_formula_sum   'Ho4 Er2 Cd2 In8'
_cell_volume   408.85243193
_cell_formula_units_Z   2
loop_
 _symmetry_equiv_pos_site_id
 _symmetry_equiv_pos_as_xyz
  1  'x, y, z'
loop_
 _atom_site_type_symbol
 _atom_site_label
 _atom_site_symmetry_multiplicity
 _atom_site_fract_x
 _atom_site_fract_y
 _atom_site_fract_z
 _atom_site_occupancy
  Ho  Ho0  1  0.204158  0.795842  0.500000  1
  Ho  Ho1  1  0.204158  0.795842  0.000000  1
  Ho  Ho2  1  0.795842  0.204158  0.500000  1
  Ho  Ho3  1  0.795842  0.204158  0.000000  1
  Er  Er4  1  0.616906  0.616906  0.250000  1
  Er  Er5  1  0.383094  0.383094  0.750000  1
  Cd  Cd6  1  0.009637  0.009637  0.250000  1
  Cd  Cd7  1  0.990363  0.990363  0.750000  1
  In  In8  1  0.308042  0.308042  0.043344  1
  In  In9  1  0.691958  0.691958  0.956656  1
  In  In10  1  0.308042  0.308042  0.456656  1
  In  In11  1  0.691958  0.691958  0.543344  1
  In  In12  1  0.514475  0.073157  0.250000  1
  In  In13  1  0.926843  0.485525  0.750000  1
  In  In14  1  0.485525  0.926843  0.750000  1
  In  In15  1  0.073157  0.514475  0.250000  1
