# generated using pymatgen
data_Hf10ZnSn4Sb3
_symmetry_space_group_name_H-M   'P 1'
_cell_length_a   8.70304431
_cell_length_b   8.68354528
_cell_length_c   5.85845510
_cell_angle_alpha   89.97851219
_cell_angle_beta   90.01071610
_cell_angle_gamma   119.92590633
_symmetry_Int_Tables_number   1
_chemical_formula_structural   Hf10ZnSn4Sb3
_chemical_formula_sum   'Hf10 Zn1 Sn4 Sb3'
_cell_volume   383.71231949
_cell_formula_units_Z   1
loop_
 _symmetry_equiv_pos_site_id
 _symmetry_equiv_pos_as_xyz
  1  'x, y, z'
loop_
 _atom_site_type_symbol
 _atom_site_label
 _atom_site_symmetry_multiplicity
 _atom_site_fract_x
 _atom_site_fract_y
 _atom_site_fract_z
 _atom_site_occupancy
  Hf  Hf0  1  0.334145  0.667073  0.000000  1
  Hf  Hf1  1  0.666510  0.333254  0.500000  1
  Hf  Hf2  1  0.666350  0.333175  0.000000  1
  Hf  Hf3  1  0.333762  0.666882  0.500000  1
  Hf  Hf4  1  0.277137  0.000395  0.237329  1
  Hf  Hf5  1  0.277137  0.276742  0.762671  1
  Hf  Hf6  1  0.999983  0.724107  0.762515  1
  Hf  Hf7  1  0.999983  0.275876  0.237485  1
  Hf  Hf8  1  0.723680  0.724017  0.237671  1
  Hf  Hf9  1  0.723680  0.999662  0.762329  1
  Zn  Zn10  1  0.000937  0.000468  0.000000  1
  Sn  Sn11  1  0.000399  0.386917  0.747391  1
  Sn  Sn12  1  0.000399  0.613483  0.252609  1
  Sn  Sn13  1  0.385771  0.385703  0.252420  1
  Sn  Sn14  1  0.385771  0.000068  0.747580  1
  Sb  Sb15  1  0.000773  0.000386  0.500000  1
  Sb  Sb16  1  0.611791  0.000337  0.251942  1
  Sb  Sb17  1  0.611791  0.611455  0.748058  1
