# generated using pymatgen
data_K2Rb4HoInSb4
_symmetry_space_group_name_H-M   'P 1'
_cell_length_a   10.14536877
_cell_length_b   10.14536839
_cell_length_c   10.14536796
_cell_angle_alpha   131.44818978
_cell_angle_beta   66.63200469
_cell_angle_gamma   137.28125095
_symmetry_Int_Tables_number   1
_chemical_formula_structural   K2Rb4HoInSb4
_chemical_formula_sum   'K2 Rb4 Ho1 In1 Sb4'
_cell_volume   522.67276212
_cell_formula_units_Z   1
loop_
 _symmetry_equiv_pos_site_id
 _symmetry_equiv_pos_as_xyz
  1  'x, y, z'
loop_
 _atom_site_type_symbol
 _atom_site_label
 _atom_site_symmetry_multiplicity
 _atom_site_fract_x
 _atom_site_fract_y
 _atom_site_fract_z
 _atom_site_occupancy
  K  K0  1  0.250001  0.250001  0.000000  1
  K  K1  1  0.750000  0.750000  0.000000  1
  Rb  Rb2  1  0.827611  0.286302  0.101176  1
  Rb  Rb3  1  0.672389  0.773564  0.458691  1
  Rb  Rb4  1  0.314873  0.213697  0.541309  1
  Rb  Rb5  1  0.185127  0.726435  0.898824  1
  Ho  Ho6  1  0.750001  0.250001  0.500000  1
  In  In7  1  0.250001  0.750001  0.500000  1
  Sb  Sb8  1  0.394470  0.794683  0.199985  1
  Sb  Sb9  1  0.105530  0.305514  0.400212  1
  Sb  Sb10  1  0.905302  0.705317  0.599788  1
  Sb  Sb11  1  0.594698  0.194486  0.800015  1
