# generated using pymatgen
data_La8YbZrIr6
_symmetry_space_group_name_H-M   'P 1'
_cell_length_a   11.36805900
_cell_length_b   11.36805900
_cell_length_c   6.47602800
_cell_angle_alpha   90.00000000
_cell_angle_beta   90.00000000
_cell_angle_gamma   90.00000000
_symmetry_Int_Tables_number   1
_chemical_formula_structural   La8YbZrIr6
_chemical_formula_sum   'La16 Yb2 Zr2 Ir12'
_cell_volume   836.91500743
_cell_formula_units_Z   2
loop_
 _symmetry_equiv_pos_site_id
 _symmetry_equiv_pos_as_xyz
  1  'x, y, z'
loop_
 _atom_site_type_symbol
 _atom_site_label
 _atom_site_symmetry_multiplicity
 _atom_site_fract_x
 _atom_site_fract_y
 _atom_site_fract_z
 _atom_site_occupancy
  La  La0  1  0.285694  0.088033  0.385550  1
  La  La1  1  0.285694  0.911967  0.885550  1
  La  La2  1  0.714306  0.088033  0.885550  1
  La  La3  1  0.714306  0.911967  0.385550  1
  La  La4  1  0.587338  0.787430  0.889262  1
  La  La5  1  0.587338  0.212570  0.389262  1
  La  La6  1  0.412662  0.787430  0.389262  1
  La  La7  1  0.412662  0.212570  0.889262  1
  La  La8  1  0.212570  0.412662  0.610738  1
  La  La9  1  0.212570  0.587338  0.110738  1
  La  La10  1  0.787430  0.412662  0.110738  1
  La  La11  1  0.787430  0.587338  0.610738  1
  La  La12  1  0.911967  0.714306  0.114450  1
  La  La13  1  0.911967  0.285694  0.614450  1
  La  La14  1  0.088033  0.714306  0.614450  1
  La  La15  1  0.088033  0.285694  0.114450  1
  Yb  Yb16  1  0.500000  0.500000  0.000000  1
  Yb  Yb17  1  0.500000  0.500000  0.500000  1
  Zr  Zr18  1  0.000000  0.000000  0.500000  1
  Zr  Zr19  1  0.000000  0.000000  0.000000  1
  Ir  Ir20  1  0.863559  0.136441  0.250000  1
  Ir  Ir21  1  0.863559  0.863559  0.750000  1
  Ir  Ir22  1  0.136441  0.136441  0.750000  1
  Ir  Ir23  1  0.136441  0.863559  0.250000  1
  Ir  Ir24  1  0.655850  0.344150  0.750000  1
  Ir  Ir25  1  0.655850  0.655850  0.250000  1
  Ir  Ir26  1  0.344150  0.344150  0.250000  1
  Ir  Ir27  1  0.344150  0.655850  0.750000  1
  Ir  Ir28  1  0.500000  0.000000  0.119199  1
  Ir  Ir29  1  0.500000  0.000000  0.619199  1
  Ir  Ir30  1  0.000000  0.500000  0.880801  1
  Ir  Ir31  1  0.000000  0.500000  0.380801  1
