# generated using pymatgen
data_Ba5Dy8Ni4O21
_symmetry_space_group_name_H-M   'P 1'
_cell_length_a   10.19805996
_cell_length_b   10.19805972
_cell_length_c   10.19806001
_cell_angle_alpha   94.53809624
_cell_angle_beta   94.53810376
_cell_angle_gamma   147.32601316
_symmetry_Int_Tables_number   1
_chemical_formula_structural   Ba5Dy8Ni4O21
_chemical_formula_sum   'Ba5 Dy8 Ni4 O21'
_cell_volume   549.45665121
_cell_formula_units_Z   1
loop_
 _symmetry_equiv_pos_site_id
 _symmetry_equiv_pos_as_xyz
  1  'x, y, z'
loop_
 _atom_site_type_symbol
 _atom_site_label
 _atom_site_symmetry_multiplicity
 _atom_site_fract_x
 _atom_site_fract_y
 _atom_site_fract_z
 _atom_site_occupancy
  Ba  Ba0  1  0.000000  0.000000  0.000000  1
  Ba  Ba1  1  0.138286  0.534851  0.673136  1
  Ba  Ba2  1  0.861714  0.465149  0.326864  1
  Ba  Ba3  1  0.465149  0.138286  0.603435  1
  Ba  Ba4  1  0.534851  0.861714  0.396565  1
  Dy  Dy5  1  0.166842  0.249838  0.416681  1
  Dy  Dy6  1  0.833158  0.750162  0.583319  1
  Dy  Dy7  1  0.750162  0.166842  0.917004  1
  Dy  Dy8  1  0.249838  0.833158  0.082996  1
  Dy  Dy9  1  0.357604  0.410588  0.768192  1
  Dy  Dy10  1  0.642396  0.589412  0.231808  1
  Dy  Dy11  1  0.589412  0.357604  0.947016  1
  Dy  Dy12  1  0.410588  0.642396  0.052984  1
  Ni  Ni13  1  0.246433  0.040920  0.287354  1
  Ni  Ni14  1  0.753567  0.959080  0.712646  1
  Ni  Ni15  1  0.959080  0.246433  0.205513  1
  Ni  Ni16  1  0.040920  0.753567  0.794487  1
  O  O17  1  0.500000  0.500000  0.000000  1
  O  O18  1  0.962939  0.630171  0.593111  1
  O  O19  1  0.037061  0.369829  0.406889  1
  O  O20  1  0.369829  0.962939  0.332770  1
  O  O21  1  0.630171  0.037061  0.667230  1
  O  O22  1  0.295590  0.427693  0.225802  1
  O  O23  1  0.201891  0.069787  0.774198  1
  O  O24  1  0.069787  0.295590  0.867897  1
  O  O25  1  0.427693  0.201891  0.132103  1
  O  O26  1  0.704410  0.572307  0.774198  1
  O  O27  1  0.798109  0.930213  0.225802  1
  O  O28  1  0.930213  0.704410  0.132103  1
  O  O29  1  0.572307  0.798109  0.867897  1
  O  O30  1  0.496527  0.607256  0.594985  1
  O  O31  1  0.012272  0.901542  0.405015  1
  O  O32  1  0.901542  0.496527  0.889270  1
  O  O33  1  0.607256  0.012272  0.110730  1
  O  O34  1  0.503473  0.392744  0.405015  1
  O  O35  1  0.987728  0.098458  0.594985  1
  O  O36  1  0.098458  0.503473  0.110730  1
  O  O37  1  0.392744  0.987728  0.889270  1
