# generated using pymatgen
data_Li3Tm4AlRuPt3
_symmetry_space_group_name_H-M   'P 1'
_cell_length_a   3.94078700
_cell_length_b   7.00737488
_cell_length_c   8.28553560
_cell_angle_alpha   91.01072386
_cell_angle_beta   90.00000000
_cell_angle_gamma   90.00000000
_symmetry_Int_Tables_number   1
_chemical_formula_structural   Li3Tm4AlRuPt3
_chemical_formula_sum   'Li3 Tm4 Al1 Ru1 Pt3'
_cell_volume   228.76591923
_cell_formula_units_Z   1
loop_
 _symmetry_equiv_pos_site_id
 _symmetry_equiv_pos_as_xyz
  1  'x, y, z'
loop_
 _atom_site_type_symbol
 _atom_site_label
 _atom_site_symmetry_multiplicity
 _atom_site_fract_x
 _atom_site_fract_y
 _atom_site_fract_z
 _atom_site_occupancy
  Li  Li0  1  0.250000  0.131525  0.057389  1
  Li  Li1  1  0.250000  0.631917  0.439785  1
  Li  Li2  1  0.750000  0.874724  0.939617  1
  Tm  Tm3  1  0.250000  0.044019  0.673079  1
  Tm  Tm4  1  0.250000  0.543137  0.820672  1
  Tm  Tm5  1  0.750000  0.961218  0.323583  1
  Tm  Tm6  1  0.750000  0.455785  0.185839  1
  Al  Al7  1  0.750000  0.366559  0.555512  1
  Ru  Ru8  1  0.250000  0.249901  0.389020  1
  Pt  Pt9  1  0.250000  0.747372  0.125331  1
  Pt  Pt10  1  0.750000  0.738350  0.623661  1
  Pt  Pt11  1  0.750000  0.255492  0.866513  1
