# generated using pymatgen
data_Tb3SmDy(FeB3)2
_symmetry_space_group_name_H-M   'P 1'
_cell_length_a   5.42257368
_cell_length_b   5.42257441
_cell_length_c   8.30975167
_cell_angle_alpha   70.95699127
_cell_angle_beta   70.95699172
_cell_angle_gamma   59.99999009
_symmetry_Int_Tables_number   1
_chemical_formula_structural   Tb3SmDy(FeB3)2
_chemical_formula_sum   'Tb3 Sm1 Dy1 Fe2 B6'
_cell_volume   196.01427587
_cell_formula_units_Z   1
loop_
 _symmetry_equiv_pos_site_id
 _symmetry_equiv_pos_as_xyz
  1  'x, y, z'
loop_
 _atom_site_type_symbol
 _atom_site_label
 _atom_site_symmetry_multiplicity
 _atom_site_fract_x
 _atom_site_fract_y
 _atom_site_fract_z
 _atom_site_occupancy
  Tb  Tb0  1  0.251168  0.251168  0.246496  1
  Tb  Tb1  1  0.748877  0.748877  0.753370  1
  Tb  Tb2  1  0.416651  0.416651  0.750045  1
  Sm  Sm3  1  0.999803  0.999803  0.000591  1
  Dy  Dy4  1  0.582886  0.582886  0.251344  1
  Fe  Fe5  1  0.117782  0.117782  0.646655  1
  Fe  Fe6  1  0.882305  0.882305  0.353083  1
  B  B7  1  0.167785  0.832490  0.499736  1
  B  B8  1  0.832490  0.499989  0.499736  1
  B  B9  1  0.499989  0.167785  0.499736  1
  B  B10  1  0.167785  0.499989  0.499736  1
  B  B11  1  0.499989  0.832490  0.499736  1
  B  B12  1  0.832490  0.167785  0.499736  1
