# generated using pymatgen
data_SmHo2Ta(Co4P3)2
_symmetry_space_group_name_H-M   'P 1'
_cell_length_a   3.71692200
_cell_length_b   10.65006700
_cell_length_c   12.34843700
_cell_angle_alpha   90.00000000
_cell_angle_beta   90.00000000
_cell_angle_gamma   90.00000000
_symmetry_Int_Tables_number   1
_chemical_formula_structural   SmHo2Ta(Co4P3)2
_chemical_formula_sum   'Sm2 Ho4 Ta2 Co16 P12'
_cell_volume   488.81866184
_cell_formula_units_Z   2
loop_
 _symmetry_equiv_pos_site_id
 _symmetry_equiv_pos_as_xyz
  1  'x, y, z'
loop_
 _atom_site_type_symbol
 _atom_site_label
 _atom_site_symmetry_multiplicity
 _atom_site_fract_x
 _atom_site_fract_y
 _atom_site_fract_z
 _atom_site_occupancy
  Sm  Sm0  1  0.000000  0.500000  0.527010  1
  Sm  Sm1  1  0.500000  0.000000  0.472990  1
  Ho  Ho2  1  0.500000  0.820501  0.204324  1
  Ho  Ho3  1  0.500000  0.179499  0.204324  1
  Ho  Ho4  1  0.000000  0.679499  0.795676  1
  Ho  Ho5  1  0.000000  0.320501  0.795676  1
  Ta  Ta6  1  0.500000  0.500000  0.155153  1
  Ta  Ta7  1  0.000000  0.000000  0.844847  1
  Co  Co8  1  0.000000  0.500000  0.986741  1
  Co  Co9  1  0.500000  0.000000  0.013259  1
  Co  Co10  1  0.500000  0.295134  0.431424  1
  Co  Co11  1  0.500000  0.704866  0.431424  1
  Co  Co12  1  0.000000  0.204866  0.568576  1
  Co  Co13  1  0.000000  0.795134  0.568576  1
  Co  Co14  1  0.500000  0.877859  0.707175  1
  Co  Co15  1  0.500000  0.122141  0.707175  1
  Co  Co16  1  0.000000  0.622141  0.292825  1
  Co  Co17  1  0.000000  0.377859  0.292825  1
  Co  Co18  1  0.500000  0.332456  0.992248  1
  Co  Co19  1  0.500000  0.667544  0.992248  1
  Co  Co20  1  0.000000  0.167544  0.007752  1
  Co  Co21  1  0.000000  0.832456  0.007752  1
  Co  Co22  1  0.500000  0.500000  0.704429  1
  Co  Co23  1  0.000000  0.000000  0.295571  1
  P  P24  1  0.500000  0.309141  0.616818  1
  P  P25  1  0.500000  0.690859  0.616818  1
  P  P26  1  0.000000  0.190859  0.383182  1
  P  P27  1  0.000000  0.809141  0.383182  1
  P  P28  1  0.500000  0.500000  0.882521  1
  P  P29  1  0.000000  0.000000  0.117479  1
  P  P30  1  0.500000  0.840936  0.893113  1
  P  P31  1  0.500000  0.159064  0.893113  1
  P  P32  1  0.000000  0.659064  0.106887  1
  P  P33  1  0.000000  0.340936  0.106887  1
  P  P34  1  0.500000  0.500000  0.353931  1
  P  P35  1  0.000000  0.000000  0.646069  1
