# generated using pymatgen
data_Zr10InSn6Bi
_symmetry_space_group_name_H-M   'P 1'
_cell_length_a   8.87354301
_cell_length_b   8.85837202
_cell_length_c   5.99388301
_cell_angle_alpha   89.99737063
_cell_angle_beta   90.00524328
_cell_angle_gamma   120.05666535
_symmetry_Int_Tables_number   1
_chemical_formula_structural   Zr10InSn6Bi
_chemical_formula_sum   'Zr10 In1 Sn6 Bi1'
_cell_volume   407.79472231
_cell_formula_units_Z   1
loop_
 _symmetry_equiv_pos_site_id
 _symmetry_equiv_pos_as_xyz
  1  'x, y, z'
loop_
 _atom_site_type_symbol
 _atom_site_label
 _atom_site_symmetry_multiplicity
 _atom_site_fract_x
 _atom_site_fract_y
 _atom_site_fract_z
 _atom_site_occupancy
  Zr  Zr0  1  0.330903  0.663566  0.998375  1
  Zr  Zr1  1  0.667330  0.336525  0.501636  1
  Zr  Zr2  1  0.667337  0.336434  0.998375  1
  Zr  Zr3  1  0.330804  0.663475  0.501636  1
  Zr  Zr4  1  0.277900  0.000000  0.249924  1
  Zr  Zr5  1  0.281578  0.282206  0.749990  1
  Zr  Zr6  1  0.999372  0.717794  0.749990  1
  Zr  Zr7  1  0.005454  0.284077  0.250064  1
  Zr  Zr8  1  0.721376  0.715923  0.250064  1
  Zr  Zr9  1  0.719049  0.000000  0.750011  1
  In  In10  1  0.999966  0.000000  0.998913  1
  Sn  Sn11  1  0.999918  0.000000  0.501108  1
  Sn  Sn12  1  0.615019  0.615897  0.750653  1
  Sn  Sn13  1  0.999123  0.384103  0.750653  1
  Sn  Sn14  1  0.000829  0.614832  0.249338  1
  Sn  Sn15  1  0.385998  0.385168  0.249338  1
  Sn  Sn16  1  0.383442  0.000000  0.750614  1
  Bi  Bi17  1  0.614602  0.000000  0.249315  1
