# generated using pymatgen
data_Ta9Nb3Al8(RhC)4
_symmetry_space_group_name_H-M   'P 1'
_cell_length_a   8.32666540
_cell_length_b   8.33102039
_cell_length_c   8.32618966
_cell_angle_alpha   59.98458736
_cell_angle_beta   59.96248618
_cell_angle_gamma   59.97892581
_symmetry_Int_Tables_number   1
_chemical_formula_structural   Ta9Nb3Al8(RhC)4
_chemical_formula_sum   'Ta9 Nb3 Al8 Rh4 C4'
_cell_volume   408.18551409
_cell_formula_units_Z   1
loop_
 _symmetry_equiv_pos_site_id
 _symmetry_equiv_pos_as_xyz
  1  'x, y, z'
loop_
 _atom_site_type_symbol
 _atom_site_label
 _atom_site_symmetry_multiplicity
 _atom_site_fract_x
 _atom_site_fract_y
 _atom_site_fract_z
 _atom_site_occupancy
  Ta  Ta0  1  0.314264  0.685736  0.314264  1
  Ta  Ta1  1  0.685850  0.685265  0.314425  1
  Ta  Ta2  1  0.314425  0.314460  0.685850  1
  Ta  Ta3  1  0.564579  0.564742  0.935529  1
  Ta  Ta4  1  0.936016  0.564287  0.564066  1
  Ta  Ta5  1  0.564066  0.935631  0.936016  1
  Ta  Ta6  1  0.935529  0.935150  0.564579  1
  Ta  Ta7  1  0.685825  0.314175  0.685825  1
  Ta  Ta8  1  0.934978  0.565022  0.934978  1
  Nb  Nb9  1  0.564542  0.935458  0.564542  1
  Nb  Nb10  1  0.314655  0.685074  0.685619  1
  Nb  Nb11  1  0.685619  0.314652  0.314655  1
  Al  Al12  1  0.917669  0.916240  0.916587  1
  Al  Al13  1  0.000370  0.332965  0.332618  1
  Al  Al14  1  0.333133  0.000288  0.334180  1
  Al  Al15  1  0.332618  0.334047  0.000370  1
  Al  Al16  1  0.916587  0.249504  0.917669  1
  Al  Al17  1  0.915900  0.917710  0.249734  1
  Al  Al18  1  0.249734  0.916656  0.915900  1
  Al  Al19  1  0.334180  0.332399  0.333133  1
  Rh  Rh20  1  0.127449  0.123855  0.123918  1
  Rh  Rh21  1  0.625280  0.124908  0.121396  1
  Rh  Rh22  1  0.123918  0.624779  0.127449  1
  Rh  Rh23  1  0.121396  0.128417  0.625280  1
  C  C24  1  0.627349  0.622692  0.625168  1
  C  C25  1  0.124104  0.624503  0.624800  1
  C  C26  1  0.625168  0.124791  0.627349  1
  C  C27  1  0.624800  0.626593  0.124104  1
