# generated using pymatgen
data_Ho2Pa2(Al8Pt3)3
_symmetry_space_group_name_H-M   'P 1'
_cell_length_a   7.56143222
_cell_length_b   7.57162824
_cell_length_c   13.10531490
_cell_angle_alpha   84.50359489
_cell_angle_beta   78.92016667
_cell_angle_gamma   59.92980094
_symmetry_Int_Tables_number   1
_chemical_formula_structural   Ho2Pa2(Al8Pt3)3
_chemical_formula_sum   'Ho2 Pa2 Al24 Pt9'
_cell_volume   637.22415836
_cell_formula_units_Z   1
loop_
 _symmetry_equiv_pos_site_id
 _symmetry_equiv_pos_as_xyz
  1  'x, y, z'
loop_
 _atom_site_type_symbol
 _atom_site_label
 _atom_site_symmetry_multiplicity
 _atom_site_fract_x
 _atom_site_fract_y
 _atom_site_fract_z
 _atom_site_occupancy
  Ho  Ho0  1  0.734013  0.498430  0.807791  1
  Ho  Ho1  1  0.265987  0.501570  0.192209  1
  Pa  Pa2  1  0.394742  0.168382  0.805551  1
  Pa  Pa3  1  0.605258  0.831618  0.194449  1
  Al  Al4  1  0.684455  0.833364  0.944291  1
  Al  Al5  1  0.315545  0.166636  0.055709  1
  Al  Al6  1  0.145712  0.832740  0.561332  1
  Al  Al7  1  0.854288  0.167260  0.438668  1
  Al  Al8  1  0.480064  0.167430  0.558292  1
  Al  Al9  1  0.519936  0.832570  0.441708  1
  Al  Al10  1  0.215366  0.167469  0.330388  1
  Al  Al11  1  0.784634  0.832531  0.669612  1
  Al  Al12  1  0.437525  0.508533  0.670207  1
  Al  Al13  1  0.562475  0.491467  0.329793  1
  Al  Al14  1  0.107777  0.159930  0.668635  1
  Al  Al15  1  0.892223  0.840070  0.331365  1
  Al  Al16  1  0.353386  0.499696  0.943631  1
  Al  Al17  1  0.646614  0.500304  0.056369  1
  Al  Al18  1  0.015481  0.167847  0.952149  1
  Al  Al19  1  0.984519  0.832153  0.047851  1
  Al  Al20  1  0.185974  0.499978  0.441251  1
  Al  Al21  1  0.814026  0.500022  0.558749  1
  Al  Al22  1  0.735726  0.162841  0.182867  1
  Al  Al23  1  0.264274  0.837159  0.817133  1
  Al  Al24  1  0.062597  0.631177  0.815915  1
  Al  Al25  1  0.937403  0.368823  0.184085  1
  Al  Al26  1  0.855180  0.040644  0.816669  1
  Al  Al27  1  0.144820  0.959356  0.183331  1
  Pt  Pt28  1  0.119763  0.491130  0.639948  1
  Pt  Pt29  1  0.880237  0.508870  0.360052  1
  Pt  Pt30  1  0.656618  0.172612  0.999832  1
  Pt  Pt31  1  0.343382  0.827388  0.000168  1
  Pt  Pt32  1  0.537404  0.166352  0.360431  1
  Pt  Pt33  1  0.462596  0.833648  0.639569  1
  Pt  Pt34  1  0.777715  0.175593  0.638522  1
  Pt  Pt35  1  0.222285  0.824407  0.361478  1
  Pt  Pt36  1  0.000000  0.500000  0.000000  1
