# generated using pymatgen
data_Tb2Ni3B4Ir
_symmetry_space_group_name_H-M   'P 1'
_cell_length_a   5.05049434
_cell_length_b   5.02742503
_cell_length_c   7.07537571
_cell_angle_alpha   58.70306790
_cell_angle_beta   59.59644399
_cell_angle_gamma   63.74469459
_symmetry_Int_Tables_number   1
_chemical_formula_structural   Tb2Ni3B4Ir
_chemical_formula_sum   'Tb2 Ni3 B4 Ir1'
_cell_volume   128.41300616
_cell_formula_units_Z   1
loop_
 _symmetry_equiv_pos_site_id
 _symmetry_equiv_pos_as_xyz
  1  'x, y, z'
loop_
 _atom_site_type_symbol
 _atom_site_label
 _atom_site_symmetry_multiplicity
 _atom_site_fract_x
 _atom_site_fract_y
 _atom_site_fract_z
 _atom_site_occupancy
  Tb  Tb0  1  0.118125  0.884411  0.744151  1
  Tb  Tb1  1  0.880350  0.122920  0.246888  1
  Ni  Ni2  1  0.474962  0.266400  0.698010  1
  Ni  Ni3  1  0.533508  0.716338  0.301760  1
  Ni  Ni4  1  0.268884  0.466302  0.209505  1
  B  B5  1  0.164919  0.501582  0.516529  1
  B  B6  1  0.491492  0.844945  0.988851  1
  B  B7  1  0.846027  0.495538  0.469435  1
  B  B8  1  0.503540  0.154969  0.028438  1
  Ir  Ir9  1  0.718193  0.546596  0.796435  1
