# generated using pymatgen
data_Ba4ThCr2S9
_symmetry_space_group_name_H-M   'P 1'
_cell_length_a   12.01451300
_cell_length_b   12.01449978
_cell_length_c   9.66598300
_cell_angle_alpha   90.00000000
_cell_angle_beta   89.99977109
_cell_angle_gamma   119.99996206
_symmetry_Int_Tables_number   1
_chemical_formula_structural   Ba4ThCr2S9
_chemical_formula_sum   'Ba12 Th3 Cr6 S27'
_cell_volume   1208.33871417
_cell_formula_units_Z   3
loop_
 _symmetry_equiv_pos_site_id
 _symmetry_equiv_pos_as_xyz
  1  'x, y, z'
loop_
 _atom_site_type_symbol
 _atom_site_label
 _atom_site_symmetry_multiplicity
 _atom_site_fract_x
 _atom_site_fract_y
 _atom_site_fract_z
 _atom_site_occupancy
  Ba  Ba0  1  0.682040  0.999994  0.000000  1
  Ba  Ba1  1  0.317961  0.317953  0.000000  1
  Ba  Ba2  1  0.000000  0.682037  0.000000  1
  Ba  Ba3  1  0.043934  0.339846  0.247221  1
  Ba  Ba4  1  0.295911  0.956061  0.247217  1
  Ba  Ba5  1  0.660159  0.704086  0.247220  1
  Ba  Ba6  1  0.000000  0.625606  0.500000  1
  Ba  Ba7  1  0.374392  0.374390  0.500000  1
  Ba  Ba8  1  0.625608  0.999996  0.500000  1
  Ba  Ba9  1  0.704090  0.660150  0.752782  1
  Ba  Ba10  1  0.339841  0.043927  0.752781  1
  Ba  Ba11  1  0.956067  0.295913  0.752779  1
  Th  Th12  1  0.666664  0.333328  0.255592  1
  Th  Th13  1  0.000000  0.999996  0.500000  1
  Th  Th14  1  0.333335  0.666663  0.744408  1
  Cr  Cr15  1  0.333345  0.666666  0.082106  1
  Cr  Cr16  1  0.000029  0.000061  0.157083  1
  Cr  Cr17  1  0.333330  0.666662  0.397434  1
  Cr  Cr18  1  0.666670  0.333333  0.602567  1
  Cr  Cr19  1  0.999971  0.000032  0.842917  1
  Cr  Cr20  1  0.666655  0.333320  0.917895  1
  S  S21  1  0.152808  0.000002  0.999994  1
  S  S22  1  0.000000  0.152833  0.000000  1
  S  S23  1  0.847192  0.847192  0.000006  1
  S  S24  1  0.494049  0.177019  0.060107  1
  S  S25  1  0.682967  0.505939  0.060104  1
  S  S26  1  0.822971  0.317024  0.060104  1
  S  S27  1  0.166064  0.646419  0.239697  1
  S  S28  1  0.353581  0.519637  0.239698  1
  S  S29  1  0.480362  0.833936  0.239700  1
  S  S30  1  0.174984  0.160592  0.303020  1
  S  S31  1  0.839415  0.014393  0.303019  1
  S  S32  1  0.985609  0.825026  0.303015  1
  S  S33  1  0.822562  0.311972  0.455542  1
  S  S34  1  0.688025  0.510583  0.455543  1
  S  S35  1  0.489412  0.177433  0.455544  1
  S  S36  1  0.510588  0.688021  0.544456  1
  S  S37  1  0.311975  0.822559  0.544458  1
  S  S38  1  0.177438  0.489409  0.544458  1
  S  S39  1  0.160586  0.174979  0.696980  1
  S  S40  1  0.014391  0.839416  0.696986  1
  S  S41  1  0.825015  0.985607  0.696981  1
  S  S42  1  0.519638  0.353574  0.760300  1
  S  S43  1  0.646419  0.166056  0.760303  1
  S  S44  1  0.833937  0.480355  0.760303  1
  S  S45  1  0.177029  0.494054  0.939897  1
  S  S46  1  0.317033  0.822973  0.939896  1
  S  S47  1  0.505950  0.682970  0.939893  1
