# generated using pymatgen
data_Sm6Co15P12Ru2Rh
_symmetry_space_group_name_H-M   'P 1'
_cell_length_a   3.75670700
_cell_length_b   10.64826000
_cell_length_c   12.42402100
_cell_angle_alpha   90.00000000
_cell_angle_beta   90.00000000
_cell_angle_gamma   90.00000000
_symmetry_Int_Tables_number   1
_chemical_formula_structural   Sm6Co15P12Ru2Rh
_chemical_formula_sum   'Sm6 Co15 P12 Ru2 Rh1'
_cell_volume   496.99056919
_cell_formula_units_Z   1
loop_
 _symmetry_equiv_pos_site_id
 _symmetry_equiv_pos_as_xyz
  1  'x, y, z'
loop_
 _atom_site_type_symbol
 _atom_site_label
 _atom_site_symmetry_multiplicity
 _atom_site_fract_x
 _atom_site_fract_y
 _atom_site_fract_z
 _atom_site_occupancy
  Sm  Sm0  1  0.000000  0.500000  0.519926  1
  Sm  Sm1  1  0.500000  0.000000  0.476534  1
  Sm  Sm2  1  0.500000  0.817348  0.206596  1
  Sm  Sm3  1  0.500000  0.182652  0.206596  1
  Sm  Sm4  1  0.000000  0.687008  0.794372  1
  Sm  Sm5  1  0.000000  0.312992  0.794372  1
  Co  Co6  1  0.000000  0.000000  0.294439  1
  Co  Co7  1  0.000000  0.500000  0.989532  1
  Co  Co8  1  0.500000  0.000000  0.013765  1
  Co  Co9  1  0.500000  0.331180  0.993624  1
  Co  Co10  1  0.500000  0.668820  0.993624  1
  Co  Co11  1  0.000000  0.166950  0.008815  1
  Co  Co12  1  0.000000  0.833050  0.008815  1
  Co  Co13  1  0.500000  0.296898  0.427832  1
  Co  Co14  1  0.500000  0.703102  0.427832  1
  Co  Co15  1  0.000000  0.199336  0.568833  1
  Co  Co16  1  0.000000  0.800664  0.568833  1
  Co  Co17  1  0.500000  0.882325  0.709926  1
  Co  Co18  1  0.500000  0.117675  0.709926  1
  Co  Co19  1  0.000000  0.619256  0.290016  1
  Co  Co20  1  0.000000  0.380744  0.290016  1
  P  P21  1  0.500000  0.500000  0.891853  1
  P  P22  1  0.000000  0.000000  0.115760  1
  P  P23  1  0.500000  0.500000  0.345807  1
  P  P24  1  0.000000  0.000000  0.653175  1
  P  P25  1  0.500000  0.299971  0.611411  1
  P  P26  1  0.500000  0.700029  0.611411  1
  P  P27  1  0.000000  0.190733  0.384273  1
  P  P28  1  0.000000  0.809267  0.384273  1
  P  P29  1  0.500000  0.848343  0.896106  1
  P  P30  1  0.500000  0.151657  0.896106  1
  P  P31  1  0.000000  0.653368  0.105763  1
  P  P32  1  0.000000  0.346632  0.105763  1
  Ru  Ru33  1  0.500000  0.500000  0.158285  1
  Ru  Ru34  1  0.000000  0.000000  0.842227  1
  Rh  Rh35  1  0.500000  0.500000  0.703561  1
