# generated using pymatgen
data_Ho4AlCdGa4
_symmetry_space_group_name_H-M   'P 1'
_cell_length_a   7.09601300
_cell_length_b   7.09601300
_cell_length_c   4.40150600
_cell_angle_alpha   90.00000000
_cell_angle_beta   90.00000000
_cell_angle_gamma   90.00000000
_symmetry_Int_Tables_number   1
_chemical_formula_structural   Ho4AlCdGa4
_chemical_formula_sum   'Ho4 Al1 Cd1 Ga4'
_cell_volume   221.63079440
_cell_formula_units_Z   1
loop_
 _symmetry_equiv_pos_site_id
 _symmetry_equiv_pos_as_xyz
  1  'x, y, z'
loop_
 _atom_site_type_symbol
 _atom_site_label
 _atom_site_symmetry_multiplicity
 _atom_site_fract_x
 _atom_site_fract_y
 _atom_site_fract_z
 _atom_site_occupancy
  Ho  Ho0  1  0.321788  0.167383  0.499999  1
  Ho  Ho1  1  0.832617  0.321788  0.499999  1
  Ho  Ho2  1  0.167383  0.678212  0.499999  1
  Ho  Ho3  1  0.678212  0.832617  0.499999  1
  Al  Al4  1  0.000000  0.000000  0.000000  1
  Cd  Cd5  1  0.500000  0.500000  0.000000  1
  Ga  Ga6  1  0.632908  0.124169  0.000000  1
  Ga  Ga7  1  0.124169  0.367092  0.000000  1
  Ga  Ga8  1  0.875831  0.632908  0.000000  1
  Ga  Ga9  1  0.367092  0.875831  0.000000  1
