# generated using pymatgen
data_PrIn2CuIr8
_symmetry_space_group_name_H-M   'P 1'
_cell_length_a   8.80308900
_cell_length_b   8.80308900
_cell_length_c   5.25979600
_cell_angle_alpha   90.00000000
_cell_angle_beta   90.00000000
_cell_angle_gamma   90.00000000
_symmetry_Int_Tables_number   1
_chemical_formula_structural   PrIn2CuIr8
_chemical_formula_sum   'Pr2 In4 Cu2 Ir16'
_cell_volume   407.60460860
_cell_formula_units_Z   2
loop_
 _symmetry_equiv_pos_site_id
 _symmetry_equiv_pos_as_xyz
  1  'x, y, z'
loop_
 _atom_site_type_symbol
 _atom_site_label
 _atom_site_symmetry_multiplicity
 _atom_site_fract_x
 _atom_site_fract_y
 _atom_site_fract_z
 _atom_site_occupancy
  Pr  Pr0  1  0.000000  0.000000  0.000000  1
  Pr  Pr1  1  0.500000  0.500000  0.000000  1
  In  In2  1  0.121235  0.621235  0.000000  1
  In  In3  1  0.878765  0.378765  0.000000  1
  In  In4  1  0.621235  0.878765  0.000000  1
  In  In5  1  0.378765  0.121235  0.000000  1
  Cu  Cu6  1  0.500000  0.000000  0.500000  1
  Cu  Cu7  1  0.000000  0.500000  0.500000  1
  Ir  Ir8  1  0.205387  0.065588  0.500000  1
  Ir  Ir9  1  0.794613  0.934412  0.500000  1
  Ir  Ir10  1  0.065588  0.794613  0.500000  1
  Ir  Ir11  1  0.705387  0.434412  0.500000  1
  Ir  Ir12  1  0.934412  0.205387  0.500000  1
  Ir  Ir13  1  0.294613  0.565588  0.500000  1
  Ir  Ir14  1  0.565588  0.705387  0.500000  1
  Ir  Ir15  1  0.434412  0.294613  0.500000  1
  Ir  Ir16  1  0.677238  0.177238  0.238897  1
  Ir  Ir17  1  0.322762  0.822762  0.761103  1
  Ir  Ir18  1  0.322762  0.822762  0.238897  1
  Ir  Ir19  1  0.177238  0.322762  0.238897  1
  Ir  Ir20  1  0.177238  0.322762  0.761103  1
  Ir  Ir21  1  0.677238  0.177238  0.761103  1
  Ir  Ir22  1  0.822762  0.677238  0.761103  1
  Ir  Ir23  1  0.822762  0.677238  0.238897  1
