# generated using pymatgen
data_Sc3Si2Ru3S
_symmetry_space_group_name_H-M   'P 1'
_cell_length_a   6.70835200
_cell_length_b   6.70835215
_cell_length_c   3.57151600
_cell_angle_alpha   90.00000000
_cell_angle_beta   90.00000000
_cell_angle_gamma   119.99998940
_symmetry_Int_Tables_number   1
_chemical_formula_structural   Sc3Si2Ru3S
_chemical_formula_sum   'Sc3 Si2 Ru3 S1'
_cell_volume   139.19222382
_cell_formula_units_Z   1
loop_
 _symmetry_equiv_pos_site_id
 _symmetry_equiv_pos_as_xyz
  1  'x, y, z'
loop_
 _atom_site_type_symbol
 _atom_site_label
 _atom_site_symmetry_multiplicity
 _atom_site_fract_x
 _atom_site_fract_y
 _atom_site_fract_z
 _atom_site_occupancy
  Sc  Sc0  1  0.409102  0.409144  0.500000  1
  Sc  Sc1  1  0.590856  0.999959  0.500000  1
  Sc  Sc2  1  0.000041  0.590898  0.500000  1
  Si  Si3  1  0.333333  0.666667  0.000000  1
  Si  Si4  1  0.000000  0.000000  0.500000  1
  Ru  Ru5  1  0.754110  0.751257  0.000000  1
  Ru  Ru6  1  0.248743  0.002853  0.000000  1
  Ru  Ru7  1  0.997147  0.245890  0.000000  1
  S  S8  1  0.666667  0.333333  0.000000  1
