# generated using pymatgen
data_Zr16Co4Os3W
_symmetry_space_group_name_H-M   'P 1'
_cell_length_a   8.70679066
_cell_length_b   8.70679020
_cell_length_c   8.70586916
_cell_angle_alpha   59.99650788
_cell_angle_beta   59.99650963
_cell_angle_gamma   60.00000575
_symmetry_Int_Tables_number   1
_chemical_formula_structural   Zr16Co4Os3W
_chemical_formula_sum   'Zr16 Co4 Os3 W1'
_cell_volume   466.64908642
_cell_formula_units_Z   1
loop_
 _symmetry_equiv_pos_site_id
 _symmetry_equiv_pos_as_xyz
  1  'x, y, z'
loop_
 _atom_site_type_symbol
 _atom_site_label
 _atom_site_symmetry_multiplicity
 _atom_site_fract_x
 _atom_site_fract_y
 _atom_site_fract_z
 _atom_site_occupancy
  Zr  Zr0  1  0.198882  0.600628  0.599863  1
  Zr  Zr1  1  0.600628  0.198882  0.599863  1
  Zr  Zr2  1  0.600628  0.600628  0.599863  1
  Zr  Zr3  1  0.601467  0.601467  0.195600  1
  Zr  Zr4  1  0.454409  0.454409  0.045752  1
  Zr  Zr5  1  0.047568  0.047568  0.453222  1
  Zr  Zr6  1  0.454409  0.045429  0.045752  1
  Zr  Zr7  1  0.047568  0.451643  0.453222  1
  Zr  Zr8  1  0.045429  0.454409  0.045752  1
  Zr  Zr9  1  0.451643  0.047568  0.453222  1
  Zr  Zr10  1  0.814781  0.814781  0.186680  1
  Zr  Zr11  1  0.185488  0.185488  0.814985  1
  Zr  Zr12  1  0.814781  0.183759  0.186680  1
  Zr  Zr13  1  0.185488  0.814037  0.814985  1
  Zr  Zr14  1  0.183759  0.814781  0.186680  1
  Zr  Zr15  1  0.814037  0.185488  0.814985  1
  Co  Co16  1  0.829971  0.390758  0.388513  1
  Co  Co17  1  0.390758  0.829971  0.388513  1
  Co  Co18  1  0.390758  0.390758  0.388513  1
  Co  Co19  1  0.389682  0.389682  0.830954  1
  Os  Os20  1  0.503080  0.832629  0.831664  1
  Os  Os21  1  0.832629  0.503080  0.831664  1
  Os  Os22  1  0.832629  0.832629  0.831664  1
  W  W23  1  0.829529  0.829529  0.511412  1
