# generated using pymatgen
data_HoLuPa2(Al3Co)6
_symmetry_space_group_name_H-M   'P 1'
_cell_length_a   7.40731081
_cell_length_b   7.40374364
_cell_length_c   9.18436500
_cell_angle_alpha   90.00000000
_cell_angle_beta   90.00000000
_cell_angle_gamma   119.20358186
_symmetry_Int_Tables_number   1
_chemical_formula_structural   HoLuPa2(Al3Co)6
_chemical_formula_sum   'Ho1 Lu1 Pa2 Al18 Co6'
_cell_volume   439.66447752
_cell_formula_units_Z   1
loop_
 _symmetry_equiv_pos_site_id
 _symmetry_equiv_pos_as_xyz
  1  'x, y, z'
loop_
 _atom_site_type_symbol
 _atom_site_label
 _atom_site_symmetry_multiplicity
 _atom_site_fract_x
 _atom_site_fract_y
 _atom_site_fract_z
 _atom_site_occupancy
  Ho  Ho0  1  0.672811  0.994265  0.250000  1
  Lu  Lu1  1  0.993662  0.672890  0.250000  1
  Pa  Pa2  1  0.006746  0.323698  0.750000  1
  Pa  Pa3  1  0.324144  0.006639  0.750000  1
  Al  Al4  1  0.662522  0.998355  0.929109  1
  Al  Al5  1  0.998669  0.662587  0.569922  1
  Al  Al6  1  0.122124  0.121660  0.250000  1
  Al  Al7  1  0.670674  0.670072  0.049485  1
  Al  Al8  1  0.337192  0.337094  0.539444  1
  Al  Al9  1  0.337192  0.337094  0.960556  1
  Al  Al10  1  0.670674  0.670072  0.450515  1
  Al  Al11  1  0.334789  0.996320  0.076347  1
  Al  Al12  1  0.997124  0.336522  0.423753  1
  Al  Al13  1  0.339933  0.559020  0.250000  1
  Al  Al14  1  0.997124  0.336522  0.076247  1
  Al  Al15  1  0.559160  0.342111  0.250000  1
  Al  Al16  1  0.659284  0.447340  0.750000  1
  Al  Al17  1  0.866530  0.866139  0.750000  1
  Al  Al18  1  0.998669  0.662587  0.930078  1
  Al  Al19  1  0.662522  0.998355  0.570891  1
  Al  Al20  1  0.334789  0.996320  0.423653  1
  Al  Al21  1  0.447675  0.658378  0.750000  1
  Co  Co22  1  0.671360  0.326076  0.504096  1
  Co  Co23  1  0.671360  0.326076  0.995904  1
  Co  Co24  1  0.325739  0.671185  0.504296  1
  Co  Co25  1  0.005900  0.005718  0.991592  1
  Co  Co26  1  0.005900  0.005718  0.508408  1
  Co  Co27  1  0.325739  0.671185  0.995704  1
