# generated using pymatgen
data_CaGd3(BeSi3)2
_symmetry_space_group_name_H-M   'P 1'
_cell_length_a   7.81728000
_cell_length_b   7.81727957
_cell_length_c   8.23821900
_cell_angle_alpha   90.00000000
_cell_angle_beta   90.00000000
_cell_angle_gamma   120.00001026
_symmetry_Int_Tables_number   1
_chemical_formula_structural   CaGd3(BeSi3)2
_chemical_formula_sum   'Ca2 Gd6 Be4 Si12'
_cell_volume   435.98869829
_cell_formula_units_Z   2
loop_
 _symmetry_equiv_pos_site_id
 _symmetry_equiv_pos_as_xyz
  1  'x, y, z'
loop_
 _atom_site_type_symbol
 _atom_site_label
 _atom_site_symmetry_multiplicity
 _atom_site_fract_x
 _atom_site_fract_y
 _atom_site_fract_z
 _atom_site_occupancy
  Ca  Ca0  1  0.000000  0.000000  0.250000  1
  Ca  Ca1  1  0.000000  0.000000  0.750000  1
  Gd  Gd2  1  0.500316  0.499684  0.250000  1
  Gd  Gd3  1  0.500316  0.000631  0.250000  1
  Gd  Gd4  1  0.999369  0.499684  0.250000  1
  Gd  Gd5  1  0.499684  0.500316  0.750000  1
  Gd  Gd6  1  0.499684  0.999369  0.750000  1
  Gd  Gd7  1  0.000631  0.500316  0.750000  1
  Be  Be8  1  0.333333  0.666667  0.496627  1
  Be  Be9  1  0.666667  0.333333  0.503373  1
  Be  Be10  1  0.666667  0.333333  0.996627  1
  Be  Be11  1  0.333333  0.666667  0.003373  1
  Si  Si12  1  0.173328  0.826672  0.499913  1
  Si  Si13  1  0.173328  0.346656  0.499913  1
  Si  Si14  1  0.653344  0.826672  0.499913  1
  Si  Si15  1  0.826672  0.173328  0.500087  1
  Si  Si16  1  0.826672  0.653344  0.500087  1
  Si  Si17  1  0.346656  0.173328  0.500087  1
  Si  Si18  1  0.826672  0.173328  0.999913  1
  Si  Si19  1  0.826672  0.653344  0.999913  1
  Si  Si20  1  0.346656  0.173328  0.999913  1
  Si  Si21  1  0.173328  0.826672  0.000087  1
  Si  Si22  1  0.173328  0.346656  0.000087  1
  Si  Si23  1  0.653344  0.826672  0.000087  1
