# generated using pymatgen
data_Nd4Er(SnBi)2
_symmetry_space_group_name_H-M   'P 1'
_cell_length_a   8.38009300
_cell_length_b   8.38686700
_cell_length_c   16.03893000
_cell_angle_alpha   90.00000000
_cell_angle_beta   90.00000000
_cell_angle_gamma   90.00000000
_symmetry_Int_Tables_number   1
_chemical_formula_structural   Nd4Er(SnBi)2
_chemical_formula_sum   'Nd16 Er4 Sn8 Bi8'
_cell_volume   1127.25971352
_cell_formula_units_Z   4
loop_
 _symmetry_equiv_pos_site_id
 _symmetry_equiv_pos_as_xyz
  1  'x, y, z'
loop_
 _atom_site_type_symbol
 _atom_site_label
 _atom_site_symmetry_multiplicity
 _atom_site_fract_x
 _atom_site_fract_y
 _atom_site_fract_z
 _atom_site_occupancy
  Nd  Nd0  1  0.042858  0.176166  0.392236  1
  Nd  Nd1  1  0.383480  0.837403  0.122334  1
  Nd  Nd2  1  0.116520  0.337403  0.622334  1
  Nd  Nd3  1  0.457142  0.676166  0.892236  1
  Nd  Nd4  1  0.883480  0.662597  0.122334  1
  Nd  Nd5  1  0.116520  0.337403  0.877666  1
  Nd  Nd6  1  0.457142  0.676166  0.607764  1
  Nd  Nd7  1  0.616520  0.162597  0.622334  1
  Nd  Nd8  1  0.883480  0.662597  0.377666  1
  Nd  Nd9  1  0.042858  0.176166  0.107764  1
  Nd  Nd10  1  0.957142  0.823834  0.892236  1
  Nd  Nd11  1  0.616520  0.162597  0.877666  1
  Nd  Nd12  1  0.542858  0.323834  0.107764  1
  Nd  Nd13  1  0.383480  0.837403  0.377666  1
  Nd  Nd14  1  0.957142  0.823834  0.607764  1
  Nd  Nd15  1  0.542858  0.323834  0.392236  1
  Er  Er16  1  0.212083  0.495478  0.250000  1
  Er  Er17  1  0.712083  0.004522  0.250000  1
  Er  Er18  1  0.287917  0.995478  0.750000  1
  Er  Er19  1  0.787917  0.504522  0.750000  1
  Sn  Sn20  1  0.653552  0.856975  0.750000  1
  Sn  Sn21  1  0.846448  0.356975  0.250000  1
  Sn  Sn22  1  0.578942  0.622882  0.250000  1
  Sn  Sn23  1  0.421058  0.377118  0.750000  1
  Sn  Sn24  1  0.153552  0.643025  0.750000  1
  Sn  Sn25  1  0.921058  0.122882  0.750000  1
  Sn  Sn26  1  0.346448  0.143025  0.250000  1
  Sn  Sn27  1  0.078942  0.877118  0.250000  1
  Bi  Bi28  1  0.774653  0.476902  0.546490  1
  Bi  Bi29  1  0.725347  0.976902  0.453510  1
  Bi  Bi30  1  0.225347  0.523098  0.453510  1
  Bi  Bi31  1  0.274653  0.023098  0.953510  1
  Bi  Bi32  1  0.774653  0.476902  0.953510  1
  Bi  Bi33  1  0.225347  0.523098  0.046490  1
  Bi  Bi34  1  0.274653  0.023098  0.546490  1
  Bi  Bi35  1  0.725347  0.976902  0.046490  1
