# generated using pymatgen
data_LaSm2(MnH6)2
_symmetry_space_group_name_H-M   'P 1'
_cell_length_a   4.75953800
_cell_length_b   4.75953816
_cell_length_c   7.97024900
_cell_angle_alpha   90.00000000
_cell_angle_beta   90.00000000
_cell_angle_gamma   119.99999891
_symmetry_Int_Tables_number   1
_chemical_formula_structural   LaSm2(MnH6)2
_chemical_formula_sum   'La1 Sm2 Mn2 H12'
_cell_volume   156.36233147
_cell_formula_units_Z   1
loop_
 _symmetry_equiv_pos_site_id
 _symmetry_equiv_pos_as_xyz
  1  'x, y, z'
loop_
 _atom_site_type_symbol
 _atom_site_label
 _atom_site_symmetry_multiplicity
 _atom_site_fract_x
 _atom_site_fract_y
 _atom_site_fract_z
 _atom_site_occupancy
  La  La0  1  0.000000  0.000000  0.000000  1
  Sm  Sm1  1  0.666667  0.333333  0.360366  1
  Sm  Sm2  1  0.333333  0.666667  0.639634  1
  Mn  Mn3  1  0.666667  0.333333  0.748498  1
  Mn  Mn4  1  0.333333  0.666667  0.251502  1
  H  H5  1  0.172727  0.827273  0.374879  1
  H  H6  1  0.654545  0.827273  0.374879  1
  H  H7  1  0.172727  0.345455  0.374879  1
  H  H8  1  0.827273  0.172727  0.625121  1
  H  H9  1  0.345455  0.172727  0.625121  1
  H  H10  1  0.827273  0.654545  0.625121  1
  H  H11  1  0.503629  0.007260  0.867921  1
  H  H12  1  0.503629  0.496371  0.867921  1
  H  H13  1  0.992740  0.496371  0.867921  1
  H  H14  1  0.496371  0.992740  0.132079  1
  H  H15  1  0.496371  0.503629  0.132079  1
  H  H16  1  0.007260  0.503629  0.132079  1
