# generated using pymatgen
data_CaNb9Se16
_symmetry_space_group_name_H-M   'P 1'
_cell_length_a   6.99708800
_cell_length_b   6.99708853
_cell_length_c   14.06348000
_cell_angle_alpha   90.00000000
_cell_angle_beta   90.00000000
_cell_angle_gamma   120.00000693
_symmetry_Int_Tables_number   1
_chemical_formula_structural   CaNb9Se16
_chemical_formula_sum   'Ca1 Nb9 Se16'
_cell_volume   596.29079653
_cell_formula_units_Z   1
loop_
 _symmetry_equiv_pos_site_id
 _symmetry_equiv_pos_as_xyz
  1  'x, y, z'
loop_
 _atom_site_type_symbol
 _atom_site_label
 _atom_site_symmetry_multiplicity
 _atom_site_fract_x
 _atom_site_fract_y
 _atom_site_fract_z
 _atom_site_occupancy
  Ca  Ca0  1  0.000000  0.000000  0.000000  1
  Nb  Nb1  1  0.000000  0.000000  0.264764  1
  Nb  Nb2  1  0.000000  0.000000  0.735236  1
  Nb  Nb3  1  0.506427  0.012855  0.264870  1
  Nb  Nb4  1  0.493573  0.987145  0.735130  1
  Nb  Nb5  1  0.987145  0.493573  0.264870  1
  Nb  Nb6  1  0.012855  0.506427  0.735130  1
  Nb  Nb7  1  0.506427  0.493573  0.264870  1
  Nb  Nb8  1  0.493573  0.506427  0.735130  1
  Nb  Nb9  1  0.000000  0.000000  0.500000  1
  Se  Se10  1  0.333333  0.666667  0.613274  1
  Se  Se11  1  0.666667  0.333333  0.386726  1
  Se  Se12  1  0.666667  0.333333  0.141587  1
  Se  Se13  1  0.333333  0.666667  0.858413  1
  Se  Se14  1  0.169009  0.338019  0.146564  1
  Se  Se15  1  0.830991  0.661981  0.853436  1
  Se  Se16  1  0.661981  0.830991  0.146564  1
  Se  Se17  1  0.831581  0.663162  0.616502  1
  Se  Se18  1  0.338019  0.169009  0.853436  1
  Se  Se19  1  0.168419  0.336838  0.383498  1
  Se  Se20  1  0.169009  0.830991  0.146564  1
  Se  Se21  1  0.336838  0.168419  0.616502  1
  Se  Se22  1  0.830991  0.169009  0.853436  1
  Se  Se23  1  0.663162  0.831581  0.383498  1
  Se  Se24  1  0.831581  0.168419  0.616502  1
  Se  Se25  1  0.168419  0.831581  0.383498  1
