# generated using pymatgen
data_HgIr2Rh2Pb3O14
_symmetry_space_group_name_H-M   'P 1'
_cell_length_a   7.38963738
_cell_length_b   7.38963615
_cell_length_c   7.27494988
_cell_angle_alpha   59.46860699
_cell_angle_beta   59.46860722
_cell_angle_gamma   59.80032532
_symmetry_Int_Tables_number   1
_chemical_formula_structural   HgIr2Rh2Pb3O14
_chemical_formula_sum   'Hg1 Ir2 Rh2 Pb3 O14'
_cell_volume   278.21266272
_cell_formula_units_Z   1
loop_
 _symmetry_equiv_pos_site_id
 _symmetry_equiv_pos_as_xyz
  1  'x, y, z'
loop_
 _atom_site_type_symbol
 _atom_site_label
 _atom_site_symmetry_multiplicity
 _atom_site_fract_x
 _atom_site_fract_y
 _atom_site_fract_z
 _atom_site_occupancy
  Hg  Hg0  1  0.125000  0.125000  0.625000  1
  Ir  Ir1  1  0.125000  0.625000  0.625000  1
  Ir  Ir2  1  0.625000  0.125000  0.625000  1
  Rh  Rh3  1  0.625000  0.625000  0.125000  1
  Rh  Rh4  1  0.625000  0.625000  0.625000  1
  Pb  Pb5  1  0.625000  0.125000  0.125000  1
  Pb  Pb6  1  0.125000  0.625000  0.125000  1
  Pb  Pb7  1  0.125000  0.125000  0.125000  1
  O  O8  1  0.707336  0.707336  0.290871  1
  O  O9  1  0.304120  0.304120  0.707225  1
  O  O10  1  0.689728  0.297743  0.708245  1
  O  O11  1  0.294008  0.707360  0.293474  1
  O  O12  1  0.297743  0.689728  0.708245  1
  O  O13  1  0.707360  0.294008  0.293474  1
  O  O14  1  0.542664  0.542664  0.959129  1
  O  O15  1  0.945880  0.945880  0.542775  1
  O  O16  1  0.560272  0.952257  0.541755  1
  O  O17  1  0.955992  0.542640  0.956526  1
  O  O18  1  0.952257  0.560272  0.541755  1
  O  O19  1  0.542640  0.955992  0.956526  1
  O  O20  1  0.242709  0.242709  0.271242  1
  O  O21  1  0.007291  0.007291  0.978758  1
