# generated using pymatgen
data_PrNd9(Bi3Se)2
_symmetry_space_group_name_H-M   'P 1'
_cell_length_a   9.58397466
_cell_length_b   9.59222769
_cell_length_c   6.84724400
_cell_angle_alpha   90.00000000
_cell_angle_beta   90.00000000
_cell_angle_gamma   120.03410281
_symmetry_Int_Tables_number   1
_chemical_formula_structural   PrNd9(Bi3Se)2
_chemical_formula_sum   'Pr1 Nd9 Bi6 Se2'
_cell_volume   544.95698921
_cell_formula_units_Z   1
loop_
 _symmetry_equiv_pos_site_id
 _symmetry_equiv_pos_as_xyz
  1  'x, y, z'
loop_
 _atom_site_type_symbol
 _atom_site_label
 _atom_site_symmetry_multiplicity
 _atom_site_fract_x
 _atom_site_fract_y
 _atom_site_fract_z
 _atom_site_occupancy
  Pr  Pr0  1  0.000002  0.745465  0.250000  1
  Nd  Nd1  1  0.746257  0.746645  0.750000  1
  Nd  Nd2  1  0.253728  0.000387  0.750000  1
  Nd  Nd3  1  0.000000  0.254141  0.750000  1
  Nd  Nd4  1  0.253502  0.253166  0.250000  1
  Nd  Nd5  1  0.746517  0.999666  0.250000  1
  Nd  Nd6  1  0.666732  0.333370  0.999922  1
  Nd  Nd7  1  0.333263  0.666652  0.999914  1
  Nd  Nd8  1  0.333263  0.666652  0.500086  1
  Nd  Nd9  1  0.666732  0.333370  0.500078  1
  Bi  Bi10  1  0.394467  0.394486  0.750000  1
  Bi  Bi11  1  0.605556  0.000005  0.750000  1
  Bi  Bi12  1  0.999994  0.605885  0.750000  1
  Bi  Bi13  1  0.604545  0.605141  0.250000  1
  Bi  Bi14  1  0.395431  0.000605  0.250000  1
  Bi  Bi15  1  0.000007  0.393116  0.250000  1
  Se  Se16  1  0.000001  0.000623  0.999385  1
  Se  Se17  1  0.000001  0.000623  0.500615  1
