# generated using pymatgen
data_Sr6GaTc3O14
_symmetry_space_group_name_H-M   'P 1'
_cell_length_a   10.74533154
_cell_length_b   10.74533203
_cell_length_c   5.58594604
_cell_angle_alpha   89.97139547
_cell_angle_beta   89.97139219
_cell_angle_gamma   149.76097073
_symmetry_Int_Tables_number   1
_chemical_formula_structural   Sr6GaTc3O14
_chemical_formula_sum   'Sr6 Ga1 Tc3 O14'
_cell_volume   324.80948865
_cell_formula_units_Z   1
loop_
 _symmetry_equiv_pos_site_id
 _symmetry_equiv_pos_as_xyz
  1  'x, y, z'
loop_
 _atom_site_type_symbol
 _atom_site_label
 _atom_site_symmetry_multiplicity
 _atom_site_fract_x
 _atom_site_fract_y
 _atom_site_fract_z
 _atom_site_occupancy
  Sr  Sr0  1  0.187957  0.812043  0.500000  1
  Sr  Sr1  1  0.816034  0.183966  0.500000  1
  Sr  Sr2  1  0.686714  0.313286  0.000000  1
  Sr  Sr3  1  0.996138  0.003862  0.500000  1
  Sr  Sr4  1  0.495807  0.504193  0.000000  1
  Sr  Sr5  1  0.316113  0.683887  0.000000  1
  Ga  Ga6  1  0.399589  0.600411  0.500000  1
  Tc  Tc7  1  0.097320  0.902680  0.000000  1
  Tc  Tc8  1  0.596415  0.403585  0.500000  1
  Tc  Tc9  1  0.903332  0.096668  0.000000  1
  O  O10  1  0.195828  0.804172  0.000000  1
  O  O11  1  0.640076  0.831874  0.234665  1
  O  O12  1  0.325677  0.131928  0.727162  1
  O  O13  1  0.668679  0.860372  0.735551  1
  O  O14  1  0.369417  0.175891  0.228390  1
  O  O15  1  0.999564  0.000436  0.000000  1
  O  O16  1  0.696173  0.303827  0.500000  1
  O  O17  1  0.805962  0.194038  0.000000  1
  O  O18  1  0.139628  0.331321  0.264449  1
  O  O19  1  0.824109  0.630583  0.771610  1
  O  O20  1  0.868072  0.674323  0.272838  1
  O  O21  1  0.168126  0.359924  0.765335  1
  O  O22  1  0.498712  0.501288  0.500000  1
  O  O23  1  0.304559  0.695441  0.500000  1
