# generated using pymatgen
data_LaPr2Bi(MoO4)6
_symmetry_space_group_name_H-M   'P 1'
_cell_length_a   7.68857413
_cell_length_b   7.68949930
_cell_length_c   11.01348669
_cell_angle_alpha   89.93966693
_cell_angle_beta   89.95924711
_cell_angle_gamma   90.07168242
_symmetry_Int_Tables_number   1
_chemical_formula_structural   LaPr2Bi(MoO4)6
_chemical_formula_sum   'La1 Pr2 Bi1 Mo6 O24'
_cell_volume   651.13045388
_cell_formula_units_Z   1
loop_
 _symmetry_equiv_pos_site_id
 _symmetry_equiv_pos_as_xyz
  1  'x, y, z'
loop_
 _atom_site_type_symbol
 _atom_site_label
 _atom_site_symmetry_multiplicity
 _atom_site_fract_x
 _atom_site_fract_y
 _atom_site_fract_z
 _atom_site_occupancy
  La  La0  1  0.690135  0.810015  0.261861  1
  Pr  Pr1  1  0.811913  0.311847  0.738112  1
  Pr  Pr2  1  0.309491  0.190595  0.262418  1
  Bi  Bi3  1  0.195408  0.695442  0.738855  1
  Mo  Mo4  1  0.209770  0.708796  0.356913  1
  Mo  Mo5  1  0.791623  0.290677  0.355998  1
  Mo  Mo6  1  0.706975  0.791534  0.646669  1
  Mo  Mo7  1  0.291589  0.206899  0.645529  1
  Mo  Mo8  1  0.003604  0.997690  0.997483  1
  Mo  Mo9  1  0.496707  0.501732  0.997493  1
  O  O10  1  0.998121  0.225368  0.297644  1
  O  O11  1  0.003093  0.773007  0.298777  1
  O  O12  1  0.226883  0.998917  0.704911  1
  O  O13  1  0.498744  0.726733  0.705383  1
  O  O14  1  0.772647  0.998527  0.703202  1
  O  O15  1  0.498368  0.272506  0.702700  1
  O  O16  1  0.274826  0.501833  0.298984  1
  O  O17  1  0.727235  0.496842  0.297443  1
  O  O18  1  0.185534  0.042893  0.093762  1
  O  O19  1  0.818058  0.952984  0.090878  1
  O  O20  1  0.049246  0.812320  0.902731  1
  O  O21  1  0.311846  0.548141  0.902523  1
  O  O22  1  0.958172  0.183435  0.904858  1
  O  O23  1  0.682967  0.457019  0.905077  1
  O  O24  1  0.451562  0.317844  0.092406  1
  O  O25  1  0.541370  0.685381  0.092241  1
  O  O26  1  0.627141  0.131173  0.309787  1
  O  O27  1  0.369510  0.873461  0.310557  1
  O  O28  1  0.129003  0.368572  0.689808  1
  O  O29  1  0.868874  0.628807  0.690257  1
  O  O30  1  0.198669  0.698315  0.518078  1
  O  O31  1  0.802703  0.302356  0.517363  1
  O  O32  1  0.695134  0.803118  0.485237  1
  O  O33  1  0.303081  0.195223  0.484062  1
