# generated using pymatgen
data_Yb7Th(Sc3Pt4)4
_symmetry_space_group_name_H-M   'P 1'
_cell_length_a   7.27658701
_cell_length_b   7.34583382
_cell_length_c   14.09440002
_cell_angle_alpha   89.92303488
_cell_angle_beta   90.05811818
_cell_angle_gamma   90.12180135
_symmetry_Int_Tables_number   1
_chemical_formula_structural   Yb7Th(Sc3Pt4)4
_chemical_formula_sum   'Yb7 Th1 Sc12 Pt16'
_cell_volume   753.37954442
_cell_formula_units_Z   1
loop_
 _symmetry_equiv_pos_site_id
 _symmetry_equiv_pos_as_xyz
  1  'x, y, z'
loop_
 _atom_site_type_symbol
 _atom_site_label
 _atom_site_symmetry_multiplicity
 _atom_site_fract_x
 _atom_site_fract_y
 _atom_site_fract_z
 _atom_site_occupancy
  Yb  Yb0  1  0.990836  0.824612  0.909071  1
  Yb  Yb1  1  0.511079  0.325613  0.093542  1
  Yb  Yb2  1  0.012247  0.175515  0.404153  1
  Yb  Yb3  1  0.512819  0.320928  0.402836  1
  Yb  Yb4  1  0.010153  0.176147  0.093594  1
  Yb  Yb5  1  0.488734  0.674555  0.905319  1
  Yb  Yb6  1  0.989413  0.826404  0.594546  1
  Th  Th7  1  0.487361  0.675663  0.594741  1
  Sc  Sc8  1  0.648392  0.170170  0.624077  1
  Sc  Sc9  1  0.147588  0.333694  0.876303  1
  Sc  Sc10  1  0.351532  0.832064  0.123115  1
  Sc  Sc11  1  0.855284  0.665807  0.375068  1
  Sc  Sc12  1  0.348811  0.836926  0.370677  1
  Sc  Sc13  1  0.849778  0.665361  0.124545  1
  Sc  Sc14  1  0.648907  0.168481  0.877684  1
  Sc  Sc15  1  0.140333  0.327603  0.626235  1
  Sc  Sc16  1  0.816372  0.503428  0.754028  1
  Sc  Sc17  1  0.309540  0.999304  0.754012  1
  Sc  Sc18  1  0.188480  0.495404  0.248222  1
  Sc  Sc19  1  0.687534  0.004105  0.247552  1
  Pt  Pt20  1  0.674117  0.949729  0.454804  1
  Pt  Pt21  1  0.174125  0.543453  0.046968  1
  Pt  Pt22  1  0.325605  0.044996  0.953385  1
  Pt  Pt23  1  0.819336  0.464339  0.545196  1
  Pt  Pt24  1  0.324755  0.039745  0.546388  1
  Pt  Pt25  1  0.824659  0.457462  0.953817  1
  Pt  Pt26  1  0.675521  0.956692  0.046806  1
  Pt  Pt27  1  0.187708  0.544994  0.459765  1
  Pt  Pt28  1  0.449683  0.369776  0.749162  1
  Pt  Pt29  1  0.945723  0.124527  0.752825  1
  Pt  Pt30  1  0.550807  0.628909  0.249710  1
  Pt  Pt31  1  0.048423  0.871575  0.247961  1
  Pt  Pt32  1  0.676266  0.861384  0.747663  1
  Pt  Pt33  1  0.177780  0.638859  0.748987  1
  Pt  Pt34  1  0.323693  0.136279  0.247265  1
  Pt  Pt35  1  0.826603  0.365497  0.249979  1
