# generated using pymatgen
data_La6TbNi16
_symmetry_space_group_name_H-M   'P 1'
_cell_length_a   7.27118654
_cell_length_b   7.27118459
_cell_length_c   8.85896247
_cell_angle_alpha   114.22907713
_cell_angle_beta   114.22907902
_cell_angle_gamma   89.99999991
_symmetry_Int_Tables_number   1
_chemical_formula_structural   La6TbNi16
_chemical_formula_sum   'La6 Tb1 Ni16'
_cell_volume   381.42110578
_cell_formula_units_Z   1
loop_
 _symmetry_equiv_pos_site_id
 _symmetry_equiv_pos_as_xyz
  1  'x, y, z'
loop_
 _atom_site_type_symbol
 _atom_site_label
 _atom_site_symmetry_multiplicity
 _atom_site_fract_x
 _atom_site_fract_y
 _atom_site_fract_z
 _atom_site_occupancy
  La  La0  1  0.403767  0.403767  0.207833  1
  La  La1  1  0.804066  0.804066  0.207833  1
  La  La2  1  0.750000  0.250000  0.499999  1
  La  La3  1  0.250000  0.750000  0.499999  1
  La  La4  1  0.596233  0.195934  0.792167  1
  La  La5  1  0.195934  0.596233  0.792167  1
  Tb  Tb6  1  0.000000  0.000000  0.000000  1
  Ni  Ni7  1  0.700542  0.180811  0.129243  1
  Ni  Ni8  1  0.948433  0.428702  0.129243  1
  Ni  Ni9  1  0.180811  0.700542  0.129243  1
  Ni  Ni10  1  0.428702  0.948433  0.129243  1
  Ni  Ni11  1  0.300435  0.065955  0.366391  1
  Ni  Ni12  1  0.065955  0.300435  0.366391  1
  Ni  Ni13  1  0.836166  0.560675  0.396841  1
  Ni  Ni14  1  0.560675  0.836166  0.396841  1
  Ni  Ni15  1  0.163834  0.163834  0.603160  1
  Ni  Ni16  1  0.439325  0.439325  0.603160  1
  Ni  Ni17  1  0.699563  0.699563  0.633608  1
  Ni  Ni18  1  0.934044  0.934044  0.633608  1
  Ni  Ni19  1  0.299459  0.051567  0.870757  1
  Ni  Ni20  1  0.051567  0.299459  0.870757  1
  Ni  Ni21  1  0.819189  0.571299  0.870757  1
  Ni  Ni22  1  0.571299  0.819189  0.870757  1
