# generated using pymatgen
data_TbCe3Er4(ReB6)4
_symmetry_space_group_name_H-M   'P 1'
_cell_length_a   3.70835900
_cell_length_b   9.17650236
_cell_length_c   11.57590000
_cell_angle_alpha   90.06593301
_cell_angle_beta   90.00000000
_cell_angle_gamma   90.00000000
_symmetry_Int_Tables_number   1
_chemical_formula_structural   TbCe3Er4(ReB6)4
_chemical_formula_sum   'Tb1 Ce3 Er4 Re4 B24'
_cell_volume   393.92489732
_cell_formula_units_Z   1
loop_
 _symmetry_equiv_pos_site_id
 _symmetry_equiv_pos_as_xyz
  1  'x, y, z'
loop_
 _atom_site_type_symbol
 _atom_site_label
 _atom_site_symmetry_multiplicity
 _atom_site_fract_x
 _atom_site_fract_y
 _atom_site_fract_z
 _atom_site_occupancy
  Tb  Tb0  1  0.000000  0.177516  0.913674  1
  Ce  Ce1  1  0.000000  0.321651  0.414543  1
  Ce  Ce2  1  0.000000  0.677927  0.586538  1
  Ce  Ce3  1  0.000000  0.823535  0.085361  1
  Er  Er4  1  0.000000  0.944848  0.372380  1
  Er  Er5  1  0.000000  0.055900  0.628431  1
  Er  Er6  1  0.000000  0.443161  0.127842  1
  Er  Er7  1  0.000000  0.555697  0.871554  1
  Re  Re8  1  0.000000  0.638708  0.320372  1
  Re  Re9  1  0.000000  0.362406  0.678734  1
  Re  Re10  1  0.000000  0.138578  0.179867  1
  Re  Re11  1  0.000000  0.860453  0.820660  1
  B  B12  1  0.500000  0.554494  0.431458  1
  B  B13  1  0.500000  0.445370  0.568744  1
  B  B14  1  0.500000  0.054259  0.067653  1
  B  B15  1  0.500000  0.945993  0.932086  1
  B  B16  1  0.500000  0.749397  0.418168  1
  B  B17  1  0.500000  0.250409  0.582523  1
  B  B18  1  0.500000  0.249246  0.080901  1
  B  B19  1  0.500000  0.751363  0.918178  1
  B  B20  1  0.500000  0.791620  0.265808  1
  B  B21  1  0.500000  0.207783  0.734721  1
  B  B22  1  0.500000  0.291412  0.233157  1
  B  B23  1  0.500000  0.708701  0.766120  1
  B  B24  1  0.500000  0.630687  0.185392  1
  B  B25  1  0.500000  0.368754  0.814918  1
  B  B26  1  0.500000  0.131169  0.314053  1
  B  B27  1  0.500000  0.869665  0.686262  1
  B  B28  1  0.500000  0.983812  0.212391  1
  B  B29  1  0.500000  0.017672  0.787286  1
  B  B30  1  0.500000  0.483234  0.286620  1
  B  B31  1  0.500000  0.516213  0.713655  1
  B  B32  1  0.500000  0.601635  0.028170  1
  B  B33  1  0.500000  0.396516  0.971143  1
  B  B34  1  0.500000  0.104283  0.471432  1
  B  B35  1  0.500000  0.895930  0.529205  1
