# generated using pymatgen
data_Zr6BeSi(Tc3As2)2
_symmetry_space_group_name_H-M   'P 1'
_cell_length_a   7.78986281
_cell_length_b   7.78990131
_cell_length_c   7.78986415
_cell_angle_alpha   126.89653218
_cell_angle_beta   126.67768509
_cell_angle_gamma   78.59829592
_symmetry_Int_Tables_number   1
_chemical_formula_structural   Zr6BeSi(Tc3As2)2
_chemical_formula_sum   'Zr6 Be1 Si1 Tc6 As4'
_cell_volume   293.48787738
_cell_formula_units_Z   1
loop_
 _symmetry_equiv_pos_site_id
 _symmetry_equiv_pos_as_xyz
  1  'x, y, z'
loop_
 _atom_site_type_symbol
 _atom_site_label
 _atom_site_symmetry_multiplicity
 _atom_site_fract_x
 _atom_site_fract_y
 _atom_site_fract_z
 _atom_site_occupancy
  Zr  Zr0  1  0.450525  0.655172  0.704648  1
  Zr  Zr1  1  0.554189  0.253035  0.198848  1
  Zr  Zr2  1  0.749966  0.862083  0.612117  1
  Zr  Zr3  1  0.250038  0.851869  0.101832  1
  Zr  Zr4  1  0.049620  0.254086  0.704466  1
  Zr  Zr5  1  0.945693  0.644469  0.198776  1
  Be  Be6  1  0.749861  0.253225  0.003365  1
  Si  Si7  1  0.250128  0.252977  0.502850  1
  Tc  Tc8  1  0.502586  0.498876  0.001460  1
  Tc  Tc9  1  0.997416  0.498876  0.496290  1
  Tc  Tc10  1  0.120079  0.253243  0.127439  1
  Tc  Tc11  1  0.874502  0.007367  0.127740  1
  Tc  Tc12  1  0.379627  0.007367  0.632865  1
  Tc  Tc13  1  0.625804  0.253243  0.633162  1
  As  As14  1  0.334061  0.586747  0.254161  1
  As  As15  1  0.667504  0.920109  0.254293  1
  As  As16  1  0.165817  0.920109  0.752605  1
  As  As17  1  0.832585  0.586747  0.752686  1
