# generated using pymatgen
data_La2HgPtAu
_symmetry_space_group_name_H-M   'P 1'
_cell_length_a   8.14634001
_cell_length_b   8.14634118
_cell_length_c   3.92955000
_cell_angle_alpha   90.00000000
_cell_angle_beta   90.00000000
_cell_angle_gamma   90.54497041
_symmetry_Int_Tables_number   1
_chemical_formula_structural   La2HgPtAu
_chemical_formula_sum   'La4 Hg2 Pt2 Au2'
_cell_volume   260.76440047
_cell_formula_units_Z   2
loop_
 _symmetry_equiv_pos_site_id
 _symmetry_equiv_pos_as_xyz
  1  'x, y, z'
loop_
 _atom_site_type_symbol
 _atom_site_label
 _atom_site_symmetry_multiplicity
 _atom_site_fract_x
 _atom_site_fract_y
 _atom_site_fract_z
 _atom_site_occupancy
  La  La0  1  0.683129  0.183129  0.500000  1
  La  La1  1  0.316871  0.816871  0.500000  1
  La  La2  1  0.165508  0.334492  0.500000  1
  La  La3  1  0.834492  0.665508  0.500000  1
  Hg  Hg4  1  0.000000  0.000000  0.000000  1
  Hg  Hg5  1  0.500000  0.500000  0.000000  1
  Pt  Pt6  1  0.126203  0.626203  0.000000  1
  Pt  Pt7  1  0.873797  0.373797  0.000000  1
  Au  Au8  1  0.626605  0.873395  0.000000  1
  Au  Au9  1  0.373395  0.126605  0.000000  1
