# generated using pymatgen
data_Ca2Pr3Si12Ir19
_symmetry_space_group_name_H-M   'P 1'
_cell_length_a   12.89134902
_cell_length_b   12.88998535
_cell_length_c   4.03462400
_cell_angle_alpha   90.00000000
_cell_angle_beta   90.00000000
_cell_angle_gamma   119.99650453
_symmetry_Int_Tables_number   1
_chemical_formula_structural   Ca2Pr3Si12Ir19
_chemical_formula_sum   'Ca2 Pr3 Si12 Ir19'
_cell_volume   580.63042045
_cell_formula_units_Z   1
loop_
 _symmetry_equiv_pos_site_id
 _symmetry_equiv_pos_as_xyz
  1  'x, y, z'
loop_
 _atom_site_type_symbol
 _atom_site_label
 _atom_site_symmetry_multiplicity
 _atom_site_fract_x
 _atom_site_fract_y
 _atom_site_fract_z
 _atom_site_occupancy
  Ca  Ca0  1  0.816396  0.815711  0.500000  1
  Ca  Ca1  1  0.183604  0.999314  0.500000  1
  Pr  Pr2  1  0.000000  0.182705  0.500000  1
  Pr  Pr3  1  0.667329  0.333973  0.000000  1
  Pr  Pr4  1  0.332671  0.666645  0.000000  1
  Si  Si5  1  0.478554  0.311092  0.500000  1
  Si  Si6  1  0.815238  0.997225  0.000000  1
  Si  Si7  1  0.184762  0.181986  0.000000  1
  Si  Si8  1  0.000000  0.817123  0.000000  1
  Si  Si9  1  0.368017  0.000050  0.000000  1
  Si  Si10  1  0.687847  0.166151  0.500000  1
  Si  Si11  1  0.833651  0.522948  0.500000  1
  Si  Si12  1  0.521446  0.832537  0.500000  1
  Si  Si13  1  0.166349  0.689296  0.500000  1
  Si  Si14  1  0.312153  0.478303  0.500000  1
  Si  Si15  1  0.000000  0.369495  0.000000  1
  Si  Si16  1  0.631983  0.632033  0.000000  1
  Ir  Ir17  1  0.804808  0.181775  0.000000  1
  Ir  Ir18  1  0.378062  0.194710  0.000000  1
  Ir  Ir19  1  0.637987  0.513070  0.500000  1
  Ir  Ir20  1  0.874385  0.361864  0.500000  1
  Ir  Ir21  1  0.362013  0.875083  0.500000  1
  Ir  Ir22  1  0.513241  0.638299  0.500000  1
  Ir  Ir23  1  0.125615  0.487479  0.500000  1
  Ir  Ir24  1  0.816823  0.622779  0.000000  1
  Ir  Ir25  1  0.621938  0.816647  0.000000  1
  Ir  Ir26  1  0.183177  0.805955  0.000000  1
  Ir  Ir27  1  0.195192  0.376966  0.000000  1
  Ir  Ir28  1  0.000000  0.717616  0.500000  1
  Ir  Ir29  1  0.283920  0.283498  0.500000  1
  Ir  Ir30  1  0.716080  0.999578  0.500000  1
  Ir  Ir31  1  0.000000  0.552304  0.000000  1
  Ir  Ir32  1  0.447370  0.448930  0.000000  1
  Ir  Ir33  1  0.552630  0.001559  0.000000  1
  Ir  Ir34  1  0.000000  0.000242  0.000000  1
  Ir  Ir35  1  0.486759  0.125058  0.500000  1
