# generated using pymatgen
data_PrSmZnSiI2
_symmetry_space_group_name_H-M   'P 1'
_cell_length_a   4.21502800
_cell_length_b   4.21502808
_cell_length_c   12.15075000
_cell_angle_alpha   90.00000000
_cell_angle_beta   90.00000000
_cell_angle_gamma   119.99998364
_symmetry_Int_Tables_number   1
_chemical_formula_structural   PrSmZnSiI2
_chemical_formula_sum   'Pr1 Sm1 Zn1 Si1 I2'
_cell_volume   186.95398434
_cell_formula_units_Z   1
loop_
 _symmetry_equiv_pos_site_id
 _symmetry_equiv_pos_as_xyz
  1  'x, y, z'
loop_
 _atom_site_type_symbol
 _atom_site_label
 _atom_site_symmetry_multiplicity
 _atom_site_fract_x
 _atom_site_fract_y
 _atom_site_fract_z
 _atom_site_occupancy
  Pr  Pr0  1  0.000000  0.000000  0.828909  1
  Sm  Sm1  1  0.000000  0.000000  0.169360  1
  Zn  Zn2  1  0.333333  0.666667  0.022679  1
  Si  Si3  1  0.666667  0.333333  0.986519  1
  I  I4  1  0.333333  0.666667  0.653564  1
  I  I5  1  0.666667  0.333333  0.338970  1
