# generated using pymatgen
data_Hf9V(SiSb2)2
_symmetry_space_group_name_H-M   'P 1'
_cell_length_a   5.38777000
_cell_length_b   8.14816771
_cell_length_c   8.14816815
_cell_angle_alpha   83.75421086
_cell_angle_beta   70.73115073
_cell_angle_gamma   70.73115752
_symmetry_Int_Tables_number   1
_chemical_formula_structural   Hf9V(SiSb2)2
_chemical_formula_sum   'Hf9 V1 Si2 Sb4'
_cell_volume   318.75357017
_cell_formula_units_Z   1
loop_
 _symmetry_equiv_pos_site_id
 _symmetry_equiv_pos_as_xyz
  1  'x, y, z'
loop_
 _atom_site_type_symbol
 _atom_site_label
 _atom_site_symmetry_multiplicity
 _atom_site_fract_x
 _atom_site_fract_y
 _atom_site_fract_z
 _atom_site_occupancy
  Hf  Hf0  1  0.750000  0.500210  0.499790  1
  Hf  Hf1  1  0.071968  0.133928  0.714927  1
  Hf  Hf2  1  0.922173  0.865823  0.284875  1
  Hf  Hf3  1  0.794388  0.285106  0.134188  1
  Hf  Hf4  1  0.428032  0.285073  0.866072  1
  Hf  Hf5  1  0.211247  0.714963  0.865829  1
  Hf  Hf6  1  0.577827  0.715125  0.134177  1
  Hf  Hf7  1  0.705612  0.865812  0.714894  1
  Hf  Hf8  1  0.288753  0.134171  0.285037  1
  V  V9  1  0.250000  0.499919  0.500081  1
  Si  Si10  1  0.250000  0.999959  0.000041  1
  Si  Si11  1  0.750000  0.000067  0.999933  1
  Sb  Sb12  1  0.175900  0.500004  0.179287  1
  Sb  Sb13  1  0.854213  0.499936  0.820809  1
  Sb  Sb14  1  0.324100  0.820713  0.499996  1
  Sb  Sb15  1  0.645787  0.179191  0.500064  1
