# generated using pymatgen
data_DyGaCu3Ag
_symmetry_space_group_name_H-M   'P 1'
_cell_length_a   5.14202228
_cell_length_b   5.14202172
_cell_length_c   5.08331947
_cell_angle_alpha   59.61724555
_cell_angle_beta   59.61724632
_cell_angle_gamma   59.99999760
_symmetry_Int_Tables_number   1
_chemical_formula_structural   DyGaCu3Ag
_chemical_formula_sum   'Dy1 Ga1 Cu3 Ag1'
_cell_volume   94.48510435
_cell_formula_units_Z   1
loop_
 _symmetry_equiv_pos_site_id
 _symmetry_equiv_pos_as_xyz
  1  'x, y, z'
loop_
 _atom_site_type_symbol
 _atom_site_label
 _atom_site_symmetry_multiplicity
 _atom_site_fract_x
 _atom_site_fract_y
 _atom_site_fract_z
 _atom_site_occupancy
  Dy  Dy0  1  0.001978  0.001978  0.994067  1
  Ga  Ga1  1  0.622399  0.622399  0.132802  1
  Cu  Cu2  1  0.623215  0.127110  0.626459  1
  Cu  Cu3  1  0.127110  0.623215  0.626459  1
  Cu  Cu4  1  0.623215  0.623215  0.626459  1
  Ag  Ag5  1  0.252082  0.252082  0.243753  1
