# generated using pymatgen
data_Zr4URe24
_symmetry_space_group_name_H-M   'P 1'
_cell_length_a   8.51100245
_cell_length_b   8.51100135
_cell_length_c   8.51100200
_cell_angle_alpha   109.47122456
_cell_angle_beta   109.47122194
_cell_angle_gamma   109.47122195
_symmetry_Int_Tables_number   1
_chemical_formula_structural   Zr4URe24
_chemical_formula_sum   'Zr4 U1 Re24'
_cell_volume   474.59170356
_cell_formula_units_Z   1
loop_
 _symmetry_equiv_pos_site_id
 _symmetry_equiv_pos_as_xyz
  1  'x, y, z'
loop_
 _atom_site_type_symbol
 _atom_site_label
 _atom_site_symmetry_multiplicity
 _atom_site_fract_x
 _atom_site_fract_y
 _atom_site_fract_z
 _atom_site_occupancy
  Zr  Zr0  1  0.628719  0.000000  0.000000  1
  Zr  Zr1  1  0.000000  0.628719  0.000000  1
  Zr  Zr2  1  0.000000  0.000000  0.628719  1
  Zr  Zr3  1  0.371281  0.371281  0.371281  1
  U  U4  1  0.000000  0.000000  0.000000  1
  Re  Re5  1  0.395034  0.676600  0.000000  1
  Re  Re6  1  0.718435  0.323400  0.323400  1
  Re  Re7  1  0.395034  0.000000  0.676600  1
  Re  Re8  1  0.676600  0.395034  0.000000  1
  Re  Re9  1  0.000000  0.395034  0.676600  1
  Re  Re10  1  0.323400  0.718435  0.323400  1
  Re  Re11  1  0.323400  0.323400  0.718435  1
  Re  Re12  1  0.000000  0.676600  0.395034  1
  Re  Re13  1  0.676600  0.000000  0.395034  1
  Re  Re14  1  0.604966  0.604966  0.281565  1
  Re  Re15  1  0.281565  0.604966  0.604966  1
  Re  Re16  1  0.604966  0.281565  0.604966  1
  Re  Re17  1  0.378666  0.195355  0.000000  1
  Re  Re18  1  0.183310  0.804645  0.804645  1
  Re  Re19  1  0.378666  0.000000  0.195355  1
  Re  Re20  1  0.195355  0.378666  0.000000  1
  Re  Re21  1  0.000000  0.378666  0.195355  1
  Re  Re22  1  0.804645  0.183310  0.804645  1
  Re  Re23  1  0.804645  0.804645  0.183310  1
  Re  Re24  1  0.000000  0.195355  0.378666  1
  Re  Re25  1  0.195355  0.000000  0.378666  1
  Re  Re26  1  0.621334  0.621334  0.816690  1
  Re  Re27  1  0.816690  0.621334  0.621334  1
  Re  Re28  1  0.621334  0.816690  0.621334  1
