# generated using pymatgen
data_LaY15Cd4(NiIr)2
_symmetry_space_group_name_H-M   'P 1'
_cell_length_a   9.66435538
_cell_length_b   9.66435611
_cell_length_c   9.71223081
_cell_angle_alpha   59.89346552
_cell_angle_beta   59.89346189
_cell_angle_gamma   59.61278267
_symmetry_Int_Tables_number   1
_chemical_formula_structural   LaY15Cd4(NiIr)2
_chemical_formula_sum   'La1 Y15 Cd4 Ni2 Ir2'
_cell_volume   638.50693172
_cell_formula_units_Z   1
loop_
 _symmetry_equiv_pos_site_id
 _symmetry_equiv_pos_as_xyz
  1  'x, y, z'
loop_
 _atom_site_type_symbol
 _atom_site_label
 _atom_site_symmetry_multiplicity
 _atom_site_fract_x
 _atom_site_fract_y
 _atom_site_fract_z
 _atom_site_occupancy
  La  La0  1  0.598485  0.598485  0.592238  1
  Y  Y1  1  0.601691  0.601691  0.198072  1
  Y  Y2  1  0.603722  0.198104  0.599167  1
  Y  Y3  1  0.198104  0.603722  0.599167  1
  Y  Y4  1  0.061372  0.436676  0.440164  1
  Y  Y5  1  0.437840  0.060169  0.062787  1
  Y  Y6  1  0.436676  0.061372  0.440164  1
  Y  Y7  1  0.060169  0.437840  0.062787  1
  Y  Y8  1  0.438201  0.438201  0.062481  1
  Y  Y9  1  0.061647  0.061647  0.438553  1
  Y  Y10  1  0.186190  0.813075  0.817054  1
  Y  Y11  1  0.810645  0.187697  0.187172  1
  Y  Y12  1  0.813075  0.186190  0.817054  1
  Y  Y13  1  0.187697  0.810645  0.187172  1
  Y  Y14  1  0.816535  0.816535  0.185263  1
  Y  Y15  1  0.189860  0.189860  0.811597  1
  Cd  Cd16  1  0.829627  0.829627  0.832131  1
  Cd  Cd17  1  0.832356  0.832356  0.505780  1
  Cd  Cd18  1  0.831040  0.505216  0.833424  1
  Cd  Cd19  1  0.505216  0.831040  0.833424  1
  Ni  Ni20  1  0.390100  0.825766  0.389396  1
  Ni  Ni21  1  0.825766  0.390100  0.389396  1
  Ir  Ir22  1  0.393725  0.393725  0.391626  1
  Ir  Ir23  1  0.390259  0.390259  0.823931  1
