# generated using pymatgen
data_Zn3ReH5
_symmetry_space_group_name_H-M   'P 1'
_cell_length_a   5.04182987
_cell_length_b   7.44091465
_cell_length_c   5.07884606
_cell_angle_alpha   79.61484590
_cell_angle_beta   98.68124993
_cell_angle_gamma   137.93466881
_symmetry_Int_Tables_number   1
_chemical_formula_structural   Zn3ReH5
_chemical_formula_sum   'Zn3 Re1 H5'
_cell_volume   125.52201180
_cell_formula_units_Z   1
loop_
 _symmetry_equiv_pos_site_id
 _symmetry_equiv_pos_as_xyz
  1  'x, y, z'
loop_
 _atom_site_type_symbol
 _atom_site_label
 _atom_site_symmetry_multiplicity
 _atom_site_fract_x
 _atom_site_fract_y
 _atom_site_fract_z
 _atom_site_occupancy
  Zn  Zn0  1  0.241162  0.607693  0.568140  1
  Zn  Zn1  1  0.190133  0.096629  0.577254  1
  Zn  Zn2  1  0.725299  0.655106  0.968370  1
  Re  Re3  1  0.728133  0.610696  0.485300  1
  H  H4  1  0.747045  0.454377  0.286484  1
  H  H5  1  0.232286  0.868734  0.420669  1
  H  H6  1  0.756072  0.825561  0.243048  1
  H  H7  1  0.753852  0.440889  0.762051  1
  H  H8  1  0.250845  0.382299  0.350573  1
