# generated using pymatgen
data_LuScCo3P7Ru9
_symmetry_space_group_name_H-M   'P 1'
_cell_length_a   9.29702200
_cell_length_b   9.29702180
_cell_length_c   3.79704800
_cell_angle_alpha   90.00000000
_cell_angle_beta   90.00000000
_cell_angle_gamma   120.00000071
_symmetry_Int_Tables_number   1
_chemical_formula_structural   LuScCo3P7Ru9
_chemical_formula_sum   'Lu1 Sc1 Co3 P7 Ru9'
_cell_volume   284.22640617
_cell_formula_units_Z   1
loop_
 _symmetry_equiv_pos_site_id
 _symmetry_equiv_pos_as_xyz
  1  'x, y, z'
loop_
 _atom_site_type_symbol
 _atom_site_label
 _atom_site_symmetry_multiplicity
 _atom_site_fract_x
 _atom_site_fract_y
 _atom_site_fract_z
 _atom_site_occupancy
  Lu  Lu0  1  0.333333  0.666667  0.000000  1
  Sc  Sc1  1  0.666667  0.333333  0.500000  1
  Co  Co2  1  0.728505  0.887958  0.000000  1
  Co  Co3  1  0.112042  0.840545  0.000000  1
  Co  Co4  1  0.159455  0.271495  0.000000  1
  P  P5  1  0.598195  0.715967  0.500000  1
  P  P6  1  0.000000  0.000000  0.000000  1
  P  P7  1  0.284033  0.882227  0.500000  1
  P  P8  1  0.117773  0.401805  0.500000  1
  P  P9  1  0.887515  0.585096  0.000000  1
  P  P10  1  0.414904  0.302419  0.000000  1
  P  P11  1  0.697581  0.112485  0.000000  1
  Ru  Ru12  1  0.562266  0.946956  0.500000  1
  Ru  Ru13  1  0.384691  0.437734  0.500000  1
  Ru  Ru14  1  0.914583  0.120410  0.500000  1
  Ru  Ru15  1  0.205828  0.085417  0.500000  1
  Ru  Ru16  1  0.879590  0.794172  0.500000  1
  Ru  Ru17  1  0.427615  0.065144  0.000000  1
  Ru  Ru18  1  0.934856  0.362472  0.000000  1
  Ru  Ru19  1  0.637528  0.572385  0.000000  1
  Ru  Ru20  1  0.053044  0.615309  0.500000  1
