# generated using pymatgen
data_K3CuSe13
_symmetry_space_group_name_H-M   'P 1'
_cell_length_a   5.05980000
_cell_length_b   13.71775419
_cell_length_c   15.06174363
_cell_angle_alpha   85.63164977
_cell_angle_beta   90.00000000
_cell_angle_gamma   90.00000000
_symmetry_Int_Tables_number   1
_chemical_formula_structural   K3CuSe13
_chemical_formula_sum   'K6 Cu2 Se26'
_cell_volume   1042.38498624
_cell_formula_units_Z   2
loop_
 _symmetry_equiv_pos_site_id
 _symmetry_equiv_pos_as_xyz
  1  'x, y, z'
loop_
 _atom_site_type_symbol
 _atom_site_label
 _atom_site_symmetry_multiplicity
 _atom_site_fract_x
 _atom_site_fract_y
 _atom_site_fract_z
 _atom_site_occupancy
  K  K0  1  0.203485  0.163295  0.719760  1
  K  K1  1  0.203485  0.336705  0.280240  1
  K  K2  1  0.164395  0.250000  0.000000  1
  K  K3  1  0.835605  0.750000  0.000000  1
  K  K4  1  0.796515  0.836705  0.280240  1
  K  K5  1  0.796515  0.663295  0.719760  1
  Cu  Cu6  1  0.000000  0.500000  0.500000  1
  Cu  Cu7  1  0.000000  0.000000  0.500000  1
  Se  Se8  1  0.283737  0.549223  0.614334  1
  Se  Se9  1  0.645005  0.577701  0.270866  1
  Se  Se10  1  0.354995  0.077701  0.270866  1
  Se  Se11  1  0.354995  0.422299  0.729134  1
  Se  Se12  1  0.925062  0.537007  0.149252  1
  Se  Se13  1  0.925062  0.962993  0.850748  1
  Se  Se14  1  0.074938  0.462993  0.850748  1
  Se  Se15  1  0.074938  0.037007  0.149252  1
  Se  Se16  1  0.678715  0.420236  0.072129  1
  Se  Se17  1  0.645005  0.922299  0.729134  1
  Se  Se18  1  0.321285  0.579764  0.927871  1
  Se  Se19  1  0.321285  0.920236  0.072129  1
  Se  Se20  1  0.689253  0.264662  0.151650  1
  Se  Se21  1  0.689253  0.235338  0.848350  1
  Se  Se22  1  0.310747  0.735338  0.848350  1
  Se  Se23  1  0.310747  0.764662  0.151650  1
  Se  Se24  1  0.084529  0.650850  0.416969  1
  Se  Se25  1  0.084529  0.849150  0.583031  1
  Se  Se26  1  0.915471  0.349150  0.583031  1
  Se  Se27  1  0.915471  0.150850  0.416969  1
  Se  Se28  1  0.631980  0.250000  0.500000  1
  Se  Se29  1  0.368020  0.750000  0.500000  1
  Se  Se30  1  0.716263  0.450777  0.385666  1
  Se  Se31  1  0.716263  0.049223  0.614334  1
  Se  Se32  1  0.678715  0.079764  0.927871  1
  Se  Se33  1  0.283737  0.950777  0.385666  1
