# generated using pymatgen
data_Pr8Si12TcAu3
_symmetry_space_group_name_H-M   'P 1'
_cell_length_a   8.35102600
_cell_length_b   8.35102543
_cell_length_c   8.66202400
_cell_angle_alpha   90.00000000
_cell_angle_beta   90.00000000
_cell_angle_gamma   120.00000228
_symmetry_Int_Tables_number   1
_chemical_formula_structural   Pr8Si12TcAu3
_chemical_formula_sum   'Pr8 Si12 Tc1 Au3'
_cell_volume   523.15411555
_cell_formula_units_Z   1
loop_
 _symmetry_equiv_pos_site_id
 _symmetry_equiv_pos_as_xyz
  1  'x, y, z'
loop_
 _atom_site_type_symbol
 _atom_site_label
 _atom_site_symmetry_multiplicity
 _atom_site_fract_x
 _atom_site_fract_y
 _atom_site_fract_z
 _atom_site_occupancy
  Pr  Pr0  1  0.503103  0.496897  0.741669  1
  Pr  Pr1  1  0.503510  0.496490  0.258320  1
  Pr  Pr2  1  0.993794  0.496897  0.741669  1
  Pr  Pr3  1  0.992978  0.496490  0.258320  1
  Pr  Pr4  1  0.503103  0.006206  0.741669  1
  Pr  Pr5  1  0.503510  0.007022  0.258320  1
  Pr  Pr6  1  0.000000  0.000000  0.749790  1
  Pr  Pr7  1  0.000000  0.000000  0.250389  1
  Si  Si8  1  0.837113  0.162887  0.000922  1
  Si  Si9  1  0.163261  0.836739  0.999147  1
  Si  Si10  1  0.325773  0.162887  0.000922  1
  Si  Si11  1  0.160898  0.839102  0.499736  1
  Si  Si12  1  0.673479  0.836739  0.999147  1
  Si  Si13  1  0.831651  0.168349  0.500251  1
  Si  Si14  1  0.837113  0.674227  0.000922  1
  Si  Si15  1  0.678204  0.839102  0.499736  1
  Si  Si16  1  0.163261  0.326521  0.999147  1
  Si  Si17  1  0.336699  0.168349  0.500251  1
  Si  Si18  1  0.160898  0.321796  0.499736  1
  Si  Si19  1  0.831651  0.663301  0.500251  1
  Tc  Tc20  1  0.666667  0.333333  0.500731  1
  Au  Au21  1  0.666667  0.333333  0.998742  1
  Au  Au22  1  0.333333  0.666667  0.000755  1
  Au  Au23  1  0.333333  0.666667  0.499455  1
