# generated using pymatgen
data_Tb9Y(Sn3P)2
_symmetry_space_group_name_H-M   'P 1'
_cell_length_a   9.11170700
_cell_length_b   9.11170921
_cell_length_c   6.74967000
_cell_angle_alpha   90.00000000
_cell_angle_beta   90.00000000
_cell_angle_gamma   119.99999560
_symmetry_Int_Tables_number   1
_chemical_formula_structural   Tb9Y(Sn3P)2
_chemical_formula_sum   'Tb9 Y1 Sn6 P2'
_cell_volume   485.30279039
_cell_formula_units_Z   1
loop_
 _symmetry_equiv_pos_site_id
 _symmetry_equiv_pos_as_xyz
  1  'x, y, z'
loop_
 _atom_site_type_symbol
 _atom_site_label
 _atom_site_symmetry_multiplicity
 _atom_site_fract_x
 _atom_site_fract_y
 _atom_site_fract_z
 _atom_site_occupancy
  Tb  Tb0  1  0.666667  0.333333  0.000000  1
  Tb  Tb1  1  0.333333  0.666667  0.000000  1
  Tb  Tb2  1  0.333333  0.666667  0.500000  1
  Tb  Tb3  1  0.759121  0.759086  0.749995  1
  Tb  Tb4  1  0.240914  0.000035  0.749995  1
  Tb  Tb5  1  0.999965  0.240879  0.749995  1
  Tb  Tb6  1  0.240914  0.240879  0.250005  1
  Tb  Tb7  1  0.759121  0.000035  0.250005  1
  Tb  Tb8  1  0.999965  0.759086  0.250005  1
  Y  Y9  1  0.666667  0.333333  0.500000  1
  Sn  Sn10  1  0.399487  0.399452  0.749986  1
  Sn  Sn11  1  0.600548  0.000036  0.749986  1
  Sn  Sn12  1  0.999964  0.600513  0.749986  1
  Sn  Sn13  1  0.600548  0.600513  0.250014  1
  Sn  Sn14  1  0.399487  0.000036  0.250014  1
  Sn  Sn15  1  0.999964  0.399452  0.250014  1
  P  P16  1  0.000000  0.000000  0.000000  1
  P  P17  1  0.000000  0.000000  0.500000  1
