# generated using pymatgen
data_Lu3Ta3FeB4Ru9
_symmetry_space_group_name_H-M   'P 1'
_cell_length_a   9.46781640
_cell_length_b   9.46781695
_cell_length_c   3.11004000
_cell_angle_alpha   90.00000000
_cell_angle_beta   90.00000000
_cell_angle_gamma   89.47846713
_symmetry_Int_Tables_number   1
_chemical_formula_structural   Lu3Ta3FeB4Ru9
_chemical_formula_sum   'Lu3 Ta3 Fe1 B4 Ru9'
_cell_volume   278.77104511
_cell_formula_units_Z   1
loop_
 _symmetry_equiv_pos_site_id
 _symmetry_equiv_pos_as_xyz
  1  'x, y, z'
loop_
 _atom_site_type_symbol
 _atom_site_label
 _atom_site_symmetry_multiplicity
 _atom_site_fract_x
 _atom_site_fract_y
 _atom_site_fract_z
 _atom_site_occupancy
  Lu  Lu0  1  0.821992  0.676673  0.000000  1
  Lu  Lu1  1  0.176673  0.321992  0.000000  1
  Lu  Lu2  1  0.327839  0.827839  0.000000  1
  Ta  Ta3  1  0.669773  0.169773  0.000000  1
  Ta  Ta4  1  0.498567  0.504120  0.000000  1
  Ta  Ta5  1  0.004120  0.998567  0.000000  1
  Fe  Fe6  1  0.508053  0.008053  0.500000  1
  B  B7  1  0.615633  0.890026  0.000000  1
  B  B8  1  0.390026  0.115633  0.000000  1
  B  B9  1  0.119132  0.619132  0.000000  1
  B  B10  1  0.876255  0.376255  0.000000  1
  Ru  Ru11  1  0.568539  0.727329  0.500000  1
  Ru  Ru12  1  0.444079  0.274699  0.500000  1
  Ru  Ru13  1  0.068884  0.781679  0.500000  1
  Ru  Ru14  1  0.918116  0.212340  0.500000  1
  Ru  Ru15  1  0.281679  0.568884  0.500000  1
  Ru  Ru16  1  0.712340  0.418116  0.500000  1
  Ru  Ru17  1  0.227329  0.068539  0.500000  1
  Ru  Ru18  1  0.774699  0.944079  0.500000  1
  Ru  Ru19  1  0.996270  0.496270  0.500000  1
