# generated using pymatgen
data_CaNd2(SmSn2)2
_symmetry_space_group_name_H-M   'P 1'
_cell_length_a   8.09540000
_cell_length_b   8.49312600
_cell_length_c   16.01782000
_cell_angle_alpha   90.00000000
_cell_angle_beta   90.00000000
_cell_angle_gamma   90.00000000
_symmetry_Int_Tables_number   1
_chemical_formula_structural   CaNd2(SmSn2)2
_chemical_formula_sum   'Ca4 Nd8 Sm8 Sn16'
_cell_volume   1101.30925412
_cell_formula_units_Z   4
loop_
 _symmetry_equiv_pos_site_id
 _symmetry_equiv_pos_as_xyz
  1  'x, y, z'
loop_
 _atom_site_type_symbol
 _atom_site_label
 _atom_site_symmetry_multiplicity
 _atom_site_fract_x
 _atom_site_fract_y
 _atom_site_fract_z
 _atom_site_occupancy
  Ca  Ca0  1  0.165288  0.496248  0.750000  1
  Ca  Ca1  1  0.665288  0.003752  0.750000  1
  Ca  Ca2  1  0.834712  0.503752  0.250000  1
  Ca  Ca3  1  0.334712  0.996248  0.250000  1
  Nd  Nd4  1  0.494038  0.317789  0.903583  1
  Nd  Nd5  1  0.994038  0.182211  0.596417  1
  Nd  Nd6  1  0.505962  0.682211  0.403583  1
  Nd  Nd7  1  0.005962  0.817789  0.096417  1
  Nd  Nd8  1  0.505962  0.682211  0.096417  1
  Nd  Nd9  1  0.005962  0.817789  0.403583  1
  Nd  Nd10  1  0.494038  0.317789  0.596417  1
  Nd  Nd11  1  0.994038  0.182211  0.903583  1
  Sm  Sm12  1  0.336033  0.827626  0.875272  1
  Sm  Sm13  1  0.836033  0.672374  0.624728  1
  Sm  Sm14  1  0.663967  0.172374  0.375272  1
  Sm  Sm15  1  0.163967  0.327626  0.124728  1
  Sm  Sm16  1  0.663967  0.172374  0.124728  1
  Sm  Sm17  1  0.163967  0.327626  0.375272  1
  Sm  Sm18  1  0.336033  0.827626  0.624728  1
  Sm  Sm19  1  0.836033  0.672374  0.875272  1
  Sn  Sn20  1  0.324520  0.037809  0.037240  1
  Sn  Sn21  1  0.824520  0.462191  0.462760  1
  Sn  Sn22  1  0.675480  0.962191  0.537240  1
  Sn  Sn23  1  0.175480  0.537809  0.962760  1
  Sn  Sn24  1  0.675480  0.962191  0.962760  1
  Sn  Sn25  1  0.175480  0.537809  0.537240  1
  Sn  Sn26  1  0.324520  0.037809  0.462760  1
  Sn  Sn27  1  0.824520  0.462191  0.037240  1
  Sn  Sn28  1  0.533697  0.607543  0.750000  1
  Sn  Sn29  1  0.033697  0.892457  0.750000  1
  Sn  Sn30  1  0.466303  0.392457  0.250000  1
  Sn  Sn31  1  0.966303  0.107543  0.250000  1
  Sn  Sn32  1  0.295512  0.139359  0.750000  1
  Sn  Sn33  1  0.795512  0.360641  0.750000  1
  Sn  Sn34  1  0.704488  0.860641  0.250000  1
  Sn  Sn35  1  0.204488  0.639359  0.250000  1
