# generated using pymatgen
data_Cs2KSc3F12
_symmetry_space_group_name_H-M   'P 1'
_cell_length_a   7.99368747
_cell_length_b   7.99368736
_cell_length_c   7.99368636
_cell_angle_alpha   59.63441637
_cell_angle_beta   59.63441795
_cell_angle_gamma   59.63442035
_symmetry_Int_Tables_number   1
_chemical_formula_structural   Cs2KSc3F12
_chemical_formula_sum   'Cs2 K1 Sc3 F12'
_cell_volume   358.18175460
_cell_formula_units_Z   1
loop_
 _symmetry_equiv_pos_site_id
 _symmetry_equiv_pos_as_xyz
  1  'x, y, z'
loop_
 _atom_site_type_symbol
 _atom_site_label
 _atom_site_symmetry_multiplicity
 _atom_site_fract_x
 _atom_site_fract_y
 _atom_site_fract_z
 _atom_site_occupancy
  Cs  Cs0  1  0.629648  0.629648  0.629648  1
  Cs  Cs1  1  0.370352  0.370352  0.370352  1
  K  K2  1  0.000000  0.000000  0.000000  1
  Sc  Sc3  1  0.500000  0.000000  0.000000  1
  Sc  Sc4  1  0.000000  0.000000  0.500000  1
  Sc  Sc5  1  0.000000  0.500000  0.000000  1
  F  F6  1  0.109719  0.109719  0.583731  1
  F  F7  1  0.583731  0.109719  0.109719  1
  F  F8  1  0.109719  0.583731  0.109719  1
  F  F9  1  0.890281  0.416269  0.890281  1
  F  F10  1  0.890281  0.890281  0.416269  1
  F  F11  1  0.416269  0.890281  0.890281  1
  F  F12  1  0.913487  0.284719  0.284719  1
  F  F13  1  0.284719  0.284719  0.913487  1
  F  F14  1  0.284719  0.913487  0.284719  1
  F  F15  1  0.715281  0.086513  0.715281  1
  F  F16  1  0.086513  0.715281  0.715281  1
  F  F17  1  0.715281  0.715281  0.086513  1
