# generated using pymatgen
data_Na5Li3(TiSe4)2
_symmetry_space_group_name_H-M   'P 1'
_cell_length_a   10.56778507
_cell_length_b   10.56778576
_cell_length_c   12.74441904
_cell_angle_alpha   52.96359665
_cell_angle_beta   52.96359336
_cell_angle_gamma   57.48598061
_symmetry_Int_Tables_number   1
_chemical_formula_structural   Na5Li3(TiSe4)2
_chemical_formula_sum   'Na10 Li6 Ti4 Se16'
_cell_volume   872.16392587
_cell_formula_units_Z   2
loop_
 _symmetry_equiv_pos_site_id
 _symmetry_equiv_pos_as_xyz
  1  'x, y, z'
loop_
 _atom_site_type_symbol
 _atom_site_label
 _atom_site_symmetry_multiplicity
 _atom_site_fract_x
 _atom_site_fract_y
 _atom_site_fract_z
 _atom_site_occupancy
  Na  Na0  1  0.414150  0.387483  0.733325  1
  Na  Na1  1  0.008766  0.991234  0.250000  1
  Na  Na2  1  0.392555  0.900477  0.483516  1
  Na  Na3  1  0.607445  0.099523  0.516484  1
  Na  Na4  1  0.585850  0.612517  0.266675  1
  Na  Na5  1  0.991234  0.008766  0.750000  1
  Na  Na6  1  0.900477  0.392555  0.983516  1
  Na  Na7  1  0.099523  0.607445  0.016484  1
  Na  Na8  1  0.387483  0.414150  0.233325  1
  Na  Na9  1  0.612517  0.585850  0.766675  1
  Li  Li10  1  0.807760  0.807401  0.757543  1
  Li  Li11  1  0.192599  0.192240  0.742457  1
  Li  Li12  1  0.807401  0.807760  0.257543  1
  Li  Li13  1  0.500000  0.000000  0.000000  1
  Li  Li14  1  0.000000  0.500000  0.500000  1
  Li  Li15  1  0.192240  0.192599  0.242457  1
  Ti  Ti16  1  0.848804  0.319171  0.467255  1
  Ti  Ti17  1  0.151196  0.680829  0.532745  1
  Ti  Ti18  1  0.319171  0.848804  0.967255  1
  Ti  Ti19  1  0.680829  0.151196  0.032745  1
  Se  Se20  1  0.423552  0.318257  0.007137  1
  Se  Se21  1  0.117380  0.708650  0.178274  1
  Se  Se22  1  0.576448  0.681743  0.992863  1
  Se  Se23  1  0.759137  0.881512  0.049716  1
  Se  Se24  1  0.105073  0.666021  0.749970  1
  Se  Se25  1  0.681743  0.576448  0.492863  1
  Se  Se26  1  0.240863  0.118488  0.950284  1
  Se  Se27  1  0.291350  0.882620  0.321726  1
  Se  Se28  1  0.333979  0.894927  0.750030  1
  Se  Se29  1  0.666021  0.105073  0.249970  1
  Se  Se30  1  0.881512  0.759137  0.549716  1
  Se  Se31  1  0.118488  0.240863  0.450284  1
  Se  Se32  1  0.882620  0.291350  0.821726  1
  Se  Se33  1  0.708650  0.117380  0.678274  1
  Se  Se34  1  0.318257  0.423552  0.507137  1
  Se  Se35  1  0.894927  0.333979  0.250030  1
