# generated using pymatgen
data_Tb3In3CuNiAg
_symmetry_space_group_name_H-M   'P 1'
_cell_length_a   7.60727300
_cell_length_b   7.60727180
_cell_length_c   3.92780100
_cell_angle_alpha   90.00000000
_cell_angle_beta   90.00000000
_cell_angle_gamma   120.00000956
_symmetry_Int_Tables_number   1
_chemical_formula_structural   Tb3In3CuNiAg
_chemical_formula_sum   'Tb3 In3 Cu1 Ni1 Ag1'
_cell_volume   196.85117061
_cell_formula_units_Z   1
loop_
 _symmetry_equiv_pos_site_id
 _symmetry_equiv_pos_as_xyz
  1  'x, y, z'
loop_
 _atom_site_type_symbol
 _atom_site_label
 _atom_site_symmetry_multiplicity
 _atom_site_fract_x
 _atom_site_fract_y
 _atom_site_fract_z
 _atom_site_occupancy
  Tb  Tb0  1  0.021056  0.598562  0.500000  1
  Tb  Tb1  1  0.401438  0.422494  0.500000  1
  Tb  Tb2  1  0.577506  0.978944  0.500000  1
  In  In3  1  0.748096  0.751328  0.000000  1
  In  In4  1  0.003232  0.251904  0.000000  1
  In  In5  1  0.248672  0.996768  0.000000  1
  Cu  Cu6  1  0.000000  0.000000  0.500000  1
  Ni  Ni7  1  0.333333  0.666667  0.000000  1
  Ag  Ag8  1  0.666667  0.333333  0.000000  1
