# generated using pymatgen
data_NdZn9Ag2
_symmetry_space_group_name_H-M   'P 1'
_cell_length_a   8.39139425
_cell_length_b   8.39139311
_cell_length_c   8.39363886
_cell_angle_alpha   99.84790414
_cell_angle_beta   99.51640574
_cell_angle_gamma   131.57112278
_symmetry_Int_Tables_number   1
_chemical_formula_structural   NdZn9Ag2
_chemical_formula_sum   'Nd2 Zn18 Ag4'
_cell_volume   403.29251544
_cell_formula_units_Z   2
loop_
 _symmetry_equiv_pos_site_id
 _symmetry_equiv_pos_as_xyz
  1  'x, y, z'
loop_
 _atom_site_type_symbol
 _atom_site_label
 _atom_site_symmetry_multiplicity
 _atom_site_fract_x
 _atom_site_fract_y
 _atom_site_fract_z
 _atom_site_occupancy
  Nd  Nd0  1  0.248756  0.748757  0.500000  1
  Nd  Nd1  1  0.000855  0.000855  0.999999  1
  Zn  Zn2  1  0.625851  0.378933  0.748435  1
  Zn  Zn3  1  0.125210  0.374008  0.745999  1
  Zn  Zn4  1  0.628008  0.379210  0.254000  1
  Zn  Zn5  1  0.630498  0.877416  0.251566  1
  Zn  Zn6  1  0.180320  0.098065  0.669679  1
  Zn  Zn7  1  0.758834  0.931252  0.584570  1
  Zn  Zn8  1  0.346683  0.174264  0.415430  1
  Zn  Zn9  1  0.428386  0.510641  0.330321  1
  Zn  Zn10  1  0.904318  0.819361  0.327972  1
  Zn  Zn11  1  0.491389  0.576347  0.672028  1
  Zn  Zn12  1  0.069080  0.241948  0.413870  1
  Zn  Zn13  1  0.828077  0.655210  0.586130  1
  Zn  Zn14  1  0.062996  0.645058  0.826743  1
  Zn  Zn15  1  0.490579  0.815746  0.916367  1
  Zn  Zn16  1  0.899379  0.574212  0.083633  1
  Zn  Zn17  1  0.818316  0.236254  0.173258  1
  Zn  Zn18  1  0.348230  0.934778  0.176755  1
  Zn  Zn19  1  0.758023  0.171475  0.823244  1
  Ag  Ag20  1  0.421117  0.093004  0.913360  1
  Ag  Ag21  1  0.179644  0.507757  0.086640  1
  Ag  Ag22  1  0.505897  0.505897  0.000000  1
  Ag  Ag23  1  0.749553  0.249554  0.500000  1
