# generated using pymatgen
data_Y20Cd6NiOs
_symmetry_space_group_name_H-M   'P 1'
_cell_length_a   9.66183300
_cell_length_b   9.66183377
_cell_length_c   9.82989900
_cell_angle_alpha   90.00000000
_cell_angle_beta   90.00000000
_cell_angle_gamma   119.99999395
_symmetry_Int_Tables_number   1
_chemical_formula_structural   Y20Cd6NiOs
_chemical_formula_sum   'Y20 Cd6 Ni1 Os1'
_cell_volume   794.69192766
_cell_formula_units_Z   1
loop_
 _symmetry_equiv_pos_site_id
 _symmetry_equiv_pos_as_xyz
  1  'x, y, z'
loop_
 _atom_site_type_symbol
 _atom_site_label
 _atom_site_symmetry_multiplicity
 _atom_site_fract_x
 _atom_site_fract_y
 _atom_site_fract_z
 _atom_site_occupancy
  Y  Y0  1  0.000000  0.000000  0.499850  1
  Y  Y1  1  0.000000  0.000000  0.000150  1
  Y  Y2  1  0.540575  0.459425  0.250000  1
  Y  Y3  1  0.540575  0.081149  0.250000  1
  Y  Y4  1  0.918851  0.459425  0.250000  1
  Y  Y5  1  0.457026  0.542974  0.750000  1
  Y  Y6  1  0.457026  0.914053  0.750000  1
  Y  Y7  1  0.085947  0.542974  0.750000  1
  Y  Y8  1  0.209146  0.790854  0.440256  1
  Y  Y9  1  0.209146  0.418293  0.440256  1
  Y  Y10  1  0.581707  0.790854  0.440256  1
  Y  Y11  1  0.788888  0.211112  0.562804  1
  Y  Y12  1  0.788888  0.577776  0.562804  1
  Y  Y13  1  0.422224  0.211112  0.562804  1
  Y  Y14  1  0.788888  0.211112  0.937196  1
  Y  Y15  1  0.788888  0.577776  0.937196  1
  Y  Y16  1  0.422224  0.211112  0.937196  1
  Y  Y17  1  0.209146  0.790854  0.059744  1
  Y  Y18  1  0.209146  0.418293  0.059744  1
  Y  Y19  1  0.581707  0.790854  0.059744  1
  Cd  Cd20  1  0.884941  0.115059  0.250000  1
  Cd  Cd21  1  0.884941  0.769882  0.250000  1
  Cd  Cd22  1  0.230118  0.115059  0.250000  1
  Cd  Cd23  1  0.115147  0.884853  0.750000  1
  Cd  Cd24  1  0.115147  0.230294  0.750000  1
  Cd  Cd25  1  0.769706  0.884853  0.750000  1
  Ni  Ni26  1  0.666667  0.333333  0.750000  1
  Os  Os27  1  0.333333  0.666667  0.250000  1
