# generated using pymatgen
data_Ce10Si2SnSb5
_symmetry_space_group_name_H-M   'P 1'
_cell_length_a   9.45746800
_cell_length_b   9.46002538
_cell_length_c   6.38344300
_cell_angle_alpha   90.00000000
_cell_angle_beta   90.00000000
_cell_angle_gamma   119.99105077
_symmetry_Int_Tables_number   1
_chemical_formula_structural   Ce10Si2SnSb5
_chemical_formula_sum   'Ce10 Si2 Sn1 Sb5'
_cell_volume   494.64310035
_cell_formula_units_Z   1
loop_
 _symmetry_equiv_pos_site_id
 _symmetry_equiv_pos_as_xyz
  1  'x, y, z'
loop_
 _atom_site_type_symbol
 _atom_site_label
 _atom_site_symmetry_multiplicity
 _atom_site_fract_x
 _atom_site_fract_y
 _atom_site_fract_z
 _atom_site_occupancy
  Ce  Ce0  1  0.258298  0.000000  0.250000  1
  Ce  Ce1  1  0.258730  0.258828  0.750000  1
  Ce  Ce2  1  0.999901  0.741172  0.750000  1
  Ce  Ce3  1  0.000369  0.259243  0.250000  1
  Ce  Ce4  1  0.741126  0.740757  0.250000  1
  Ce  Ce5  1  0.741298  0.000000  0.750000  1
  Ce  Ce6  1  0.333374  0.666562  0.999972  1
  Ce  Ce7  1  0.666813  0.333438  0.500028  1
  Ce  Ce8  1  0.666813  0.333438  0.999972  1
  Ce  Ce9  1  0.333374  0.666562  0.500028  1
  Si  Si10  1  0.999783  0.000000  0.000101  1
  Si  Si11  1  0.999783  0.000000  0.499899  1
  Sn  Sn12  1  0.615696  0.000000  0.250000  1
  Sb  Sb13  1  0.615464  0.615714  0.750000  1
  Sb  Sb14  1  0.999750  0.384286  0.750000  1
  Sb  Sb15  1  0.000006  0.615530  0.250000  1
  Sb  Sb16  1  0.384475  0.384470  0.250000  1
  Sb  Sb17  1  0.384946  0.000000  0.750000  1
