# generated using pymatgen
data_Pr2Pa2Al17GaIr6
_symmetry_space_group_name_H-M   'P 1'
_cell_length_a   7.63400712
_cell_length_b   7.62791089
_cell_length_c   9.46074600
_cell_angle_alpha   90.00000000
_cell_angle_beta   90.00000000
_cell_angle_gamma   119.60329879
_symmetry_Int_Tables_number   1
_chemical_formula_structural   Pr2Pa2Al17GaIr6
_chemical_formula_sum   'Pr2 Pa2 Al17 Ga1 Ir6'
_cell_volume   479.00098093
_cell_formula_units_Z   1
loop_
 _symmetry_equiv_pos_site_id
 _symmetry_equiv_pos_as_xyz
  1  'x, y, z'
loop_
 _atom_site_type_symbol
 _atom_site_label
 _atom_site_symmetry_multiplicity
 _atom_site_fract_x
 _atom_site_fract_y
 _atom_site_fract_z
 _atom_site_occupancy
  Pr  Pr0  1  0.671520  0.993321  0.250000  1
  Pr  Pr1  1  0.330615  0.006319  0.750000  1
  Pa  Pa2  1  0.997196  0.673045  0.250000  1
  Pa  Pa3  1  0.002691  0.328621  0.750000  1
  Al  Al4  1  0.867367  0.871027  0.750000  1
  Al  Al5  1  0.002125  0.334212  0.075241  1
  Al  Al6  1  0.997738  0.666228  0.924936  1
  Al  Al7  1  0.997738  0.666228  0.575064  1
  Al  Al8  1  0.336625  0.003408  0.425272  1
  Al  Al9  1  0.002125  0.334212  0.424759  1
  Al  Al10  1  0.663395  0.996417  0.574610  1
  Al  Al11  1  0.663395  0.996417  0.925390  1
  Al  Al12  1  0.336625  0.003408  0.074728  1
  Al  Al13  1  0.335258  0.334909  0.552332  1
  Al  Al14  1  0.664577  0.664773  0.449176  1
  Al  Al15  1  0.664577  0.664773  0.050824  1
  Al  Al16  1  0.335258  0.334909  0.947668  1
  Al  Al17  1  0.336565  0.545753  0.250000  1
  Al  Al18  1  0.662268  0.454634  0.750000  1
  Al  Al19  1  0.550230  0.343420  0.250000  1
  Al  Al20  1  0.450651  0.655664  0.750000  1
  Ga  Ga21  1  0.135329  0.131836  0.250000  1
  Ir  Ir22  1  0.675177  0.330837  0.000027  1
  Ir  Ir23  1  0.323679  0.668011  0.000522  1
  Ir  Ir24  1  0.323679  0.668011  0.499478  1
  Ir  Ir25  1  0.675177  0.330837  0.499973  1
  Ir  Ir26  1  0.999209  0.999384  0.997326  1
  Ir  Ir27  1  0.999209  0.999384  0.502674  1
