# generated using pymatgen
data_La20Bi8PtRh3
_symmetry_space_group_name_H-M   'P 1'
_cell_length_a   8.48773343
_cell_length_b   9.47226100
_cell_length_c   13.14030800
_cell_angle_alpha   90.00000000
_cell_angle_beta   89.95666904
_cell_angle_gamma   90.00000000
_symmetry_Int_Tables_number   1
_chemical_formula_structural   La20Bi8PtRh3
_chemical_formula_sum   'La20 Bi8 Pt1 Rh3'
_cell_volume   1056.45452634
_cell_formula_units_Z   1
loop_
 _symmetry_equiv_pos_site_id
 _symmetry_equiv_pos_as_xyz
  1  'x, y, z'
loop_
 _atom_site_type_symbol
 _atom_site_label
 _atom_site_symmetry_multiplicity
 _atom_site_fract_x
 _atom_site_fract_y
 _atom_site_fract_z
 _atom_site_occupancy
  La  La0  1  0.849593  0.750000  0.796831  1
  La  La1  1  0.151538  0.250000  0.203685  1
  La  La2  1  0.348026  0.250000  0.705674  1
  La  La3  1  0.655111  0.750000  0.292009  1
  La  La4  1  0.370928  0.750000  0.697614  1
  La  La5  1  0.626429  0.250000  0.305348  1
  La  La6  1  0.874406  0.250000  0.805534  1
  La  La7  1  0.125831  0.750000  0.194163  1
  La  La8  1  0.949137  0.750000  0.502991  1
  La  La9  1  0.048898  0.250000  0.497226  1
  La  La10  1  0.449965  0.250000  0.996533  1
  La  La11  1  0.547634  0.750000  0.002762  1
  La  La12  1  0.683898  0.044311  0.564532  1
  La  La13  1  0.316646  0.964024  0.435808  1
  La  La14  1  0.181968  0.960205  0.936280  1
  La  La15  1  0.316646  0.535976  0.435808  1
  La  La16  1  0.817838  0.038966  0.063395  1
  La  La17  1  0.683898  0.455689  0.564532  1
  La  La18  1  0.817838  0.461034  0.063395  1
  La  La19  1  0.181968  0.539795  0.936280  1
  Bi  Bi20  1  0.572734  0.494777  0.826620  1
  Bi  Bi21  1  0.428558  0.504915  0.172958  1
  Bi  Bi22  1  0.072301  0.505512  0.673137  1
  Bi  Bi23  1  0.428558  0.995085  0.172958  1
  Bi  Bi24  1  0.928554  0.494363  0.326939  1
  Bi  Bi25  1  0.572734  0.005223  0.826620  1
  Bi  Bi26  1  0.928554  0.005637  0.326939  1
  Bi  Bi27  1  0.072301  0.994488  0.673137  1
  Pt  Pt28  1  0.572510  0.750000  0.509810  1
  Rh  Rh29  1  0.425086  0.250000  0.489178  1
  Rh  Rh30  1  0.074978  0.250000  0.988867  1
  Rh  Rh31  1  0.924943  0.750000  0.012435  1
