# generated using pymatgen
data_Y6Ho4SnBi5
_symmetry_space_group_name_H-M   'P 1'
_cell_length_a   9.12178000
_cell_length_b   9.12842947
_cell_length_c   6.42248900
_cell_angle_alpha   90.00000000
_cell_angle_beta   90.00000000
_cell_angle_gamma   119.97589923
_symmetry_Int_Tables_number   1
_chemical_formula_structural   Y6Ho4SnBi5
_chemical_formula_sum   'Y6 Ho4 Sn1 Bi5'
_cell_volume   463.24962710
_cell_formula_units_Z   1
loop_
 _symmetry_equiv_pos_site_id
 _symmetry_equiv_pos_as_xyz
  1  'x, y, z'
loop_
 _atom_site_type_symbol
 _atom_site_label
 _atom_site_symmetry_multiplicity
 _atom_site_fract_x
 _atom_site_fract_y
 _atom_site_fract_z
 _atom_site_occupancy
  Y  Y0  1  0.000823  0.757706  0.750000  1
  Y  Y1  1  0.994512  0.238701  0.250000  1
  Y  Y2  1  0.755811  0.761299  0.250000  1
  Y  Y3  1  0.756098  0.000000  0.750000  1
  Y  Y4  1  0.243117  0.242294  0.750000  1
  Y  Y5  1  0.246784  0.000000  0.250000  1
  Ho  Ho6  1  0.336538  0.670594  0.498520  1
  Ho  Ho7  1  0.665944  0.329406  0.001480  1
  Ho  Ho8  1  0.665944  0.329406  0.498520  1
  Ho  Ho9  1  0.336538  0.670594  0.001480  1
  Sn  Sn10  1  0.607593  0.000000  0.250000  1
  Bi  Bi11  1  0.390804  0.000000  0.750000  1
  Bi  Bi12  1  0.388573  0.389748  0.250000  1
  Bi  Bi13  1  0.998825  0.610252  0.250000  1
  Bi  Bi14  1  0.001724  0.391352  0.750000  1
  Bi  Bi15  1  0.610372  0.608648  0.750000  1
