# generated using pymatgen
data_DyY15Cd4Ir3Pt
_symmetry_space_group_name_H-M   'P 1'
_cell_length_a   9.67955219
_cell_length_b   9.67955264
_cell_length_c   9.67955202
_cell_angle_alpha   60.10490483
_cell_angle_beta   60.10490261
_cell_angle_gamma   60.10490239
_symmetry_Int_Tables_number   1
_chemical_formula_structural   DyY15Cd4Ir3Pt
_chemical_formula_sum   'Dy1 Y15 Cd4 Ir3 Pt1'
_cell_volume   642.80883466
_cell_formula_units_Z   1
loop_
 _symmetry_equiv_pos_site_id
 _symmetry_equiv_pos_as_xyz
  1  'x, y, z'
loop_
 _atom_site_type_symbol
 _atom_site_label
 _atom_site_symmetry_multiplicity
 _atom_site_fract_x
 _atom_site_fract_y
 _atom_site_fract_z
 _atom_site_occupancy
  Dy  Dy0  1  0.347561  0.347561  0.347561  1
  Y  Y1  1  0.352278  0.352278  0.948925  1
  Y  Y2  1  0.352278  0.948925  0.352278  1
  Y  Y3  1  0.948925  0.352278  0.352278  1
  Y  Y4  1  0.805331  0.190891  0.190891  1
  Y  Y5  1  0.188492  0.810104  0.810104  1
  Y  Y6  1  0.190891  0.805331  0.190891  1
  Y  Y7  1  0.810104  0.188492  0.810104  1
  Y  Y8  1  0.190891  0.190891  0.805331  1
  Y  Y9  1  0.810104  0.810104  0.188492  1
  Y  Y10  1  0.938533  0.562696  0.562696  1
  Y  Y11  1  0.564140  0.937213  0.937213  1
  Y  Y12  1  0.562696  0.938533  0.562696  1
  Y  Y13  1  0.937213  0.564140  0.937213  1
  Y  Y14  1  0.562696  0.562696  0.938533  1
  Y  Y15  1  0.937213  0.937213  0.564140  1
  Cd  Cd16  1  0.580661  0.580661  0.580661  1
  Cd  Cd17  1  0.580699  0.580699  0.256805  1
  Cd  Cd18  1  0.580699  0.256805  0.580699  1
  Cd  Cd19  1  0.256805  0.580699  0.580699  1
  Ir  Ir20  1  0.142561  0.142561  0.574111  1
  Ir  Ir21  1  0.142561  0.574111  0.142561  1
  Ir  Ir22  1  0.574111  0.142561  0.142561  1
  Pt  Pt23  1  0.142556  0.142556  0.142556  1
