# generated using pymatgen
data_YTa3(BOs)4
_symmetry_space_group_name_H-M   'P 1'
_cell_length_a   3.17331600
_cell_length_b   9.19170264
_cell_length_c   16.02958601
_cell_angle_alpha   90.10029787
_cell_angle_beta   90.00000000
_cell_angle_gamma   90.00000000
_symmetry_Int_Tables_number   1
_chemical_formula_structural   YTa3(BOs)4
_chemical_formula_sum   'Y3 Ta9 B12 Os12'
_cell_volume   467.55308672
_cell_formula_units_Z   3
loop_
 _symmetry_equiv_pos_site_id
 _symmetry_equiv_pos_as_xyz
  1  'x, y, z'
loop_
 _atom_site_type_symbol
 _atom_site_label
 _atom_site_symmetry_multiplicity
 _atom_site_fract_x
 _atom_site_fract_y
 _atom_site_fract_z
 _atom_site_occupancy
  Y  Y0  1  0.000000  0.320568  0.791376  1
  Y  Y1  1  0.000000  0.180986  0.290792  1
  Y  Y2  1  0.000000  0.820191  0.708898  1
  Ta  Ta3  1  0.000000  0.801071  0.493252  1
  Ta  Ta4  1  0.000000  0.197746  0.504331  1
  Ta  Ta5  1  0.000000  0.300560  0.005013  1
  Ta  Ta6  1  0.000000  0.699326  0.996606  1
  Ta  Ta7  1  0.000000  0.515110  0.593851  1
  Ta  Ta8  1  0.000000  0.484798  0.406113  1
  Ta  Ta9  1  0.000000  0.013863  0.906229  1
  Ta  Ta10  1  0.000000  0.985084  0.094808  1
  Ta  Ta11  1  0.000000  0.682987  0.204570  1
  B  B12  1  0.500000  0.603665  0.494917  1
  B  B13  1  0.500000  0.396477  0.502870  1
  B  B14  1  0.500000  0.102609  0.004539  1
  B  B15  1  0.500000  0.896046  0.998880  1
  B  B16  1  0.000000  0.608583  0.834011  1
  B  B17  1  0.000000  0.393695  0.167778  1
  B  B18  1  0.000000  0.108312  0.666309  1
  B  B19  1  0.000000  0.888519  0.333940  1
  B  B20  1  0.500000  0.712228  0.591694  1
  B  B21  1  0.500000  0.289192  0.406341  1
  B  B22  1  0.500000  0.208962  0.907177  1
  B  B23  1  0.500000  0.785384  0.099905  1
  Os  Os24  1  0.500000  0.716421  0.356863  1
  Os  Os25  1  0.500000  0.278571  0.635283  1
  Os  Os26  1  0.500000  0.224096  0.136898  1
  Os  Os27  1  0.500000  0.778390  0.866043  1
  Os  Os28  1  0.500000  0.521021  0.096063  1
  Os  Os29  1  0.500000  0.489087  0.913006  1
  Os  Os30  1  0.500000  0.008358  0.406065  1
  Os  Os31  1  0.500000  0.988279  0.589102  1
  Os  Os32  1  0.500000  0.565428  0.736092  1
  Os  Os33  1  0.500000  0.446755  0.263200  1
  Os  Os34  1  0.500000  0.065844  0.765731  1
  Os  Os35  1  0.500000  0.921790  0.231457  1
