# generated using pymatgen
data_Ho9Mg(Co2Au)2
_symmetry_space_group_name_H-M   'P 1'
_cell_length_a   8.44378037
_cell_length_b   8.44366206
_cell_length_c   8.44133187
_cell_angle_alpha   128.08761651
_cell_angle_beta   128.07733550
_cell_angle_gamma   76.51205305
_symmetry_Int_Tables_number   1
_chemical_formula_structural   Ho9Mg(Co2Au)2
_chemical_formula_sum   'Ho9 Mg1 Co4 Au2'
_cell_volume   362.20012359
_cell_formula_units_Z   1
loop_
 _symmetry_equiv_pos_site_id
 _symmetry_equiv_pos_as_xyz
  1  'x, y, z'
loop_
 _atom_site_type_symbol
 _atom_site_label
 _atom_site_symmetry_multiplicity
 _atom_site_fract_x
 _atom_site_fract_y
 _atom_site_fract_z
 _atom_site_occupancy
  Ho  Ho0  1  0.691925  0.527606  0.484255  1
  Ho  Ho1  1  0.472195  0.956407  0.163877  1
  Ho  Ho2  1  0.792524  0.308321  0.836121  1
  Ho  Ho3  1  0.527805  0.043593  0.836123  1
  Ho  Ho4  1  0.000000  0.000000  0.000000  1
  Ho  Ho5  1  0.043359  0.207664  0.515736  1
  Ho  Ho6  1  0.308075  0.472394  0.515745  1
  Ho  Ho7  1  0.207476  0.691679  0.163879  1
  Ho  Ho8  1  0.956641  0.792336  0.484264  1
  Mg  Mg9  1  0.500000  0.500000  0.000000  1
  Co  Co10  1  0.124451  0.629604  0.754057  1
  Co  Co11  1  0.875549  0.370396  0.245943  1
  Co  Co12  1  0.629781  0.875333  0.505121  1
  Co  Co13  1  0.370219  0.124667  0.494879  1
  Au  Au14  1  0.247073  0.247072  0.000000  1
  Au  Au15  1  0.752927  0.752928  0.000000  1
