# generated using pymatgen
data_Pr16Mg3In(IrOs)2
_symmetry_space_group_name_H-M   'P 1'
_cell_length_a   10.06937632
_cell_length_b   10.06937658
_cell_length_c   10.11812299
_cell_angle_alpha   59.91174966
_cell_angle_beta   59.91174737
_cell_angle_gamma   59.78386799
_symmetry_Int_Tables_number   1
_chemical_formula_structural   Pr16Mg3In(IrOs)2
_chemical_formula_sum   'Pr16 Mg3 In1 Ir2 Os2'
_cell_volume   723.26423431
_cell_formula_units_Z   1
loop_
 _symmetry_equiv_pos_site_id
 _symmetry_equiv_pos_as_xyz
  1  'x, y, z'
loop_
 _atom_site_type_symbol
 _atom_site_label
 _atom_site_symmetry_multiplicity
 _atom_site_fract_x
 _atom_site_fract_y
 _atom_site_fract_z
 _atom_site_occupancy
  Pr  Pr0  1  0.344903  0.344903  0.347014  1
  Pr  Pr1  1  0.346467  0.346467  0.960482  1
  Pr  Pr2  1  0.345334  0.962364  0.346530  1
  Pr  Pr3  1  0.962364  0.345334  0.346530  1
  Pr  Pr4  1  0.812213  0.188705  0.188804  1
  Pr  Pr5  1  0.191023  0.810193  0.806875  1
  Pr  Pr6  1  0.188705  0.812213  0.188804  1
  Pr  Pr7  1  0.810193  0.191023  0.806875  1
  Pr  Pr8  1  0.188736  0.188736  0.810557  1
  Pr  Pr9  1  0.807920  0.807920  0.192261  1
  Pr  Pr10  1  0.938866  0.558566  0.562450  1
  Pr  Pr11  1  0.557823  0.939738  0.940785  1
  Pr  Pr12  1  0.558566  0.938866  0.562450  1
  Pr  Pr13  1  0.939738  0.557823  0.940785  1
  Pr  Pr14  1  0.561327  0.561327  0.938722  1
  Pr  Pr15  1  0.940675  0.940675  0.559365  1
  Mg  Mg16  1  0.577676  0.577676  0.266165  1
  Mg  Mg17  1  0.577904  0.265346  0.578146  1
  Mg  Mg18  1  0.265346  0.577904  0.578146  1
  In  In19  1  0.579508  0.579508  0.580011  1
  Ir  Ir20  1  0.142885  0.579425  0.139948  1
  Ir  Ir21  1  0.579425  0.142885  0.139948  1
  Os  Os22  1  0.140672  0.140672  0.137669  1
  Os  Os23  1  0.141732  0.141732  0.580675  1
