# generated using pymatgen
data_Rb3YNb2O8
_symmetry_space_group_name_H-M   'P 1'
_cell_length_a   6.28361000
_cell_length_b   6.28361060
_cell_length_c   8.08578100
_cell_angle_alpha   90.00000000
_cell_angle_beta   90.00000000
_cell_angle_gamma   120.00000738
_symmetry_Int_Tables_number   1
_chemical_formula_structural   Rb3YNb2O8
_chemical_formula_sum   'Rb3 Y1 Nb2 O8'
_cell_volume   276.48467200
_cell_formula_units_Z   1
loop_
 _symmetry_equiv_pos_site_id
 _symmetry_equiv_pos_as_xyz
  1  'x, y, z'
loop_
 _atom_site_type_symbol
 _atom_site_label
 _atom_site_symmetry_multiplicity
 _atom_site_fract_x
 _atom_site_fract_y
 _atom_site_fract_z
 _atom_site_occupancy
  Rb  Rb0  1  0.333333  0.666667  0.692099  1
  Rb  Rb1  1  0.666667  0.333333  0.307901  1
  Rb  Rb2  1  0.000000  0.000000  0.000000  1
  Y  Y3  1  0.000000  0.000000  0.500000  1
  Nb  Nb4  1  0.333333  0.666667  0.250736  1
  Nb  Nb5  1  0.666667  0.333333  0.749264  1
  O  O6  1  0.333333  0.666667  0.025398  1
  O  O7  1  0.666667  0.333333  0.974602  1
  O  O8  1  0.169580  0.830420  0.332556  1
  O  O9  1  0.660839  0.830420  0.332556  1
  O  O10  1  0.169580  0.339161  0.332556  1
  O  O11  1  0.830420  0.169580  0.667444  1
  O  O12  1  0.339161  0.169580  0.667444  1
  O  O13  1  0.830420  0.660839  0.667444  1
