# generated using pymatgen
data_Y5Tm15Sn11Bi5
_symmetry_space_group_name_H-M   'P 1'
_cell_length_a   8.10921964
_cell_length_b   8.11153112
_cell_length_c   15.34128900
_cell_angle_alpha   90.17064729
_cell_angle_beta   90.02275801
_cell_angle_gamma   89.88560945
_symmetry_Int_Tables_number   1
_chemical_formula_structural   Y5Tm15Sn11Bi5
_chemical_formula_sum   'Y5 Tm15 Sn11 Bi5'
_cell_volume   1009.11562018
_cell_formula_units_Z   1
loop_
 _symmetry_equiv_pos_site_id
 _symmetry_equiv_pos_as_xyz
  1  'x, y, z'
loop_
 _atom_site_type_symbol
 _atom_site_label
 _atom_site_symmetry_multiplicity
 _atom_site_fract_x
 _atom_site_fract_y
 _atom_site_fract_z
 _atom_site_occupancy
  Y  Y0  1  0.957194  0.820663  0.106832  1
  Y  Y1  1  0.469167  0.668192  0.104235  1
  Y  Y2  1  0.973685  0.826339  0.398207  1
  Y  Y3  1  0.524839  0.326422  0.600974  1
  Y  Y4  1  0.034792  0.178746  0.895929  1
  Tm  Tm5  1  0.372536  0.840488  0.874215  1
  Tm  Tm6  1  0.876374  0.659407  0.625224  1
  Tm  Tm7  1  0.622891  0.159080  0.374711  1
  Tm  Tm8  1  0.122038  0.339096  0.125830  1
  Tm  Tm9  1  0.628615  0.162839  0.125626  1
  Tm  Tm10  1  0.129335  0.337943  0.377465  1
  Tm  Tm11  1  0.368659  0.839211  0.623746  1
  Tm  Tm12  1  0.871091  0.655851  0.874739  1
  Tm  Tm13  1  0.549318  0.334086  0.892390  1
  Tm  Tm14  1  0.050799  0.172980  0.606276  1
  Tm  Tm15  1  0.449991  0.674621  0.394799  1
  Tm  Tm16  1  0.204070  0.502364  0.745209  1
  Tm  Tm17  1  0.703837  0.999051  0.749233  1
  Tm  Tm18  1  0.795728  0.497280  0.247299  1
  Tm  Tm19  1  0.296415  0.001184  0.254469  1
  Sn  Sn20  1  0.211882  0.535148  0.542125  1
  Sn  Sn21  1  0.287442  0.034334  0.458435  1
  Sn  Sn22  1  0.785557  0.464644  0.041555  1
  Sn  Sn23  1  0.568302  0.626014  0.748767  1
  Sn  Sn24  1  0.067521  0.876422  0.751931  1
  Sn  Sn25  1  0.429758  0.375455  0.249707  1
  Sn  Sn26  1  0.930932  0.123553  0.251719  1
  Sn  Sn27  1  0.345513  0.149615  0.752380  1
  Sn  Sn28  1  0.843706  0.350363  0.747372  1
  Sn  Sn29  1  0.656137  0.850711  0.251746  1
  Sn  Sn30  1  0.157761  0.646109  0.250014  1
  Bi  Bi31  1  0.279394  0.025825  0.044901  1
  Bi  Bi32  1  0.776500  0.474505  0.455552  1
  Bi  Bi33  1  0.721833  0.974359  0.543735  1
  Bi  Bi34  1  0.220402  0.527584  0.956114  1
  Bi  Bi35  1  0.715981  0.969511  0.956538  1
