# generated using pymatgen
data_Tb2Y3NbRuO12
_symmetry_space_group_name_H-M   'P 1'
_cell_length_a   6.84765523
_cell_length_b   6.84837088
_cell_length_c   7.51957601
_cell_angle_alpha   73.97308016
_cell_angle_beta   73.97080852
_cell_angle_gamma   50.58928956
_symmetry_Int_Tables_number   1
_chemical_formula_structural   Tb2Y3NbRuO12
_chemical_formula_sum   'Tb2 Y3 Nb1 Ru1 O12'
_cell_volume   259.43380618
_cell_formula_units_Z   1
loop_
 _symmetry_equiv_pos_site_id
 _symmetry_equiv_pos_as_xyz
  1  'x, y, z'
loop_
 _atom_site_type_symbol
 _atom_site_label
 _atom_site_symmetry_multiplicity
 _atom_site_fract_x
 _atom_site_fract_y
 _atom_site_fract_z
 _atom_site_occupancy
  Tb  Tb0  1  0.309468  0.298955  0.860713  1
  Tb  Tb1  1  0.318175  0.305260  0.325409  1
  Y  Y2  1  0.694745  0.681738  0.674819  1
  Y  Y3  1  0.701158  0.690598  0.139025  1
  Y  Y4  1  0.000622  0.999264  0.000016  1
  Nb  Nb5  1  0.208189  0.791728  0.500045  1
  Ru  Ru6  1  0.753063  0.246805  0.500063  1
  O  O7  1  0.408924  0.898360  0.924449  1
  O  O8  1  0.580619  0.090528  0.583930  1
  O  O9  1  0.909171  0.419701  0.416047  1
  O  O10  1  0.101225  0.591316  0.075598  1
  O  O11  1  0.992579  0.007197  0.299717  1
  O  O12  1  0.495751  0.504271  0.683226  1
  O  O13  1  0.907136  0.402917  0.925195  1
  O  O14  1  0.101115  0.568470  0.583164  1
  O  O15  1  0.431909  0.898524  0.416824  1
  O  O16  1  0.597367  0.092427  0.074869  1
  O  O17  1  0.495954  0.504488  0.316646  1
  O  O18  1  0.992830  0.007454  0.700245  1
