# generated using pymatgen
data_CeHf(UH6)2
_symmetry_space_group_name_H-M   'P 1'
_cell_length_a   6.46448800
_cell_length_b   6.47340400
_cell_length_c   6.47340400
_cell_angle_alpha   90.00000000
_cell_angle_beta   90.00000000
_cell_angle_gamma   90.00000000
_symmetry_Int_Tables_number   1
_chemical_formula_structural   CeHf(UH6)2
_chemical_formula_sum   'Ce2 Hf2 U4 H24'
_cell_volume   270.89410684
_cell_formula_units_Z   2
loop_
 _symmetry_equiv_pos_site_id
 _symmetry_equiv_pos_as_xyz
  1  'x, y, z'
loop_
 _atom_site_type_symbol
 _atom_site_label
 _atom_site_symmetry_multiplicity
 _atom_site_fract_x
 _atom_site_fract_y
 _atom_site_fract_z
 _atom_site_occupancy
  Ce  Ce0  1  0.250000  0.000000  0.500000  1
  Ce  Ce1  1  0.750000  0.000000  0.500000  1
  Hf  Hf2  1  0.000000  0.000000  0.000000  1
  Hf  Hf3  1  0.500000  0.500000  0.500000  1
  U  U4  1  0.000000  0.500000  0.249469  1
  U  U5  1  0.000000  0.500000  0.750531  1
  U  U6  1  0.500000  0.749469  0.000000  1
  U  U7  1  0.500000  0.250531  0.000000  1
  H  H8  1  0.000000  0.155221  0.281687  1
  H  H9  1  0.500000  0.218313  0.655221  1
  H  H10  1  0.500000  0.781687  0.344779  1
  H  H11  1  0.795947  0.645321  0.500000  1
  H  H12  1  0.204053  0.645321  0.500000  1
  H  H13  1  0.348571  0.500000  0.793194  1
  H  H14  1  0.651429  0.500000  0.793194  1
  H  H15  1  0.295947  0.000000  0.145321  1
  H  H16  1  0.151429  0.293194  0.000000  1
  H  H17  1  0.848571  0.706806  0.000000  1
  H  H18  1  0.295947  0.000000  0.854679  1
  H  H19  1  0.848571  0.293194  0.000000  1
  H  H20  1  0.704053  0.000000  0.145321  1
  H  H21  1  0.704053  0.000000  0.854679  1
  H  H22  1  0.151429  0.706806  0.000000  1
  H  H23  1  0.000000  0.844779  0.718313  1
  H  H24  1  0.000000  0.155221  0.718313  1
  H  H25  1  0.000000  0.844779  0.281687  1
  H  H26  1  0.651429  0.500000  0.206806  1
  H  H27  1  0.348571  0.500000  0.206806  1
  H  H28  1  0.795947  0.354679  0.500000  1
  H  H29  1  0.204053  0.354679  0.500000  1
  H  H30  1  0.500000  0.781687  0.655221  1
  H  H31  1  0.500000  0.218313  0.344779  1
