# generated using pymatgen
data_La(ReO3)9
_symmetry_space_group_name_H-M   'P 1'
_cell_length_a   8.55085021
_cell_length_b   8.55085043
_cell_length_c   8.55085059
_cell_angle_alpha   66.47055403
_cell_angle_beta   66.47056183
_cell_angle_gamma   66.47055547
_symmetry_Int_Tables_number   1
_chemical_formula_structural   La(ReO3)9
_chemical_formula_sum   'La1 Re9 O27'
_cell_volume   503.72237202
_cell_formula_units_Z   1
loop_
 _symmetry_equiv_pos_site_id
 _symmetry_equiv_pos_as_xyz
  1  'x, y, z'
loop_
 _atom_site_type_symbol
 _atom_site_label
 _atom_site_symmetry_multiplicity
 _atom_site_fract_x
 _atom_site_fract_y
 _atom_site_fract_z
 _atom_site_occupancy
  La  La0  1  0.000000  0.000000  0.000000  1
  Re  Re1  1  0.500000  0.500000  0.500000  1
  Re  Re2  1  0.940630  0.605052  0.283814  1
  Re  Re3  1  0.830448  0.830448  0.830448  1
  Re  Re4  1  0.716186  0.059370  0.394948  1
  Re  Re5  1  0.169552  0.169552  0.169552  1
  Re  Re6  1  0.283814  0.940630  0.605052  1
  Re  Re7  1  0.394948  0.716186  0.059370  1
  Re  Re8  1  0.605052  0.283814  0.940630  1
  Re  Re9  1  0.059370  0.394948  0.716186  1
  O  O10  1  0.444666  0.610897  0.277126  1
  O  O11  1  0.162531  0.672201  0.164496  1
  O  O12  1  0.000000  0.500000  0.500000  1
  O  O13  1  0.722874  0.555334  0.389103  1
  O  O14  1  0.944489  0.611959  0.776601  1
  O  O15  1  0.835504  0.837469  0.327799  1
  O  O16  1  0.500000  0.500000  0.000000  1
  O  O17  1  0.389103  0.722874  0.555334  1
  O  O18  1  0.890352  0.727542  0.054508  1
  O  O19  1  0.054508  0.890352  0.727542  1
  O  O20  1  0.327799  0.835504  0.837469  1
  O  O21  1  0.223399  0.055511  0.388041  1
  O  O22  1  0.672201  0.164496  0.162531  1
  O  O23  1  0.776601  0.944489  0.611959  1
  O  O24  1  0.945492  0.109648  0.272458  1
  O  O25  1  0.500000  0.000000  0.500000  1
  O  O26  1  0.611959  0.776601  0.944489  1
  O  O27  1  0.727542  0.054508  0.890352  1
  O  O28  1  0.055511  0.388041  0.223399  1
  O  O29  1  0.610897  0.277126  0.444666  1
  O  O30  1  0.272458  0.945492  0.109648  1
  O  O31  1  0.164496  0.162531  0.672201  1
  O  O32  1  0.837469  0.327799  0.835504  1
  O  O33  1  0.277126  0.444666  0.610897  1
  O  O34  1  0.388041  0.223399  0.055511  1
  O  O35  1  0.109648  0.272458  0.945492  1
  O  O36  1  0.555334  0.389103  0.722874  1
