# generated using pymatgen
data_InSn4B2IrRh5
_symmetry_space_group_name_H-M   'P 1'
_cell_length_a   6.67833035
_cell_length_b   6.68636661
_cell_length_c   5.63684511
_cell_angle_alpha   89.99065355
_cell_angle_beta   90.06637508
_cell_angle_gamma   119.92972411
_symmetry_Int_Tables_number   1
_chemical_formula_structural   InSn4B2IrRh5
_chemical_formula_sum   'In1 Sn4 B2 Ir1 Rh5'
_cell_volume   218.13812893
_cell_formula_units_Z   1
loop_
 _symmetry_equiv_pos_site_id
 _symmetry_equiv_pos_as_xyz
  1  'x, y, z'
loop_
 _atom_site_type_symbol
 _atom_site_label
 _atom_site_symmetry_multiplicity
 _atom_site_fract_x
 _atom_site_fract_y
 _atom_site_fract_z
 _atom_site_occupancy
  In  In0  1  0.666533  0.333662  0.502879  1
  Sn  Sn1  1  0.407143  0.404232  0.999007  1
  Sn  Sn2  1  0.597804  0.004260  0.998657  1
  Sn  Sn3  1  0.994563  0.591688  0.999499  1
  Sn  Sn4  1  0.332591  0.665278  0.503293  1
  B  B5  1  0.001393  0.000157  0.500374  1
  B  B6  1  0.000795  0.999969  0.998659  1
  Ir  Ir7  1  0.246910  0.995175  0.748319  1
  Rh  Rh8  1  0.748138  0.752841  0.250842  1
  Rh  Rh9  1  0.005647  0.252583  0.251187  1
  Rh  Rh10  1  0.249272  0.995087  0.252823  1
  Rh  Rh11  1  0.745331  0.751423  0.746963  1
  Rh  Rh12  1  0.003882  0.253644  0.747497  1
