# generated using pymatgen
data_Ca18La2TaTi19O60
_symmetry_space_group_name_H-M   'P 1'
_cell_length_a   7.75625736
_cell_length_b   9.45629366
_cell_length_c   17.34881223
_cell_angle_alpha   89.84603507
_cell_angle_beta   90.81215082
_cell_angle_gamma   113.81631246
_symmetry_Int_Tables_number   1
_chemical_formula_structural   Ca18La2TaTi19O60
_chemical_formula_sum   'Ca18 La2 Ta1 Ti19 O60'
_cell_volume   1163.97667907
_cell_formula_units_Z   1
loop_
 _symmetry_equiv_pos_site_id
 _symmetry_equiv_pos_as_xyz
  1  'x, y, z'
loop_
 _atom_site_type_symbol
 _atom_site_label
 _atom_site_symmetry_multiplicity
 _atom_site_fract_x
 _atom_site_fract_y
 _atom_site_fract_z
 _atom_site_occupancy
  Ca  Ca0  1  0.680126  0.397159  0.859161  1
  Ca  Ca1  1  0.421105  0.799616  0.943628  1
  Ca  Ca2  1  0.179144  0.400913  0.854700  1
  Ca  Ca3  1  0.279480  0.590485  0.660390  1
  Ca  Ca4  1  0.921363  0.803085  0.940249  1
  Ca  Ca5  1  0.030599  0.002388  0.740302  1
  Ca  Ca6  1  0.772501  0.594775  0.655578  1
  Ca  Ca7  1  0.878218  0.790892  0.459542  1
  Ca  Ca8  1  0.517013  0.010495  0.735540  1
  Ca  Ca9  1  0.626787  0.205409  0.543667  1
  Ca  Ca10  1  0.372287  0.794037  0.455681  1
  Ca  Ca11  1  0.477673  0.988029  0.260701  1
  Ca  Ca12  1  0.229854  0.407755  0.345041  1
  Ca  Ca13  1  0.969418  0.993260  0.256482  1
  Ca  Ca14  1  0.082040  0.189711  0.064056  1
  Ca  Ca15  1  0.722544  0.411154  0.340436  1
  Ca  Ca16  1  0.829444  0.606576  0.145309  1
  Ca  Ca17  1  0.319055  0.608167  0.141058  1
  La  La18  1  0.116690  0.206567  0.542188  1
  La  La19  1  0.576569  0.196246  0.058534  1
  Ta  Ta20  1  0.801885  0.098454  0.898791  1
  Ti  Ti21  1  0.298393  0.098938  0.898325  1
  Ti  Ti22  1  0.402354  0.301078  0.700976  1
  Ti  Ti23  1  0.599132  0.697481  0.799076  1
  Ti  Ti24  1  0.900269  0.302988  0.698698  1
  Ti  Ti25  1  0.099971  0.700290  0.799439  1
  Ti  Ti26  1  0.997980  0.502983  0.497784  1
  Ti  Ti27  1  0.200217  0.894143  0.599231  1
  Ti  Ti28  1  0.696565  0.896673  0.600355  1
  Ti  Ti29  1  0.503405  0.502400  0.499822  1
  Ti  Ti30  1  0.599921  0.699113  0.301543  1
  Ti  Ti31  1  0.795906  0.098939  0.398191  1
  Ti  Ti32  1  0.100560  0.701802  0.300039  1
  Ti  Ti33  1  0.301131  0.099146  0.398468  1
  Ti  Ti34  1  0.196887  0.898215  0.101617  1
  Ti  Ti35  1  0.399108  0.303040  0.203009  1
  Ti  Ti36  1  0.697003  0.893375  0.103421  1
  Ti  Ti37  1  0.904665  0.303101  0.202492  1
  Ti  Ti38  1  0.004329  0.505435  0.000610  1
  Ti  Ti39  1  0.498125  0.501539  0.999422  1
  O  O40  1  0.559629  0.119347  0.922775  1
  O  O41  1  0.380509  0.319064  0.930483  1
  O  O42  1  0.602134  0.634594  0.908011  1
  O  O43  1  0.770055  0.964488  0.990569  1
  O  O44  1  0.272974  0.547499  0.993560  1
  O  O45  1  0.941860  0.284606  0.964073  1
  O  O46  1  0.651188  0.913782  0.836099  1
  O  O47  1  0.326421  0.652228  0.806309  1
  O  O48  1  0.159908  0.319007  0.722073  1
  O  O49  1  0.998020  0.566880  0.892138  1
  O  O50  1  0.830560  0.237508  0.809011  1
  O  O51  1  0.219687  0.880815  0.870050  1
  O  O52  1  0.978815  0.519868  0.730788  1
  O  O53  1  0.371698  0.166994  0.792469  1
  O  O54  1  0.202882  0.830854  0.708072  1
  O  O55  1  0.873045  0.748839  0.794068  1
  O  O56  1  0.038941  0.078966  0.873400  1
  O  O57  1  0.543332  0.489294  0.761834  1
  O  O58  1  0.261608  0.110208  0.639760  1
  O  O59  1  0.928329  0.854728  0.606151  1
  O  O60  1  0.760583  0.521402  0.523101  1
  O  O61  1  0.427548  0.431183  0.608007  1
  O  O62  1  0.596880  0.766903  0.691142  1
  O  O63  1  0.825501  0.083331  0.667711  1
  O  O64  1  0.578918  0.719159  0.530631  1
  O  O65  1  0.798569  0.030117  0.507209  1
  O  O66  1  0.967885  0.369791  0.592409  1
  O  O67  1  0.474198  0.948262  0.593721  1
  O  O68  1  0.640785  0.281308  0.677324  1
  O  O69  1  0.145176  0.688308  0.561369  1
  O  O70  1  0.856648  0.311168  0.439183  1
  O  O71  1  0.524439  0.050314  0.405620  1
  O  O72  1  0.359697  0.718867  0.323367  1
  O  O73  1  0.029323  0.634022  0.408056  1
  O  O74  1  0.195555  0.968448  0.491987  1
  O  O75  1  0.420943  0.280565  0.469652  1
  O  O76  1  0.179167  0.920150  0.329817  1
  O  O77  1  0.405224  0.234540  0.308940  1
  O  O78  1  0.570570  0.567004  0.392041  1
  O  O79  1  0.073629  0.149115  0.394496  1
  O  O80  1  0.238547  0.479019  0.477444  1
  O  O81  1  0.743674  0.888614  0.361101  1
  O  O82  1  0.456011  0.511637  0.238541  1
  O  O83  1  0.127135  0.251920  0.207393  1
  O  O84  1  0.959278  0.916154  0.123424  1
  O  O85  1  0.795026  0.167473  0.291637  1
  O  O86  1  0.627991  0.832546  0.207865  1
  O  O87  1  0.020832  0.480119  0.269843  1
  O  O88  1  0.783602  0.117108  0.131711  1
  O  O89  1  0.000019  0.431313  0.108196  1
  O  O90  1  0.171262  0.765733  0.191452  1
  O  O91  1  0.840156  0.680989  0.276799  1
  O  O92  1  0.673306  0.346751  0.192271  1
  O  O93  1  0.342393  0.087580  0.162526  1
  O  O94  1  0.058645  0.711435  0.038305  1
  O  O95  1  0.727847  0.455540  0.004861  1
  O  O96  1  0.398024  0.366410  0.091601  1
  O  O97  1  0.231021  0.035505  0.008068  1
  O  O98  1  0.619145  0.679441  0.070165  1
  O  O99  1  0.443537  0.885334  0.075773  1
