# generated using pymatgen
data_Er5Tm3(Ge4Mo3)4
_symmetry_space_group_name_H-M   'P 1'
_cell_length_a   6.83191179
_cell_length_b   7.03441566
_cell_length_c   13.16111300
_cell_angle_alpha   89.91749045
_cell_angle_beta   89.95848686
_cell_angle_gamma   89.92918403
_symmetry_Int_Tables_number   1
_chemical_formula_structural   Er5Tm3(Ge4Mo3)4
_chemical_formula_sum   'Er5 Tm3 Ge16 Mo12'
_cell_volume   632.50214092
_cell_formula_units_Z   1
loop_
 _symmetry_equiv_pos_site_id
 _symmetry_equiv_pos_as_xyz
  1  'x, y, z'
loop_
 _atom_site_type_symbol
 _atom_site_label
 _atom_site_symmetry_multiplicity
 _atom_site_fract_x
 _atom_site_fract_y
 _atom_site_fract_z
 _atom_site_occupancy
  Er  Er0  1  0.490170  0.329797  0.091851  1
  Er  Er1  1  0.990229  0.170536  0.408195  1
  Er  Er2  1  0.509581  0.670549  0.591839  1
  Er  Er3  1  0.009661  0.829796  0.908224  1
  Er  Er4  1  0.509638  0.670860  0.908324  1
  Tm  Tm5  1  0.010026  0.827992  0.592237  1
  Tm  Tm6  1  0.489868  0.328716  0.407759  1
  Tm  Tm7  1  0.990028  0.171134  0.092140  1
  Ge  Ge8  1  0.671825  0.045034  0.547224  1
  Ge  Ge9  1  0.170390  0.454733  0.952376  1
  Ge  Ge10  1  0.329113  0.955492  0.047795  1
  Ge  Ge11  1  0.828115  0.544969  0.452648  1
  Ge  Ge12  1  0.328881  0.954521  0.452840  1
  Ge  Ge13  1  0.829550  0.545157  0.047674  1
  Ge  Ge14  1  0.670569  0.045575  0.952533  1
  Ge  Ge15  1  0.171351  0.454394  0.547140  1
  Ge  Ge16  1  0.529723  0.370177  0.749991  1
  Ge  Ge17  1  0.029761  0.128804  0.749620  1
  Ge  Ge18  1  0.470201  0.630213  0.249976  1
  Ge  Ge19  1  0.970700  0.870925  0.249987  1
  Ge  Ge20  1  0.809221  0.645418  0.750138  1
  Ge  Ge21  1  0.309418  0.853846  0.749959  1
  Ge  Ge22  1  0.190460  0.354584  0.249989  1
  Ge  Ge23  1  0.690678  0.146490  0.249938  1
  Mo  Mo24  1  0.830697  0.342808  0.626758  1
  Mo  Mo25  1  0.330009  0.156750  0.873269  1
  Mo  Mo26  1  0.169289  0.657313  0.126563  1
  Mo  Mo27  1  0.669590  0.843486  0.373145  1
  Mo  Mo28  1  0.169149  0.656824  0.373411  1
  Mo  Mo29  1  0.670353  0.844017  0.126584  1
  Mo  Mo30  1  0.830942  0.342594  0.873446  1
  Mo  Mo31  1  0.330917  0.156198  0.626540  1
  Mo  Mo32  1  0.665322  0.003477  0.749717  1
  Mo  Mo33  1  0.165234  0.495989  0.749552  1
  Mo  Mo34  1  0.334877  0.996891  0.250305  1
  Mo  Mo35  1  0.834465  0.503945  0.250311  1
