# generated using pymatgen
data_Er3Al12CoNiOs2
_symmetry_space_group_name_H-M   'P 1'
_cell_length_a   8.75756049
_cell_length_b   8.75755965
_cell_length_c   9.39551927
_cell_angle_alpha   90.47849030
_cell_angle_beta   89.52150969
_cell_angle_gamma   120.41680051
_symmetry_Int_Tables_number   1
_chemical_formula_structural   Er3Al12CoNiOs2
_chemical_formula_sum   'Er6 Al24 Co2 Ni2 Os4'
_cell_volume   621.38129687
_cell_formula_units_Z   2
loop_
 _symmetry_equiv_pos_site_id
 _symmetry_equiv_pos_as_xyz
  1  'x, y, z'
loop_
 _atom_site_type_symbol
 _atom_site_label
 _atom_site_symmetry_multiplicity
 _atom_site_fract_x
 _atom_site_fract_y
 _atom_site_fract_z
 _atom_site_occupancy
  Er  Er0  1  0.200795  0.391801  0.249805  1
  Er  Er1  1  0.799205  0.608199  0.750195  1
  Er  Er2  1  0.608199  0.799205  0.249805  1
  Er  Er3  1  0.391801  0.200795  0.750195  1
  Er  Er4  1  0.194721  0.805279  0.253057  1
  Er  Er5  1  0.805279  0.194721  0.746943  1
  Al  Al6  1  0.331206  0.668794  0.021472  1
  Al  Al7  1  0.668794  0.331206  0.978528  1
  Al  Al8  1  0.666457  0.333543  0.517673  1
  Al  Al9  1  0.333543  0.666457  0.482327  1
  Al  Al10  1  0.159164  0.321014  0.576784  1
  Al  Al11  1  0.840836  0.678986  0.423216  1
  Al  Al12  1  0.678986  0.840836  0.576784  1
  Al  Al13  1  0.839174  0.677405  0.077332  1
  Al  Al14  1  0.321014  0.159164  0.423216  1
  Al  Al15  1  0.160826  0.322595  0.922668  1
  Al  Al16  1  0.159936  0.840064  0.579417  1
  Al  Al17  1  0.322595  0.160826  0.077332  1
  Al  Al18  1  0.840064  0.159936  0.420583  1
  Al  Al19  1  0.677405  0.839174  0.922668  1
  Al  Al20  1  0.840095  0.159905  0.077016  1
  Al  Al21  1  0.159905  0.840095  0.922984  1
  Al  Al22  1  0.561512  0.119527  0.244806  1
  Al  Al23  1  0.438488  0.880473  0.755194  1
  Al  Al24  1  0.880473  0.438488  0.244806  1
  Al  Al25  1  0.119527  0.561512  0.755194  1
  Al  Al26  1  0.563870  0.436130  0.248030  1
  Al  Al27  1  0.436130  0.563870  0.751970  1
  Al  Al28  1  0.001427  0.998573  0.250650  1
  Al  Al29  1  0.998573  0.001427  0.749350  1
  Co  Co30  1  0.000000  0.000000  0.000000  1
  Co  Co31  1  0.000000  0.000000  0.500000  1
  Ni  Ni32  1  0.500000  0.000000  0.000000  1
  Ni  Ni33  1  0.000000  0.500000  0.000000  1
  Os  Os34  1  0.500000  0.000000  0.500000  1
  Os  Os35  1  0.500000  0.500000  0.000000  1
  Os  Os36  1  0.000000  0.500000  0.500000  1
  Os  Os37  1  0.500000  0.500000  0.500000  1
