# generated using pymatgen
data_Ho3ErPd3RuO14
_symmetry_space_group_name_H-M   'P 1'
_cell_length_a   7.19514891
_cell_length_b   7.24777752
_cell_length_c   7.19514900
_cell_angle_alpha   60.23991821
_cell_angle_beta   60.00000417
_cell_angle_gamma   60.23992209
_symmetry_Int_Tables_number   1
_chemical_formula_structural   Ho3ErPd3RuO14
_chemical_formula_sum   'Ho3 Er1 Pd3 Ru1 O14'
_cell_volume   266.27775567
_cell_formula_units_Z   1
loop_
 _symmetry_equiv_pos_site_id
 _symmetry_equiv_pos_as_xyz
  1  'x, y, z'
loop_
 _atom_site_type_symbol
 _atom_site_label
 _atom_site_symmetry_multiplicity
 _atom_site_fract_x
 _atom_site_fract_y
 _atom_site_fract_z
 _atom_site_occupancy
  Ho  Ho0  1  0.125000  0.125000  0.625000  1
  Ho  Ho1  1  0.625000  0.125000  0.125000  1
  Ho  Ho2  1  0.125000  0.125000  0.125000  1
  Er  Er3  1  0.125000  0.625000  0.125000  1
  Pd  Pd4  1  0.625000  0.625000  0.125000  1
  Pd  Pd5  1  0.125000  0.625000  0.625000  1
  Pd  Pd6  1  0.625000  0.625000  0.625000  1
  Ru  Ru7  1  0.625000  0.125000  0.625000  1
  O  O8  1  0.249749  0.250754  0.249749  1
  O  O9  1  0.000251  0.999246  0.000251  1
  O  O10  1  0.537746  0.965165  0.537746  1
  O  O11  1  0.281995  0.719799  0.281995  1
  O  O12  1  0.533788  0.530201  0.968005  1
  O  O13  1  0.968005  0.530201  0.533788  1
  O  O14  1  0.537746  0.965165  0.959343  1
  O  O15  1  0.959343  0.965165  0.537746  1
  O  O16  1  0.968005  0.530201  0.968005  1
  O  O17  1  0.712254  0.284835  0.290657  1
  O  O18  1  0.281995  0.719799  0.716212  1
  O  O19  1  0.712254  0.284835  0.712254  1
  O  O20  1  0.290657  0.284835  0.712254  1
  O  O21  1  0.716212  0.719799  0.281995  1
