# generated using pymatgen
data_P2I2Br11Cl
_symmetry_space_group_name_H-M   'P 1'
_cell_length_a   11.16117643
_cell_length_b   11.14873353
_cell_length_c   6.02424655
_cell_angle_alpha   91.05063433
_cell_angle_beta   90.56258529
_cell_angle_gamma   90.69549238
_symmetry_Int_Tables_number   1
_chemical_formula_structural   P2I2Br11Cl
_chemical_formula_sum   'P2 I2 Br11 Cl1'
_cell_volume   749.39591994
_cell_formula_units_Z   1
loop_
 _symmetry_equiv_pos_site_id
 _symmetry_equiv_pos_as_xyz
  1  'x, y, z'
loop_
 _atom_site_type_symbol
 _atom_site_label
 _atom_site_symmetry_multiplicity
 _atom_site_fract_x
 _atom_site_fract_y
 _atom_site_fract_z
 _atom_site_occupancy
  P  P0  1  0.000353  0.000842  0.491948  1
  P  P1  1  0.501573  0.501417  0.505479  1
  I  I2  1  0.996535  0.499037  0.061649  1
  I  I3  1  0.498357  0.996895  0.947065  1
  Br  Br4  1  0.324575  0.823390  0.945467  1
  Br  Br5  1  0.073657  0.141020  0.720005  1
  Br  Br6  1  0.171714  0.326536  0.056169  1
  Br  Br7  1  0.673078  0.169947  0.942984  1
  Br  Br8  1  0.358095  0.427187  0.712846  1
  Br  Br9  1  0.826847  0.670232  0.072101  1
  Br  Br10  1  0.573621  0.359735  0.286809  1
  Br  Br11  1  0.141156  0.925175  0.279785  1
  Br  Br12  1  0.427160  0.641483  0.293156  1
  Br  Br13  1  0.643800  0.575507  0.728586  1
  Br  Br14  1  0.857829  0.071888  0.277778  1
  Cl  Cl15  1  0.931652  0.869709  0.678175  1
