# generated using pymatgen
data_Er2Al9Ru2Au
_symmetry_space_group_name_H-M   'P 1'
_cell_length_a   7.60742343
_cell_length_b   7.60742233
_cell_length_c   9.50128200
_cell_angle_alpha   90.00000000
_cell_angle_beta   90.00000000
_cell_angle_gamma   119.34191595
_symmetry_Int_Tables_number   1
_chemical_formula_structural   Er2Al9Ru2Au
_chemical_formula_sum   'Er4 Al18 Ru4 Au2'
_cell_volume   479.32475830
_cell_formula_units_Z   2
loop_
 _symmetry_equiv_pos_site_id
 _symmetry_equiv_pos_as_xyz
  1  'x, y, z'
loop_
 _atom_site_type_symbol
 _atom_site_label
 _atom_site_symmetry_multiplicity
 _atom_site_fract_x
 _atom_site_fract_y
 _atom_site_fract_z
 _atom_site_occupancy
  Er  Er0  1  0.996528  0.676531  0.250000  1
  Er  Er1  1  0.003472  0.323469  0.750000  1
  Er  Er2  1  0.676531  0.996528  0.250000  1
  Er  Er3  1  0.323469  0.003472  0.750000  1
  Al  Al4  1  0.143674  0.143674  0.250000  1
  Al  Al5  1  0.856326  0.856326  0.750000  1
  Al  Al6  1  0.002067  0.347202  0.076634  1
  Al  Al7  1  0.997933  0.652798  0.923366  1
  Al  Al8  1  0.997933  0.652798  0.576634  1
  Al  Al9  1  0.347202  0.002067  0.423366  1
  Al  Al10  1  0.002067  0.347202  0.423366  1
  Al  Al11  1  0.652798  0.997933  0.576634  1
  Al  Al12  1  0.652798  0.997933  0.923366  1
  Al  Al13  1  0.347202  0.002067  0.076634  1
  Al  Al14  1  0.343766  0.343766  0.554505  1
  Al  Al15  1  0.656234  0.656234  0.445495  1
  Al  Al16  1  0.656234  0.656234  0.054505  1
  Al  Al17  1  0.343766  0.343766  0.945495  1
  Al  Al18  1  0.336834  0.555771  0.250000  1
  Al  Al19  1  0.663166  0.444229  0.750000  1
  Al  Al20  1  0.555771  0.336834  0.250000  1
  Al  Al21  1  0.444229  0.663166  0.750000  1
  Ru  Ru22  1  0.672304  0.327696  0.000000  1
  Ru  Ru23  1  0.327696  0.672304  0.000000  1
  Ru  Ru24  1  0.327696  0.672304  0.500000  1
  Ru  Ru25  1  0.672304  0.327696  0.500000  1
  Au  Au26  1  0.000000  0.000000  0.000000  1
  Au  Au27  1  0.000000  0.000000  0.500000  1
