# generated using pymatgen
data_Li8Hf3ThBr24
_symmetry_space_group_name_H-M   'P 1'
_cell_length_a   6.85832900
_cell_length_b   6.85832913
_cell_length_c   27.05343100
_cell_angle_alpha   90.00000000
_cell_angle_beta   90.00000000
_cell_angle_gamma   120.00000421
_symmetry_Int_Tables_number   1
_chemical_formula_structural   Li8Hf3ThBr24
_chemical_formula_sum   'Li8 Hf3 Th1 Br24'
_cell_volume   1102.02031974
_cell_formula_units_Z   1
loop_
 _symmetry_equiv_pos_site_id
 _symmetry_equiv_pos_as_xyz
  1  'x, y, z'
loop_
 _atom_site_type_symbol
 _atom_site_label
 _atom_site_symmetry_multiplicity
 _atom_site_fract_x
 _atom_site_fract_y
 _atom_site_fract_z
 _atom_site_occupancy
  Li  Li0  1  0.000000  0.000000  0.250129  1
  Li  Li1  1  0.000000  0.000000  0.749871  1
  Li  Li2  1  0.333333  0.666667  0.000828  1
  Li  Li3  1  0.333333  0.666667  0.499162  1
  Li  Li4  1  0.333333  0.666667  0.250077  1
  Li  Li5  1  0.666667  0.333333  0.749923  1
  Li  Li6  1  0.666667  0.333333  0.999172  1
  Li  Li7  1  0.666667  0.333333  0.500838  1
  Hf  Hf8  1  0.000000  0.000000  0.500000  1
  Hf  Hf9  1  0.333333  0.666667  0.749836  1
  Hf  Hf10  1  0.666667  0.333333  0.250164  1
  Th  Th11  1  0.000000  0.000000  0.000000  1
  Br  Br12  1  0.352284  0.018664  0.305840  1
  Br  Br13  1  0.333176  0.981185  0.805509  1
  Br  Br14  1  0.999575  0.342087  0.059483  1
  Br  Br15  1  0.000412  0.314714  0.555740  1
  Br  Br16  1  0.981336  0.333621  0.305840  1
  Br  Br17  1  0.018815  0.351990  0.805509  1
  Br  Br18  1  0.351990  0.333176  0.194491  1
  Br  Br19  1  0.333621  0.352284  0.694160  1
  Br  Br20  1  0.314714  0.314302  0.444260  1
  Br  Br21  1  0.342087  0.342512  0.940517  1
  Br  Br22  1  0.685698  0.000412  0.444260  1
  Br  Br23  1  0.342512  0.000425  0.059483  1
  Br  Br24  1  0.314302  0.999588  0.555740  1
  Br  Br25  1  0.657913  0.657488  0.059483  1
  Br  Br26  1  0.685286  0.685698  0.555740  1
  Br  Br27  1  0.666379  0.647716  0.305840  1
  Br  Br28  1  0.648010  0.666824  0.805509  1
  Br  Br29  1  0.981185  0.648010  0.194491  1
  Br  Br30  1  0.018664  0.666379  0.694160  1
  Br  Br31  1  0.999588  0.685286  0.444260  1
  Br  Br32  1  0.000425  0.657913  0.940517  1
  Br  Br33  1  0.657488  0.999575  0.940517  1
  Br  Br34  1  0.666824  0.018815  0.194491  1
  Br  Br35  1  0.647716  0.981336  0.694160  1
