# generated using pymatgen
data_Y4NbCrOs6
_symmetry_space_group_name_H-M   'P 1'
_cell_length_a   5.25466118
_cell_length_b   5.25466085
_cell_length_c   8.96864700
_cell_angle_alpha   90.00000000
_cell_angle_beta   90.00000000
_cell_angle_gamma   116.61465706
_symmetry_Int_Tables_number   1
_chemical_formula_structural   Y4NbCrOs6
_chemical_formula_sum   'Y4 Nb1 Cr1 Os6'
_cell_volume   221.39771117
_cell_formula_units_Z   1
loop_
 _symmetry_equiv_pos_site_id
 _symmetry_equiv_pos_as_xyz
  1  'x, y, z'
loop_
 _atom_site_type_symbol
 _atom_site_label
 _atom_site_symmetry_multiplicity
 _atom_site_fract_x
 _atom_site_fract_y
 _atom_site_fract_z
 _atom_site_occupancy
  Y  Y0  1  0.329721  0.670279  0.440395  1
  Y  Y1  1  0.667923  0.332077  0.568604  1
  Y  Y2  1  0.667923  0.332077  0.931396  1
  Y  Y3  1  0.329721  0.670279  0.059605  1
  Nb  Nb4  1  0.843823  0.156177  0.250000  1
  Cr  Cr5  1  0.155964  0.844036  0.750000  1
  Os  Os6  1  0.004832  0.995168  0.509312  1
  Os  Os7  1  0.004832  0.995168  0.990688  1
  Os  Os8  1  0.824982  0.648434  0.250000  1
  Os  Os9  1  0.351566  0.175018  0.250000  1
  Os  Os10  1  0.175419  0.356704  0.750000  1
  Os  Os11  1  0.643296  0.824581  0.750000  1
