# generated using pymatgen
data_Th14Re4RuPt
_symmetry_space_group_name_H-M   'P 1'
_cell_length_a   10.06793458
_cell_length_b   10.02906334
_cell_length_c   6.31986612
_cell_angle_alpha   90.08418108
_cell_angle_beta   89.73222000
_cell_angle_gamma   119.71225664
_symmetry_Int_Tables_number   1
_chemical_formula_structural   Th14Re4RuPt
_chemical_formula_sum   'Th14 Re4 Ru1 Pt1'
_cell_volume   554.22519508
_cell_formula_units_Z   1
loop_
 _symmetry_equiv_pos_site_id
 _symmetry_equiv_pos_as_xyz
  1  'x, y, z'
loop_
 _atom_site_type_symbol
 _atom_site_label
 _atom_site_symmetry_multiplicity
 _atom_site_fract_x
 _atom_site_fract_y
 _atom_site_fract_z
 _atom_site_occupancy
  Th  Th0  1  0.466688  0.539657  0.293054  1
  Th  Th1  1  0.072673  0.542878  0.290887  1
  Th  Th2  1  0.919020  0.460571  0.796802  1
  Th  Th3  1  0.258512  0.122159  0.506679  1
  Th  Th4  1  0.542797  0.079471  0.796225  1
  Th  Th5  1  0.751351  0.876126  0.007519  1
  Th  Th6  1  0.666112  0.333529  0.282734  1
  Th  Th7  1  0.126334  0.875454  0.001410  1
  Th  Th8  1  0.457085  0.918249  0.294200  1
  Th  Th9  1  0.543527  0.465022  0.796480  1
  Th  Th10  1  0.865894  0.121399  0.506582  1
  Th  Th11  1  0.124480  0.247664  0.011094  1
  Th  Th12  1  0.875443  0.751085  0.507594  1
  Th  Th13  1  0.335454  0.670730  0.792592  1
  Re  Re14  1  0.816783  0.629801  0.052192  1
  Re  Re15  1  0.819574  0.188924  0.050009  1
  Re  Re16  1  0.621028  0.807594  0.553973  1
  Re  Re17  1  0.370088  0.188690  0.047665  1
  Ru  Ru18  1  0.182104  0.806238  0.544927  1
  Pt  Pt19  1  0.185054  0.374760  0.551382  1
