# generated using pymatgen
data_Li4TbYb3Pd4
_symmetry_space_group_name_H-M   'P 1'
_cell_length_a   4.17959300
_cell_length_b   6.99122363
_cell_length_c   8.38050117
_cell_angle_alpha   90.00727692
_cell_angle_beta   90.00000000
_cell_angle_gamma   90.00000000
_symmetry_Int_Tables_number   1
_chemical_formula_structural   Li4TbYb3Pd4
_chemical_formula_sum   'Li4 Tb1 Yb3 Pd4'
_cell_volume   244.88217570
_cell_formula_units_Z   1
loop_
 _symmetry_equiv_pos_site_id
 _symmetry_equiv_pos_as_xyz
  1  'x, y, z'
loop_
 _atom_site_type_symbol
 _atom_site_label
 _atom_site_symmetry_multiplicity
 _atom_site_fract_x
 _atom_site_fract_y
 _atom_site_fract_z
 _atom_site_occupancy
  Li  Li0  1  0.250000  0.127958  0.943445  1
  Li  Li1  1  0.250000  0.634656  0.557723  1
  Li  Li2  1  0.750000  0.864490  0.053410  1
  Li  Li3  1  0.750000  0.372088  0.445405  1
  Tb  Tb4  1  0.250000  0.040682  0.322153  1
  Yb  Yb5  1  0.250000  0.538389  0.179293  1
  Yb  Yb6  1  0.750000  0.962255  0.679969  1
  Yb  Yb7  1  0.750000  0.460706  0.822463  1
  Pd  Pd8  1  0.250000  0.255665  0.620723  1
  Pd  Pd9  1  0.250000  0.751383  0.872911  1
  Pd  Pd10  1  0.750000  0.753502  0.368924  1
  Pd  Pd11  1  0.750000  0.238224  0.133579  1
