# generated using pymatgen
data_Nd5AsSe4
_symmetry_space_group_name_H-M   'P 1'
_cell_length_a   7.32783304
_cell_length_b   7.32783700
_cell_length_c   7.32788400
_cell_angle_alpha   99.59643000
_cell_angle_beta   99.59706170
_cell_angle_gamma   131.80287564
_symmetry_Int_Tables_number   1
_chemical_formula_structural   Nd5AsSe4
_chemical_formula_sum   'Nd5 As1 Se4'
_cell_volume   267.75778105
_cell_formula_units_Z   1
loop_
 _symmetry_equiv_pos_site_id
 _symmetry_equiv_pos_as_xyz
  1  'x, y, z'
loop_
 _atom_site_type_symbol
 _atom_site_label
 _atom_site_symmetry_multiplicity
 _atom_site_fract_x
 _atom_site_fract_y
 _atom_site_fract_z
 _atom_site_occupancy
  Nd  Nd0  1  0.400592  0.792794  0.193390  1
  Nd  Nd1  1  0.000000  0.000000  0.000000  1
  Nd  Nd2  1  0.599408  0.207206  0.806610  1
  Nd  Nd3  1  0.207305  0.400523  0.607829  1
  Nd  Nd4  1  0.792695  0.599477  0.392171  1
  As  As5  1  0.500000  0.500000  0.000000  1
  Se  Se6  1  0.097162  0.698281  0.795445  1
  Se  Se7  1  0.698201  0.902747  0.600950  1
  Se  Se8  1  0.301799  0.097253  0.399050  1
  Se  Se9  1  0.902838  0.301719  0.204555  1
