# generated using pymatgen
data_La6Tb(YRh3)2
_symmetry_space_group_name_H-M   'P 1'
_cell_length_a   7.65282875
_cell_length_b   7.65282742
_cell_length_c   7.65282936
_cell_angle_alpha   70.86765452
_cell_angle_beta   70.86764441
_cell_angle_gamma   70.86764799
_symmetry_Int_Tables_number   1
_chemical_formula_structural   La6Tb(YRh3)2
_chemical_formula_sum   'La6 Tb1 Y2 Rh6'
_cell_volume   387.66876671
_cell_formula_units_Z   1
loop_
 _symmetry_equiv_pos_site_id
 _symmetry_equiv_pos_as_xyz
  1  'x, y, z'
loop_
 _atom_site_type_symbol
 _atom_site_label
 _atom_site_symmetry_multiplicity
 _atom_site_fract_x
 _atom_site_fract_y
 _atom_site_fract_z
 _atom_site_occupancy
  La  La0  1  0.159612  0.388908  0.671276  1
  La  La1  1  0.671276  0.159612  0.388908  1
  La  La2  1  0.388908  0.671276  0.159612  1
  La  La3  1  0.840388  0.611092  0.328724  1
  La  La4  1  0.328724  0.840388  0.611092  1
  La  La5  1  0.611092  0.328724  0.840388  1
  Tb  Tb6  1  0.000000  0.000000  0.000000  1
  Y  Y7  1  0.801912  0.801912  0.801912  1
  Y  Y8  1  0.198088  0.198088  0.198088  1
  Rh  Rh9  1  0.957174  0.161579  0.593058  1
  Rh  Rh10  1  0.593058  0.957174  0.161579  1
  Rh  Rh11  1  0.161579  0.593058  0.957174  1
  Rh  Rh12  1  0.042826  0.838421  0.406942  1
  Rh  Rh13  1  0.406942  0.042826  0.838421  1
  Rh  Rh14  1  0.838421  0.406942  0.042826  1
