# generated using pymatgen
data_Tb3Gd4Dy(B6Os)4
_symmetry_space_group_name_H-M   'P 1'
_cell_length_a   3.67561300
_cell_length_b   9.19973403
_cell_length_c   11.58120720
_cell_angle_alpha   89.98461174
_cell_angle_beta   90.00000000
_cell_angle_gamma   90.00000000
_symmetry_Int_Tables_number   1
_chemical_formula_structural   Tb3Gd4Dy(B6Os)4
_chemical_formula_sum   'Tb3 Gd4 Dy1 B24 Os4'
_cell_volume   391.61459284
_cell_formula_units_Z   1
loop_
 _symmetry_equiv_pos_site_id
 _symmetry_equiv_pos_as_xyz
  1  'x, y, z'
loop_
 _atom_site_type_symbol
 _atom_site_label
 _atom_site_symmetry_multiplicity
 _atom_site_fract_x
 _atom_site_fract_y
 _atom_site_fract_z
 _atom_site_occupancy
  Tb  Tb0  1  0.000000  0.056142  0.627025  1
  Tb  Tb1  1  0.000000  0.443867  0.127290  1
  Tb  Tb2  1  0.000000  0.556156  0.872797  1
  Gd  Gd3  1  0.000000  0.322725  0.413890  1
  Gd  Gd4  1  0.000000  0.677276  0.586013  1
  Gd  Gd5  1  0.000000  0.823119  0.086309  1
  Gd  Gd6  1  0.000000  0.176791  0.914043  1
  Dy  Dy7  1  0.000000  0.943782  0.372737  1
  B  B8  1  0.500000  0.554373  0.432453  1
  B  B9  1  0.500000  0.445862  0.567433  1
  B  B10  1  0.500000  0.054162  0.067622  1
  B  B11  1  0.500000  0.945730  0.932507  1
  B  B12  1  0.500000  0.747717  0.419288  1
  B  B13  1  0.500000  0.252645  0.580624  1
  B  B14  1  0.500000  0.247225  0.080632  1
  B  B15  1  0.500000  0.752729  0.919453  1
  B  B16  1  0.500000  0.790673  0.266797  1
  B  B17  1  0.500000  0.209656  0.733284  1
  B  B18  1  0.500000  0.290098  0.233261  1
  B  B19  1  0.500000  0.709754  0.766772  1
  B  B20  1  0.500000  0.632210  0.185813  1
  B  B21  1  0.500000  0.367883  0.814240  1
  B  B22  1  0.500000  0.131651  0.314316  1
  B  B23  1  0.500000  0.868038  0.685727  1
  B  B24  1  0.500000  0.984064  0.213168  1
  B  B25  1  0.500000  0.015745  0.787100  1
  B  B26  1  0.500000  0.484404  0.287094  1
  B  B27  1  0.500000  0.515692  0.712892  1
  B  B28  1  0.500000  0.609069  0.030215  1
  B  B29  1  0.500000  0.390984  0.969848  1
  B  B30  1  0.500000  0.108203  0.469648  1
  B  B31  1  0.500000  0.891464  0.529670  1
  Os  Os32  1  0.000000  0.638027  0.321265  1
  Os  Os33  1  0.000000  0.362342  0.678656  1
  Os  Os34  1  0.000000  0.137385  0.178939  1
  Os  Os35  1  0.000000  0.862360  0.821179  1
