# generated using pymatgen
data_LuCo2GeC
_symmetry_space_group_name_H-M   'P 1'
_cell_length_a   5.63171204
_cell_length_b   5.63171106
_cell_length_c   6.78508700
_cell_angle_alpha   90.00000000
_cell_angle_beta   90.00000000
_cell_angle_gamma   141.82871151
_symmetry_Int_Tables_number   1
_chemical_formula_structural   LuCo2GeC
_chemical_formula_sum   'Lu2 Co4 Ge2 C2'
_cell_volume   132.99487410
_cell_formula_units_Z   2
loop_
 _symmetry_equiv_pos_site_id
 _symmetry_equiv_pos_as_xyz
  1  'x, y, z'
loop_
 _atom_site_type_symbol
 _atom_site_label
 _atom_site_symmetry_multiplicity
 _atom_site_fract_x
 _atom_site_fract_y
 _atom_site_fract_z
 _atom_site_occupancy
  Lu  Lu0  1  0.547645  0.452355  0.250000  1
  Lu  Lu1  1  0.452355  0.547645  0.750000  1
  Co  Co2  1  0.839500  0.160500  0.054804  1
  Co  Co3  1  0.160500  0.839500  0.945196  1
  Co  Co4  1  0.160500  0.839500  0.554804  1
  Co  Co5  1  0.839500  0.160500  0.445196  1
  Ge  Ge6  1  0.269830  0.730170  0.250000  1
  Ge  Ge7  1  0.730170  0.269830  0.750000  1
  C  C8  1  0.000000  0.000000  0.000000  1
  C  C9  1  0.000000  0.000000  0.500000  1
