# generated using pymatgen
data_Rb3Nb2AgSe12
_symmetry_space_group_name_H-M   'P 1'
_cell_length_a   10.03606895
_cell_length_b   14.32931301
_cell_length_c   16.02473900
_cell_angle_alpha   90.00001999
_cell_angle_beta   95.41342148
_cell_angle_gamma   90.00209991
_symmetry_Int_Tables_number   1
_chemical_formula_structural   Rb3Nb2AgSe12
_chemical_formula_sum   'Rb12 Nb8 Ag4 Se48'
_cell_volume   2294.23889165
_cell_formula_units_Z   4
loop_
 _symmetry_equiv_pos_site_id
 _symmetry_equiv_pos_as_xyz
  1  'x, y, z'
loop_
 _atom_site_type_symbol
 _atom_site_label
 _atom_site_symmetry_multiplicity
 _atom_site_fract_x
 _atom_site_fract_y
 _atom_site_fract_z
 _atom_site_occupancy
  Rb  Rb0  1  0.925895  0.585149  0.276877  1
  Rb  Rb1  1  0.425894  0.914851  0.776876  1
  Rb  Rb2  1  0.074107  0.414852  0.723126  1
  Rb  Rb3  1  0.574106  0.085151  0.223124  1
  Rb  Rb4  1  0.773869  0.914690  0.494948  1
  Rb  Rb5  1  0.504297  0.394314  0.343123  1
  Rb  Rb6  1  0.004296  0.105688  0.843124  1
  Rb  Rb7  1  0.726129  0.414690  0.005052  1
  Rb  Rb8  1  0.495704  0.605686  0.656878  1
  Rb  Rb9  1  0.995703  0.894310  0.156878  1
  Rb  Rb10  1  0.226130  0.085311  0.505054  1
  Rb  Rb11  1  0.273867  0.585310  0.994946  1
  Nb  Nb12  1  0.013903  0.779199  0.726885  1
  Nb  Nb13  1  0.513912  0.720808  0.226887  1
  Nb  Nb14  1  0.657909  0.221512  0.579426  1
  Nb  Nb15  1  0.986096  0.220804  0.273111  1
  Nb  Nb16  1  0.157908  0.278491  0.079428  1
  Nb  Nb17  1  0.842091  0.721507  0.920573  1
  Nb  Nb18  1  0.486096  0.279200  0.773116  1
  Nb  Nb19  1  0.342092  0.778499  0.420568  1
  Ag  Ag20  1  0.698668  0.673321  0.080712  1
  Ag  Ag21  1  0.301332  0.326678  0.919290  1
  Ag  Ag22  1  0.198666  0.826681  0.580713  1
  Ag  Ag23  1  0.801331  0.173320  0.419288  1
  Se  Se24  1  0.231744  0.183606  0.242988  1
  Se  Se25  1  0.805014  0.724512  0.634910  1
  Se  Se26  1  0.730840  0.787904  0.304289  1
  Se  Se27  1  0.269166  0.212097  0.695712  1
  Se  Se28  1  0.474016  0.884924  0.325413  1
  Se  Se29  1  0.525977  0.115086  0.674583  1
  Se  Se30  1  0.453344  0.333624  0.608089  1
  Se  Se31  1  0.731748  0.316397  0.742988  1
  Se  Se32  1  0.240495  0.924038  0.339491  1
  Se  Se33  1  0.305016  0.775483  0.134913  1
  Se  Se34  1  0.447970  0.836528  0.554978  1
  Se  Se35  1  0.230831  0.712100  0.804289  1
  Se  Se36  1  0.986480  0.372949  0.502289  1
  Se  Se37  1  0.194982  0.275493  0.365086  1
  Se  Se38  1  0.926049  0.065198  0.324422  1
  Se  Se39  1  0.768255  0.816393  0.757011  1
  Se  Se40  1  0.694983  0.224511  0.865088  1
  Se  Se41  1  0.046654  0.833636  0.891911  1
  Se  Se42  1  0.078370  0.767957  0.428230  1
  Se  Se43  1  0.573949  0.565199  0.175580  1
  Se  Se44  1  0.974027  0.615085  0.825418  1
  Se  Se45  1  0.552029  0.163476  0.445024  1
  Se  Se46  1  0.013518  0.627050  0.497712  1
  Se  Se47  1  0.513523  0.872946  0.997711  1
  Se  Se48  1  0.161627  0.098536  0.064316  1
  Se  Se49  1  0.740494  0.575966  0.839495  1
  Se  Se50  1  0.421626  0.267957  0.071770  1
  Se  Se51  1  0.025973  0.384915  0.174582  1
  Se  Se52  1  0.073952  0.934803  0.675578  1
  Se  Se53  1  0.633948  0.849558  0.140306  1
  Se  Se54  1  0.838372  0.901461  0.935685  1
  Se  Se55  1  0.546660  0.666390  0.391910  1
  Se  Se56  1  0.578375  0.732042  0.928230  1
  Se  Se57  1  0.426051  0.434802  0.824421  1
  Se  Se58  1  0.947968  0.663476  0.054976  1
  Se  Se59  1  0.338374  0.598539  0.435683  1
  Se  Se60  1  0.133943  0.650445  0.640307  1
  Se  Se61  1  0.486477  0.127053  0.002290  1
  Se  Se62  1  0.866057  0.349555  0.359693  1
  Se  Se63  1  0.921626  0.232044  0.571771  1
  Se  Se64  1  0.953346  0.166363  0.108089  1
  Se  Se65  1  0.259506  0.424034  0.160506  1
  Se  Se66  1  0.759504  0.075968  0.660505  1
  Se  Se67  1  0.661630  0.401463  0.564315  1
  Se  Se68  1  0.769168  0.287900  0.195712  1
  Se  Se69  1  0.052030  0.336524  0.945024  1
  Se  Se70  1  0.366053  0.150443  0.859694  1
  Se  Se71  1  0.268261  0.683606  0.257012  1
