# generated using pymatgen
data_Tm7(PdSe)2
_symmetry_space_group_name_H-M   'P 1'
_cell_length_a   9.08284062
_cell_length_b   9.08284130
_cell_length_c   9.08284165
_cell_angle_alpha   155.70931230
_cell_angle_beta   67.47968886
_cell_angle_gamma   118.13435780
_symmetry_Int_Tables_number   1
_chemical_formula_structural   Tm7(PdSe)2
_chemical_formula_sum   'Tm7 Pd2 Se2'
_cell_volume   269.55263245
_cell_formula_units_Z   1
loop_
 _symmetry_equiv_pos_site_id
 _symmetry_equiv_pos_as_xyz
  1  'x, y, z'
loop_
 _atom_site_type_symbol
 _atom_site_label
 _atom_site_symmetry_multiplicity
 _atom_site_fract_x
 _atom_site_fract_y
 _atom_site_fract_z
 _atom_site_occupancy
  Tm  Tm0  1  0.327459  0.327459  0.000000  1
  Tm  Tm1  1  0.857411  0.735135  0.122276  1
  Tm  Tm2  1  0.265308  0.945161  0.320149  1
  Tm  Tm3  1  0.942528  0.579580  0.362947  1
  Tm  Tm4  1  0.216633  0.579582  0.637054  1
  Tm  Tm5  1  0.625013  0.945161  0.679854  1
  Tm  Tm6  1  0.612859  0.735136  0.877725  1
  Pd  Pd7  1  0.484965  0.246248  0.238718  1
  Pd  Pd8  1  0.007530  0.246249  0.761283  1
  Se  Se9  1  0.980277  0.980277  0.000000  1
  Se  Se10  1  0.585368  0.085368  0.500000  1
