# generated using pymatgen
data_Tb8Y5Er7Sn16
_symmetry_space_group_name_H-M   'P 1'
_cell_length_a   8.02300378
_cell_length_b   8.16778803
_cell_length_c   15.44310995
_cell_angle_alpha   90.05068090
_cell_angle_beta   90.02309856
_cell_angle_gamma   90.02261117
_symmetry_Int_Tables_number   1
_chemical_formula_structural   Tb8Y5Er7Sn16
_chemical_formula_sum   'Tb8 Y5 Er7 Sn16'
_cell_volume   1011.98943808
_cell_formula_units_Z   1
loop_
 _symmetry_equiv_pos_site_id
 _symmetry_equiv_pos_as_xyz
  1  'x, y, z'
loop_
 _atom_site_type_symbol
 _atom_site_label
 _atom_site_symmetry_multiplicity
 _atom_site_fract_x
 _atom_site_fract_y
 _atom_site_fract_z
 _atom_site_occupancy
  Tb  Tb0  1  0.519418  0.320606  0.902766  1
  Tb  Tb1  1  0.019543  0.179381  0.597196  1
  Tb  Tb2  1  0.480770  0.679540  0.403228  1
  Tb  Tb3  1  0.980057  0.820728  0.097176  1
  Tb  Tb4  1  0.481011  0.679658  0.096792  1
  Tb  Tb5  1  0.981491  0.820618  0.403553  1
  Tb  Tb6  1  0.518698  0.321077  0.596789  1
  Tb  Tb7  1  0.019048  0.178452  0.902363  1
  Y  Y8  1  0.134283  0.337132  0.122034  1
  Y  Y9  1  0.633622  0.163046  0.122652  1
  Y  Y10  1  0.133674  0.337105  0.377885  1
  Y  Y11  1  0.366461  0.837216  0.622511  1
  Y  Y12  1  0.866596  0.662629  0.877703  1
  Er  Er13  1  0.365746  0.837612  0.876330  1
  Er  Er14  1  0.865097  0.662556  0.622938  1
  Er  Er15  1  0.634649  0.162557  0.377491  1
  Er  Er16  1  0.197574  0.503387  0.750206  1
  Er  Er17  1  0.697748  0.996773  0.749532  1
  Er  Er18  1  0.802257  0.496862  0.250787  1
  Er  Er19  1  0.302786  0.003122  0.249841  1
  Sn  Sn20  1  0.294271  0.035906  0.040902  1
  Sn  Sn21  1  0.793288  0.461936  0.459026  1
  Sn  Sn22  1  0.706973  0.961990  0.541440  1
  Sn  Sn23  1  0.207532  0.538608  0.957658  1
  Sn  Sn24  1  0.703091  0.962428  0.957586  1
  Sn  Sn25  1  0.203021  0.537846  0.542520  1
  Sn  Sn26  1  0.296701  0.037664  0.457815  1
  Sn  Sn27  1  0.794169  0.463208  0.042364  1
  Sn  Sn28  1  0.563487  0.618655  0.749970  1
  Sn  Sn29  1  0.063236  0.881149  0.749761  1
  Sn  Sn30  1  0.436965  0.381383  0.250527  1
  Sn  Sn31  1  0.936387  0.118009  0.250444  1
  Sn  Sn32  1  0.328812  0.148596  0.749966  1
  Sn  Sn33  1  0.828786  0.351977  0.749661  1
  Sn  Sn34  1  0.671289  0.852004  0.250435  1
  Sn  Sn35  1  0.171464  0.648585  0.250149  1
