# generated using pymatgen
data_Tm5Zr3(Ni4P3)4
_symmetry_space_group_name_H-M   'P 1'
_cell_length_a   12.31782700
_cell_length_b   12.31782766
_cell_length_c   3.77786200
_cell_angle_alpha   90.00000000
_cell_angle_beta   90.00000000
_cell_angle_gamma   120.00000628
_symmetry_Int_Tables_number   1
_chemical_formula_structural   Tm5Zr3(Ni4P3)4
_chemical_formula_sum   'Tm5 Zr3 Ni16 P12'
_cell_volume   496.41502499
_cell_formula_units_Z   1
loop_
 _symmetry_equiv_pos_site_id
 _symmetry_equiv_pos_as_xyz
  1  'x, y, z'
loop_
 _atom_site_type_symbol
 _atom_site_label
 _atom_site_symmetry_multiplicity
 _atom_site_fract_x
 _atom_site_fract_y
 _atom_site_fract_z
 _atom_site_occupancy
  Tm  Tm0  1  0.183430  0.183430  0.500000  1
  Tm  Tm1  1  0.816570  0.000000  0.500000  1
  Tm  Tm2  1  0.000000  0.816570  0.500000  1
  Tm  Tm3  1  0.333333  0.666667  0.000000  1
  Tm  Tm4  1  0.666667  0.333333  0.000000  1
  Zr  Zr5  1  0.560268  0.560268  0.000000  1
  Zr  Zr6  1  0.439732  0.000000  0.000000  1
  Zr  Zr7  1  0.000000  0.439732  0.000000  1
  Ni  Ni8  1  0.727146  0.727146  0.500000  1
  Ni  Ni9  1  0.272854  0.000000  0.500000  1
  Ni  Ni10  1  0.000000  0.272854  0.500000  1
  Ni  Ni11  1  0.185108  0.375592  0.000000  1
  Ni  Ni12  1  0.624408  0.809516  0.000000  1
  Ni  Ni13  1  0.190484  0.814892  0.000000  1
  Ni  Ni14  1  0.809516  0.624408  0.000000  1
  Ni  Ni15  1  0.814892  0.190484  0.000000  1
  Ni  Ni16  1  0.375592  0.185108  0.000000  1
  Ni  Ni17  1  0.359199  0.484647  0.500000  1
  Ni  Ni18  1  0.515353  0.874554  0.500000  1
  Ni  Ni19  1  0.125446  0.640801  0.500000  1
  Ni  Ni20  1  0.874554  0.515353  0.500000  1
  Ni  Ni21  1  0.640801  0.125446  0.500000  1
  Ni  Ni22  1  0.484647  0.359199  0.500000  1
  Ni  Ni23  1  0.000000  0.000000  0.000000  1
  P  P24  1  0.823136  0.823136  0.000000  1
  P  P25  1  0.176864  0.000000  0.000000  1
  P  P26  1  0.000000  0.176864  0.000000  1
  P  P27  1  0.171247  0.477405  0.500000  1
  P  P28  1  0.522595  0.693842  0.500000  1
  P  P29  1  0.306158  0.828753  0.500000  1
  P  P30  1  0.693842  0.522595  0.500000  1
  P  P31  1  0.828753  0.306158  0.500000  1
  P  P32  1  0.477405  0.171247  0.500000  1
  P  P33  1  0.354458  0.354458  0.000000  1
  P  P34  1  0.645542  0.000000  0.000000  1
  P  P35  1  0.000000  0.645542  0.000000  1
