# generated using pymatgen
data_Sm13Ho3(PaIr4)4
_symmetry_space_group_name_H-M   'P 1'
_cell_length_a   7.51209833
_cell_length_b   7.56201434
_cell_length_c   14.60988500
_cell_angle_alpha   89.89611460
_cell_angle_beta   89.74341473
_cell_angle_gamma   89.74450938
_symmetry_Int_Tables_number   1
_chemical_formula_structural   Sm13Ho3(PaIr4)4
_chemical_formula_sum   'Sm13 Ho3 Pa4 Ir16'
_cell_volume   829.91991648
_cell_formula_units_Z   1
loop_
 _symmetry_equiv_pos_site_id
 _symmetry_equiv_pos_as_xyz
  1  'x, y, z'
loop_
 _atom_site_type_symbol
 _atom_site_label
 _atom_site_symmetry_multiplicity
 _atom_site_fract_x
 _atom_site_fract_y
 _atom_site_fract_z
 _atom_site_occupancy
  Sm  Sm0  1  0.160720  0.337036  0.620813  1
  Sm  Sm1  1  0.508090  0.682135  0.594207  1
  Sm  Sm2  1  0.014191  0.821892  0.907441  1
  Sm  Sm3  1  0.488670  0.319838  0.088152  1
  Sm  Sm4  1  0.990625  0.181172  0.407575  1
  Sm  Sm5  1  0.490745  0.318937  0.410033  1
  Sm  Sm6  1  0.995111  0.181676  0.091616  1
  Sm  Sm7  1  0.506273  0.679122  0.907028  1
  Sm  Sm8  1  0.006931  0.819684  0.592766  1
  Sm  Sm9  1  0.826733  0.511505  0.749616  1
  Sm  Sm10  1  0.314730  0.992276  0.748782  1
  Sm  Sm11  1  0.189275  0.482687  0.248573  1
  Sm  Sm12  1  0.678736  0.020935  0.247035  1
  Ho  Ho13  1  0.659333  0.162700  0.621764  1
  Ho  Ho14  1  0.158401  0.337334  0.879965  1
  Ho  Ho15  1  0.342448  0.838711  0.121114  1
  Pa  Pa16  1  0.839947  0.659946  0.376870  1
  Pa  Pa17  1  0.341982  0.841698  0.376427  1
  Pa  Pa18  1  0.842182  0.658274  0.121452  1
  Pa  Pa19  1  0.659902  0.159032  0.877055  1
  Ir  Ir20  1  0.680216  0.949186  0.455571  1
  Ir  Ir21  1  0.162471  0.543422  0.044739  1
  Ir  Ir22  1  0.344527  0.043937  0.957263  1
  Ir  Ir23  1  0.813111  0.468474  0.531799  1
  Ir  Ir24  1  0.318452  0.028860  0.532439  1
  Ir  Ir25  1  0.804304  0.454892  0.967713  1
  Ir  Ir26  1  0.700573  0.951920  0.035614  1
  Ir  Ir27  1  0.175645  0.556733  0.454418  1
  Ir  Ir28  1  0.464802  0.372719  0.758582  1
  Ir  Ir29  1  0.942343  0.125316  0.757327  1
  Ir  Ir30  1  0.546747  0.639313  0.256258  1
  Ir  Ir31  1  0.035002  0.862405  0.251088  1
  Ir  Ir32  1  0.686020  0.867001  0.753588  1
  Ir  Ir33  1  0.208865  0.629863  0.751269  1
  Ir  Ir34  1  0.294303  0.117041  0.255502  1
  Ir  Ir35  1  0.807597  0.382331  0.248544  1
