# generated using pymatgen
data_Sr6CrCd2CoO12
_symmetry_space_group_name_H-M   'P 1'
_cell_length_a   6.80346768
_cell_length_b   6.76565636
_cell_length_c   6.74872788
_cell_angle_alpha   91.29306645
_cell_angle_beta   91.08297214
_cell_angle_gamma   90.94040279
_symmetry_Int_Tables_number   1
_chemical_formula_structural   Sr6CrCd2CoO12
_chemical_formula_sum   'Sr6 Cr1 Cd2 Co1 O12'
_cell_volume   310.46478913
_cell_formula_units_Z   1
loop_
 _symmetry_equiv_pos_site_id
 _symmetry_equiv_pos_as_xyz
  1  'x, y, z'
loop_
 _atom_site_type_symbol
 _atom_site_label
 _atom_site_symmetry_multiplicity
 _atom_site_fract_x
 _atom_site_fract_y
 _atom_site_fract_z
 _atom_site_occupancy
  Sr  Sr0  1  0.885491  0.251982  0.612344  1
  Sr  Sr1  1  0.251779  0.611883  0.885688  1
  Sr  Sr2  1  0.611373  0.885845  0.250075  1
  Sr  Sr3  1  0.748189  0.388045  0.114313  1
  Sr  Sr4  1  0.388633  0.114186  0.749868  1
  Sr  Sr5  1  0.114432  0.748033  0.387713  1
  Cr  Cr6  1  0.000212  0.999866  0.999971  1
  Cd  Cd7  1  0.747826  0.750080  0.749281  1
  Cd  Cd8  1  0.252072  0.249979  0.250778  1
  Co  Co9  1  0.499945  0.500037  0.500004  1
  O  O10  1  0.226222  0.420667  0.552516  1
  O  O11  1  0.422678  0.552297  0.227533  1
  O  O12  1  0.554134  0.228457  0.421686  1
  O  O13  1  0.922903  0.723663  0.052063  1
  O  O14  1  0.720836  0.053022  0.918727  1
  O  O15  1  0.053416  0.921496  0.725135  1
  O  O16  1  0.773671  0.579421  0.447531  1
  O  O17  1  0.577220  0.447774  0.772493  1
  O  O18  1  0.445740  0.771571  0.578304  1
  O  O19  1  0.077231  0.276290  0.947942  1
  O  O20  1  0.279304  0.946913  0.081196  1
  O  O21  1  0.946693  0.078494  0.274838  1
