# generated using pymatgen
data_PrAlZnSi
_symmetry_space_group_name_H-M   'P 1'
_cell_length_a   9.25948006
_cell_length_b   9.25948010
_cell_length_c   4.18620600
_cell_angle_alpha   90.00000000
_cell_angle_beta   90.00000000
_cell_angle_gamma   153.45779633
_symmetry_Int_Tables_number   1
_chemical_formula_structural   PrAlZnSi
_chemical_formula_sum   'Pr2 Al2 Zn2 Si2'
_cell_volume   160.38445107
_cell_formula_units_Z   2
loop_
 _symmetry_equiv_pos_site_id
 _symmetry_equiv_pos_as_xyz
  1  'x, y, z'
loop_
 _atom_site_type_symbol
 _atom_site_label
 _atom_site_symmetry_multiplicity
 _atom_site_fract_x
 _atom_site_fract_y
 _atom_site_fract_z
 _atom_site_occupancy
  Pr  Pr0  1  0.902458  0.097542  0.750000  1
  Pr  Pr1  1  0.097542  0.902458  0.250000  1
  Al  Al2  1  0.249958  0.750042  0.750000  1
  Al  Al3  1  0.750042  0.249958  0.250000  1
  Zn  Zn4  1  0.666865  0.333135  0.750000  1
  Zn  Zn5  1  0.333135  0.666865  0.250000  1
  Si  Si6  1  0.533244  0.466756  0.750000  1
  Si  Si7  1  0.466756  0.533244  0.250000  1
