# generated using pymatgen
data_Sr3Tm7(SnSb)4
_symmetry_space_group_name_H-M   'P 1'
_cell_length_a   9.18666069
_cell_length_b   8.45746453
_cell_length_c   8.27959500
_cell_angle_alpha   89.68954653
_cell_angle_beta   90.03478912
_cell_angle_gamma   124.48850288
_symmetry_Int_Tables_number   1
_chemical_formula_structural   Sr3Tm7(SnSb)4
_chemical_formula_sum   'Sr3 Tm7 Sn4 Sb4'
_cell_volume   530.21528134
_cell_formula_units_Z   1
loop_
 _symmetry_equiv_pos_site_id
 _symmetry_equiv_pos_as_xyz
  1  'x, y, z'
loop_
 _atom_site_type_symbol
 _atom_site_label
 _atom_site_symmetry_multiplicity
 _atom_site_fract_x
 _atom_site_fract_y
 _atom_site_fract_z
 _atom_site_occupancy
  Sr  Sr0  1  0.050199  0.355893  0.322587  1
  Sr  Sr1  1  0.949331  0.649774  0.676385  1
  Sr  Sr2  1  0.447785  0.146454  0.824482  1
  Tm  Tm3  1  0.771387  0.516271  0.156803  1
  Tm  Tm4  1  0.553695  0.835686  0.173150  1
  Tm  Tm5  1  0.228982  0.484675  0.842540  1
  Tm  Tm6  1  0.730636  0.988293  0.655640  1
  Tm  Tm7  1  0.272344  0.017999  0.343570  1
  Tm  Tm8  1  0.999468  0.999865  0.000151  1
  Tm  Tm9  1  0.498211  0.501168  0.498341  1
  Sn  Sn10  1  0.365591  0.368826  0.137990  1
  Sn  Sn11  1  0.633994  0.641594  0.866297  1
  Sn  Sn12  1  0.134114  0.138105  0.637040  1
  Sn  Sn13  1  0.858814  0.865813  0.356153  1
  Sb  Sb14  1  0.819191  0.223534  0.968411  1
  Sb  Sb15  1  0.180168  0.760425  0.049826  1
  Sb  Sb16  1  0.667481  0.262463  0.455960  1
  Sb  Sb17  1  0.338607  0.743161  0.534672  1
