# generated using pymatgen
data_Tm4V3B16Os
_symmetry_space_group_name_H-M   'P 1'
_cell_length_a   3.46258200
_cell_length_b   5.95406147
_cell_length_c   11.50387091
_cell_angle_alpha   89.95447154
_cell_angle_beta   90.00000000
_cell_angle_gamma   90.00000000
_symmetry_Int_Tables_number   1
_chemical_formula_structural   Tm4V3B16Os
_chemical_formula_sum   'Tm4 V3 B16 Os1'
_cell_volume   237.16862925
_cell_formula_units_Z   1
loop_
 _symmetry_equiv_pos_site_id
 _symmetry_equiv_pos_as_xyz
  1  'x, y, z'
loop_
 _atom_site_type_symbol
 _atom_site_label
 _atom_site_symmetry_multiplicity
 _atom_site_fract_x
 _atom_site_fract_y
 _atom_site_fract_z
 _atom_site_occupancy
  Tm  Tm0  1  0.500000  0.127271  0.653842  1
  Tm  Tm1  1  0.500000  0.872630  0.347034  1
  Tm  Tm2  1  0.500000  0.624844  0.851157  1
  Tm  Tm3  1  0.500000  0.375725  0.147381  1
  V  V4  1  0.500000  0.127474  0.917381  1
  V  V5  1  0.500000  0.872552  0.084967  1
  V  V6  1  0.500000  0.632257  0.582892  1
  B  B7  1  0.000000  0.477260  0.693315  1
  B  B8  1  0.000000  0.522757  0.306339  1
  B  B9  1  0.000000  0.976646  0.807153  1
  B  B10  1  0.000000  0.024181  0.193655  1
  B  B11  1  0.000000  0.287616  0.814380  1
  B  B12  1  0.000000  0.711748  0.186173  1
  B  B13  1  0.000000  0.787001  0.685967  1
  B  B14  1  0.000000  0.213771  0.313772  1
  B  B15  1  0.000000  0.365339  0.967481  1
  B  B16  1  0.000000  0.634343  0.032425  1
  B  B17  1  0.000000  0.866215  0.530925  1
  B  B18  1  0.000000  0.134215  0.468631  1
  B  B19  1  0.000000  0.384240  0.547765  1
  B  B20  1  0.000000  0.613633  0.450972  1
  B  B21  1  0.000000  0.885070  0.952794  1
  B  B22  1  0.000000  0.114161  0.047701  1
  Os  Os23  1  0.500000  0.369051  0.415895  1
