# generated using pymatgen
data_Cr9Re2MoP4
_symmetry_space_group_name_H-M   'P 1'
_cell_length_a   4.52426374
_cell_length_b   6.93693742
_cell_length_c   6.94703600
_cell_angle_alpha   83.71501583
_cell_angle_beta   70.84075398
_cell_angle_gamma   70.97592319
_symmetry_Int_Tables_number   1
_chemical_formula_structural   Cr9Re2MoP4
_chemical_formula_sum   'Cr9 Re2 Mo1 P4'
_cell_volume   194.70329091
_cell_formula_units_Z   1
loop_
 _symmetry_equiv_pos_site_id
 _symmetry_equiv_pos_as_xyz
  1  'x, y, z'
loop_
 _atom_site_type_symbol
 _atom_site_label
 _atom_site_symmetry_multiplicity
 _atom_site_fract_x
 _atom_site_fract_y
 _atom_site_fract_z
 _atom_site_occupancy
  Cr  Cr0  1  0.652455  0.034171  0.190127  1
  Cr  Cr1  1  0.637872  0.398411  0.322959  1
  Cr  Cr2  1  0.361220  0.602034  0.673619  1
  Cr  Cr3  1  0.035209  0.326333  0.602880  1
  Cr  Cr4  1  0.967743  0.673475  0.396025  1
  Cr  Cr5  1  0.594444  0.388283  0.937528  1
  Cr  Cr6  1  0.923583  0.609670  0.064972  1
  Cr  Cr7  1  0.466951  0.938107  0.611477  1
  Cr  Cr8  1  0.010759  0.062275  0.380605  1
  Re  Re9  1  0.156754  0.190464  0.966496  1
  Re  Re10  1  0.312829  0.809231  0.038783  1
  Mo  Mo11  1  0.871424  0.968530  0.816386  1
  P  P12  1  0.211228  0.345153  0.247152  1
  P  P13  1  0.802156  0.647599  0.754016  1
  P  P14  1  0.549008  0.246734  0.644537  1
  P  P15  1  0.446371  0.759528  0.352438  1
