# generated using pymatgen
data_Yb10CdCu3HgRu
_symmetry_space_group_name_H-M   'P 1'
_cell_length_a   9.05130143
_cell_length_b   9.04872472
_cell_length_c   8.98565833
_cell_angle_alpha   129.38359499
_cell_angle_beta   129.39146565
_cell_angle_gamma   74.92400730
_symmetry_Int_Tables_number   1
_chemical_formula_structural   Yb10CdCu3HgRu
_chemical_formula_sum   'Yb10 Cd1 Cu3 Hg1 Ru1'
_cell_volume   426.90040268
_cell_formula_units_Z   1
loop_
 _symmetry_equiv_pos_site_id
 _symmetry_equiv_pos_as_xyz
  1  'x, y, z'
loop_
 _atom_site_type_symbol
 _atom_site_label
 _atom_site_symmetry_multiplicity
 _atom_site_fract_x
 _atom_site_fract_y
 _atom_site_fract_z
 _atom_site_occupancy
  Yb  Yb0  1  0.493067  0.500785  0.994191  1
  Yb  Yb1  1  0.001123  0.993405  0.994191  1
  Yb  Yb2  1  0.532500  0.034566  0.836746  1
  Yb  Yb3  1  0.191033  0.688805  0.145717  1
  Yb  Yb4  1  0.034702  0.207867  0.510694  1
  Yb  Yb5  1  0.705681  0.532551  0.506330  1
  Yb  Yb6  1  0.454685  0.956913  0.145717  1
  Yb  Yb7  1  0.804244  0.302178  0.836746  1
  Yb  Yb8  1  0.975993  0.802827  0.510694  1
  Yb  Yb9  1  0.300649  0.473779  0.506330  1
  Cd  Cd10  1  0.752479  0.752479  0.004959  1
  Cu  Cu11  1  0.881122  0.381122  0.262245  1
  Cu  Cu12  1  0.615586  0.882368  0.497933  1
  Cu  Cu13  1  0.382346  0.115564  0.497933  1
  Hg  Hg14  1  0.252098  0.252098  0.004197  1
  Ru  Ru15  1  0.122689  0.622689  0.745378  1
