# generated using pymatgen
data_Nb12Ga8NiOs3N4
_symmetry_space_group_name_H-M   'P 1'
_cell_length_a   8.26145878
_cell_length_b   8.31522502
_cell_length_c   8.31522600
_cell_angle_alpha   60.00000406
_cell_angle_beta   59.78448399
_cell_angle_gamma   59.78449374
_symmetry_Int_Tables_number   1
_chemical_formula_structural   Nb12Ga8NiOs3N4
_chemical_formula_sum   'Nb12 Ga8 Ni1 Os3 N4'
_cell_volume   402.59411272
_cell_formula_units_Z   1
loop_
 _symmetry_equiv_pos_site_id
 _symmetry_equiv_pos_as_xyz
  1  'x, y, z'
loop_
 _atom_site_type_symbol
 _atom_site_label
 _atom_site_symmetry_multiplicity
 _atom_site_fract_x
 _atom_site_fract_y
 _atom_site_fract_z
 _atom_site_occupancy
  Nb  Nb0  1  0.441727  0.441166  0.058553  1
  Nb  Nb1  1  0.056348  0.442636  0.058380  1
  Nb  Nb2  1  0.441727  0.058553  0.058553  1
  Nb  Nb3  1  0.056348  0.058380  0.442636  1
  Nb  Nb4  1  0.441727  0.058553  0.441166  1
  Nb  Nb5  1  0.056348  0.442636  0.442636  1
  Nb  Nb6  1  0.808273  0.808834  0.191447  1
  Nb  Nb7  1  0.193652  0.807364  0.191620  1
  Nb  Nb8  1  0.808273  0.191447  0.191447  1
  Nb  Nb9  1  0.193652  0.191620  0.807364  1
  Nb  Nb10  1  0.808273  0.191447  0.808834  1
  Nb  Nb11  1  0.193652  0.807364  0.807364  1
  Ga  Ga12  1  0.845278  0.831125  0.492473  1
  Ga  Ga13  1  0.845278  0.492473  0.831125  1
  Ga  Ga14  1  0.492553  0.835816  0.835816  1
  Ga  Ga15  1  0.845278  0.831125  0.831125  1
  Ga  Ga16  1  0.404722  0.418875  0.757527  1
  Ga  Ga17  1  0.404722  0.757527  0.418875  1
  Ga  Ga18  1  0.757447  0.414184  0.414184  1
  Ga  Ga19  1  0.404722  0.418875  0.418875  1
  Ni  Ni20  1  0.125000  0.625000  0.625000  1
  Os  Os21  1  0.625000  0.625000  0.125000  1
  Os  Os22  1  0.625000  0.125000  0.625000  1
  Os  Os23  1  0.625000  0.625000  0.625000  1
  N  N24  1  0.125000  0.125000  0.625000  1
  N  N25  1  0.125000  0.625000  0.125000  1
  N  N26  1  0.625000  0.125000  0.125000  1
  N  N27  1  0.125000  0.125000  0.125000  1
