# generated using pymatgen
data_TbSm2Y3(Co3P2)6
_symmetry_space_group_name_H-M   'P 1'
_cell_length_a   3.71734100
_cell_length_b   10.54683201
_cell_length_c   12.21739501
_cell_angle_alpha   90.00537159
_cell_angle_beta   90.00000000
_cell_angle_gamma   90.00000000
_symmetry_Int_Tables_number   1
_chemical_formula_structural   TbSm2Y3(Co3P2)6
_chemical_formula_sum   'Tb1 Sm2 Y3 Co18 P12'
_cell_volume   478.99727666
_cell_formula_units_Z   1
loop_
 _symmetry_equiv_pos_site_id
 _symmetry_equiv_pos_as_xyz
  1  'x, y, z'
loop_
 _atom_site_type_symbol
 _atom_site_label
 _atom_site_symmetry_multiplicity
 _atom_site_fract_x
 _atom_site_fract_y
 _atom_site_fract_z
 _atom_site_occupancy
  Tb  Tb0  1  0.500000  0.817471  0.205289  1
  Sm  Sm1  1  0.000000  0.499966  0.522195  1
  Sm  Sm2  1  0.500000  0.000054  0.477901  1
  Y  Y3  1  0.500000  0.182731  0.205257  1
  Y  Y4  1  0.000000  0.682632  0.794708  1
  Y  Y5  1  0.000000  0.317348  0.794677  1
  Co  Co6  1  0.500000  0.500003  0.157312  1
  Co  Co7  1  0.000000  0.999999  0.842695  1
  Co  Co8  1  0.500000  0.499969  0.704876  1
  Co  Co9  1  0.000000  0.000032  0.295132  1
  Co  Co10  1  0.000000  0.499926  0.986407  1
  Co  Co11  1  0.500000  0.000048  0.013504  1
  Co  Co12  1  0.500000  0.333388  0.994892  1
  Co  Co13  1  0.500000  0.666549  0.994841  1
  Co  Co14  1  0.000000  0.166673  0.005091  1
  Co  Co15  1  0.000000  0.833413  0.004968  1
  Co  Co16  1  0.500000  0.297060  0.429660  1
  Co  Co17  1  0.500000  0.702917  0.429715  1
  Co  Co18  1  0.000000  0.202982  0.570387  1
  Co  Co19  1  0.000000  0.797041  0.570445  1
  Co  Co20  1  0.500000  0.879733  0.711512  1
  Co  Co21  1  0.500000  0.120294  0.711484  1
  Co  Co22  1  0.000000  0.620143  0.288581  1
  Co  Co23  1  0.000000  0.379692  0.288507  1
  P  P24  1  0.500000  0.499969  0.883433  1
  P  P25  1  0.000000  0.000084  0.116382  1
  P  P26  1  0.500000  0.500057  0.341080  1
  P  P27  1  0.000000  0.999985  0.658940  1
  P  P28  1  0.500000  0.308500  0.616561  1
  P  P29  1  0.500000  0.691468  0.616594  1
  P  P30  1  0.000000  0.191529  0.383454  1
  P  P31  1  0.000000  0.808350  0.383654  1
  P  P32  1  0.500000  0.847152  0.894037  1
  P  P33  1  0.500000  0.152885  0.893971  1
  P  P34  1  0.000000  0.652752  0.105869  1
  P  P35  1  0.000000  0.347203  0.105989  1
