# generated using pymatgen
data_Pr4Cd4In3Pb
_symmetry_space_group_name_H-M   'P 1'
_cell_length_a   5.01205700
_cell_length_b   5.01205702
_cell_length_c   15.37788000
_cell_angle_alpha   90.00000000
_cell_angle_beta   90.00000000
_cell_angle_gamma   119.99999326
_symmetry_Int_Tables_number   1
_chemical_formula_structural   Pr4Cd4In3Pb
_chemical_formula_sum   'Pr4 Cd4 In3 Pb1'
_cell_volume   334.54853574
_cell_formula_units_Z   1
loop_
 _symmetry_equiv_pos_site_id
 _symmetry_equiv_pos_as_xyz
  1  'x, y, z'
loop_
 _atom_site_type_symbol
 _atom_site_label
 _atom_site_symmetry_multiplicity
 _atom_site_fract_x
 _atom_site_fract_y
 _atom_site_fract_z
 _atom_site_occupancy
  Pr  Pr0  1  0.000000  0.000000  0.006260  1
  Pr  Pr1  1  0.000000  0.000000  0.252321  1
  Pr  Pr2  1  0.000000  0.000000  0.497618  1
  Pr  Pr3  1  0.000000  0.000000  0.744883  1
  Cd  Cd4  1  0.666666  0.333332  0.117165  1
  Cd  Cd5  1  0.666666  0.333332  0.393910  1
  Cd  Cd6  1  0.333333  0.666667  0.640047  1
  Cd  Cd7  1  0.333333  0.666667  0.843827  1
  In  In8  1  0.333333  0.666667  0.144317  1
  In  In9  1  0.333333  0.666667  0.358301  1
  In  In10  1  0.666666  0.333332  0.603239  1
  Pb  Pb11  1  0.666666  0.333332  0.898112  1
