# generated using pymatgen
data_Hf5B4AsRu10
_symmetry_space_group_name_H-M   'P 1'
_cell_length_a   3.09403400
_cell_length_b   9.44239700
_cell_length_c   9.44239700
_cell_angle_alpha   90.00000000
_cell_angle_beta   90.00000000
_cell_angle_gamma   90.00000000
_symmetry_Int_Tables_number   1
_chemical_formula_structural   Hf5B4AsRu10
_chemical_formula_sum   'Hf5 B4 As1 Ru10'
_cell_volume   275.86054766
_cell_formula_units_Z   1
loop_
 _symmetry_equiv_pos_site_id
 _symmetry_equiv_pos_as_xyz
  1  'x, y, z'
loop_
 _atom_site_type_symbol
 _atom_site_label
 _atom_site_symmetry_multiplicity
 _atom_site_fract_x
 _atom_site_fract_y
 _atom_site_fract_z
 _atom_site_occupancy
  Hf  Hf0  1  0.000000  0.676339  0.825783  1
  Hf  Hf1  1  0.000000  0.323661  0.174217  1
  Hf  Hf2  1  0.000000  0.825783  0.323661  1
  Hf  Hf3  1  0.000000  0.174217  0.676339  1
  Hf  Hf4  1  0.000000  0.000000  0.000000  1
  B  B5  1  0.000000  0.875886  0.620105  1
  B  B6  1  0.000000  0.124114  0.379895  1
  B  B7  1  0.000000  0.620105  0.124114  1
  B  B8  1  0.000000  0.379895  0.875886  1
  As  As9  1  0.000000  0.500000  0.500000  1
  Ru  Ru10  1  0.500000  0.711503  0.565077  1
  Ru  Ru11  1  0.500000  0.288497  0.434923  1
  Ru  Ru12  1  0.500000  0.777840  0.076017  1
  Ru  Ru13  1  0.500000  0.222160  0.923983  1
  Ru  Ru14  1  0.500000  0.565077  0.288497  1
  Ru  Ru15  1  0.500000  0.434923  0.711503  1
  Ru  Ru16  1  0.500000  0.076017  0.222160  1
  Ru  Ru17  1  0.500000  0.923983  0.777840  1
  Ru  Ru18  1  0.500000  0.000000  0.500000  1
  Ru  Ru19  1  0.500000  0.500000  0.000000  1
