# generated using pymatgen
data_Ho9Lu11ZnBi11
_symmetry_space_group_name_H-M   'P 1'
_cell_length_a   8.09661098
_cell_length_b   9.35725527
_cell_length_c   11.83919200
_cell_angle_alpha   89.98888650
_cell_angle_beta   89.71383874
_cell_angle_gamma   90.00785549
_symmetry_Int_Tables_number   1
_chemical_formula_structural   Ho9Lu11ZnBi11
_chemical_formula_sum   'Ho9 Lu11 Zn1 Bi11'
_cell_volume   896.95031180
_cell_formula_units_Z   1
loop_
 _symmetry_equiv_pos_site_id
 _symmetry_equiv_pos_as_xyz
  1  'x, y, z'
loop_
 _atom_site_type_symbol
 _atom_site_label
 _atom_site_symmetry_multiplicity
 _atom_site_fract_x
 _atom_site_fract_y
 _atom_site_fract_z
 _atom_site_occupancy
  Ho  Ho0  1  0.356110  0.249778  0.294733  1
  Ho  Ho1  1  0.648541  0.750113  0.716284  1
  Ho  Ho2  1  0.149936  0.750328  0.782667  1
  Ho  Ho3  1  0.852037  0.250114  0.215720  1
  Ho  Ho4  1  0.191157  0.249839  0.779272  1
  Ho  Ho5  1  0.810343  0.750074  0.217583  1
  Ho  Ho6  1  0.313177  0.750244  0.280919  1
  Ho  Ho7  1  0.674723  0.250186  0.710723  1
  Ho  Ho8  1  0.309610  0.546793  0.558548  1
  Lu  Lu9  1  0.035442  0.249747  0.508599  1
  Lu  Lu10  1  0.980760  0.750171  0.490177  1
  Lu  Lu11  1  0.476405  0.749994  0.010038  1
  Lu  Lu12  1  0.524463  0.250103  0.989613  1
  Lu  Lu13  1  0.193431  0.066686  0.061195  1
  Lu  Lu14  1  0.806614  0.933772  0.940693  1
  Lu  Lu15  1  0.309545  0.952816  0.558532  1
  Lu  Lu16  1  0.806721  0.566212  0.940728  1
  Lu  Lu17  1  0.683732  0.072159  0.445854  1
  Lu  Lu18  1  0.193221  0.433349  0.061249  1
  Lu  Lu19  1  0.683859  0.427795  0.445848  1
  Zn  Zn20  1  0.407146  0.248402  0.539364  1
  Bi  Bi21  1  0.595761  0.750516  0.456997  1
  Bi  Bi22  1  0.095880  0.750050  0.042720  1
  Bi  Bi23  1  0.905313  0.249964  0.954397  1
  Bi  Bi24  1  0.062082  0.002950  0.324955  1
  Bi  Bi25  1  0.935709  0.997826  0.674537  1
  Bi  Bi26  1  0.436184  0.997005  0.825859  1
  Bi  Bi27  1  0.935417  0.502493  0.674690  1
  Bi  Bi28  1  0.563978  0.004177  0.173101  1
  Bi  Bi29  1  0.062431  0.497205  0.325131  1
  Bi  Bi30  1  0.564208  0.495934  0.173163  1
  Bi  Bi31  1  0.436064  0.503207  0.826116  1
