# generated using pymatgen
data_BCl31
_symmetry_space_group_name_H-M   'P 1'
_cell_length_a   7.49043800
_cell_length_b   8.61829865
_cell_length_c   17.07018100
_cell_angle_alpha   80.71571633
_cell_angle_beta   90.00000000
_cell_angle_gamma   90.00000000
_symmetry_Int_Tables_number   1
_chemical_formula_structural   BCl31
_chemical_formula_sum   'B1 Cl31'
_cell_volume   1087.52695870
_cell_formula_units_Z   1
loop_
 _symmetry_equiv_pos_site_id
 _symmetry_equiv_pos_as_xyz
  1  'x, y, z'
loop_
 _atom_site_type_symbol
 _atom_site_label
 _atom_site_symmetry_multiplicity
 _atom_site_fract_x
 _atom_site_fract_y
 _atom_site_fract_z
 _atom_site_occupancy
  B  B0  1  0.750000  0.866152  0.155311  1
  Cl  Cl1  1  0.750000  0.422022  0.341202  1
  Cl  Cl2  1  0.250000  0.574103  0.651477  1
  Cl  Cl3  1  0.250000  0.155727  0.852460  1
  Cl  Cl4  1  0.250000  0.370135  0.154219  1
  Cl  Cl5  1  0.750000  0.904323  0.788955  1
  Cl  Cl6  1  0.750000  0.864855  0.263471  1
  Cl  Cl7  1  0.545059  0.768566  0.127783  1
  Cl  Cl8  1  0.250000  0.621865  0.301948  1
  Cl  Cl9  1  0.514754  0.742602  0.607344  1
  Cl  Cl10  1  0.250000  0.639226  0.773900  1
  Cl  Cl11  1  0.250000  0.126333  0.432042  1
  Cl  Cl12  1  0.750000  0.536706  0.452450  1
  Cl  Cl13  1  0.505313  0.265963  0.901378  1
  Cl  Cl14  1  0.250000  0.815453  0.947155  1
  Cl  Cl15  1  0.750000  0.335513  0.224131  1
  Cl  Cl16  1  0.485752  0.259722  0.389631  1
  Cl  Cl17  1  0.750000  0.187239  0.652003  1
  Cl  Cl18  1  0.250000  0.824177  0.343485  1
  Cl  Cl19  1  0.014248  0.259722  0.389631  1
  Cl  Cl20  1  0.750000  0.878222  0.567441  1
  Cl  Cl21  1  0.954941  0.768566  0.127783  1
  Cl  Cl22  1  0.250000  0.138229  0.192158  1
  Cl  Cl23  1  0.750000  0.066720  0.097646  1
  Cl  Cl24  1  0.750000  0.689900  0.856063  1
  Cl  Cl25  1  0.750000  0.388778  0.694887  1
  Cl  Cl26  1  0.250000  0.591006  0.000282  1
  Cl  Cl27  1  0.985246  0.742602  0.607344  1
  Cl  Cl28  1  0.750000  0.369418  0.950191  1
  Cl  Cl29  1  0.250000  0.475462  0.536335  1
  Cl  Cl30  1  0.250000  0.084731  0.718520  1
  Cl  Cl31  1  0.994687  0.265963  0.901378  1
