# generated using pymatgen
data_TbZr3(Al3Co)6
_symmetry_space_group_name_H-M   'P 1'
_cell_length_a   7.32081997
_cell_length_b   7.31106606
_cell_length_c   9.14492600
_cell_angle_alpha   90.00000000
_cell_angle_beta   90.00000000
_cell_angle_gamma   119.47557379
_symmetry_Int_Tables_number   1
_chemical_formula_structural   TbZr3(Al3Co)6
_chemical_formula_sum   'Tb1 Zr3 Al18 Co6'
_cell_volume   426.11037248
_cell_formula_units_Z   1
loop_
 _symmetry_equiv_pos_site_id
 _symmetry_equiv_pos_as_xyz
  1  'x, y, z'
loop_
 _atom_site_type_symbol
 _atom_site_label
 _atom_site_symmetry_multiplicity
 _atom_site_fract_x
 _atom_site_fract_y
 _atom_site_fract_z
 _atom_site_occupancy
  Tb  Tb0  1  0.328726  0.007177  0.750000  1
  Zr  Zr1  1  0.993622  0.671535  0.250000  1
  Zr  Zr2  1  0.006030  0.328970  0.750000  1
  Zr  Zr3  1  0.671929  0.993716  0.250000  1
  Al  Al4  1  0.116572  0.117679  0.250000  1
  Al  Al5  1  0.875916  0.880218  0.750000  1
  Al  Al6  1  0.994701  0.334487  0.073103  1
  Al  Al7  1  0.002071  0.662707  0.930668  1
  Al  Al8  1  0.002071  0.662707  0.569332  1
  Al  Al9  1  0.335095  0.995581  0.423947  1
  Al  Al10  1  0.994701  0.334487  0.426897  1
  Al  Al11  1  0.668004  0.004345  0.569423  1
  Al  Al12  1  0.668004  0.004345  0.930577  1
  Al  Al13  1  0.335095  0.995581  0.076053  1
  Al  Al14  1  0.330594  0.332992  0.544647  1
  Al  Al15  1  0.669914  0.669734  0.448186  1
  Al  Al16  1  0.669914  0.669734  0.051814  1
  Al  Al17  1  0.330594  0.332992  0.955353  1
  Al  Al18  1  0.337495  0.559431  0.250000  1
  Al  Al19  1  0.667396  0.446754  0.750000  1
  Al  Al20  1  0.561165  0.339004  0.250000  1
  Al  Al21  1  0.440587  0.655623  0.750000  1
  Co  Co22  1  0.672530  0.329030  0.001606  1
  Co  Co23  1  0.328661  0.672182  0.002158  1
  Co  Co24  1  0.328661  0.672182  0.497842  1
  Co  Co25  1  0.672530  0.329030  0.498394  1
  Co  Co26  1  0.998711  0.998887  0.001874  1
  Co  Co27  1  0.998711  0.998887  0.498126  1
