# generated using pymatgen
data_SmThU2(NiP)8
_symmetry_space_group_name_H-M   'P 1'
_cell_length_a   3.75383600
_cell_length_b   8.66886858
_cell_length_c   9.47181285
_cell_angle_alpha   90.77400898
_cell_angle_beta   90.00000000
_cell_angle_gamma   90.00000000
_symmetry_Int_Tables_number   1
_chemical_formula_structural   SmThU2(NiP)8
_chemical_formula_sum   'Sm1 Th1 U2 Ni8 P8'
_cell_volume   308.19897730
_cell_formula_units_Z   1
loop_
 _symmetry_equiv_pos_site_id
 _symmetry_equiv_pos_as_xyz
  1  'x, y, z'
loop_
 _atom_site_type_symbol
 _atom_site_label
 _atom_site_symmetry_multiplicity
 _atom_site_fract_x
 _atom_site_fract_y
 _atom_site_fract_z
 _atom_site_occupancy
  Sm  Sm0  1  0.250000  0.740242  0.826325  1
  Th  Th1  1  0.750000  0.258522  0.175926  1
  U  U2  1  0.250000  0.249525  0.674759  1
  U  U3  1  0.750000  0.751692  0.325080  1
  Ni  Ni4  1  0.750000  0.076835  0.449021  1
  Ni  Ni5  1  0.250000  0.923256  0.551706  1
  Ni  Ni6  1  0.750000  0.582390  0.044442  1
  Ni  Ni7  1  0.250000  0.416516  0.955519  1
  Ni  Ni8  1  0.250000  0.965529  0.097791  1
  Ni  Ni9  1  0.750000  0.031544  0.899799  1
  Ni  Ni10  1  0.250000  0.453632  0.397557  1
  Ni  Ni11  1  0.750000  0.548527  0.603116  1
  P  P12  1  0.250000  0.161964  0.948550  1
  P  P13  1  0.750000  0.835930  0.049604  1
  P  P14  1  0.250000  0.668011  0.534105  1
  P  P15  1  0.750000  0.333714  0.467663  1
  P  P16  1  0.250000  0.541160  0.174773  1
  P  P17  1  0.750000  0.460118  0.825395  1
  P  P18  1  0.250000  0.017204  0.327091  1
  P  P19  1  0.750000  0.983689  0.671776  1
