# generated using pymatgen
data_Tb2Fe2P6Ir7Rh
_symmetry_space_group_name_H-M   'P 1'
_cell_length_a   3.93112300
_cell_length_b   10.74857400
_cell_length_c   12.43659500
_cell_angle_alpha   90.00000000
_cell_angle_beta   90.00000000
_cell_angle_gamma   90.00000000
_symmetry_Int_Tables_number   1
_chemical_formula_structural   Tb2Fe2P6Ir7Rh
_chemical_formula_sum   'Tb4 Fe4 P12 Ir14 Rh2'
_cell_volume   525.49546811
_cell_formula_units_Z   2
loop_
 _symmetry_equiv_pos_site_id
 _symmetry_equiv_pos_as_xyz
  1  'x, y, z'
loop_
 _atom_site_type_symbol
 _atom_site_label
 _atom_site_symmetry_multiplicity
 _atom_site_fract_x
 _atom_site_fract_y
 _atom_site_fract_z
 _atom_site_occupancy
  Tb  Tb0  1  0.250000  0.582154  0.711348  1
  Tb  Tb1  1  0.250000  0.917846  0.211348  1
  Tb  Tb2  1  0.750000  0.419485  0.290090  1
  Tb  Tb3  1  0.750000  0.080515  0.790090  1
  Fe  Fe4  1  0.250000  0.455442  0.933706  1
  Fe  Fe5  1  0.250000  0.044558  0.433706  1
  Fe  Fe6  1  0.750000  0.538341  0.067956  1
  Fe  Fe7  1  0.750000  0.961659  0.567956  1
  P  P8  1  0.250000  0.433425  0.105682  1
  P  P9  1  0.250000  0.066575  0.605682  1
  P  P10  1  0.750000  0.568333  0.895759  1
  P  P11  1  0.750000  0.931667  0.395759  1
  P  P12  1  0.250000  0.268628  0.867773  1
  P  P13  1  0.250000  0.231372  0.367773  1
  P  P14  1  0.750000  0.730349  0.129914  1
  P  P15  1  0.750000  0.769651  0.629914  1
  P  P16  1  0.250000  0.599954  0.387762  1
  P  P17  1  0.250000  0.900046  0.887762  1
  P  P18  1  0.750000  0.402286  0.613263  1
  P  P19  1  0.750000  0.097714  0.113263  1
  Ir  Ir20  1  0.750000  0.278907  0.012692  1
  Ir  Ir21  1  0.750000  0.221093  0.512692  1
  Ir  Ir22  1  0.250000  0.407617  0.477646  1
  Ir  Ir23  1  0.250000  0.092383  0.977646  1
  Ir  Ir24  1  0.750000  0.590664  0.521525  1
  Ir  Ir25  1  0.750000  0.909336  0.021525  1
  Ir  Ir26  1  0.250000  0.235743  0.175606  1
  Ir  Ir27  1  0.250000  0.264257  0.675606  1
  Ir  Ir28  1  0.750000  0.765278  0.823127  1
  Ir  Ir29  1  0.750000  0.734722  0.323127  1
  Ir  Ir30  1  0.250000  0.880921  0.700289  1
  Ir  Ir31  1  0.250000  0.619079  0.200289  1
  Ir  Ir32  1  0.750000  0.118707  0.299401  1
  Ir  Ir33  1  0.750000  0.381293  0.799401  1
  Rh  Rh34  1  0.250000  0.719680  0.986460  1
  Rh  Rh35  1  0.250000  0.780320  0.486460  1
