# generated using pymatgen
data_Y4LuZr3Rh4
_symmetry_space_group_name_H-M   'P 1'
_cell_length_a   4.61408300
_cell_length_b   7.10819068
_cell_length_c   8.40169478
_cell_angle_alpha   90.34742461
_cell_angle_beta   90.00000000
_cell_angle_gamma   90.00000000
_symmetry_Int_Tables_number   1
_chemical_formula_structural   Y4LuZr3Rh4
_chemical_formula_sum   'Y4 Lu1 Zr3 Rh4'
_cell_volume   275.55188617
_cell_formula_units_Z   1
loop_
 _symmetry_equiv_pos_site_id
 _symmetry_equiv_pos_as_xyz
  1  'x, y, z'
loop_
 _atom_site_type_symbol
 _atom_site_label
 _atom_site_symmetry_multiplicity
 _atom_site_fract_x
 _atom_site_fract_y
 _atom_site_fract_z
 _atom_site_occupancy
  Y  Y0  1  0.250000  0.983390  0.328578  1
  Y  Y1  1  0.250000  0.488280  0.174794  1
  Y  Y2  1  0.750000  0.016356  0.677998  1
  Y  Y3  1  0.750000  0.514873  0.818710  1
  Lu  Lu4  1  0.750000  0.142456  0.079121  1
  Zr  Zr5  1  0.250000  0.362067  0.573877  1
  Zr  Zr6  1  0.250000  0.854216  0.926604  1
  Zr  Zr7  1  0.750000  0.645308  0.422593  1
  Rh  Rh8  1  0.250000  0.231599  0.901919  1
  Rh  Rh9  1  0.250000  0.730962  0.587987  1
  Rh  Rh10  1  0.750000  0.756981  0.088052  1
  Rh  Rh11  1  0.750000  0.273512  0.419768  1
