# generated using pymatgen
data_BaLuCr4N7
_symmetry_space_group_name_H-M   'P 1'
_cell_length_a   6.22753400
_cell_length_b   6.22753344
_cell_length_c   10.20117500
_cell_angle_alpha   90.00000000
_cell_angle_beta   90.00000000
_cell_angle_gamma   120.00000298
_symmetry_Int_Tables_number   1
_chemical_formula_structural   BaLuCr4N7
_chemical_formula_sum   'Ba2 Lu2 Cr8 N14'
_cell_volume   342.62022196
_cell_formula_units_Z   2
loop_
 _symmetry_equiv_pos_site_id
 _symmetry_equiv_pos_as_xyz
  1  'x, y, z'
loop_
 _atom_site_type_symbol
 _atom_site_label
 _atom_site_symmetry_multiplicity
 _atom_site_fract_x
 _atom_site_fract_y
 _atom_site_fract_z
 _atom_site_occupancy
  Ba  Ba0  1  0.333333  0.666667  0.363784  1
  Ba  Ba1  1  0.666667  0.333333  0.863784  1
  Lu  Lu2  1  0.333333  0.666667  0.736285  1
  Lu  Lu3  1  0.666667  0.333333  0.236285  1
  Cr  Cr4  1  0.829784  0.659567  0.548757  1
  Cr  Cr5  1  0.170216  0.829784  0.048757  1
  Cr  Cr6  1  0.659567  0.829784  0.048757  1
  Cr  Cr7  1  0.340433  0.170216  0.548757  1
  Cr  Cr8  1  0.829784  0.170216  0.548757  1
  Cr  Cr9  1  0.170216  0.340433  0.048757  1
  Cr  Cr10  1  0.000000  0.000000  0.808510  1
  Cr  Cr11  1  0.000000  0.000000  0.308510  1
  N  N12  1  0.000000  0.000000  0.618393  1
  N  N13  1  0.000000  0.000000  0.118393  1
  N  N14  1  0.159133  0.318265  0.868463  1
  N  N15  1  0.840867  0.159133  0.368463  1
  N  N16  1  0.318265  0.159133  0.368463  1
  N  N17  1  0.681735  0.840867  0.868463  1
  N  N18  1  0.159133  0.840867  0.868463  1
  N  N19  1  0.840867  0.681735  0.368463  1
  N  N20  1  0.985579  0.492790  0.605091  1
  N  N21  1  0.492790  0.985579  0.105091  1
  N  N22  1  0.492790  0.507210  0.105091  1
  N  N23  1  0.507210  0.492790  0.605091  1
  N  N24  1  0.014421  0.507210  0.105091  1
  N  N25  1  0.507210  0.014421  0.605091  1
