# generated using pymatgen
data_Y2Er3Ta2Nb(Ni4As3)4
_symmetry_space_group_name_H-M   'P 1'
_cell_length_a   12.65834900
_cell_length_b   12.65834855
_cell_length_c   3.87913200
_cell_angle_alpha   90.00000000
_cell_angle_beta   90.00000000
_cell_angle_gamma   120.00000378
_symmetry_Int_Tables_number   1
_chemical_formula_structural   Y2Er3Ta2Nb(Ni4As3)4
_chemical_formula_sum   'Y2 Er3 Ta2 Nb1 Ni16 As12'
_cell_volume   538.29368959
_cell_formula_units_Z   1
loop_
 _symmetry_equiv_pos_site_id
 _symmetry_equiv_pos_as_xyz
  1  'x, y, z'
loop_
 _atom_site_type_symbol
 _atom_site_label
 _atom_site_symmetry_multiplicity
 _atom_site_fract_x
 _atom_site_fract_y
 _atom_site_fract_z
 _atom_site_occupancy
  Y  Y0  1  0.333314  0.666592  0.000000  1
  Y  Y1  1  0.666686  0.333277  0.000000  1
  Er  Er2  1  0.185568  0.185557  0.500000  1
  Er  Er3  1  0.814432  0.999989  0.500000  1
  Er  Er4  1  0.000000  0.814365  0.500000  1
  Ta  Ta5  1  0.562580  0.562640  0.000000  1
  Ta  Ta6  1  0.437420  0.000060  0.000000  1
  Nb  Nb7  1  0.000000  0.437830  0.000000  1
  Ni  Ni8  1  0.721354  0.721376  0.500000  1
  Ni  Ni9  1  0.278646  0.000022  0.500000  1
  Ni  Ni10  1  0.000000  0.278083  0.500000  1
  Ni  Ni11  1  0.181825  0.374218  0.000000  1
  Ni  Ni12  1  0.625848  0.807136  0.000000  1
  Ni  Ni13  1  0.192791  0.818571  0.000000  1
  Ni  Ni14  1  0.807209  0.625779  0.000000  1
  Ni  Ni15  1  0.818175  0.192391  0.000000  1
  Ni  Ni16  1  0.374152  0.181286  0.000000  1
  Ni  Ni17  1  0.361483  0.483143  0.500000  1
  Ni  Ni18  1  0.516818  0.878323  0.500000  1
  Ni  Ni19  1  0.122019  0.639153  0.500000  1
  Ni  Ni20  1  0.877981  0.517133  0.500000  1
  Ni  Ni21  1  0.638517  0.121659  0.500000  1
  Ni  Ni22  1  0.483182  0.361505  0.500000  1
  Ni  Ni23  1  0.000000  0.000083  0.000000  1
  As  As24  1  0.823044  0.823031  0.000000  1
  As  As25  1  0.176956  0.999987  0.000000  1
  As  As26  1  0.000000  0.177253  0.000000  1
  As  As27  1  0.169036  0.479912  0.500000  1
  As  As28  1  0.519928  0.688954  0.500000  1
  As  As29  1  0.310995  0.830915  0.500000  1
  As  As30  1  0.689005  0.519920  0.500000  1
  As  As31  1  0.830964  0.310876  0.500000  1
  As  As32  1  0.480072  0.169026  0.500000  1
  As  As33  1  0.360324  0.360362  0.000000  1
  As  As34  1  0.639676  0.000038  0.000000  1
  As  As35  1  0.000000  0.639557  0.000000  1
