# generated using pymatgen
data_Yb3Pa5Tl3Pt8Pb
_symmetry_space_group_name_H-M   'P 1'
_cell_length_a   7.93516854
_cell_length_b   7.93865330
_cell_length_c   7.22286659
_cell_angle_alpha   89.96125061
_cell_angle_beta   89.97657767
_cell_angle_gamma   92.50624945
_symmetry_Int_Tables_number   1
_chemical_formula_structural   Yb3Pa5Tl3Pt8Pb
_chemical_formula_sum   'Yb3 Pa5 Tl3 Pt8 Pb1'
_cell_volume   454.56586906
_cell_formula_units_Z   1
loop_
 _symmetry_equiv_pos_site_id
 _symmetry_equiv_pos_as_xyz
  1  'x, y, z'
loop_
 _atom_site_type_symbol
 _atom_site_label
 _atom_site_symmetry_multiplicity
 _atom_site_fract_x
 _atom_site_fract_y
 _atom_site_fract_z
 _atom_site_occupancy
  Yb  Yb0  1  0.177440  0.825045  0.501310  1
  Yb  Yb1  1  0.837300  0.161338  0.999618  1
  Yb  Yb2  1  0.162949  0.838806  0.999111  1
  Pa  Pa3  1  0.679808  0.677776  0.999362  1
  Pa  Pa4  1  0.337565  0.336130  0.500185  1
  Pa  Pa5  1  0.824448  0.174888  0.500281  1
  Pa  Pa6  1  0.661790  0.664024  0.500513  1
  Pa  Pa7  1  0.322962  0.319713  0.999717  1
  Tl  Tl8  1  0.492869  0.996088  0.750698  1
  Tl  Tl9  1  0.493053  0.995597  0.249240  1
  Tl  Tl10  1  0.004124  0.507789  0.751547  1
  Pt  Pt11  1  0.860922  0.871812  0.731660  1
  Pt  Pt12  1  0.128083  0.139459  0.732034  1
  Pt  Pt13  1  0.630906  0.368795  0.757762  1
  Pt  Pt14  1  0.628532  0.367603  0.241501  1
  Pt  Pt15  1  0.382579  0.619548  0.231482  1
  Pt  Pt16  1  0.128426  0.137658  0.267928  1
  Pt  Pt17  1  0.861063  0.871821  0.268613  1
  Pt  Pt18  1  0.381724  0.618558  0.769024  1
  Pb  Pb19  1  0.003455  0.507552  0.248413  1
