# generated using pymatgen
data_La2Ge3Pd
_symmetry_space_group_name_H-M   'P 1'
_cell_length_a   8.63052100
_cell_length_b   8.63052087
_cell_length_c   8.69813000
_cell_angle_alpha   90.00000000
_cell_angle_beta   90.00000000
_cell_angle_gamma   120.00000431
_symmetry_Int_Tables_number   1
_chemical_formula_structural   La2Ge3Pd
_chemical_formula_sum   'La8 Ge12 Pd4'
_cell_volume   561.08741531
_cell_formula_units_Z   4
loop_
 _symmetry_equiv_pos_site_id
 _symmetry_equiv_pos_as_xyz
  1  'x, y, z'
loop_
 _atom_site_type_symbol
 _atom_site_label
 _atom_site_symmetry_multiplicity
 _atom_site_fract_x
 _atom_site_fract_y
 _atom_site_fract_z
 _atom_site_occupancy
  La  La0  1  0.498311  0.501689  0.750000  1
  La  La1  1  0.501689  0.498311  0.250000  1
  La  La2  1  0.003379  0.501689  0.750000  1
  La  La3  1  0.996621  0.498311  0.250000  1
  La  La4  1  0.498311  0.996621  0.750000  1
  La  La5  1  0.501689  0.003379  0.250000  1
  La  La6  1  0.000000  0.000000  0.750000  1
  La  La7  1  0.000000  0.000000  0.250000  1
  Ge  Ge8  1  0.832363  0.167637  0.002902  1
  Ge  Ge9  1  0.167637  0.832363  0.997098  1
  Ge  Ge10  1  0.335275  0.167637  0.002902  1
  Ge  Ge11  1  0.167637  0.832363  0.502902  1
  Ge  Ge12  1  0.664725  0.832363  0.997098  1
  Ge  Ge13  1  0.832363  0.167637  0.497098  1
  Ge  Ge14  1  0.832363  0.664725  0.002902  1
  Ge  Ge15  1  0.664725  0.832363  0.502902  1
  Ge  Ge16  1  0.167637  0.335275  0.997098  1
  Ge  Ge17  1  0.335275  0.167637  0.497098  1
  Ge  Ge18  1  0.167637  0.335275  0.502902  1
  Ge  Ge19  1  0.832363  0.664725  0.497098  1
  Pd  Pd20  1  0.666667  0.333333  0.992533  1
  Pd  Pd21  1  0.333333  0.666667  0.007467  1
  Pd  Pd22  1  0.333333  0.666667  0.492533  1
  Pd  Pd23  1  0.666667  0.333333  0.507467  1
