# generated using pymatgen
data_Sr2LaPrAl6O14
_symmetry_space_group_name_H-M   'P 1'
_cell_length_a   7.94946142
_cell_length_b   7.94946239
_cell_length_c   5.27173512
_cell_angle_alpha   89.91171757
_cell_angle_beta   89.91171867
_cell_angle_gamma   89.88497025
_symmetry_Int_Tables_number   1
_chemical_formula_structural   Sr2LaPrAl6O14
_chemical_formula_sum   'Sr2 La1 Pr1 Al6 O14'
_cell_volume   333.14027660
_cell_formula_units_Z   1
loop_
 _symmetry_equiv_pos_site_id
 _symmetry_equiv_pos_as_xyz
  1  'x, y, z'
loop_
 _atom_site_type_symbol
 _atom_site_label
 _atom_site_symmetry_multiplicity
 _atom_site_fract_x
 _atom_site_fract_y
 _atom_site_fract_z
 _atom_site_occupancy
  Sr  Sr0  1  0.161298  0.838934  0.489561  1
  Sr  Sr1  1  0.838934  0.161298  0.489561  1
  La  La2  1  0.663182  0.663182  0.511200  1
  Pr  Pr3  1  0.337393  0.337393  0.513330  1
  Al  Al4  1  0.357449  0.641860  0.039114  1
  Al  Al5  1  0.855925  0.855925  0.962049  1
  Al  Al6  1  0.641860  0.357449  0.039114  1
  Al  Al7  1  0.144593  0.144593  0.962050  1
  Al  Al8  1  0.499728  0.000596  0.998611  1
  Al  Al9  1  0.000596  0.499728  0.998611  1
  O  O10  1  0.000255  0.000255  0.838237  1
  O  O11  1  0.498982  0.498982  0.188290  1
  O  O12  1  0.416178  0.834469  0.184947  1
  O  O13  1  0.908732  0.661718  0.807998  1
  O  O14  1  0.583023  0.165299  0.186610  1
  O  O15  1  0.092539  0.338864  0.806279  1
  O  O16  1  0.338864  0.092539  0.806279  1
  O  O17  1  0.834469  0.416178  0.184947  1
  O  O18  1  0.661718  0.908732  0.807998  1
  O  O19  1  0.165299  0.583023  0.186610  1
  O  O20  1  0.367342  0.631072  0.706485  1
  O  O21  1  0.848013  0.848013  0.292934  1
  O  O22  1  0.631072  0.367342  0.706485  1
  O  O23  1  0.152556  0.152556  0.292703  1
