# generated using pymatgen
data_Dy9Y7MgZn3Co4
_symmetry_space_group_name_H-M   'P 1'
_cell_length_a   9.44448270
_cell_length_b   9.42179427
_cell_length_c   9.41477700
_cell_angle_alpha   60.02463794
_cell_angle_beta   60.10399464
_cell_angle_gamma   60.20424935
_symmetry_Int_Tables_number   1
_chemical_formula_structural   Dy9Y7MgZn3Co4
_chemical_formula_sum   'Dy9 Y7 Mg1 Zn3 Co4'
_cell_volume   593.87512784
_cell_formula_units_Z   1
loop_
 _symmetry_equiv_pos_site_id
 _symmetry_equiv_pos_as_xyz
  1  'x, y, z'
loop_
 _atom_site_type_symbol
 _atom_site_label
 _atom_site_symmetry_multiplicity
 _atom_site_fract_x
 _atom_site_fract_y
 _atom_site_fract_z
 _atom_site_occupancy
  Dy  Dy0  1  0.348920  0.346427  0.346773  1
  Dy  Dy1  1  0.348920  0.346427  0.957881  1
  Dy  Dy2  1  0.348479  0.958414  0.346553  1
  Dy  Dy3  1  0.948500  0.350533  0.350483  1
  Dy  Dy4  1  0.808260  0.190931  0.190914  1
  Dy  Dy5  1  0.187788  0.812117  0.812433  1
  Dy  Dy6  1  0.187788  0.812117  0.187663  1
  Dy  Dy7  1  0.808260  0.190931  0.809896  1
  Dy  Dy8  1  0.187697  0.187696  0.812304  1
  Y  Y9  1  0.807901  0.809502  0.191298  1
  Y  Y10  1  0.933621  0.561845  0.562582  1
  Y  Y11  1  0.560227  0.938174  0.938006  1
  Y  Y12  1  0.560227  0.938174  0.563595  1
  Y  Y13  1  0.933621  0.561845  0.941951  1
  Y  Y14  1  0.560270  0.562974  0.938378  1
  Y  Y15  1  0.933487  0.942435  0.562039  1
  Mg  Mg16  1  0.288020  0.570652  0.570665  1
  Zn  Zn17  1  0.585000  0.577823  0.577375  1
  Zn  Zn18  1  0.585000  0.577823  0.259802  1
  Zn  Zn19  1  0.584766  0.259777  0.577728  1
  Co  Co20  1  0.138957  0.142687  0.142781  1
  Co  Co21  1  0.138957  0.142687  0.575575  1
  Co  Co22  1  0.141145  0.574405  0.142224  1
  Co  Co23  1  0.574191  0.143607  0.141101  1
