# generated using pymatgen
data_TbNdZn5Ge
_symmetry_space_group_name_H-M   'P 1'
_cell_length_a   8.32414530
_cell_length_b   8.32414531
_cell_length_c   8.82395800
_cell_angle_alpha   90.00000000
_cell_angle_beta   90.00000000
_cell_angle_gamma   149.54946709
_symmetry_Int_Tables_number   1
_chemical_formula_structural   TbNdZn5Ge
_chemical_formula_sum   'Tb2 Nd2 Zn10 Ge2'
_cell_volume   309.86636490
_cell_formula_units_Z   2
loop_
 _symmetry_equiv_pos_site_id
 _symmetry_equiv_pos_as_xyz
  1  'x, y, z'
loop_
 _atom_site_type_symbol
 _atom_site_label
 _atom_site_symmetry_multiplicity
 _atom_site_fract_x
 _atom_site_fract_y
 _atom_site_fract_z
 _atom_site_occupancy
  Tb  Tb0  1  0.201774  0.798226  0.250000  1
  Tb  Tb1  1  0.798226  0.201774  0.750000  1
  Nd  Nd2  1  0.000000  0.000000  0.500000  1
  Nd  Nd3  1  0.000000  0.000000  0.000000  1
  Zn  Zn4  1  0.812925  0.187075  0.392175  1
  Zn  Zn5  1  0.187075  0.812925  0.607825  1
  Zn  Zn6  1  0.812925  0.187075  0.107825  1
  Zn  Zn7  1  0.187075  0.812925  0.892175  1
  Zn  Zn8  1  0.653047  0.346953  0.477136  1
  Zn  Zn9  1  0.346953  0.653047  0.522864  1
  Zn  Zn10  1  0.653047  0.346953  0.022864  1
  Zn  Zn11  1  0.346953  0.653047  0.977136  1
  Zn  Zn12  1  0.400984  0.599016  0.250000  1
  Zn  Zn13  1  0.599016  0.400984  0.750000  1
  Ge  Ge14  1  0.556945  0.443055  0.250000  1
  Ge  Ge15  1  0.443055  0.556945  0.750000  1
