# generated using pymatgen
data_TbY4Ho(RuI3)2
_symmetry_space_group_name_H-M   'P 1'
_cell_length_a   4.23754700
_cell_length_b   8.91474704
_cell_length_c   12.33985264
_cell_angle_alpha   86.19151636
_cell_angle_beta   90.00000000
_cell_angle_gamma   90.00000000
_symmetry_Int_Tables_number   1
_chemical_formula_structural   TbY4Ho(RuI3)2
_chemical_formula_sum   'Tb1 Y4 Ho1 Ru2 I6'
_cell_volume   465.12896875
_cell_formula_units_Z   1
loop_
 _symmetry_equiv_pos_site_id
 _symmetry_equiv_pos_as_xyz
  1  'x, y, z'
loop_
 _atom_site_type_symbol
 _atom_site_label
 _atom_site_symmetry_multiplicity
 _atom_site_fract_x
 _atom_site_fract_y
 _atom_site_fract_z
 _atom_site_occupancy
  Tb  Tb0  1  0.750000  0.131106  0.125094  1
  Y  Y1  1  0.750000  0.098435  0.684812  1
  Y  Y2  1  0.250000  0.901269  0.315466  1
  Y  Y3  1  0.250000  0.261293  0.897144  1
  Y  Y4  1  0.750000  0.738552  0.102547  1
  Ho  Ho5  1  0.250000  0.870037  0.875125  1
  Ru  Ru6  1  0.750000  0.051839  0.907644  1
  Ru  Ru7  1  0.250000  0.947117  0.091922  1
  I  I8  1  0.250000  0.352110  0.636931  1
  I  I9  1  0.750000  0.647852  0.363098  1
  I  I10  1  0.750000  0.141448  0.392657  1
  I  I11  1  0.250000  0.858475  0.607608  1
  I  I12  1  0.250000  0.426592  0.132644  1
  I  I13  1  0.750000  0.573874  0.867308  1
