# generated using pymatgen
data_HgRh2F12
_symmetry_space_group_name_H-M   'P 1'
_cell_length_a   5.32550404
_cell_length_b   5.64524801
_cell_length_c   8.88211100
_cell_angle_alpha   104.66330407
_cell_angle_beta   91.06156228
_cell_angle_gamma   115.64401934
_symmetry_Int_Tables_number   1
_chemical_formula_structural   HgRh2F12
_chemical_formula_sum   'Hg1 Rh2 F12'
_cell_volume   230.36206231
_cell_formula_units_Z   1
loop_
 _symmetry_equiv_pos_site_id
 _symmetry_equiv_pos_as_xyz
  1  'x, y, z'
loop_
 _atom_site_type_symbol
 _atom_site_label
 _atom_site_symmetry_multiplicity
 _atom_site_fract_x
 _atom_site_fract_y
 _atom_site_fract_z
 _atom_site_occupancy
  Hg  Hg0  1  0.500000  0.500000  0.500000  1
  Rh  Rh1  1  0.260041  0.010178  0.759784  1
  Rh  Rh2  1  0.739959  0.989822  0.240216  1
  F  F3  1  0.800814  0.771183  0.362826  1
  F  F4  1  0.199186  0.228817  0.637174  1
  F  F5  1  0.349878  0.768239  0.214061  1
  F  F6  1  0.306955  0.782615  0.866941  1
  F  F7  1  0.693045  0.217385  0.133059  1
  F  F8  1  0.855468  0.777457  0.721290  1
  F  F9  1  0.144532  0.222543  0.278710  1
  F  F10  1  0.281774  0.778503  0.560598  1
  F  F11  1  0.718226  0.221497  0.439402  1
  F  F12  1  0.221047  0.234788  0.941624  1
  F  F13  1  0.778953  0.765212  0.058376  1
  F  F14  1  0.650122  0.231761  0.785939  1
