# generated using pymatgen
data_Ce2CuRu2
_symmetry_space_group_name_H-M   'P 1'
_cell_length_a   5.47520514
_cell_length_b   5.47520546
_cell_length_c   7.20963700
_cell_angle_alpha   90.00000000
_cell_angle_beta   90.00000000
_cell_angle_gamma   115.09571176
_symmetry_Int_Tables_number   1
_chemical_formula_structural   Ce2CuRu2
_chemical_formula_sum   'Ce4 Cu2 Ru4'
_cell_volume   195.72706811
_cell_formula_units_Z   2
loop_
 _symmetry_equiv_pos_site_id
 _symmetry_equiv_pos_as_xyz
  1  'x, y, z'
loop_
 _atom_site_type_symbol
 _atom_site_label
 _atom_site_symmetry_multiplicity
 _atom_site_fract_x
 _atom_site_fract_y
 _atom_site_fract_z
 _atom_site_occupancy
  Ce  Ce0  1  0.341424  0.658576  0.099535  1
  Ce  Ce1  1  0.658576  0.341424  0.900465  1
  Ce  Ce2  1  0.158576  0.841424  0.599535  1
  Ce  Ce3  1  0.841424  0.158576  0.400465  1
  Cu  Cu4  1  0.000000  0.000000  0.000000  1
  Cu  Cu5  1  0.500000  0.500000  0.500000  1
  Ru  Ru6  1  0.872759  0.627241  0.250000  1
  Ru  Ru7  1  0.627241  0.872759  0.750000  1
  Ru  Ru8  1  0.127241  0.372759  0.750000  1
  Ru  Ru9  1  0.372759  0.127241  0.250000  1
