# generated using pymatgen
data_Nd5Dy11MgIn(AgRh2)2
_symmetry_space_group_name_H-M   'P 1'
_cell_length_a   9.67557451
_cell_length_b   9.68095436
_cell_length_c   9.68095400
_cell_angle_alpha   59.99543603
_cell_angle_beta   59.98056687
_cell_angle_gamma   59.98056315
_symmetry_Int_Tables_number   1
_chemical_formula_structural   Nd5Dy11MgIn(AgRh2)2
_chemical_formula_sum   'Nd5 Dy11 Mg1 In1 Ag2 Rh4'
_cell_volume   640.99623618
_cell_formula_units_Z   1
loop_
 _symmetry_equiv_pos_site_id
 _symmetry_equiv_pos_as_xyz
  1  'x, y, z'
loop_
 _atom_site_type_symbol
 _atom_site_label
 _atom_site_symmetry_multiplicity
 _atom_site_fract_x
 _atom_site_fract_y
 _atom_site_fract_z
 _atom_site_occupancy
  Nd  Nd0  1  0.810601  0.188534  0.188534  1
  Nd  Nd1  1  0.813007  0.188812  0.812375  1
  Nd  Nd2  1  0.187912  0.811098  0.185384  1
  Nd  Nd3  1  0.813007  0.812375  0.188812  1
  Nd  Nd4  1  0.187912  0.185384  0.811098  1
  Dy  Dy5  1  0.599435  0.599557  0.599557  1
  Dy  Dy6  1  0.598071  0.599122  0.206128  1
  Dy  Dy7  1  0.598071  0.206128  0.599122  1
  Dy  Dy8  1  0.192826  0.602044  0.602044  1
  Dy  Dy9  1  0.062348  0.436978  0.436978  1
  Dy  Dy10  1  0.434241  0.065112  0.065112  1
  Dy  Dy11  1  0.433493  0.064223  0.436629  1
  Dy  Dy12  1  0.061278  0.438502  0.061961  1
  Dy  Dy13  1  0.433493  0.436629  0.064223  1
  Dy  Dy14  1  0.061278  0.061961  0.438502  1
  Dy  Dy15  1  0.189659  0.809151  0.809151  1
  Mg  Mg16  1  0.538801  0.820072  0.820072  1
  In  In17  1  0.834450  0.828926  0.828926  1
  Ag  Ag18  1  0.831063  0.832126  0.505965  1
  Ag  Ag19  1  0.831063  0.505965  0.832126  1
  Rh  Rh20  1  0.389436  0.394379  0.394379  1
  Rh  Rh21  1  0.388454  0.397899  0.821808  1
  Rh  Rh22  1  0.388454  0.821808  0.397899  1
  Rh  Rh23  1  0.821642  0.393216  0.393216  1
