# generated using pymatgen
data_PrEr19Si15Pd
_symmetry_space_group_name_H-M   'P 1'
_cell_length_a   7.39940823
_cell_length_b   7.63867315
_cell_length_c   14.49784776
_cell_angle_alpha   90.16997265
_cell_angle_beta   90.72064112
_cell_angle_gamma   89.99907488
_symmetry_Int_Tables_number   1
_chemical_formula_structural   PrEr19Si15Pd
_chemical_formula_sum   'Pr1 Er19 Si15 Pd1'
_cell_volume   819.37401469
_cell_formula_units_Z   1
loop_
 _symmetry_equiv_pos_site_id
 _symmetry_equiv_pos_as_xyz
  1  'x, y, z'
loop_
 _atom_site_type_symbol
 _atom_site_label
 _atom_site_symmetry_multiplicity
 _atom_site_fract_x
 _atom_site_fract_y
 _atom_site_fract_z
 _atom_site_occupancy
  Pr  Pr0  1  0.023417  0.820921  0.598368  1
  Er  Er1  1  0.524139  0.677628  0.599516  1
  Er  Er2  1  0.319430  0.820258  0.121893  1
  Er  Er3  1  0.817093  0.678777  0.122629  1
  Er  Er4  1  0.851603  0.505615  0.749785  1
  Er  Er5  1  0.470390  0.316501  0.099449  1
  Er  Er6  1  0.029491  0.816478  0.900683  1
  Er  Er7  1  0.473759  0.321234  0.400254  1
  Er  Er8  1  0.652261  0.011569  0.254332  1
  Er  Er9  1  0.531234  0.681946  0.901145  1
  Er  Er10  1  0.680773  0.179281  0.878850  1
  Er  Er11  1  0.178300  0.322828  0.623782  1
  Er  Er12  1  0.184743  0.323812  0.877522  1
  Er  Er13  1  0.820839  0.681358  0.378356  1
  Er  Er14  1  0.321755  0.824305  0.376906  1
  Er  Er15  1  0.351171  0.990279  0.748351  1
  Er  Er16  1  0.680538  0.170169  0.622038  1
  Er  Er17  1  0.149385  0.489686  0.250505  1
  Er  Er18  1  0.969625  0.183133  0.098864  1
  Er  Er19  1  0.975107  0.179988  0.398706  1
  Si  Si20  1  0.235467  0.626820  0.753159  1
  Si  Si21  1  0.346898  0.034469  0.539896  1
  Si  Si22  1  0.025357  0.894069  0.246947  1
  Si  Si23  1  0.730731  0.870239  0.754517  1
  Si  Si24  1  0.268209  0.128552  0.246284  1
  Si  Si25  1  0.845001  0.464842  0.539195  1
  Si  Si26  1  0.480813  0.392394  0.751077  1
  Si  Si27  1  0.150062  0.526569  0.458234  1
  Si  Si28  1  0.145383  0.528137  0.041431  1
  Si  Si29  1  0.977181  0.109427  0.754099  1
  Si  Si30  1  0.768245  0.374457  0.248445  1
  Si  Si31  1  0.351785  0.029185  0.959709  1
  Si  Si32  1  0.856266  0.472342  0.958803  1
  Si  Si33  1  0.644737  0.971096  0.040425  1
  Si  Si34  1  0.522063  0.605842  0.248038  1
  Pd  Pd35  1  0.646749  0.975790  0.457800  1
