# generated using pymatgen
data_Ho4Th6Ge20IrRh7
_symmetry_space_group_name_H-M   'P 1'
_cell_length_a   13.12230239
_cell_length_b   13.12025741
_cell_length_c   4.38537200
_cell_angle_alpha   90.00000000
_cell_angle_beta   90.00000000
_cell_angle_gamma   89.97166491
_symmetry_Int_Tables_number   1
_chemical_formula_structural   Ho4Th6Ge20IrRh7
_chemical_formula_sum   'Ho4 Th6 Ge20 Ir1 Rh7'
_cell_volume   755.02056926
_cell_formula_units_Z   1
loop_
 _symmetry_equiv_pos_site_id
 _symmetry_equiv_pos_as_xyz
  1  'x, y, z'
loop_
 _atom_site_type_symbol
 _atom_site_label
 _atom_site_symmetry_multiplicity
 _atom_site_fract_x
 _atom_site_fract_y
 _atom_site_fract_z
 _atom_site_occupancy
  Ho  Ho0  1  0.324054  0.824644  0.500000  1
  Ho  Ho1  1  0.824868  0.675727  0.500000  1
  Ho  Ho2  1  0.175710  0.324702  0.500000  1
  Ho  Ho3  1  0.675255  0.175984  0.500000  1
  Th  Th4  1  0.500796  0.500098  0.000000  1
  Th  Th5  1  0.999490  0.999801  0.000000  1
  Th  Th6  1  0.888152  0.388150  0.500000  1
  Th  Th7  1  0.387977  0.111967  0.500000  1
  Th  Th8  1  0.611641  0.888220  0.500000  1
  Th  Th9  1  0.112990  0.610880  0.500000  1
  Ge  Ge10  1  0.432807  0.932831  0.000000  1
  Ge  Ge11  1  0.933778  0.567361  0.000000  1
  Ge  Ge12  1  0.066768  0.431869  0.000000  1
  Ge  Ge13  1  0.566964  0.067251  0.000000  1
  Ge  Ge14  1  0.337899  0.299617  0.000000  1
  Ge  Ge15  1  0.661988  0.700263  0.000000  1
  Ge  Ge16  1  0.700292  0.338402  0.000000  1
  Ge  Ge17  1  0.299611  0.663051  0.000000  1
  Ge  Ge18  1  0.799720  0.838319  0.000000  1
  Ge  Ge19  1  0.837986  0.200095  0.000000  1
  Ge  Ge20  1  0.161257  0.800204  0.000000  1
  Ge  Ge21  1  0.199711  0.161624  0.000000  1
  Ge  Ge22  1  0.339413  0.495915  0.500000  1
  Ge  Ge23  1  0.663299  0.502942  0.500000  1
  Ge  Ge24  1  0.502079  0.337172  0.500000  1
  Ge  Ge25  1  0.496774  0.662600  0.500000  1
  Ge  Ge26  1  0.997930  0.837159  0.500000  1
  Ge  Ge27  1  0.836895  0.002488  0.500000  1
  Ge  Ge28  1  0.002535  0.162663  0.500000  1
  Ge  Ge29  1  0.162164  0.997429  0.500000  1
  Ir  Ir30  1  0.255172  0.476673  0.000000  1
  Rh  Rh31  1  0.744950  0.523729  0.000000  1
  Rh  Rh32  1  0.523546  0.256306  0.000000  1
  Rh  Rh33  1  0.476411  0.744061  0.000000  1
  Rh  Rh34  1  0.976126  0.756021  0.000000  1
  Rh  Rh35  1  0.755551  0.023873  0.000000  1
  Rh  Rh36  1  0.244061  0.976304  0.000000  1
  Rh  Rh37  1  0.023380  0.243603  0.000000  1
