# generated using pymatgen
data_Ti6P2CN
_symmetry_space_group_name_H-M   'P 1'
_cell_length_a   5.31289280
_cell_length_b   5.31289518
_cell_length_c   7.92447666
_cell_angle_alpha   89.57558031
_cell_angle_beta   90.42441975
_cell_angle_gamma   144.82412516
_symmetry_Int_Tables_number   1
_chemical_formula_structural   Ti6P2CN
_chemical_formula_sum   'Ti6 P2 C1 N1'
_cell_volume   128.85721919
_cell_formula_units_Z   1
loop_
 _symmetry_equiv_pos_site_id
 _symmetry_equiv_pos_as_xyz
  1  'x, y, z'
loop_
 _atom_site_type_symbol
 _atom_site_label
 _atom_site_symmetry_multiplicity
 _atom_site_fract_x
 _atom_site_fract_y
 _atom_site_fract_z
 _atom_site_occupancy
  Ti  Ti0  1  0.633329  0.366672  0.052501  1
  Ti  Ti1  1  0.938966  0.061035  0.246899  1
  Ti  Ti2  1  0.632782  0.367219  0.444683  1
  Ti  Ti3  1  0.367219  0.632782  0.555316  1
  Ti  Ti4  1  0.061035  0.938966  0.753101  1
  Ti  Ti5  1  0.366672  0.633329  0.947499  1
  P  P6  1  0.253564  0.746437  0.249609  1
  P  P7  1  0.746437  0.253564  0.750391  1
  C  C8  1  0.000000  0.000000  0.499999  1
  N  N9  1  0.000000  0.000000  0.000000  1
