# generated using pymatgen
data_Rb4HfCr7Se16
_symmetry_space_group_name_H-M   'P 1'
_cell_length_a   6.29718501
_cell_length_b   7.29146600
_cell_length_c   16.92789301
_cell_angle_alpha   90.00000000
_cell_angle_beta   90.00400114
_cell_angle_gamma   90.00000000
_symmetry_Int_Tables_number   1
_chemical_formula_structural   Rb4HfCr7Se16
_chemical_formula_sum   'Rb4 Hf1 Cr7 Se16'
_cell_volume   777.25623051
_cell_formula_units_Z   1
loop_
 _symmetry_equiv_pos_site_id
 _symmetry_equiv_pos_as_xyz
  1  'x, y, z'
loop_
 _atom_site_type_symbol
 _atom_site_label
 _atom_site_symmetry_multiplicity
 _atom_site_fract_x
 _atom_site_fract_y
 _atom_site_fract_z
 _atom_site_occupancy
  Rb  Rb0  1  0.352180  0.000000  0.994960  1
  Rb  Rb1  1  0.633340  0.500000  0.503787  1
  Rb  Rb2  1  0.032122  0.000000  0.503208  1
  Rb  Rb3  1  0.960174  0.500000  0.997488  1
  Hf  Hf4  1  0.005271  0.000000  0.249422  1
  Cr  Cr5  1  0.002399  0.000000  0.749616  1
  Cr  Cr6  1  0.999711  0.500000  0.249969  1
  Cr  Cr7  1  0.996686  0.500000  0.750392  1
  Cr  Cr8  1  0.501496  0.248811  0.250237  1
  Cr  Cr9  1  0.500190  0.750608  0.750038  1
  Cr  Cr10  1  0.501496  0.751189  0.250237  1
  Cr  Cr11  1  0.500190  0.249392  0.750038  1
  Se  Se12  1  0.827919  0.260789  0.339183  1
  Se  Se13  1  0.834686  0.749995  0.665963  1
  Se  Se14  1  0.176837  0.737541  0.160379  1
  Se  Se15  1  0.164607  0.250320  0.833960  1
  Se  Se16  1  0.176837  0.262459  0.160379  1
  Se  Se17  1  0.164607  0.749680  0.833960  1
  Se  Se18  1  0.827919  0.739211  0.339183  1
  Se  Se19  1  0.834686  0.250005  0.665963  1
  Se  Se20  1  0.658402  0.000000  0.160434  1
  Se  Se21  1  0.670981  0.000000  0.833455  1
  Se  Se22  1  0.331697  0.500000  0.332648  1
  Se  Se23  1  0.328483  0.500000  0.667120  1
  Se  Se24  1  0.353091  0.000000  0.340248  1
  Se  Se25  1  0.338936  0.000000  0.666486  1
  Se  Se26  1  0.664888  0.500000  0.167908  1
  Se  Se27  1  0.660167  0.500000  0.833339  1
