# generated using pymatgen
data_Tb5DyMgCo17P12
_symmetry_space_group_name_H-M   'P 1'
_cell_length_a   3.71847400
_cell_length_b   10.56612700
_cell_length_c   12.23912200
_cell_angle_alpha   90.00270388
_cell_angle_beta   90.00000000
_cell_angle_gamma   90.00000000
_symmetry_Int_Tables_number   1
_chemical_formula_structural   Tb5DyMgCo17P12
_chemical_formula_sum   'Tb5 Dy1 Mg1 Co17 P12'
_cell_volume   480.87349404
_cell_formula_units_Z   1
loop_
 _symmetry_equiv_pos_site_id
 _symmetry_equiv_pos_as_xyz
  1  'x, y, z'
loop_
 _atom_site_type_symbol
 _atom_site_label
 _atom_site_symmetry_multiplicity
 _atom_site_fract_x
 _atom_site_fract_y
 _atom_site_fract_z
 _atom_site_occupancy
  Tb  Tb0  1  0.000000  0.500046  0.525266  1
  Tb  Tb1  1  0.500000  0.999957  0.478517  1
  Tb  Tb2  1  0.500000  0.821406  0.207288  1
  Tb  Tb3  1  0.000000  0.682987  0.794471  1
  Tb  Tb4  1  0.000000  0.317045  0.794491  1
  Dy  Dy5  1  0.500000  0.178699  0.207249  1
  Mg  Mg6  1  0.500000  0.499942  0.153204  1
  Co  Co7  1  0.000000  0.999997  0.839012  1
  Co  Co8  1  0.500000  0.499986  0.704183  1
  Co  Co9  1  0.000000  0.000319  0.296005  1
  Co  Co10  1  0.000000  0.499901  0.985947  1
  Co  Co11  1  0.500000  0.000123  0.012468  1
  Co  Co12  1  0.500000  0.329193  0.993156  1
  Co  Co13  1  0.500000  0.670704  0.993025  1
  Co  Co14  1  0.000000  0.163125  0.001947  1
  Co  Co15  1  0.000000  0.836971  0.001846  1
  Co  Co16  1  0.500000  0.295625  0.432606  1
  Co  Co17  1  0.500000  0.704325  0.432770  1
  Co  Co18  1  0.000000  0.202150  0.570474  1
  Co  Co19  1  0.000000  0.797865  0.570546  1
  Co  Co20  1  0.500000  0.880359  0.708870  1
  Co  Co21  1  0.500000  0.119615  0.708858  1
  Co  Co22  1  0.000000  0.622489  0.293427  1
  Co  Co23  1  0.000000  0.377202  0.293227  1
  P  P24  1  0.500000  0.499978  0.883518  1
  P  P25  1  0.000000  0.000271  0.116215  1
  P  P26  1  0.500000  0.500015  0.353446  1
  P  P27  1  0.000000  0.999998  0.655843  1
  P  P28  1  0.500000  0.308858  0.616783  1
  P  P29  1  0.500000  0.691125  0.616838  1
  P  P30  1  0.000000  0.189650  0.385694  1
  P  P31  1  0.000000  0.810320  0.386019  1
  P  P32  1  0.500000  0.849828  0.890561  1
  P  P33  1  0.500000  0.150182  0.890520  1
  P  P34  1  0.000000  0.662519  0.102711  1
  P  P35  1  0.000000  0.337221  0.102997  1
