# generated using pymatgen
data_CaLa2Pt9
_symmetry_space_group_name_H-M   'P 1'
_cell_length_a   9.43203299
_cell_length_b   9.43203324
_cell_length_c   9.43203300
_cell_angle_alpha   34.02773390
_cell_angle_beta   34.02773162
_cell_angle_gamma   34.02773388
_symmetry_Int_Tables_number   1
_chemical_formula_structural   CaLa2Pt9
_chemical_formula_sum   'Ca1 La2 Pt9'
_cell_volume   234.23041293
_cell_formula_units_Z   1
loop_
 _symmetry_equiv_pos_site_id
 _symmetry_equiv_pos_as_xyz
  1  'x, y, z'
loop_
 _atom_site_type_symbol
 _atom_site_label
 _atom_site_symmetry_multiplicity
 _atom_site_fract_x
 _atom_site_fract_y
 _atom_site_fract_z
 _atom_site_occupancy
  Ca  Ca0  1  0.139479  0.139479  0.139479  1
  La  La1  1  0.002493  0.002493  0.002493  1
  La  La2  1  0.857900  0.857900  0.857900  1
  Pt  Pt3  1  0.585825  0.585825  0.081665  1
  Pt  Pt4  1  0.332711  0.332711  0.332711  1
  Pt  Pt5  1  0.919240  0.413882  0.413881  1
  Pt  Pt6  1  0.413882  0.919240  0.413881  1
  Pt  Pt7  1  0.499693  0.499693  0.499693  1
  Pt  Pt8  1  0.585824  0.081665  0.585825  1
  Pt  Pt9  1  0.081665  0.585824  0.585825  1
  Pt  Pt10  1  0.667407  0.667407  0.667407  1
  Pt  Pt11  1  0.413881  0.413881  0.919240  1
