# generated using pymatgen
data_Pr10Zn4(IrRu)3
_symmetry_space_group_name_H-M   'P 1'
_cell_length_a   8.60654843
_cell_length_b   8.57266193
_cell_length_c   8.60654808
_cell_angle_alpha   109.25109038
_cell_angle_beta   109.97150345
_cell_angle_gamma   109.35020621
_symmetry_Int_Tables_number   1
_chemical_formula_structural   Pr10Zn4(IrRu)3
_chemical_formula_sum   'Pr10 Zn4 Ir3 Ru3'
_cell_volume   487.84380266
_cell_formula_units_Z   1
loop_
 _symmetry_equiv_pos_site_id
 _symmetry_equiv_pos_as_xyz
  1  'x, y, z'
loop_
 _atom_site_type_symbol
 _atom_site_label
 _atom_site_symmetry_multiplicity
 _atom_site_fract_x
 _atom_site_fract_y
 _atom_site_fract_z
 _atom_site_occupancy
  Pr  Pr0  1  0.248828  0.683129  0.433820  1
  Pr  Pr1  1  0.750691  0.816871  0.065699  1
  Pr  Pr2  1  0.433364  0.250000  0.683364  1
  Pr  Pr3  1  0.682172  0.435995  0.251548  1
  Pr  Pr4  1  0.065750  0.750000  0.815750  1
  Pr  Pr5  1  0.815553  0.064005  0.746177  1
  Pr  Pr6  1  0.222676  0.221862  0.224347  1
  Pr  Pr7  1  0.499205  0.996857  0.276813  1
  Pr  Pr8  1  0.279956  0.503143  0.002348  1
  Pr  Pr9  1  0.002486  0.278138  0.500814  1
  Zn  Zn10  1  0.589860  0.592321  0.592265  1
  Zn  Zn11  1  0.499181  0.998877  0.907579  1
  Zn  Zn12  1  0.908702  0.501123  0.000305  1
  Zn  Zn13  1  0.999943  0.907679  0.497539  1
  Ir  Ir14  1  0.251001  0.129351  0.879390  1
  Ir  Ir15  1  0.750039  0.370649  0.621650  1
  Ir  Ir16  1  0.875527  0.250000  0.125528  1
  Ru  Ru17  1  0.128496  0.878501  0.250204  1
  Ru  Ru18  1  0.624866  0.750000  0.374866  1
  Ru  Ru19  1  0.371702  0.621498  0.749994  1
