# generated using pymatgen
data_DyTm4CoBi2
_symmetry_space_group_name_H-M   'P 1'
_cell_length_a   7.89640900
_cell_length_b   8.87001200
_cell_length_c   12.29149300
_cell_angle_alpha   90.00000000
_cell_angle_beta   90.00000000
_cell_angle_gamma   90.00000000
_symmetry_Int_Tables_number   1
_chemical_formula_structural   DyTm4CoBi2
_chemical_formula_sum   'Dy4 Tm16 Co4 Bi8'
_cell_volume   860.91144297
_cell_formula_units_Z   4
loop_
 _symmetry_equiv_pos_site_id
 _symmetry_equiv_pos_as_xyz
  1  'x, y, z'
loop_
 _atom_site_type_symbol
 _atom_site_label
 _atom_site_symmetry_multiplicity
 _atom_site_fract_x
 _atom_site_fract_y
 _atom_site_fract_z
 _atom_site_occupancy
  Dy  Dy0  1  0.617830  0.750000  0.310759  1
  Dy  Dy1  1  0.882170  0.750000  0.810759  1
  Dy  Dy2  1  0.382170  0.250000  0.689241  1
  Dy  Dy3  1  0.117830  0.250000  0.189241  1
  Tm  Tm4  1  0.153463  0.750000  0.199826  1
  Tm  Tm5  1  0.346537  0.750000  0.699826  1
  Tm  Tm6  1  0.846537  0.250000  0.800174  1
  Tm  Tm7  1  0.653463  0.250000  0.300174  1
  Tm  Tm8  1  0.444629  0.750000  0.997611  1
  Tm  Tm9  1  0.055371  0.750000  0.497611  1
  Tm  Tm10  1  0.555371  0.250000  0.002389  1
  Tm  Tm11  1  0.944629  0.250000  0.502389  1
  Tm  Tm12  1  0.826439  0.537528  0.063372  1
  Tm  Tm13  1  0.673561  0.962472  0.563372  1
  Tm  Tm14  1  0.173561  0.037528  0.936628  1
  Tm  Tm15  1  0.326439  0.462472  0.436628  1
  Tm  Tm16  1  0.173561  0.462472  0.936628  1
  Tm  Tm17  1  0.326439  0.037528  0.436628  1
  Tm  Tm18  1  0.826439  0.962472  0.063372  1
  Tm  Tm19  1  0.673561  0.537528  0.563372  1
  Co  Co20  1  0.434110  0.750000  0.492316  1
  Co  Co21  1  0.065890  0.750000  0.992316  1
  Co  Co22  1  0.565890  0.250000  0.507684  1
  Co  Co23  1  0.934110  0.250000  0.007684  1
  Bi  Bi24  1  0.930489  0.509029  0.327779  1
  Bi  Bi25  1  0.569511  0.990971  0.827779  1
  Bi  Bi26  1  0.069511  0.009029  0.672221  1
  Bi  Bi27  1  0.430489  0.490971  0.172221  1
  Bi  Bi28  1  0.069511  0.490971  0.672221  1
  Bi  Bi29  1  0.430489  0.009029  0.172221  1
  Bi  Bi30  1  0.930489  0.990971  0.327779  1
  Bi  Bi31  1  0.569511  0.509029  0.827779  1
