# generated using pymatgen
data_HfZr3TiSiSn3
_symmetry_space_group_name_H-M   'P 1'
_cell_length_a   8.61278900
_cell_length_b   8.61278782
_cell_length_c   5.81316500
_cell_angle_alpha   90.00000000
_cell_angle_beta   90.00000000
_cell_angle_gamma   120.00000068
_symmetry_Int_Tables_number   1
_chemical_formula_structural   HfZr3TiSiSn3
_chemical_formula_sum   'Hf2 Zr6 Ti2 Si2 Sn6'
_cell_volume   373.44859942
_cell_formula_units_Z   2
loop_
 _symmetry_equiv_pos_site_id
 _symmetry_equiv_pos_as_xyz
  1  'x, y, z'
loop_
 _atom_site_type_symbol
 _atom_site_label
 _atom_site_symmetry_multiplicity
 _atom_site_fract_x
 _atom_site_fract_y
 _atom_site_fract_z
 _atom_site_occupancy
  Hf  Hf0  1  0.333333  0.666667  0.500000  1
  Hf  Hf1  1  0.666667  0.333333  0.500000  1
  Zr  Zr2  1  0.741797  0.741797  0.747096  1
  Zr  Zr3  1  0.258203  0.000000  0.747096  1
  Zr  Zr4  1  0.000000  0.258203  0.747096  1
  Zr  Zr5  1  0.258203  0.258203  0.252904  1
  Zr  Zr6  1  0.741797  0.000000  0.252904  1
  Zr  Zr7  1  0.000000  0.741797  0.252904  1
  Ti  Ti8  1  0.666667  0.333333  0.000000  1
  Ti  Ti9  1  0.333333  0.666667  0.000000  1
  Si  Si10  1  0.000000  0.000000  0.000000  1
  Si  Si11  1  0.000000  0.000000  0.500000  1
  Sn  Sn12  1  0.396767  0.396767  0.758013  1
  Sn  Sn13  1  0.603233  0.000000  0.758013  1
  Sn  Sn14  1  0.000000  0.603233  0.758013  1
  Sn  Sn15  1  0.603233  0.603233  0.241987  1
  Sn  Sn16  1  0.396767  0.000000  0.241987  1
  Sn  Sn17  1  0.000000  0.396767  0.241987  1
