# generated using pymatgen
data_Ti2ReP2Pd
_symmetry_space_group_name_H-M   'P 1'
_cell_length_a   3.77035100
_cell_length_b   6.22901842
_cell_length_c   7.36574489
_cell_angle_alpha   91.32279634
_cell_angle_beta   90.00000000
_cell_angle_gamma   90.00000000
_symmetry_Int_Tables_number   1
_chemical_formula_structural   Ti2ReP2Pd
_chemical_formula_sum   'Ti4 Re2 P4 Pd2'
_cell_volume   172.94273288
_cell_formula_units_Z   2
loop_
 _symmetry_equiv_pos_site_id
 _symmetry_equiv_pos_as_xyz
  1  'x, y, z'
loop_
 _atom_site_type_symbol
 _atom_site_label
 _atom_site_symmetry_multiplicity
 _atom_site_fract_x
 _atom_site_fract_y
 _atom_site_fract_z
 _atom_site_occupancy
  Ti  Ti0  1  0.250000  0.537592  0.165249  1
  Ti  Ti1  1  0.750000  0.462408  0.834751  1
  Ti  Ti2  1  0.750000  0.978194  0.675554  1
  Ti  Ti3  1  0.250000  0.021806  0.324446  1
  Re  Re4  1  0.750000  0.847320  0.056758  1
  Re  Re5  1  0.250000  0.152680  0.943242  1
  P  P6  1  0.250000  0.763424  0.873363  1
  P  P7  1  0.750000  0.236576  0.126637  1
  P  P8  1  0.750000  0.751391  0.367420  1
  P  P9  1  0.250000  0.248609  0.632580  1
  Pd  Pd10  1  0.250000  0.646071  0.565304  1
  Pd  Pd11  1  0.750000  0.353929  0.434696  1
