# generated using pymatgen
data_Dy3Y17Ir11Ru
_symmetry_space_group_name_H-M   'P 1'
_cell_length_a   10.91328100
_cell_length_b   10.91394600
_cell_length_c   6.41208300
_cell_angle_alpha   90.00000000
_cell_angle_beta   90.00000000
_cell_angle_gamma   89.99899201
_symmetry_Int_Tables_number   1
_chemical_formula_structural   Dy3Y17Ir11Ru
_chemical_formula_sum   'Dy3 Y17 Ir11 Ru1'
_cell_volume   763.72371024
_cell_formula_units_Z   1
loop_
 _symmetry_equiv_pos_site_id
 _symmetry_equiv_pos_as_xyz
  1  'x, y, z'
loop_
 _atom_site_type_symbol
 _atom_site_label
 _atom_site_symmetry_multiplicity
 _atom_site_fract_x
 _atom_site_fract_y
 _atom_site_fract_z
 _atom_site_occupancy
  Dy  Dy0  1  0.000000  0.000000  0.999013  1
  Dy  Dy1  1  0.500000  0.500000  0.999029  1
  Dy  Dy2  1  0.500000  0.500000  0.499074  1
  Y  Y3  1  0.292407  0.087406  0.377753  1
  Y  Y4  1  0.292742  0.912666  0.880465  1
  Y  Y5  1  0.707258  0.087334  0.880465  1
  Y  Y6  1  0.707593  0.912594  0.377753  1
  Y  Y7  1  0.587301  0.792776  0.880609  1
  Y  Y8  1  0.587373  0.207643  0.377687  1
  Y  Y9  1  0.412627  0.792357  0.377687  1
  Y  Y10  1  0.412699  0.207224  0.880609  1
  Y  Y11  1  0.208959  0.411370  0.621270  1
  Y  Y12  1  0.208922  0.588237  0.120799  1
  Y  Y13  1  0.791078  0.411763  0.120799  1
  Y  Y14  1  0.791041  0.588630  0.621270  1
  Y  Y15  1  0.911724  0.708971  0.120988  1
  Y  Y16  1  0.911336  0.291089  0.621223  1
  Y  Y17  1  0.088664  0.708911  0.621223  1
  Y  Y18  1  0.088276  0.291029  0.120988  1
  Y  Y19  1  0.000000  0.000000  0.498999  1
  Ir  Ir20  1  0.847508  0.153449  0.248976  1
  Ir  Ir21  1  0.847430  0.847062  0.750589  1
  Ir  Ir22  1  0.152570  0.152938  0.750589  1
  Ir  Ir23  1  0.152492  0.846551  0.248976  1
  Ir  Ir24  1  0.652535  0.347954  0.749721  1
  Ir  Ir25  1  0.652921  0.652092  0.249852  1
  Ir  Ir26  1  0.347079  0.347908  0.249852  1
  Ir  Ir27  1  0.347465  0.652046  0.749721  1
  Ir  Ir28  1  0.500000  0.000000  0.624919  1
  Ir  Ir29  1  0.000000  0.500000  0.876178  1
  Ir  Ir30  1  0.000000  0.500000  0.376474  1
  Ru  Ru31  1  0.500000  0.000000  0.126453  1
