# generated using pymatgen
data_Hf7ScTi9Si16Mo3
_symmetry_space_group_name_H-M   'P 1'
_cell_length_a   6.58780421
_cell_length_b   6.74988103
_cell_length_c   12.89802209
_cell_angle_alpha   90.00515047
_cell_angle_beta   89.93515104
_cell_angle_gamma   90.00774366
_symmetry_Int_Tables_number   1
_chemical_formula_structural   Hf7ScTi9Si16Mo3
_chemical_formula_sum   'Hf7 Sc1 Ti9 Si16 Mo3'
_cell_volume   573.53461520
_cell_formula_units_Z   1
loop_
 _symmetry_equiv_pos_site_id
 _symmetry_equiv_pos_as_xyz
  1  'x, y, z'
loop_
 _atom_site_type_symbol
 _atom_site_label
 _atom_site_symmetry_multiplicity
 _atom_site_fract_x
 _atom_site_fract_y
 _atom_site_fract_z
 _atom_site_occupancy
  Hf  Hf0  1  0.002540  0.826139  0.905043  1
  Hf  Hf1  1  0.502070  0.674199  0.905786  1
  Hf  Hf2  1  0.003101  0.826988  0.594379  1
  Hf  Hf3  1  0.498412  0.327543  0.093686  1
  Hf  Hf4  1  0.995690  0.173419  0.405817  1
  Hf  Hf5  1  0.497347  0.327146  0.406480  1
  Hf  Hf6  1  0.502207  0.674041  0.593841  1
  Sc  Sc7  1  0.996417  0.173189  0.094476  1
  Ti  Ti8  1  0.163076  0.493789  0.749714  1
  Ti  Ti9  1  0.335627  0.170902  0.624986  1
  Ti  Ti10  1  0.664425  0.830113  0.375394  1
  Ti  Ti11  1  0.164984  0.670143  0.375190  1
  Ti  Ti12  1  0.664254  0.829526  0.124792  1
  Ti  Ti13  1  0.834833  0.328780  0.624815  1
  Ti  Ti14  1  0.335637  0.170841  0.874849  1
  Ti  Ti15  1  0.834081  0.329400  0.874700  1
  Ti  Ti16  1  0.165945  0.670164  0.125326  1
  Si  Si17  1  0.037203  0.117497  0.750122  1
  Si  Si18  1  0.963972  0.883321  0.249831  1
  Si  Si19  1  0.464377  0.616471  0.250205  1
  Si  Si20  1  0.536146  0.383611  0.750061  1
  Si  Si21  1  0.296358  0.861501  0.750032  1
  Si  Si22  1  0.702691  0.138146  0.249563  1
  Si  Si23  1  0.202576  0.360459  0.249567  1
  Si  Si24  1  0.798281  0.636518  0.749952  1
  Si  Si25  1  0.170511  0.461670  0.539030  1
  Si  Si26  1  0.830033  0.538665  0.460916  1
  Si  Si27  1  0.329044  0.961949  0.461111  1
  Si  Si28  1  0.830397  0.538319  0.039099  1
  Si  Si29  1  0.670759  0.038628  0.539334  1
  Si  Si30  1  0.170824  0.461932  0.961095  1
  Si  Si31  1  0.668789  0.037755  0.960103  1
  Si  Si32  1  0.329268  0.962757  0.039041  1
  Mo  Mo33  1  0.837347  0.506627  0.251235  1
  Mo  Mo34  1  0.338389  0.993412  0.250573  1
  Mo  Mo35  1  0.662389  0.004442  0.749857  1
