# generated using pymatgen
data_LiLu2(Co3P2)3
_symmetry_space_group_name_H-M   'P 1'
_cell_length_a   3.64185700
_cell_length_b   10.19716600
_cell_length_c   11.76332200
_cell_angle_alpha   90.00000000
_cell_angle_beta   90.00000000
_cell_angle_gamma   90.00000000
_symmetry_Int_Tables_number   1
_chemical_formula_structural   LiLu2(Co3P2)3
_chemical_formula_sum   'Li2 Lu4 Co18 P12'
_cell_volume   436.85002349
_cell_formula_units_Z   2
loop_
 _symmetry_equiv_pos_site_id
 _symmetry_equiv_pos_as_xyz
  1  'x, y, z'
loop_
 _atom_site_type_symbol
 _atom_site_label
 _atom_site_symmetry_multiplicity
 _atom_site_fract_x
 _atom_site_fract_y
 _atom_site_fract_z
 _atom_site_occupancy
  Li  Li0  1  0.250000  0.704351  0.990617  1
  Li  Li1  1  0.250000  0.795649  0.490617  1
  Lu  Lu2  1  0.250000  0.580037  0.702622  1
  Lu  Lu3  1  0.250000  0.919963  0.202622  1
  Lu  Lu4  1  0.750000  0.419223  0.297502  1
  Lu  Lu5  1  0.750000  0.080777  0.797502  1
  Co  Co6  1  0.750000  0.287717  0.008819  1
  Co  Co7  1  0.750000  0.212283  0.508819  1
  Co  Co8  1  0.250000  0.404377  0.486316  1
  Co  Co9  1  0.250000  0.095623  0.986316  1
  Co  Co10  1  0.750000  0.591186  0.515484  1
  Co  Co11  1  0.750000  0.908814  0.015484  1
  Co  Co12  1  0.250000  0.223402  0.175482  1
  Co  Co13  1  0.250000  0.276598  0.675482  1
  Co  Co14  1  0.750000  0.780722  0.825504  1
  Co  Co15  1  0.750000  0.719278  0.325504  1
  Co  Co16  1  0.250000  0.882075  0.698891  1
  Co  Co17  1  0.250000  0.617925  0.198891  1
  Co  Co18  1  0.750000  0.119683  0.299603  1
  Co  Co19  1  0.750000  0.380317  0.799603  1
  Co  Co20  1  0.250000  0.464189  0.931262  1
  Co  Co21  1  0.250000  0.035811  0.431262  1
  Co  Co22  1  0.750000  0.532873  0.066847  1
  Co  Co23  1  0.750000  0.967127  0.566847  1
  P  P24  1  0.250000  0.421270  0.112988  1
  P  P25  1  0.250000  0.078730  0.612988  1
  P  P26  1  0.750000  0.578443  0.883356  1
  P  P27  1  0.750000  0.921557  0.383356  1
  P  P28  1  0.250000  0.266963  0.867181  1
  P  P29  1  0.250000  0.233037  0.367181  1
  P  P30  1  0.750000  0.731393  0.137577  1
  P  P31  1  0.750000  0.768607  0.637577  1
  P  P32  1  0.250000  0.599272  0.391806  1
  P  P33  1  0.250000  0.900728  0.891806  1
  P  P34  1  0.750000  0.397671  0.608140  1
  P  P35  1  0.750000  0.102329  0.108140  1
