# generated using pymatgen
data_Hf6Zr4ZnSn6P
_symmetry_space_group_name_H-M   'P 1'
_cell_length_a   8.64729822
_cell_length_b   8.65323069
_cell_length_c   5.85910900
_cell_angle_alpha   89.97418349
_cell_angle_beta   90.01291380
_cell_angle_gamma   120.02269046
_symmetry_Int_Tables_number   1
_chemical_formula_structural   Hf6Zr4ZnSn6P
_chemical_formula_sum   'Hf6 Zr4 Zn1 Sn6 P1'
_cell_volume   379.59592293
_cell_formula_units_Z   1
loop_
 _symmetry_equiv_pos_site_id
 _symmetry_equiv_pos_as_xyz
  1  'x, y, z'
loop_
 _atom_site_type_symbol
 _atom_site_label
 _atom_site_symmetry_multiplicity
 _atom_site_fract_x
 _atom_site_fract_y
 _atom_site_fract_z
 _atom_site_occupancy
  Hf  Hf0  1  0.666717  0.333488  0.998621  1
  Hf  Hf1  1  0.333283  0.666772  0.998621  1
  Hf  Hf2  1  0.333528  0.667268  0.501447  1
  Hf  Hf3  1  0.666472  0.333740  0.501447  1
  Hf  Hf4  1  0.735747  0.736882  0.739240  1
  Hf  Hf5  1  0.264253  0.001136  0.739240  1
  Zr  Zr6  1  0.000000  0.263612  0.741023  1
  Zr  Zr7  1  0.256844  0.256161  0.260004  1
  Zr  Zr8  1  0.743156  0.999317  0.260004  1
  Zr  Zr9  1  0.000000  0.742726  0.260265  1
  Zn  Zn10  1  0.000000  0.998566  0.990403  1
  Sn  Sn11  1  0.390676  0.390550  0.754312  1
  Sn  Sn12  1  0.609324  0.999874  0.754312  1
  Sn  Sn13  1  0.000000  0.611560  0.754927  1
  Sn  Sn14  1  0.606423  0.606476  0.245591  1
  Sn  Sn15  1  0.393577  0.000053  0.245591  1
  Sn  Sn16  1  0.000000  0.393062  0.246009  1
  P  P17  1  0.000000  0.998752  0.508942  1
