# generated using pymatgen
data_TbZr4Bi3F28
_symmetry_space_group_name_H-M   'P 1'
_cell_length_a   5.84292385
_cell_length_b   9.32386346
_cell_length_c   12.47171595
_cell_angle_alpha   62.03442725
_cell_angle_beta   89.98545634
_cell_angle_gamma   89.96587706
_symmetry_Int_Tables_number   1
_chemical_formula_structural   TbZr4Bi3F28
_chemical_formula_sum   'Tb1 Zr4 Bi3 F28'
_cell_volume   600.10306288
_cell_formula_units_Z   1
loop_
 _symmetry_equiv_pos_site_id
 _symmetry_equiv_pos_as_xyz
  1  'x, y, z'
loop_
 _atom_site_type_symbol
 _atom_site_label
 _atom_site_symmetry_multiplicity
 _atom_site_fract_x
 _atom_site_fract_y
 _atom_site_fract_z
 _atom_site_occupancy
  Tb  Tb0  1  0.756421  0.812554  0.765503  1
  Zr  Zr1  1  0.744513  0.271287  0.457244  1
  Zr  Zr2  1  0.244340  0.725006  0.041408  1
  Zr  Zr3  1  0.256327  0.725298  0.548035  1
  Zr  Zr4  1  0.756231  0.278228  0.953729  1
  Bi  Bi5  1  0.742020  0.815745  0.264093  1
  Bi  Bi6  1  0.242518  0.181811  0.236565  1
  Bi  Bi7  1  0.257727  0.177850  0.736215  1
  F  F8  1  0.466699  0.714377  0.918950  1
  F  F9  1  0.960394  0.287977  0.578342  1
  F  F10  1  0.541245  0.290354  0.077301  1
  F  F11  1  0.040300  0.713000  0.424993  1
  F  F12  1  0.454570  0.279532  0.546890  1
  F  F13  1  0.958232  0.721612  0.945881  1
  F  F14  1  0.542995  0.721138  0.454073  1
  F  F15  1  0.044341  0.283556  0.045658  1
  F  F16  1  0.765376  0.526100  0.857801  1
  F  F17  1  0.267771  0.481589  0.642675  1
  F  F18  1  0.230567  0.480937  0.138726  1
  F  F19  1  0.731599  0.517259  0.360589  1
  F  F20  1  0.760277  0.029897  0.057600  1
  F  F21  1  0.260263  0.974008  0.443253  1
  F  F22  1  0.239369  0.973813  0.941835  1
  F  F23  1  0.740530  0.024223  0.561789  1
  F  F24  1  0.989572  0.737120  0.650613  1
  F  F25  1  0.487498  0.266163  0.854363  1
  F  F26  1  0.014706  0.264891  0.355436  1
  F  F27  1  0.513328  0.734799  0.142123  1
  F  F28  1  0.038781  0.747481  0.166517  1
  F  F29  1  0.541186  0.250985  0.330065  1
  F  F30  1  0.960319  0.254799  0.829033  1
  F  F31  1  0.468149  0.749313  0.671638  1
  F  F32  1  0.417796  0.968439  0.232143  1
  F  F33  1  0.916612  0.029084  0.267949  1
  F  F34  1  0.576178  0.021432  0.766457  1
  F  F35  1  0.071247  0.968345  0.734514  1
