# generated using pymatgen
data_Hf12Re6Ir5Os
_symmetry_space_group_name_H-M   'P 1'
_cell_length_a   4.61427300
_cell_length_b   6.54020300
_cell_length_c   13.90041400
_cell_angle_alpha   90.00000000
_cell_angle_beta   89.99972332
_cell_angle_gamma   90.00000000
_symmetry_Int_Tables_number   1
_chemical_formula_structural   Hf12Re6Ir5Os
_chemical_formula_sum   'Hf12 Re6 Ir5 Os1'
_cell_volume   419.49061524
_cell_formula_units_Z   1
loop_
 _symmetry_equiv_pos_site_id
 _symmetry_equiv_pos_as_xyz
  1  'x, y, z'
loop_
 _atom_site_type_symbol
 _atom_site_label
 _atom_site_symmetry_multiplicity
 _atom_site_fract_x
 _atom_site_fract_y
 _atom_site_fract_z
 _atom_site_occupancy
  Hf  Hf0  1  0.500002  0.250952  0.998521  1
  Hf  Hf1  1  0.500002  0.749047  0.998521  1
  Hf  Hf2  1  0.999995  0.250182  0.166346  1
  Hf  Hf3  1  0.999995  0.749818  0.166346  1
  Hf  Hf4  1  0.499999  0.249833  0.333336  1
  Hf  Hf5  1  0.499999  0.750167  0.333336  1
  Hf  Hf6  1  0.999992  0.250177  0.500321  1
  Hf  Hf7  1  0.999992  0.749824  0.500321  1
  Hf  Hf8  1  0.500009  0.250956  0.668146  1
  Hf  Hf9  1  0.500009  0.749044  0.668146  1
  Hf  Hf10  1  0.000012  0.252663  0.833333  1
  Hf  Hf11  1  0.000012  0.747337  0.833333  1
  Re  Re12  1  0.999996  0.500000  0.001079  1
  Re  Re13  1  0.499994  0.000000  0.167112  1
  Re  Re14  1  0.000006  0.500000  0.333327  1
  Re  Re15  1  0.499999  0.000000  0.499568  1
  Re  Re16  1  0.999994  0.500000  0.665576  1
  Re  Re17  1  0.499996  0.000000  0.833337  1
  Ir  Ir18  1  0.999990  0.000000  0.000377  1
  Ir  Ir19  1  0.499989  0.500000  0.167038  1
  Ir  Ir20  1  0.999992  0.000000  0.333330  1
  Ir  Ir21  1  0.500002  0.500000  0.499624  1
  Ir  Ir22  1  0.000008  0.000000  0.666294  1
  Os  Os23  1  0.500012  0.500000  0.833328  1
