# generated using pymatgen
data_TbLu7(CdNi)2
_symmetry_space_group_name_H-M   'P 1'
_cell_length_a   9.39199415
_cell_length_b   9.39199385
_cell_length_c   9.39534000
_cell_angle_alpha   59.98822080
_cell_angle_beta   59.98822187
_cell_angle_gamma   59.98527352
_symmetry_Int_Tables_number   1
_chemical_formula_structural   TbLu7(CdNi)2
_chemical_formula_sum   'Tb2 Lu14 Cd4 Ni4'
_cell_volume   585.85134715
_cell_formula_units_Z   2
loop_
 _symmetry_equiv_pos_site_id
 _symmetry_equiv_pos_as_xyz
  1  'x, y, z'
loop_
 _atom_site_type_symbol
 _atom_site_label
 _atom_site_symmetry_multiplicity
 _atom_site_fract_x
 _atom_site_fract_y
 _atom_site_fract_z
 _atom_site_occupancy
  Tb  Tb0  1  0.348189  0.348189  0.349271  1
  Tb  Tb1  1  0.348189  0.348189  0.954351  1
  Lu  Lu2  1  0.347845  0.954899  0.348627  1
  Lu  Lu3  1  0.954899  0.347845  0.348627  1
  Lu  Lu4  1  0.812420  0.188148  0.187745  1
  Lu  Lu5  1  0.188148  0.812420  0.811688  1
  Lu  Lu6  1  0.188148  0.812420  0.187745  1
  Lu  Lu7  1  0.812420  0.188148  0.811688  1
  Lu  Lu8  1  0.187483  0.187483  0.812517  1
  Lu  Lu9  1  0.811552  0.811552  0.188448  1
  Lu  Lu10  1  0.935890  0.564056  0.564012  1
  Lu  Lu11  1  0.564056  0.935890  0.936042  1
  Lu  Lu12  1  0.564056  0.935890  0.564012  1
  Lu  Lu13  1  0.935890  0.564056  0.936042  1
  Lu  Lu14  1  0.564351  0.564351  0.935649  1
  Lu  Lu15  1  0.936335  0.936335  0.563665  1
  Cd  Cd16  1  0.582282  0.582282  0.580621  1
  Cd  Cd17  1  0.582282  0.582282  0.254814  1
  Cd  Cd18  1  0.582957  0.254427  0.581308  1
  Cd  Cd19  1  0.254427  0.582957  0.581308  1
  Ni  Ni20  1  0.141140  0.141140  0.143190  1
  Ni  Ni21  1  0.141140  0.141140  0.574532  1
  Ni  Ni22  1  0.140138  0.575764  0.142049  1
  Ni  Ni23  1  0.575764  0.140138  0.142049  1
