# generated using pymatgen
data_TmSb31
_symmetry_space_group_name_H-M   'P 1'
_cell_length_a   8.91399894
_cell_length_b   8.68858300
_cell_length_c   13.34644262
_cell_angle_alpha   90.00000000
_cell_angle_beta   88.42408669
_cell_angle_gamma   90.00000000
_symmetry_Int_Tables_number   1
_chemical_formula_structural   TmSb31
_chemical_formula_sum   'Tm1 Sb31'
_cell_volume   1033.29126831
_cell_formula_units_Z   1
loop_
 _symmetry_equiv_pos_site_id
 _symmetry_equiv_pos_as_xyz
  1  'x, y, z'
loop_
 _atom_site_type_symbol
 _atom_site_label
 _atom_site_symmetry_multiplicity
 _atom_site_fract_x
 _atom_site_fract_y
 _atom_site_fract_z
 _atom_site_occupancy
  Tm  Tm0  1  0.576088  0.250000  0.675563  1
  Sb  Sb1  1  0.986305  0.250000  0.537189  1
  Sb  Sb2  1  0.986664  0.750000  0.519478  1
  Sb  Sb3  1  0.501887  0.750000  0.967671  1
  Sb  Sb4  1  0.500235  0.250000  0.950910  1
  Sb  Sb5  1  0.493445  0.250000  0.205724  1
  Sb  Sb6  1  0.496336  0.750000  0.744133  1
  Sb  Sb7  1  0.023952  0.750000  0.788882  1
  Sb  Sb8  1  0.990068  0.250000  0.260405  1
  Sb  Sb9  1  0.994400  0.250000  0.755664  1
  Sb  Sb10  1  0.996754  0.750000  0.292978  1
  Sb  Sb11  1  0.497584  0.750000  0.242958  1
  Sb  Sb12  1  0.216623  0.994389  0.018196  1
  Sb  Sb13  1  0.711692  0.007293  0.997799  1
  Sb  Sb14  1  0.210502  0.995048  0.519641  1
  Sb  Sb15  1  0.711692  0.492707  0.997799  1
  Sb  Sb16  1  0.697983  0.006514  0.493819  1
  Sb  Sb17  1  0.216623  0.505611  0.018196  1
  Sb  Sb18  1  0.697983  0.493486  0.493819  1
  Sb  Sb19  1  0.210502  0.504952  0.519641  1
  Sb  Sb20  1  0.477961  0.250000  0.447440  1
  Sb  Sb21  1  0.486312  0.750000  0.467697  1
  Sb  Sb22  1  0.998055  0.750000  0.016029  1
  Sb  Sb23  1  0.994260  0.250000  0.041175  1
  Sb  Sb24  1  0.277900  0.996231  0.231269  1
  Sb  Sb25  1  0.788631  0.990043  0.783783  1
  Sb  Sb26  1  0.316545  0.023547  0.722831  1
  Sb  Sb27  1  0.788631  0.509957  0.783783  1
  Sb  Sb28  1  0.779970  0.996082  0.275716  1
  Sb  Sb29  1  0.277900  0.503769  0.231269  1
  Sb  Sb30  1  0.779970  0.503918  0.275716  1
  Sb  Sb31  1  0.316545  0.476453  0.722831  1
