# generated using pymatgen
data_Lu16Sc4SnBi11
_symmetry_space_group_name_H-M   'P 1'
_cell_length_a   8.00323620
_cell_length_b   9.30305300
_cell_length_c   11.72960633
_cell_angle_alpha   90.00000000
_cell_angle_beta   89.80852681
_cell_angle_gamma   90.00000000
_symmetry_Int_Tables_number   1
_chemical_formula_structural   Lu16Sc4SnBi11
_chemical_formula_sum   'Lu16 Sc4 Sn1 Bi11'
_cell_volume   873.31745644
_cell_formula_units_Z   1
loop_
 _symmetry_equiv_pos_site_id
 _symmetry_equiv_pos_as_xyz
  1  'x, y, z'
loop_
 _atom_site_type_symbol
 _atom_site_label
 _atom_site_symmetry_multiplicity
 _atom_site_fract_x
 _atom_site_fract_y
 _atom_site_fract_z
 _atom_site_occupancy
  Lu  Lu0  1  0.355207  0.250000  0.286634  1
  Lu  Lu1  1  0.645515  0.750000  0.717621  1
  Lu  Lu2  1  0.145429  0.750000  0.782663  1
  Lu  Lu3  1  0.855630  0.250000  0.217042  1
  Lu  Lu4  1  0.189189  0.250000  0.778560  1
  Lu  Lu5  1  0.812848  0.750000  0.217883  1
  Lu  Lu6  1  0.313364  0.750000  0.281581  1
  Lu  Lu7  1  0.682736  0.250000  0.715612  1
  Lu  Lu8  1  0.195324  0.067415  0.059146  1
  Lu  Lu9  1  0.804668  0.932524  0.941176  1
  Lu  Lu10  1  0.304788  0.937347  0.558873  1
  Lu  Lu11  1  0.804668  0.567476  0.941176  1
  Lu  Lu12  1  0.692042  0.069916  0.442557  1
  Lu  Lu13  1  0.195324  0.432585  0.059146  1
  Lu  Lu14  1  0.692042  0.430084  0.442557  1
  Lu  Lu15  1  0.304788  0.562653  0.558873  1
  Sc  Sc16  1  0.029133  0.250000  0.511909  1
  Sc  Sc17  1  0.976895  0.750000  0.488267  1
  Sc  Sc18  1  0.476187  0.750000  0.011615  1
  Sc  Sc19  1  0.523964  0.250000  0.988442  1
  Sn  Sn20  1  0.401646  0.250000  0.543212  1
  Bi  Bi21  1  0.599176  0.750000  0.456729  1
  Bi  Bi22  1  0.099618  0.750000  0.043239  1
  Bi  Bi23  1  0.901281  0.250000  0.955506  1
  Bi  Bi24  1  0.065199  0.003208  0.328177  1
  Bi  Bi25  1  0.934097  0.996294  0.671421  1
  Bi  Bi26  1  0.434297  0.995984  0.828936  1
  Bi  Bi27  1  0.934097  0.503706  0.671421  1
  Bi  Bi28  1  0.565677  0.004067  0.171456  1
  Bi  Bi29  1  0.065199  0.496792  0.328177  1
  Bi  Bi30  1  0.565677  0.495933  0.171456  1
  Bi  Bi31  1  0.434297  0.504016  0.828936  1
