# generated using pymatgen
data_Li2CeNpN4
_symmetry_space_group_name_H-M   'P 1'
_cell_length_a   22.62501454
_cell_length_b   4.33047502
_cell_length_c   4.45635500
_cell_angle_alpha   89.99998769
_cell_angle_beta   89.99931530
_cell_angle_gamma   90.07567002
_symmetry_Int_Tables_number   1
_chemical_formula_structural   Li2CeNpN4
_chemical_formula_sum   'Li8 Ce4 Np4 N16'
_cell_volume   436.62018217
_cell_formula_units_Z   4
loop_
 _symmetry_equiv_pos_site_id
 _symmetry_equiv_pos_as_xyz
  1  'x, y, z'
loop_
 _atom_site_type_symbol
 _atom_site_label
 _atom_site_symmetry_multiplicity
 _atom_site_fract_x
 _atom_site_fract_y
 _atom_site_fract_z
 _atom_site_occupancy
  Li  Li0  1  0.208081  0.997644  0.747534  1
  Li  Li1  1  0.791919  0.002356  0.252466  1
  Li  Li2  1  0.291873  0.998734  0.247506  1
  Li  Li3  1  0.708127  0.001266  0.752494  1
  Li  Li4  1  0.076620  0.497625  0.749635  1
  Li  Li5  1  0.923380  0.502375  0.250365  1
  Li  Li6  1  0.423363  0.499387  0.249650  1
  Li  Li7  1  0.576637  0.500613  0.750350  1
  Ce  Ce8  1  0.438451  0.000121  0.749707  1
  Ce  Ce9  1  0.561549  0.999879  0.250293  1
  Ce  Ce10  1  0.061546  0.997092  0.249728  1
  Ce  Ce11  1  0.938454  0.002908  0.750272  1
  Np  Np12  1  0.308993  0.498759  0.747982  1
  Np  Np13  1  0.691007  0.501241  0.252018  1
  Np  Np14  1  0.191002  0.497746  0.247969  1
  Np  Np15  1  0.808998  0.502254  0.752031  1
  N  N16  1  0.314032  0.998954  0.747837  1
  N  N17  1  0.685968  0.001046  0.252163  1
  N  N18  1  0.185940  0.997605  0.247829  1
  N  N19  1  0.814060  0.002395  0.752171  1
  N  N20  1  0.399161  0.499591  0.748842  1
  N  N21  1  0.600839  0.500409  0.251158  1
  N  N22  1  0.100887  0.497439  0.248851  1
  N  N23  1  0.899113  0.502561  0.751149  1
  N  N24  1  0.042476  0.997977  0.749744  1
  N  N25  1  0.957524  0.002023  0.250256  1
  N  N26  1  0.457524  0.999942  0.249745  1
  N  N27  1  0.542476  0.000058  0.750255  1
  N  N28  1  0.214230  0.497674  0.747581  1
  N  N29  1  0.785770  0.502326  0.252419  1
  N  N30  1  0.285707  0.498793  0.247586  1
  N  N31  1  0.714293  0.501207  0.752414  1
