# generated using pymatgen
data_Pr8Be3Si12Rh
_symmetry_space_group_name_H-M   'P 1'
_cell_length_a   8.05979900
_cell_length_b   8.05979816
_cell_length_c   8.68135900
_cell_angle_alpha   90.00000000
_cell_angle_beta   90.00000000
_cell_angle_gamma   119.99999935
_symmetry_Int_Tables_number   1
_chemical_formula_structural   Pr8Be3Si12Rh
_chemical_formula_sum   'Pr8 Be3 Si12 Rh1'
_cell_volume   488.38996024
_cell_formula_units_Z   1
loop_
 _symmetry_equiv_pos_site_id
 _symmetry_equiv_pos_as_xyz
  1  'x, y, z'
loop_
 _atom_site_type_symbol
 _atom_site_label
 _atom_site_symmetry_multiplicity
 _atom_site_fract_x
 _atom_site_fract_y
 _atom_site_fract_z
 _atom_site_occupancy
  Pr  Pr0  1  0.000000  0.000000  0.750410  1
  Pr  Pr1  1  0.000000  0.000000  0.249643  1
  Pr  Pr2  1  0.500327  0.499673  0.748934  1
  Pr  Pr3  1  0.500327  0.000656  0.748934  1
  Pr  Pr4  1  0.999344  0.499673  0.748934  1
  Pr  Pr5  1  0.500755  0.499245  0.250999  1
  Pr  Pr6  1  0.998490  0.499245  0.250999  1
  Pr  Pr7  1  0.500755  0.001510  0.250999  1
  Be  Be8  1  0.666667  0.333333  0.999136  1
  Be  Be9  1  0.666667  0.333333  0.501394  1
  Be  Be10  1  0.333333  0.666667  0.498208  1
  Si  Si11  1  0.831047  0.168953  0.999702  1
  Si  Si12  1  0.831047  0.662093  0.999702  1
  Si  Si13  1  0.337907  0.168953  0.999702  1
  Si  Si14  1  0.828057  0.171943  0.500173  1
  Si  Si15  1  0.828057  0.656114  0.500173  1
  Si  Si16  1  0.343886  0.171943  0.500173  1
  Si  Si17  1  0.172660  0.827340  0.499997  1
  Si  Si18  1  0.654682  0.827340  0.499997  1
  Si  Si19  1  0.172660  0.345318  0.499997  1
  Si  Si20  1  0.168902  0.831098  0.000118  1
  Si  Si21  1  0.662197  0.831098  0.000118  1
  Si  Si22  1  0.168902  0.337803  0.000118  1
  Rh  Rh23  1  0.333333  0.666667  0.001438  1
