# generated using pymatgen
data_RbFeSn3O8
_symmetry_space_group_name_H-M   'P 1'
_cell_length_a   7.62616056
_cell_length_b   7.62616111
_cell_length_c   10.62615331
_cell_angle_alpha   46.61172580
_cell_angle_beta   46.61172215
_cell_angle_gamma   24.34033617
_symmetry_Int_Tables_number   1
_chemical_formula_structural   RbFeSn3O8
_chemical_formula_sum   'Rb1 Fe1 Sn3 O8'
_cell_volume   181.21603639
_cell_formula_units_Z   1
loop_
 _symmetry_equiv_pos_site_id
 _symmetry_equiv_pos_as_xyz
  1  'x, y, z'
loop_
 _atom_site_type_symbol
 _atom_site_label
 _atom_site_symmetry_multiplicity
 _atom_site_fract_x
 _atom_site_fract_y
 _atom_site_fract_z
 _atom_site_occupancy
  Rb  Rb0  1  0.495121  0.495121  0.002461  1
  Fe  Fe1  1  0.164395  0.164395  0.184918  1
  Sn  Sn2  1  0.828198  0.828198  0.829008  1
  Sn  Sn3  1  0.651632  0.651632  0.507783  1
  Sn  Sn4  1  0.357180  0.357180  0.479556  1
  O  O5  1  0.165611  0.165611  0.372742  1
  O  O6  1  0.833300  0.833300  0.627255  1
  O  O7  1  0.457508  0.457508  0.708378  1
  O  O8  1  0.546302  0.546302  0.289990  1
  O  O9  1  0.200076  0.200076  0.953403  1
  O  O10  1  0.793991  0.793991  0.053915  1
  O  O11  1  0.848675  0.848675  0.354009  1
  O  O12  1  0.158012  0.158012  0.636585  1
