# generated using pymatgen
data_Th3Mg2ZnPt3
_symmetry_space_group_name_H-M   'P 1'
_cell_length_a   7.51411375
_cell_length_b   7.53489103
_cell_length_c   4.11805100
_cell_angle_alpha   90.00000000
_cell_angle_beta   90.00000000
_cell_angle_gamma   120.09151891
_symmetry_Int_Tables_number   1
_chemical_formula_structural   Th3Mg2ZnPt3
_chemical_formula_sum   'Th3 Mg2 Zn1 Pt3'
_cell_volume   201.73248868
_cell_formula_units_Z   1
loop_
 _symmetry_equiv_pos_site_id
 _symmetry_equiv_pos_as_xyz
  1  'x, y, z'
loop_
 _atom_site_type_symbol
 _atom_site_label
 _atom_site_symmetry_multiplicity
 _atom_site_fract_x
 _atom_site_fract_y
 _atom_site_fract_z
 _atom_site_occupancy
  Th  Th0  1  0.405331  0.408956  0.500000  1
  Th  Th1  1  0.594669  0.003625  0.500000  1
  Th  Th2  1  0.000000  0.576597  0.500000  1
  Mg  Mg3  1  0.763563  0.762737  0.000000  1
  Mg  Mg4  1  0.236437  0.999174  0.000000  1
  Zn  Zn5  1  0.000000  0.241015  0.000000  1
  Pt  Pt6  1  0.665849  0.335753  0.000000  1
  Pt  Pt7  1  0.334151  0.669905  0.000000  1
  Pt  Pt8  1  0.000000  0.002237  0.500000  1
