# generated using pymatgen
data_HgPd3PtPb3O14
_symmetry_space_group_name_H-M   'P 1'
_cell_length_a   7.42182281
_cell_length_b   7.29794508
_cell_length_c   7.42182235
_cell_angle_alpha   59.41281729
_cell_angle_beta   60.01570295
_cell_angle_gamma   59.41282213
_symmetry_Int_Tables_number   1
_chemical_formula_structural   HgPd3PtPb3O14
_chemical_formula_sum   'Hg1 Pd3 Pt1 Pb3 O14'
_cell_volume   281.73790443
_cell_formula_units_Z   1
loop_
 _symmetry_equiv_pos_site_id
 _symmetry_equiv_pos_as_xyz
  1  'x, y, z'
loop_
 _atom_site_type_symbol
 _atom_site_label
 _atom_site_symmetry_multiplicity
 _atom_site_fract_x
 _atom_site_fract_y
 _atom_site_fract_z
 _atom_site_occupancy
  Hg  Hg0  1  0.125000  0.625000  0.125000  1
  Pd  Pd1  1  0.625000  0.625000  0.125000  1
  Pd  Pd2  1  0.625000  0.125000  0.625000  1
  Pd  Pd3  1  0.125000  0.625000  0.625000  1
  Pt  Pt4  1  0.625000  0.625000  0.625000  1
  Pb  Pb5  1  0.125000  0.125000  0.125000  1
  Pb  Pb6  1  0.625000  0.125000  0.125000  1
  Pb  Pb7  1  0.125000  0.125000  0.625000  1
  O  O8  1  0.708917  0.289698  0.293007  1
  O  O9  1  0.708238  0.291630  0.708238  1
  O  O10  1  0.996451  0.014400  0.996451  1
  O  O11  1  0.293080  0.709325  0.293080  1
  O  O12  1  0.704459  0.708135  0.295563  1
  O  O13  1  0.954437  0.541865  0.545541  1
  O  O14  1  0.295563  0.708135  0.704459  1
  O  O15  1  0.253549  0.235600  0.253549  1
  O  O16  1  0.956920  0.540675  0.956920  1
  O  O17  1  0.541762  0.958370  0.541762  1
  O  O18  1  0.545541  0.541865  0.954437  1
  O  O19  1  0.956993  0.960302  0.541083  1
  O  O20  1  0.541083  0.960302  0.956993  1
  O  O21  1  0.293007  0.289698  0.708917  1
