# generated using pymatgen
data_Y4Ga3Re2Os3
_symmetry_space_group_name_H-M   'P 1'
_cell_length_a   5.40925249
_cell_length_b   5.30484133
_cell_length_c   8.97287000
_cell_angle_alpha   90.00000000
_cell_angle_beta   90.00000000
_cell_angle_gamma   119.36352763
_symmetry_Int_Tables_number   1
_chemical_formula_structural   Y4Ga3Re2Os3
_chemical_formula_sum   'Y4 Ga3 Re2 Os3'
_cell_volume   224.39926946
_cell_formula_units_Z   1
loop_
 _symmetry_equiv_pos_site_id
 _symmetry_equiv_pos_as_xyz
  1  'x, y, z'
loop_
 _atom_site_type_symbol
 _atom_site_label
 _atom_site_symmetry_multiplicity
 _atom_site_fract_x
 _atom_site_fract_y
 _atom_site_fract_z
 _atom_site_occupancy
  Y  Y0  1  0.332034  0.666018  0.437782  1
  Y  Y1  1  0.664794  0.332397  0.557293  1
  Y  Y2  1  0.664794  0.332397  0.942707  1
  Y  Y3  1  0.332034  0.666018  0.062218  1
  Ga  Ga4  1  0.163797  0.835152  0.750000  1
  Ga  Ga5  1  0.163797  0.328645  0.750000  1
  Ga  Ga6  1  0.671672  0.835836  0.750000  1
  Re  Re7  1  0.838307  0.171579  0.250000  1
  Re  Re8  1  0.838307  0.666727  0.250000  1
  Os  Os9  1  0.987891  0.993946  0.497970  1
  Os  Os10  1  0.987891  0.993946  0.002030  1
  Os  Os11  1  0.354683  0.177342  0.250000  1
