# generated using pymatgen
data_Er3MgCd2Ga2Ag
_symmetry_space_group_name_H-M   'P 1'
_cell_length_a   4.33495600
_cell_length_b   7.33092860
_cell_length_c   7.32491282
_cell_angle_alpha   120.02718008
_cell_angle_beta   90.00000000
_cell_angle_gamma   90.00000000
_symmetry_Int_Tables_number   1
_chemical_formula_structural   Er3MgCd2Ga2Ag
_chemical_formula_sum   'Er3 Mg1 Cd2 Ga2 Ag1'
_cell_volume   201.53838030
_cell_formula_units_Z   1
loop_
 _symmetry_equiv_pos_site_id
 _symmetry_equiv_pos_as_xyz
  1  'x, y, z'
loop_
 _atom_site_type_symbol
 _atom_site_label
 _atom_site_symmetry_multiplicity
 _atom_site_fract_x
 _atom_site_fract_y
 _atom_site_fract_z
 _atom_site_occupancy
  Er  Er0  1  0.000000  0.423604  0.423263  1
  Er  Er1  1  0.000000  0.000341  0.576737  1
  Er  Er2  1  0.000000  0.578413  0.000000  1
  Mg  Mg3  1  0.500000  0.244401  0.000000  1
  Cd  Cd4  1  0.500000  0.749854  0.749395  1
  Cd  Cd5  1  0.500000  0.000459  0.250605  1
  Ga  Ga6  1  0.500000  0.664785  0.331119  1
  Ga  Ga7  1  0.500000  0.333664  0.668881  1
  Ag  Ag8  1  0.000000  0.004480  0.000000  1
