# generated using pymatgen
data_Nd4CdHgPd4
_symmetry_space_group_name_H-M   'P 1'
_cell_length_a   7.85025200
_cell_length_b   7.85025200
_cell_length_c   3.91276900
_cell_angle_alpha   90.00000000
_cell_angle_beta   90.00000000
_cell_angle_gamma   90.00000000
_symmetry_Int_Tables_number   1
_chemical_formula_structural   Nd4CdHgPd4
_chemical_formula_sum   'Nd4 Cd1 Hg1 Pd4'
_cell_volume   241.13008843
_cell_formula_units_Z   1
loop_
 _symmetry_equiv_pos_site_id
 _symmetry_equiv_pos_as_xyz
  1  'x, y, z'
loop_
 _atom_site_type_symbol
 _atom_site_label
 _atom_site_symmetry_multiplicity
 _atom_site_fract_x
 _atom_site_fract_y
 _atom_site_fract_z
 _atom_site_occupancy
  Nd  Nd0  1  0.683584  0.165956  0.500000  1
  Nd  Nd1  1  0.316416  0.834044  0.500000  1
  Nd  Nd2  1  0.165956  0.316416  0.500000  1
  Nd  Nd3  1  0.834044  0.683584  0.500000  1
  Cd  Cd4  1  0.500000  0.500000  0.000000  1
  Hg  Hg5  1  0.000000  0.000000  0.000000  1
  Pd  Pd6  1  0.135739  0.618166  0.000000  1
  Pd  Pd7  1  0.864261  0.381834  0.000000  1
  Pd  Pd8  1  0.618166  0.864261  0.000000  1
  Pd  Pd9  1  0.381834  0.135739  0.000000  1
