# generated using pymatgen
data_Er3Tm17Co2(NiSb4)2
_symmetry_space_group_name_H-M   'P 1'
_cell_length_a   7.78238212
_cell_length_b   8.71581500
_cell_length_c   12.02568820
_cell_angle_alpha   90.00000000
_cell_angle_beta   89.97975243
_cell_angle_gamma   90.00000000
_symmetry_Int_Tables_number   1
_chemical_formula_structural   Er3Tm17Co2(NiSb4)2
_chemical_formula_sum   'Er3 Tm17 Co2 Ni2 Sb8'
_cell_volume   815.70000775
_cell_formula_units_Z   1
loop_
 _symmetry_equiv_pos_site_id
 _symmetry_equiv_pos_as_xyz
  1  'x, y, z'
loop_
 _atom_site_type_symbol
 _atom_site_label
 _atom_site_symmetry_multiplicity
 _atom_site_fract_x
 _atom_site_fract_y
 _atom_site_fract_z
 _atom_site_occupancy
  Er  Er0  1  0.125648  0.250000  0.195130  1
  Er  Er1  1  0.374126  0.250000  0.695069  1
  Er  Er2  1  0.877184  0.750000  0.807103  1
  Tm  Tm3  1  0.156676  0.750000  0.204669  1
  Tm  Tm4  1  0.658258  0.250000  0.293056  1
  Tm  Tm5  1  0.841871  0.250000  0.793106  1
  Tm  Tm6  1  0.343285  0.750000  0.704785  1
  Tm  Tm7  1  0.449330  0.750000  0.998422  1
  Tm  Tm8  1  0.951937  0.250000  0.500324  1
  Tm  Tm9  1  0.548208  0.250000  0.000527  1
  Tm  Tm10  1  0.050749  0.750000  0.498412  1
  Tm  Tm11  1  0.622131  0.750000  0.307668  1
  Tm  Tm12  1  0.822584  0.957768  0.066076  1
  Tm  Tm13  1  0.323769  0.035991  0.433730  1
  Tm  Tm14  1  0.176484  0.463768  0.933959  1
  Tm  Tm15  1  0.677462  0.542263  0.565818  1
  Tm  Tm16  1  0.176484  0.036232  0.933959  1
  Tm  Tm17  1  0.677462  0.957737  0.565818  1
  Tm  Tm18  1  0.822584  0.542232  0.066076  1
  Tm  Tm19  1  0.323769  0.464009  0.433730  1
  Co  Co20  1  0.431594  0.750000  0.490775  1
  Co  Co21  1  0.068511  0.750000  0.990791  1
  Ni  Ni22  1  0.928472  0.250000  0.011472  1
  Ni  Ni23  1  0.571905  0.250000  0.511726  1
  Sb  Sb24  1  0.930227  0.991288  0.327674  1
  Sb  Sb25  1  0.431499  0.008535  0.171842  1
  Sb  Sb26  1  0.068768  0.491215  0.671718  1
  Sb  Sb27  1  0.569267  0.508330  0.827664  1
  Sb  Sb28  1  0.068768  0.008785  0.671718  1
  Sb  Sb29  1  0.569267  0.991670  0.827664  1
  Sb  Sb30  1  0.930227  0.508712  0.327674  1
  Sb  Sb31  1  0.431499  0.491465  0.171842  1
