# generated using pymatgen
data_Lu3ZrCdIr
_symmetry_space_group_name_H-M   'P 1'
_cell_length_a   9.34260452
_cell_length_b   9.34260479
_cell_length_c   9.34260500
_cell_angle_alpha   60.00000279
_cell_angle_beta   60.00000184
_cell_angle_gamma   60.00000014
_symmetry_Int_Tables_number   1
_chemical_formula_structural   Lu3ZrCdIr
_chemical_formula_sum   'Lu12 Zr4 Cd4 Ir4'
_cell_volume   576.61899934
_cell_formula_units_Z   4
loop_
 _symmetry_equiv_pos_site_id
 _symmetry_equiv_pos_as_xyz
  1  'x, y, z'
loop_
 _atom_site_type_symbol
 _atom_site_label
 _atom_site_symmetry_multiplicity
 _atom_site_fract_x
 _atom_site_fract_y
 _atom_site_fract_z
 _atom_site_occupancy
  Lu  Lu0  1  0.808358  0.191642  0.191642  1
  Lu  Lu1  1  0.191642  0.808358  0.808358  1
  Lu  Lu2  1  0.191642  0.808358  0.191642  1
  Lu  Lu3  1  0.808358  0.191642  0.808358  1
  Lu  Lu4  1  0.191642  0.191642  0.808358  1
  Lu  Lu5  1  0.808358  0.808358  0.191642  1
  Lu  Lu6  1  0.940435  0.559565  0.559565  1
  Lu  Lu7  1  0.559565  0.940435  0.940435  1
  Lu  Lu8  1  0.559565  0.940435  0.559565  1
  Lu  Lu9  1  0.940435  0.559565  0.940435  1
  Lu  Lu10  1  0.559565  0.559565  0.940435  1
  Lu  Lu11  1  0.940435  0.940435  0.559565  1
  Zr  Zr12  1  0.349371  0.349371  0.349371  1
  Zr  Zr13  1  0.349371  0.349371  0.951886  1
  Zr  Zr14  1  0.349371  0.951886  0.349371  1
  Zr  Zr15  1  0.951886  0.349371  0.349371  1
  Cd  Cd16  1  0.581528  0.581528  0.581528  1
  Cd  Cd17  1  0.581528  0.581528  0.255416  1
  Cd  Cd18  1  0.581528  0.255416  0.581528  1
  Cd  Cd19  1  0.255416  0.581528  0.581528  1
  Ir  Ir20  1  0.145207  0.145207  0.145207  1
  Ir  Ir21  1  0.145207  0.145207  0.564379  1
  Ir  Ir22  1  0.145207  0.564379  0.145207  1
  Ir  Ir23  1  0.564379  0.145207  0.145207  1
