# generated using pymatgen
data_Th4Si3GePd4
_symmetry_space_group_name_H-M   'P 1'
_cell_length_a   4.34985900
_cell_length_b   7.85634203
_cell_length_c   7.56132502
_cell_angle_alpha   90.05704121
_cell_angle_beta   90.00000000
_cell_angle_gamma   90.00000000
_symmetry_Int_Tables_number   1
_chemical_formula_structural   Th4Si3GePd4
_chemical_formula_sum   'Th4 Si3 Ge1 Pd4'
_cell_volume   258.40044273
_cell_formula_units_Z   1
loop_
 _symmetry_equiv_pos_site_id
 _symmetry_equiv_pos_as_xyz
  1  'x, y, z'
loop_
 _atom_site_type_symbol
 _atom_site_label
 _atom_site_symmetry_multiplicity
 _atom_site_fract_x
 _atom_site_fract_y
 _atom_site_fract_z
 _atom_site_occupancy
  Th  Th0  1  0.750000  0.001027  0.748277  1
  Th  Th1  1  0.750000  0.499685  0.754715  1
  Th  Th2  1  0.250000  0.000129  0.252230  1
  Th  Th3  1  0.250000  0.498119  0.243784  1
  Si  Si4  1  0.250000  0.735493  0.918481  1
  Si  Si5  1  0.250000  0.235166  0.581854  1
  Si  Si6  1  0.750000  0.231597  0.084495  1
  Ge  Ge7  1  0.750000  0.727481  0.415317  1
  Pd  Pd8  1  0.750000  0.769931  0.076835  1
  Pd  Pd9  1  0.250000  0.767703  0.591875  1
  Pd  Pd10  1  0.250000  0.262195  0.915372  1
  Pd  Pd11  1  0.750000  0.271471  0.416764  1
