# generated using pymatgen
data_Ac(Cd2Pt)2
_symmetry_space_group_name_H-M   'P 1'
_cell_length_a   8.68601800
_cell_length_b   8.68601800
_cell_length_c   4.29299200
_cell_angle_alpha   90.00000000
_cell_angle_beta   90.00000000
_cell_angle_gamma   90.00000000
_symmetry_Int_Tables_number   1
_chemical_formula_structural   Ac(Cd2Pt)2
_chemical_formula_sum   'Ac2 Cd8 Pt4'
_cell_volume   323.89297546
_cell_formula_units_Z   2
loop_
 _symmetry_equiv_pos_site_id
 _symmetry_equiv_pos_as_xyz
  1  'x, y, z'
loop_
 _atom_site_type_symbol
 _atom_site_label
 _atom_site_symmetry_multiplicity
 _atom_site_fract_x
 _atom_site_fract_y
 _atom_site_fract_z
 _atom_site_occupancy
  Ac  Ac0  1  0.500000  0.500000  0.500000  1
  Ac  Ac1  1  0.000000  0.000000  0.000000  1
  Cd  Cd2  1  0.338929  0.091100  0.500000  1
  Cd  Cd3  1  0.661071  0.908900  0.500000  1
  Cd  Cd4  1  0.838929  0.408900  0.000000  1
  Cd  Cd5  1  0.161071  0.591100  0.000000  1
  Cd  Cd6  1  0.091100  0.338929  0.500000  1
  Cd  Cd7  1  0.908900  0.661071  0.500000  1
  Cd  Cd8  1  0.408900  0.838929  0.000000  1
  Cd  Cd9  1  0.591100  0.161071  0.000000  1
  Pt  Pt10  1  0.801790  0.198210  0.500000  1
  Pt  Pt11  1  0.198210  0.801790  0.500000  1
  Pt  Pt12  1  0.301790  0.301790  0.000000  1
  Pt  Pt13  1  0.698210  0.698210  0.000000  1
