# generated using pymatgen
data_Dy20Ir9Os2Ru
_symmetry_space_group_name_H-M   'P 1'
_cell_length_a   10.86381300
_cell_length_b   10.86381300
_cell_length_c   6.41190600
_cell_angle_alpha   90.00000000
_cell_angle_beta   90.00000000
_cell_angle_gamma   90.00000000
_symmetry_Int_Tables_number   1
_chemical_formula_structural   Dy20Ir9Os2Ru
_chemical_formula_sum   'Dy20 Ir9 Os2 Ru1'
_cell_volume   756.74874564
_cell_formula_units_Z   1
loop_
 _symmetry_equiv_pos_site_id
 _symmetry_equiv_pos_as_xyz
  1  'x, y, z'
loop_
 _atom_site_type_symbol
 _atom_site_label
 _atom_site_symmetry_multiplicity
 _atom_site_fract_x
 _atom_site_fract_y
 _atom_site_fract_z
 _atom_site_occupancy
  Dy  Dy0  1  0.294138  0.086496  0.378300  1
  Dy  Dy1  1  0.294128  0.913808  0.878666  1
  Dy  Dy2  1  0.705872  0.086192  0.878666  1
  Dy  Dy3  1  0.705862  0.913504  0.378300  1
  Dy  Dy4  1  0.586192  0.794128  0.878666  1
  Dy  Dy5  1  0.586496  0.205862  0.378300  1
  Dy  Dy6  1  0.413504  0.794138  0.378300  1
  Dy  Dy7  1  0.413808  0.205872  0.878666  1
  Dy  Dy8  1  0.207972  0.412682  0.622658  1
  Dy  Dy9  1  0.207729  0.587359  0.119557  1
  Dy  Dy10  1  0.792271  0.412641  0.119557  1
  Dy  Dy11  1  0.792028  0.587318  0.622658  1
  Dy  Dy12  1  0.912641  0.707729  0.119557  1
  Dy  Dy13  1  0.912682  0.292028  0.622658  1
  Dy  Dy14  1  0.087318  0.707972  0.622658  1
  Dy  Dy15  1  0.087359  0.292271  0.119557  1
  Dy  Dy16  1  0.000000  0.000000  0.499440  1
  Dy  Dy17  1  0.000000  0.000000  0.999490  1
  Dy  Dy18  1  0.500000  0.500000  0.999490  1
  Dy  Dy19  1  0.500000  0.500000  0.499440  1
  Ir  Ir20  1  0.848524  0.153366  0.250319  1
  Ir  Ir21  1  0.848202  0.846714  0.749987  1
  Ir  Ir22  1  0.151798  0.153286  0.749987  1
  Ir  Ir23  1  0.151476  0.846634  0.250319  1
  Ir  Ir24  1  0.653286  0.348202  0.749987  1
  Ir  Ir25  1  0.653366  0.651476  0.250319  1
  Ir  Ir26  1  0.346634  0.348524  0.250319  1
  Ir  Ir27  1  0.346714  0.651798  0.749987  1
  Ir  Ir28  1  0.000000  0.500000  0.377456  1
  Os  Os29  1  0.500000  0.000000  0.124839  1
  Os  Os30  1  0.500000  0.000000  0.624806  1
  Ru  Ru31  1  0.000000  0.500000  0.877094  1
