# generated using pymatgen
data_Ta2V3Fe
_symmetry_space_group_name_H-M   'P 1'
_cell_length_a   4.95465666
_cell_length_b   5.01181772
_cell_length_c   5.01181700
_cell_angle_alpha   59.99999814
_cell_angle_beta   59.61762320
_cell_angle_gamma   59.61762093
_symmetry_Int_Tables_number   1
_chemical_formula_structural   Ta2V3Fe
_chemical_formula_sum   'Ta2 V3 Fe1'
_cell_volume   87.48923883
_cell_formula_units_Z   1
loop_
 _symmetry_equiv_pos_site_id
 _symmetry_equiv_pos_as_xyz
  1  'x, y, z'
loop_
 _atom_site_type_symbol
 _atom_site_label
 _atom_site_symmetry_multiplicity
 _atom_site_fract_x
 _atom_site_fract_y
 _atom_site_fract_z
 _atom_site_occupancy
  Ta  Ta0  1  0.246978  0.251007  0.251007  1
  Ta  Ta1  1  0.003022  0.998993  0.998993  1
  V  V2  1  0.625000  0.625000  0.125000  1
  V  V3  1  0.625000  0.125000  0.625000  1
  V  V4  1  0.625000  0.625000  0.625000  1
  Fe  Fe5  1  0.125000  0.625000  0.625000  1
