# generated using pymatgen
data_Rb3La3(PSe4)4
_symmetry_space_group_name_H-M   'P 1'
_cell_length_a   10.86574554
_cell_length_b   10.86574544
_cell_length_c   16.16507800
_cell_angle_alpha   89.31411081
_cell_angle_beta   89.31411609
_cell_angle_gamma   71.81701521
_symmetry_Int_Tables_number   1
_chemical_formula_structural   Rb3La3(PSe4)4
_chemical_formula_sum   'Rb6 La6 P8 Se32'
_cell_volume   1813.02016876
_cell_formula_units_Z   2
loop_
 _symmetry_equiv_pos_site_id
 _symmetry_equiv_pos_as_xyz
  1  'x, y, z'
loop_
 _atom_site_type_symbol
 _atom_site_label
 _atom_site_symmetry_multiplicity
 _atom_site_fract_x
 _atom_site_fract_y
 _atom_site_fract_z
 _atom_site_occupancy
  Rb  Rb0  1  0.029664  0.391681  0.662121  1
  Rb  Rb1  1  0.000000  0.000000  0.000000  1
  Rb  Rb2  1  0.391681  0.029664  0.162121  1
  Rb  Rb3  1  0.970336  0.608319  0.337879  1
  Rb  Rb4  1  0.608319  0.970336  0.837879  1
  Rb  Rb5  1  0.000000  0.000000  0.500000  1
  La  La6  1  0.252315  0.747685  0.750000  1
  La  La7  1  0.747685  0.252315  0.250000  1
  La  La8  1  0.487766  0.252314  0.512020  1
  La  La9  1  0.512234  0.747686  0.487980  1
  La  La10  1  0.747686  0.512234  0.987980  1
  La  La11  1  0.252314  0.487766  0.012020  1
  P  P12  1  0.964230  0.665643  0.860998  1
  P  P13  1  0.237900  0.601762  0.526072  1
  P  P14  1  0.665643  0.964230  0.360998  1
  P  P15  1  0.035770  0.334357  0.139002  1
  P  P16  1  0.762100  0.398238  0.473928  1
  P  P17  1  0.398238  0.762100  0.973928  1
  P  P18  1  0.334357  0.035770  0.639002  1
  P  P19  1  0.601762  0.237900  0.026072  1
  Se  Se20  1  0.543476  0.419568  0.103048  1
  Se  Se21  1  0.401303  0.194214  0.685897  1
  Se  Se22  1  0.741957  0.271704  0.579486  1
  Se  Se23  1  0.788179  0.578848  0.522777  1
  Se  Se24  1  0.580432  0.456524  0.396952  1
  Se  Se25  1  0.704315  0.077188  0.110668  1
  Se  Se26  1  0.840191  0.475710  0.169897  1
  Se  Se27  1  0.945688  0.679691  0.998220  1
  Se  Se28  1  0.159809  0.524290  0.830103  1
  Se  Se29  1  0.524290  0.159809  0.330103  1
  Se  Se30  1  0.194214  0.401303  0.185897  1
  Se  Se31  1  0.962331  0.852808  0.802798  1
  Se  Se32  1  0.037669  0.147192  0.197202  1
  Se  Se33  1  0.320309  0.054312  0.501780  1
  Se  Se34  1  0.475710  0.840191  0.669897  1
  Se  Se35  1  0.211821  0.421152  0.477223  1
  Se  Se36  1  0.456524  0.580432  0.896952  1
  Se  Se37  1  0.578848  0.788179  0.022777  1
  Se  Se38  1  0.922812  0.295685  0.389332  1
  Se  Se39  1  0.805786  0.598697  0.814103  1
  Se  Se40  1  0.054312  0.320309  0.001780  1
  Se  Se41  1  0.295685  0.922812  0.889332  1
  Se  Se42  1  0.077188  0.704315  0.610668  1
  Se  Se43  1  0.852808  0.962331  0.302798  1
  Se  Se44  1  0.258043  0.728296  0.420514  1
  Se  Se45  1  0.419568  0.543476  0.603048  1
  Se  Se46  1  0.598697  0.805786  0.314103  1
  Se  Se47  1  0.728296  0.258043  0.920514  1
  Se  Se48  1  0.271704  0.741957  0.079486  1
  Se  Se49  1  0.679691  0.945688  0.498220  1
  Se  Se50  1  0.147192  0.037669  0.697202  1
  Se  Se51  1  0.421152  0.211821  0.977223  1
