# generated using pymatgen
data_Pr8Sc11Si16Ag
_symmetry_space_group_name_H-M   'P 1'
_cell_length_a   7.20430674
_cell_length_b   7.56004212
_cell_length_c   14.25883800
_cell_angle_alpha   90.00000000
_cell_angle_beta   90.00000000
_cell_angle_gamma   90.19719285
_symmetry_Int_Tables_number   1
_chemical_formula_structural   Pr8Sc11Si16Ag
_chemical_formula_sum   'Pr8 Sc11 Si16 Ag1'
_cell_volume   776.60104990
_cell_formula_units_Z   1
loop_
 _symmetry_equiv_pos_site_id
 _symmetry_equiv_pos_as_xyz
  1  'x, y, z'
loop_
 _atom_site_type_symbol
 _atom_site_label
 _atom_site_symmetry_multiplicity
 _atom_site_fract_x
 _atom_site_fract_y
 _atom_site_fract_z
 _atom_site_occupancy
  Pr  Pr0  1  0.012313  0.173001  0.402296  1
  Pr  Pr1  1  0.511432  0.328776  0.402093  1
  Pr  Pr2  1  0.490682  0.681616  0.898674  1
  Pr  Pr3  1  0.490682  0.681616  0.601326  1
  Pr  Pr4  1  0.980569  0.827665  0.601554  1
  Pr  Pr5  1  0.980569  0.827665  0.898446  1
  Pr  Pr6  1  0.511432  0.328776  0.097907  1
  Pr  Pr7  1  0.012313  0.173001  0.097704  1
  Sc  Sc8  1  0.335237  0.172509  0.625973  1
  Sc  Sc9  1  0.671586  0.822861  0.374225  1
  Sc  Sc10  1  0.171508  0.676508  0.375212  1
  Sc  Sc11  1  0.827247  0.316212  0.874292  1
  Sc  Sc12  1  0.827247  0.316212  0.625708  1
  Sc  Sc13  1  0.840329  0.501927  0.250000  1
  Sc  Sc14  1  0.340229  0.997845  0.250000  1
  Sc  Sc15  1  0.335237  0.172509  0.874027  1
  Sc  Sc16  1  0.171508  0.676508  0.124788  1
  Sc  Sc17  1  0.671586  0.822861  0.125775  1
  Sc  Sc18  1  0.158377  0.495826  0.750000  1
  Si  Si19  1  0.278121  0.883557  0.750000  1
  Si  Si20  1  0.467451  0.623824  0.250000  1
  Si  Si21  1  0.042726  0.124526  0.750000  1
  Si  Si22  1  0.531062  0.386663  0.750000  1
  Si  Si23  1  0.152516  0.465055  0.540552  1
  Si  Si24  1  0.967038  0.874010  0.250000  1
  Si  Si25  1  0.709946  0.116774  0.250000  1
  Si  Si26  1  0.850233  0.536685  0.038025  1
  Si  Si27  1  0.348902  0.962869  0.038925  1
  Si  Si28  1  0.152516  0.465055  0.959448  1
  Si  Si29  1  0.652792  0.041189  0.532352  1
  Si  Si30  1  0.348902  0.962869  0.461075  1
  Si  Si31  1  0.850233  0.536685  0.461975  1
  Si  Si32  1  0.791735  0.596973  0.750000  1
  Si  Si33  1  0.210073  0.384557  0.250000  1
  Si  Si34  1  0.652792  0.041189  0.967648  1
  Ag  Ag35  1  0.652879  0.003628  0.750000  1
