# generated using pymatgen
data_Hf4TiAlRh10
_symmetry_space_group_name_H-M   'P 1'
_cell_length_a   4.15588800
_cell_length_b   5.55357697
_cell_length_c   10.87205911
_cell_angle_alpha   90.12930050
_cell_angle_beta   90.00000000
_cell_angle_gamma   90.00000000
_symmetry_Int_Tables_number   1
_chemical_formula_structural   Hf4TiAlRh10
_chemical_formula_sum   'Hf4 Ti1 Al1 Rh10'
_cell_volume   250.92696257
_cell_formula_units_Z   1
loop_
 _symmetry_equiv_pos_site_id
 _symmetry_equiv_pos_as_xyz
  1  'x, y, z'
loop_
 _atom_site_type_symbol
 _atom_site_label
 _atom_site_symmetry_multiplicity
 _atom_site_fract_x
 _atom_site_fract_y
 _atom_site_fract_z
 _atom_site_occupancy
  Hf  Hf0  1  0.500000  0.324093  0.139293  1
  Hf  Hf1  1  0.500000  0.675907  0.860707  1
  Hf  Hf2  1  0.500000  0.833192  0.355413  1
  Hf  Hf3  1  0.500000  0.166808  0.644587  1
  Ti  Ti4  1  0.000000  0.500000  0.500000  1
  Al  Al5  1  0.000000  0.000000  0.000000  1
  Rh  Rh6  1  0.000000  0.000000  0.500000  1
  Rh  Rh7  1  0.000000  0.500000  0.000000  1
  Rh  Rh8  1  0.000000  0.078168  0.242404  1
  Rh  Rh9  1  0.000000  0.921832  0.757596  1
  Rh  Rh10  1  0.000000  0.580290  0.257937  1
  Rh  Rh11  1  0.000000  0.419710  0.742063  1
  Rh  Rh12  1  0.500000  0.319213  0.395564  1
  Rh  Rh13  1  0.500000  0.680787  0.604436  1
  Rh  Rh14  1  0.500000  0.815119  0.106860  1
  Rh  Rh15  1  0.500000  0.184881  0.893140  1
