# generated using pymatgen
data_Pr5(SiTe)2
_symmetry_space_group_name_H-M   'P 1'
_cell_length_a   8.91841330
_cell_length_b   8.91841241
_cell_length_c   8.13074900
_cell_angle_alpha   90.00000000
_cell_angle_beta   90.00000000
_cell_angle_gamma   125.94187707
_symmetry_Int_Tables_number   1
_chemical_formula_structural   Pr5(SiTe)2
_chemical_formula_sum   'Pr10 Si4 Te4'
_cell_volume   523.58005209
_cell_formula_units_Z   2
loop_
 _symmetry_equiv_pos_site_id
 _symmetry_equiv_pos_as_xyz
  1  'x, y, z'
loop_
 _atom_site_type_symbol
 _atom_site_label
 _atom_site_symmetry_multiplicity
 _atom_site_fract_x
 _atom_site_fract_y
 _atom_site_fract_z
 _atom_site_occupancy
  Pr  Pr0  1  0.000000  0.000000  0.000000  1
  Pr  Pr1  1  0.500000  0.500000  0.500000  1
  Pr  Pr2  1  0.799170  0.545099  0.171601  1
  Pr  Pr3  1  0.454901  0.200830  0.828399  1
  Pr  Pr4  1  0.954901  0.700830  0.671601  1
  Pr  Pr5  1  0.299170  0.045099  0.328399  1
  Pr  Pr6  1  0.200830  0.454901  0.828399  1
  Pr  Pr7  1  0.545099  0.799170  0.171601  1
  Pr  Pr8  1  0.045099  0.299170  0.328399  1
  Pr  Pr9  1  0.700830  0.954901  0.671601  1
  Si  Si10  1  0.883618  0.883618  0.384051  1
  Si  Si11  1  0.116382  0.116382  0.615949  1
  Si  Si12  1  0.616382  0.616382  0.884051  1
  Si  Si13  1  0.383618  0.383618  0.115949  1
  Te  Te14  1  0.205865  0.794135  0.000000  1
  Te  Te15  1  0.705865  0.294135  0.500000  1
  Te  Te16  1  0.794135  0.205865  0.000000  1
  Te  Te17  1  0.294135  0.705865  0.500000  1
