# generated using pymatgen
data_Th3SbN3
_symmetry_space_group_name_H-M   'P 1'
_cell_length_a   7.21864122
_cell_length_b   7.21864076
_cell_length_c   12.27578433
_cell_angle_alpha   117.38251738
_cell_angle_beta   117.38251587
_cell_angle_gamma   32.88216440
_symmetry_Int_Tables_number   1
_chemical_formula_structural   Th3SbN3
_chemical_formula_sum   'Th6 Sb2 N6'
_cell_volume   304.75329447
_cell_formula_units_Z   2
loop_
 _symmetry_equiv_pos_site_id
 _symmetry_equiv_pos_as_xyz
  1  'x, y, z'
loop_
 _atom_site_type_symbol
 _atom_site_label
 _atom_site_symmetry_multiplicity
 _atom_site_fract_x
 _atom_site_fract_y
 _atom_site_fract_z
 _atom_site_occupancy
  Th  Th0  1  0.371636  0.371636  0.100009  1
  Th  Th1  1  0.150216  0.150216  0.203657  1
  Th  Th2  1  0.622901  0.622901  0.441082  1
  Th  Th3  1  0.377099  0.377099  0.558919  1
  Th  Th4  1  0.849784  0.849784  0.796343  1
  Th  Th5  1  0.628363  0.628363  0.899991  1
  Sb  Sb6  1  0.878899  0.878899  0.320976  1
  Sb  Sb7  1  0.121100  0.121100  0.679024  1
  N  N8  1  0.165205  0.165205  0.013132  1
  N  N9  1  0.564357  0.564357  0.205751  1
  N  N10  1  0.190487  0.190487  0.409622  1
  N  N11  1  0.809513  0.809513  0.590378  1
  N  N12  1  0.435643  0.435643  0.794250  1
  N  N13  1  0.834796  0.834796  0.986868  1
