# generated using pymatgen
data_YbCd(CN2)2
_symmetry_space_group_name_H-M   'P 1'
_cell_length_a   3.64017800
_cell_length_b   3.64017660
_cell_length_c   9.79763900
_cell_angle_alpha   90.00000000
_cell_angle_beta   90.00000000
_cell_angle_gamma   120.00001277
_symmetry_Int_Tables_number   1
_chemical_formula_structural   YbCd(CN2)2
_chemical_formula_sum   'Yb1 Cd1 C2 N4'
_cell_volume   112.43385021
_cell_formula_units_Z   1
loop_
 _symmetry_equiv_pos_site_id
 _symmetry_equiv_pos_as_xyz
  1  'x, y, z'
loop_
 _atom_site_type_symbol
 _atom_site_label
 _atom_site_symmetry_multiplicity
 _atom_site_fract_x
 _atom_site_fract_y
 _atom_site_fract_z
 _atom_site_occupancy
  Yb  Yb0  1  0.000000  0.000000  0.000000  1
  Cd  Cd1  1  0.000000  0.000000  0.500000  1
  C  C2  1  0.666666  0.333334  0.251263  1
  C  C3  1  0.333334  0.666668  0.748737  1
  N  N4  1  0.666666  0.333334  0.125232  1
  N  N5  1  0.666666  0.333334  0.377685  1
  N  N6  1  0.333334  0.666668  0.622315  1
  N  N7  1  0.333334  0.666668  0.874768  1
