# generated using pymatgen
data_Lu2Ni8P7Ru4
_symmetry_space_group_name_H-M   'P 1'
_cell_length_a   9.18048650
_cell_length_b   9.14774289
_cell_length_c   3.68685700
_cell_angle_alpha   90.00000000
_cell_angle_beta   90.00000000
_cell_angle_gamma   119.68822238
_symmetry_Int_Tables_number   1
_chemical_formula_structural   Lu2Ni8P7Ru4
_chemical_formula_sum   'Lu2 Ni8 P7 Ru4'
_cell_volume   268.98151110
_cell_formula_units_Z   1
loop_
 _symmetry_equiv_pos_site_id
 _symmetry_equiv_pos_as_xyz
  1  'x, y, z'
loop_
 _atom_site_type_symbol
 _atom_site_label
 _atom_site_symmetry_multiplicity
 _atom_site_fract_x
 _atom_site_fract_y
 _atom_site_fract_z
 _atom_site_occupancy
  Lu  Lu0  1  0.665032  0.327500  0.500000  1
  Lu  Lu1  1  0.328764  0.667888  0.000000  1
  Ni  Ni2  1  0.842141  0.728252  0.500000  1
  Ni  Ni3  1  0.289464  0.121732  0.500000  1
  Ni  Ni4  1  0.790707  0.916727  0.000000  1
  Ni  Ni5  1  0.366737  0.432275  0.500000  1
  Ni  Ni6  1  0.563268  0.937485  0.500000  1
  Ni  Ni7  1  0.064513  0.633269  0.500000  1
  Ni  Ni8  1  0.877351  0.152623  0.500000  1
  Ni  Ni9  1  0.438383  0.048916  0.000000  1
  P  P10  1  0.008941  0.003466  0.500000  1
  P  P11  1  0.705496  0.108888  0.000000  1
  P  P12  1  0.118288  0.413512  0.500000  1
  P  P13  1  0.582194  0.705828  0.500000  1
  P  P14  1  0.296007  0.883483  0.500000  1
  P  P15  1  0.881029  0.595080  0.000000  1
  P  P16  1  0.408082  0.288101  0.000000  1
  Ru  Ru17  1  0.612872  0.568977  0.000000  1
  Ru  Ru18  1  0.947574  0.384088  0.000000  1
  Ru  Ru19  1  0.121397  0.206833  0.000000  1
  Ru  Ru20  1  0.091758  0.875077  0.000000  1
