# generated using pymatgen
data_Tb15ErInAg3Rh4
_symmetry_space_group_name_H-M   'P 1'
_cell_length_a   9.58868858
_cell_length_b   9.63084652
_cell_length_c   9.59022700
_cell_angle_alpha   60.13942432
_cell_angle_beta   59.99469596
_cell_angle_gamma   59.88814243
_symmetry_Int_Tables_number   1
_chemical_formula_structural   Tb15ErInAg3Rh4
_chemical_formula_sum   'Tb15 Er1 In1 Ag3 Rh4'
_cell_volume   626.33461813
_cell_formula_units_Z   1
loop_
 _symmetry_equiv_pos_site_id
 _symmetry_equiv_pos_as_xyz
  1  'x, y, z'
loop_
 _atom_site_type_symbol
 _atom_site_label
 _atom_site_symmetry_multiplicity
 _atom_site_fract_x
 _atom_site_fract_y
 _atom_site_fract_z
 _atom_site_occupancy
  Tb  Tb0  1  0.811148  0.189792  0.809271  1
  Tb  Tb1  1  0.188136  0.189827  0.811018  1
  Tb  Tb2  1  0.650500  0.051993  0.648753  1
  Tb  Tb3  1  0.067881  0.062333  0.434893  1
  Tb  Tb4  1  0.438844  0.435295  0.062930  1
  Tb  Tb5  1  0.648892  0.649111  0.648853  1
  Tb  Tb6  1  0.811148  0.189792  0.189788  1
  Tb  Tb7  1  0.187592  0.812680  0.811713  1
  Tb  Tb8  1  0.054150  0.648881  0.648485  1
  Tb  Tb9  1  0.438964  0.061767  0.063503  1
  Tb  Tb10  1  0.438964  0.061767  0.435765  1
  Tb  Tb11  1  0.067848  0.436045  0.061491  1
  Tb  Tb12  1  0.648892  0.649111  0.053143  1
  Tb  Tb13  1  0.187592  0.812680  0.188015  1
  Tb  Tb14  1  0.067848  0.436045  0.434615  1
  Er  Er15  1  0.812531  0.808127  0.189671  1
  In  In16  1  0.736831  0.421047  0.421060  1
  Ag  Ag17  1  0.415814  0.417371  0.418542  1
  Ag  Ag18  1  0.415814  0.417371  0.748273  1
  Ag  Ag19  1  0.415354  0.748803  0.417922  1
  Rh  Rh20  1  0.855210  0.428207  0.858291  1
  Rh  Rh21  1  0.856419  0.857083  0.860192  1
  Rh  Rh22  1  0.856419  0.857083  0.426306  1
  Rh  Rh23  1  0.427211  0.857786  0.857502  1
