# generated using pymatgen
data_Lu6Al17Si7Os8
_symmetry_space_group_name_H-M   'P 1'
_cell_length_a   8.66254701
_cell_length_b   8.65454732
_cell_length_c   9.42992700
_cell_angle_alpha   90.00000000
_cell_angle_beta   90.00000000
_cell_angle_gamma   120.07923648
_symmetry_Int_Tables_number   1
_chemical_formula_structural   Lu6Al17Si7Os8
_chemical_formula_sum   'Lu6 Al17 Si7 Os8'
_cell_volume   611.76075317
_cell_formula_units_Z   1
loop_
 _symmetry_equiv_pos_site_id
 _symmetry_equiv_pos_as_xyz
  1  'x, y, z'
loop_
 _atom_site_type_symbol
 _atom_site_label
 _atom_site_symmetry_multiplicity
 _atom_site_fract_x
 _atom_site_fract_y
 _atom_site_fract_z
 _atom_site_occupancy
  Lu  Lu0  1  0.194228  0.391366  0.250000  1
  Lu  Lu1  1  0.805335  0.611149  0.750000  1
  Lu  Lu2  1  0.607715  0.805742  0.250000  1
  Lu  Lu3  1  0.391186  0.192652  0.750000  1
  Lu  Lu4  1  0.197403  0.803574  0.250000  1
  Lu  Lu5  1  0.800753  0.193028  0.750000  1
  Al  Al6  1  0.164148  0.329232  0.579035  1
  Al  Al7  1  0.834274  0.671383  0.420382  1
  Al  Al8  1  0.671640  0.835139  0.578607  1
  Al  Al9  1  0.834274  0.671383  0.079618  1
  Al  Al10  1  0.329576  0.165955  0.421609  1
  Al  Al11  1  0.164148  0.329232  0.920965  1
  Al  Al12  1  0.163535  0.834390  0.577586  1
  Al  Al13  1  0.329576  0.165955  0.078391  1
  Al  Al14  1  0.835610  0.164082  0.420704  1
  Al  Al15  1  0.671640  0.835139  0.921393  1
  Al  Al16  1  0.835610  0.164082  0.079296  1
  Al  Al17  1  0.163535  0.834390  0.922414  1
  Al  Al18  1  0.124808  0.564903  0.750000  1
  Al  Al19  1  0.564175  0.435470  0.250000  1
  Al  Al20  1  0.438903  0.565798  0.750000  1
  Al  Al21  1  0.999540  0.999339  0.250000  1
  Al  Al22  1  0.000026  0.000991  0.750000  1
  Si  Si23  1  0.333419  0.664753  0.040886  1
  Si  Si24  1  0.666533  0.335588  0.958141  1
  Si  Si25  1  0.666533  0.335588  0.541859  1
  Si  Si26  1  0.333419  0.664753  0.459114  1
  Si  Si27  1  0.564124  0.123665  0.250000  1
  Si  Si28  1  0.436783  0.873871  0.750000  1
  Si  Si29  1  0.875330  0.435325  0.250000  1
  Os  Os30  1  0.500965  0.000933  0.000980  1
  Os  Os31  1  0.998819  0.499597  0.006726  1
  Os  Os32  1  0.500965  0.000933  0.499020  1
  Os  Os33  1  0.500651  0.500213  0.000350  1
  Os  Os34  1  0.998819  0.499597  0.493274  1
  Os  Os35  1  0.500651  0.500213  0.499650  1
  Os  Os36  1  0.000677  0.000297  0.000163  1
  Os  Os37  1  0.000677  0.000297  0.499837  1
