# generated using pymatgen
data_Nd2SiCO7
_symmetry_space_group_name_H-M   'P 1'
_cell_length_a   6.72047435
_cell_length_b   6.76882796
_cell_length_c   6.95218494
_cell_angle_alpha   95.99921901
_cell_angle_beta   116.63686829
_cell_angle_gamma   91.45477211
_symmetry_Int_Tables_number   1
_chemical_formula_structural   Nd2SiCO7
_chemical_formula_sum   'Nd4 Si2 C2 O14'
_cell_volume   280.20968996
_cell_formula_units_Z   2
loop_
 _symmetry_equiv_pos_site_id
 _symmetry_equiv_pos_as_xyz
  1  'x, y, z'
loop_
 _atom_site_type_symbol
 _atom_site_label
 _atom_site_symmetry_multiplicity
 _atom_site_fract_x
 _atom_site_fract_y
 _atom_site_fract_z
 _atom_site_occupancy
  Nd  Nd0  1  0.260211  0.664676  0.195915  1
  Nd  Nd1  1  0.250440  0.913333  0.705975  1
  Nd  Nd2  1  0.739789  0.335324  0.804085  1
  Nd  Nd3  1  0.749560  0.086667  0.294025  1
  Si  Si4  1  0.263302  0.155707  0.238478  1
  Si  Si5  1  0.736698  0.844293  0.761522  1
  C  C6  1  0.805807  0.591842  0.266556  1
  C  C7  1  0.194193  0.408158  0.733444  1
  O  O8  1  0.126739  0.029114  0.338677  1
  O  O9  1  0.342297  0.284255  0.749673  1
  O  O10  1  0.258672  0.589615  0.832922  1
  O  O11  1  0.016193  0.649163  0.377143  1
  O  O12  1  0.489545  0.744970  0.575155  1
  O  O13  1  0.665583  0.014677  0.908534  1
  O  O14  1  0.983807  0.350837  0.622857  1
  O  O15  1  0.334417  0.985323  0.091466  1
  O  O16  1  0.121661  0.323863  0.092062  1
  O  O17  1  0.873261  0.970886  0.661323  1
  O  O18  1  0.741328  0.410385  0.167078  1
  O  O19  1  0.878339  0.676137  0.907938  1
  O  O20  1  0.657703  0.715745  0.250327  1
  O  O21  1  0.510455  0.255030  0.424845  1
