# generated using pymatgen
data_Lu2Co9SnB6
_symmetry_space_group_name_H-M   'P 1'
_cell_length_a   5.74667278
_cell_length_b   5.74667241
_cell_length_c   5.74667293
_cell_angle_alpha   95.58723874
_cell_angle_beta   95.58724060
_cell_angle_gamma   95.58726124
_symmetry_Int_Tables_number   1
_chemical_formula_structural   Lu2Co9SnB6
_chemical_formula_sum   'Lu2 Co9 Sn1 B6'
_cell_volume   186.88385099
_cell_formula_units_Z   1
loop_
 _symmetry_equiv_pos_site_id
 _symmetry_equiv_pos_as_xyz
  1  'x, y, z'
loop_
 _atom_site_type_symbol
 _atom_site_label
 _atom_site_symmetry_multiplicity
 _atom_site_fract_x
 _atom_site_fract_y
 _atom_site_fract_z
 _atom_site_occupancy
  Lu  Lu0  1  0.672265  0.672265  0.672265  1
  Lu  Lu1  1  0.327735  0.327735  0.327735  1
  Co  Co2  1  0.000000  0.000000  0.500000  1
  Co  Co3  1  0.500000  0.000000  0.000000  1
  Co  Co4  1  0.000000  0.500000  0.000000  1
  Co  Co5  1  0.702117  0.197552  0.702117  1
  Co  Co6  1  0.702117  0.702117  0.197552  1
  Co  Co7  1  0.197552  0.702117  0.702117  1
  Co  Co8  1  0.297883  0.802448  0.297883  1
  Co  Co9  1  0.297883  0.297883  0.802448  1
  Co  Co10  1  0.802448  0.297883  0.297883  1
  Sn  Sn11  1  0.000000  0.000000  0.000000  1
  B  B12  1  0.615158  0.384842  0.000000  1
  B  B13  1  0.000000  0.615158  0.384842  1
  B  B14  1  0.384842  0.000000  0.615158  1
  B  B15  1  0.000000  0.384842  0.615158  1
  B  B16  1  0.615158  0.000000  0.384842  1
  B  B17  1  0.384842  0.615158  0.000000  1
