# generated using pymatgen
data_La2Co3Re14C3
_symmetry_space_group_name_H-M   'P 1'
_cell_length_a   6.95485059
_cell_length_b   6.95485065
_cell_length_c   6.95485191
_cell_angle_alpha   82.94953871
_cell_angle_beta   82.94953343
_cell_angle_gamma   82.94953094
_symmetry_Int_Tables_number   1
_chemical_formula_structural   La2Co3Re14C3
_chemical_formula_sum   'La2 Co3 Re14 C3'
_cell_volume   329.35153410
_cell_formula_units_Z   1
loop_
 _symmetry_equiv_pos_site_id
 _symmetry_equiv_pos_as_xyz
  1  'x, y, z'
loop_
 _atom_site_type_symbol
 _atom_site_label
 _atom_site_symmetry_multiplicity
 _atom_site_fract_x
 _atom_site_fract_y
 _atom_site_fract_z
 _atom_site_occupancy
  La  La0  1  0.649431  0.649431  0.649431  1
  La  La1  1  0.350569  0.350569  0.350569  1
  Co  Co2  1  0.000000  0.000000  0.500000  1
  Co  Co3  1  0.500000  0.000000  0.000000  1
  Co  Co4  1  0.000000  0.500000  0.000000  1
  Re  Re5  1  0.722934  0.277066  0.000000  1
  Re  Re6  1  0.000000  0.722934  0.277066  1
  Re  Re7  1  0.277066  0.000000  0.722934  1
  Re  Re8  1  0.000000  0.277066  0.722934  1
  Re  Re9  1  0.722934  0.000000  0.277066  1
  Re  Re10  1  0.277066  0.722934  0.000000  1
  Re  Re11  1  0.344039  0.344039  0.862990  1
  Re  Re12  1  0.862990  0.344039  0.344039  1
  Re  Re13  1  0.344039  0.862990  0.344039  1
  Re  Re14  1  0.655961  0.655961  0.137010  1
  Re  Re15  1  0.137010  0.655961  0.655961  1
  Re  Re16  1  0.655961  0.137010  0.655961  1
  Re  Re17  1  0.898871  0.898871  0.898871  1
  Re  Re18  1  0.101129  0.101129  0.101129  1
  C  C19  1  0.500000  0.500000  0.000000  1
  C  C20  1  0.000000  0.500000  0.500000  1
  C  C21  1  0.500000  0.000000  0.500000  1
