# generated using pymatgen
data_Ti6Si2Se
_symmetry_space_group_name_H-M   'P 1'
_cell_length_a   6.79339300
_cell_length_b   6.79339332
_cell_length_c   3.59187200
_cell_angle_alpha   90.00000000
_cell_angle_beta   90.00000000
_cell_angle_gamma   120.00000330
_symmetry_Int_Tables_number   1
_chemical_formula_structural   Ti6Si2Se
_chemical_formula_sum   'Ti6 Si2 Se1'
_cell_volume   143.55719648
_cell_formula_units_Z   1
loop_
 _symmetry_equiv_pos_site_id
 _symmetry_equiv_pos_as_xyz
  1  'x, y, z'
loop_
 _atom_site_type_symbol
 _atom_site_label
 _atom_site_symmetry_multiplicity
 _atom_site_fract_x
 _atom_site_fract_y
 _atom_site_fract_z
 _atom_site_occupancy
  Ti  Ti0  1  0.249100  0.995024  0.000000  1
  Ti  Ti1  1  0.004976  0.254075  0.000000  1
  Ti  Ti2  1  0.745924  0.750899  0.000000  1
  Ti  Ti3  1  0.592452  0.992441  0.500000  1
  Ti  Ti4  1  0.399989  0.407548  0.500000  1
  Ti  Ti5  1  0.007559  0.600012  0.500000  1
  Si  Si6  1  0.333333  0.666666  0.000000  1
  Si  Si7  1  0.000000  0.000000  0.500000  1
  Se  Se8  1  0.666666  0.333333  0.000000  1
