# generated using pymatgen
data_Ce2Nd7Ho7(CdRu)4
_symmetry_space_group_name_H-M   'P 1'
_cell_length_a   9.90556494
_cell_length_b   9.76209327
_cell_length_c   9.75682047
_cell_angle_alpha   59.36299872
_cell_angle_beta   59.30928237
_cell_angle_gamma   58.82098740
_symmetry_Int_Tables_number   1
_chemical_formula_structural   Ce2Nd7Ho7(CdRu)4
_chemical_formula_sum   'Ce2 Nd7 Ho7 Cd4 Ru4'
_cell_volume   654.39809704
_cell_formula_units_Z   1
loop_
 _symmetry_equiv_pos_site_id
 _symmetry_equiv_pos_as_xyz
  1  'x, y, z'
loop_
 _atom_site_type_symbol
 _atom_site_label
 _atom_site_symmetry_multiplicity
 _atom_site_fract_x
 _atom_site_fract_y
 _atom_site_fract_z
 _atom_site_occupancy
  Ce  Ce0  1  0.975036  0.338797  0.341381  1
  Ce  Ce1  1  0.347630  0.340214  0.334499  1
  Nd  Nd2  1  0.561368  0.560947  0.937770  1
  Nd  Nd3  1  0.940015  0.558382  0.944920  1
  Nd  Nd4  1  0.558184  0.940600  0.944014  1
  Nd  Nd5  1  0.940304  0.942962  0.557851  1
  Nd  Nd6  1  0.562796  0.937517  0.558608  1
  Nd  Nd7  1  0.938385  0.560771  0.557783  1
  Nd  Nd8  1  0.186438  0.187439  0.812809  1
  Ho  Ho9  1  0.809440  0.187268  0.814233  1
  Ho  Ho10  1  0.185783  0.811536  0.812919  1
  Ho  Ho11  1  0.812740  0.814971  0.186888  1
  Ho  Ho12  1  0.186035  0.811918  0.190204  1
  Ho  Ho13  1  0.811453  0.186719  0.189753  1
  Ho  Ho14  1  0.349009  0.349391  0.956589  1
  Ho  Ho15  1  0.348507  0.955401  0.348752  1
  Cd  Cd16  1  0.580529  0.577145  0.261942  1
  Cd  Cd17  1  0.581291  0.261587  0.577299  1
  Cd  Cd18  1  0.262284  0.580837  0.577415  1
  Cd  Cd19  1  0.579610  0.577682  0.578961  1
  Ru  Ru20  1  0.135457  0.149743  0.570892  1
  Ru  Ru21  1  0.141491  0.573210  0.148938  1
  Ru  Ru22  1  0.573344  0.148163  0.147989  1
  Ru  Ru23  1  0.132869  0.146800  0.147585  1
