# generated using pymatgen
data_GdHo(ZnRh)2
_symmetry_space_group_name_H-M   'P 1'
_cell_length_a   4.06213900
_cell_length_b   6.96483100
_cell_length_c   8.12364100
_cell_angle_alpha   90.00000000
_cell_angle_beta   90.00000000
_cell_angle_gamma   90.00000000
_symmetry_Int_Tables_number   1
_chemical_formula_structural   GdHo(ZnRh)2
_chemical_formula_sum   'Gd2 Ho2 Zn4 Rh4'
_cell_volume   229.83495804
_cell_formula_units_Z   2
loop_
 _symmetry_equiv_pos_site_id
 _symmetry_equiv_pos_as_xyz
  1  'x, y, z'
loop_
 _atom_site_type_symbol
 _atom_site_label
 _atom_site_symmetry_multiplicity
 _atom_site_fract_x
 _atom_site_fract_y
 _atom_site_fract_z
 _atom_site_occupancy
  Gd  Gd0  1  0.750000  0.962592  0.683597  1
  Gd  Gd1  1  0.750000  0.462592  0.816403  1
  Ho  Ho2  1  0.250000  0.037430  0.315264  1
  Ho  Ho3  1  0.250000  0.537430  0.184736  1
  Zn  Zn4  1  0.250000  0.636537  0.562230  1
  Zn  Zn5  1  0.250000  0.136537  0.937770  1
  Zn  Zn6  1  0.750000  0.363667  0.436197  1
  Zn  Zn7  1  0.750000  0.863667  0.063803  1
  Rh  Rh8  1  0.250000  0.256873  0.621384  1
  Rh  Rh9  1  0.250000  0.756873  0.878616  1
  Rh  Rh10  1  0.750000  0.742901  0.376896  1
  Rh  Rh11  1  0.750000  0.242901  0.123104  1
