# generated using pymatgen
data_Ho8TiPd24
_symmetry_space_group_name_H-M   'P 1'
_cell_length_a   8.35268800
_cell_length_b   8.35268800
_cell_length_c   8.35268800
_cell_angle_alpha   90.00000000
_cell_angle_beta   90.00000000
_cell_angle_gamma   90.00000000
_symmetry_Int_Tables_number   1
_chemical_formula_structural   Ho8TiPd24
_chemical_formula_sum   'Ho8 Ti1 Pd24'
_cell_volume   582.74529825
_cell_formula_units_Z   1
loop_
 _symmetry_equiv_pos_site_id
 _symmetry_equiv_pos_as_xyz
  1  'x, y, z'
loop_
 _atom_site_type_symbol
 _atom_site_label
 _atom_site_symmetry_multiplicity
 _atom_site_fract_x
 _atom_site_fract_y
 _atom_site_fract_z
 _atom_site_occupancy
  Ho  Ho0  1  0.252893  0.252893  0.747107  1
  Ho  Ho1  1  0.252893  0.747107  0.252893  1
  Ho  Ho2  1  0.747107  0.252893  0.252893  1
  Ho  Ho3  1  0.747107  0.747107  0.747107  1
  Ho  Ho4  1  0.747107  0.747107  0.252893  1
  Ho  Ho5  1  0.747107  0.252893  0.747107  1
  Ho  Ho6  1  0.252893  0.747107  0.747107  1
  Ho  Ho7  1  0.252893  0.252893  0.252893  1
  Ti  Ti8  1  0.000000  0.000000  0.000000  1
  Pd  Pd9  1  0.500000  0.500000  0.746968  1
  Pd  Pd10  1  0.500000  0.253032  0.500000  1
  Pd  Pd11  1  0.253032  0.500000  0.500000  1
  Pd  Pd12  1  0.500000  0.500000  0.253032  1
  Pd  Pd13  1  0.500000  0.746968  0.500000  1
  Pd  Pd14  1  0.746968  0.500000  0.500000  1
  Pd  Pd15  1  0.000000  0.000000  0.705118  1
  Pd  Pd16  1  0.000000  0.294882  0.000000  1
  Pd  Pd17  1  0.294882  0.000000  0.000000  1
  Pd  Pd18  1  0.000000  0.000000  0.294882  1
  Pd  Pd19  1  0.000000  0.705118  0.000000  1
  Pd  Pd20  1  0.705118  0.000000  0.000000  1
  Pd  Pd21  1  0.000000  0.500000  0.738819  1
  Pd  Pd22  1  0.500000  0.261181  0.000000  1
  Pd  Pd23  1  0.261181  0.000000  0.500000  1
  Pd  Pd24  1  0.000000  0.261181  0.500000  1
  Pd  Pd25  1  0.500000  0.000000  0.738819  1
  Pd  Pd26  1  0.261181  0.500000  0.000000  1
  Pd  Pd27  1  0.000000  0.500000  0.261181  1
  Pd  Pd28  1  0.500000  0.738819  0.000000  1
  Pd  Pd29  1  0.000000  0.738819  0.500000  1
  Pd  Pd30  1  0.500000  0.000000  0.261181  1
  Pd  Pd31  1  0.738819  0.000000  0.500000  1
  Pd  Pd32  1  0.738819  0.500000  0.000000  1
