# generated using pymatgen
data_Eu5Ge2Pb
_symmetry_space_group_name_H-M   'P 1'
_cell_length_a   9.50357867
_cell_length_b   9.50357815
_cell_length_c   9.50357800
_cell_angle_alpha   129.96523641
_cell_angle_beta   129.96523382
_cell_angle_gamma   73.46234669
_symmetry_Int_Tables_number   1
_chemical_formula_structural   Eu5Ge2Pb
_chemical_formula_sum   'Eu10 Ge4 Pb2'
_cell_volume   492.10694559
_cell_formula_units_Z   2
loop_
 _symmetry_equiv_pos_site_id
 _symmetry_equiv_pos_as_xyz
  1  'x, y, z'
loop_
 _atom_site_type_symbol
 _atom_site_label
 _atom_site_symmetry_multiplicity
 _atom_site_fract_x
 _atom_site_fract_y
 _atom_site_fract_z
 _atom_site_occupancy
  Eu  Eu0  1  0.813936  0.313936  0.847162  1
  Eu  Eu1  1  0.466773  0.966773  0.152838  1
  Eu  Eu2  1  0.686063  0.533226  0.500000  1
  Eu  Eu3  1  0.033227  0.186064  0.500000  1
  Eu  Eu4  1  0.186063  0.686063  0.152838  1
  Eu  Eu5  1  0.533226  0.033227  0.847162  1
  Eu  Eu6  1  0.966773  0.813936  0.500000  1
  Eu  Eu7  1  0.313936  0.466773  0.500000  1
  Eu  Eu8  1  0.000000  0.000000  0.000000  1
  Eu  Eu9  1  0.500000  0.500000  0.000000  1
  Ge  Ge10  1  0.883360  0.383361  0.266722  1
  Ge  Ge11  1  0.116640  0.616639  0.733278  1
  Ge  Ge12  1  0.616640  0.883360  0.500000  1
  Ge  Ge13  1  0.383360  0.116640  0.500000  1
  Pb  Pb14  1  0.250000  0.250000  0.000000  1
  Pb  Pb15  1  0.750000  0.750000  0.000000  1
