# generated using pymatgen
data_Cs4RuRhCl12
_symmetry_space_group_name_H-M   'P 1'
_cell_length_a   7.41623200
_cell_length_b   7.41623200
_cell_length_c   10.73966300
_cell_angle_alpha   90.00000000
_cell_angle_beta   90.00000000
_cell_angle_gamma   90.00000000
_symmetry_Int_Tables_number   1
_chemical_formula_structural   Cs4RuRhCl12
_chemical_formula_sum   'Cs4 Ru1 Rh1 Cl12'
_cell_volume   590.68680345
_cell_formula_units_Z   1
loop_
 _symmetry_equiv_pos_site_id
 _symmetry_equiv_pos_as_xyz
  1  'x, y, z'
loop_
 _atom_site_type_symbol
 _atom_site_label
 _atom_site_symmetry_multiplicity
 _atom_site_fract_x
 _atom_site_fract_y
 _atom_site_fract_z
 _atom_site_occupancy
  Cs  Cs0  1  0.500000  0.000000  0.768310  1
  Cs  Cs1  1  0.000000  0.500000  0.231690  1
  Cs  Cs2  1  0.500000  0.000000  0.231690  1
  Cs  Cs3  1  0.000000  0.500000  0.768310  1
  Ru  Ru4  1  0.500000  0.500000  0.500000  1
  Rh  Rh5  1  0.000000  0.000000  0.000000  1
  Cl  Cl6  1  0.000000  0.000000  0.780154  1
  Cl  Cl7  1  0.500000  0.500000  0.280994  1
  Cl  Cl8  1  0.722836  0.722836  0.500000  1
  Cl  Cl9  1  0.225124  0.225124  0.000000  1
  Cl  Cl10  1  0.722836  0.277164  0.500000  1
  Cl  Cl11  1  0.225124  0.774876  0.000000  1
  Cl  Cl12  1  0.000000  0.000000  0.219846  1
  Cl  Cl13  1  0.500000  0.500000  0.719006  1
  Cl  Cl14  1  0.277164  0.277164  0.500000  1
  Cl  Cl15  1  0.774876  0.774876  0.000000  1
  Cl  Cl16  1  0.277164  0.722836  0.500000  1
  Cl  Cl17  1  0.774876  0.225124  0.000000  1
