# generated using pymatgen
data_Hf4BeP
_symmetry_space_group_name_H-M   'P 1'
_cell_length_a   5.22161595
_cell_length_b   5.22161416
_cell_length_c   5.22161455
_cell_angle_alpha   104.00169883
_cell_angle_beta   104.00170062
_cell_angle_gamma   121.07090569
_symmetry_Int_Tables_number   1
_chemical_formula_structural   Hf4BeP
_chemical_formula_sum   'Hf4 Be1 P1'
_cell_volume   106.17089473
_cell_formula_units_Z   1
loop_
 _symmetry_equiv_pos_site_id
 _symmetry_equiv_pos_as_xyz
  1  'x, y, z'
loop_
 _atom_site_type_symbol
 _atom_site_label
 _atom_site_symmetry_multiplicity
 _atom_site_fract_x
 _atom_site_fract_y
 _atom_site_fract_z
 _atom_site_occupancy
  Hf  Hf0  1  0.657699  0.842301  0.500000  1
  Hf  Hf1  1  0.842301  0.342301  0.184602  1
  Hf  Hf2  1  0.342301  0.157699  0.500000  1
  Hf  Hf3  1  0.157699  0.657699  0.815398  1
  Be  Be4  1  0.250000  0.250000  0.000000  1
  P  P5  1  0.750000  0.750000  0.000000  1
