# generated using pymatgen
data_Tb3MgMnC6
_symmetry_space_group_name_H-M   'P 1'
_cell_length_a   8.25678800
_cell_length_b   8.25678759
_cell_length_c   5.12440900
_cell_angle_alpha   90.00000000
_cell_angle_beta   90.00000000
_cell_angle_gamma   119.99999734
_symmetry_Int_Tables_number   1
_chemical_formula_structural   Tb3MgMnC6
_chemical_formula_sum   'Tb6 Mg2 Mn2 C12'
_cell_volume   302.54966394
_cell_formula_units_Z   2
loop_
 _symmetry_equiv_pos_site_id
 _symmetry_equiv_pos_as_xyz
  1  'x, y, z'
loop_
 _atom_site_type_symbol
 _atom_site_label
 _atom_site_symmetry_multiplicity
 _atom_site_fract_x
 _atom_site_fract_y
 _atom_site_fract_z
 _atom_site_occupancy
  Tb  Tb0  1  0.612540  0.679162  0.750000  1
  Tb  Tb1  1  0.933379  0.612540  0.250000  1
  Tb  Tb2  1  0.679162  0.066621  0.250000  1
  Tb  Tb3  1  0.320838  0.933379  0.750000  1
  Tb  Tb4  1  0.066621  0.387460  0.750000  1
  Tb  Tb5  1  0.387460  0.320838  0.250000  1
  Mg  Mg6  1  0.000000  0.000000  0.500000  1
  Mg  Mg7  1  0.000000  0.000000  0.000000  1
  Mn  Mn8  1  0.666667  0.333333  0.750000  1
  Mn  Mn9  1  0.333333  0.666667  0.250000  1
  C  C10  1  0.975862  0.755779  0.750000  1
  C  C11  1  0.220084  0.975862  0.250000  1
  C  C12  1  0.755779  0.779916  0.250000  1
  C  C13  1  0.244221  0.220084  0.750000  1
  C  C14  1  0.779916  0.024138  0.750000  1
  C  C15  1  0.024138  0.244221  0.250000  1
  C  C16  1  0.857641  0.570401  0.750000  1
  C  C17  1  0.287240  0.857641  0.250000  1
  C  C18  1  0.570401  0.712760  0.250000  1
  C  C19  1  0.429599  0.287240  0.750000  1
  C  C20  1  0.142359  0.429599  0.250000  1
  C  C21  1  0.712760  0.142359  0.750000  1
