# generated using pymatgen
data_Hf10Be2InSb5
_symmetry_space_group_name_H-M   'P 1'
_cell_length_a   8.52820511
_cell_length_b   8.52820492
_cell_length_c   5.72289900
_cell_angle_alpha   90.00000000
_cell_angle_beta   90.00000000
_cell_angle_gamma   120.01859663
_symmetry_Int_Tables_number   1
_chemical_formula_structural   Hf10Be2InSb5
_chemical_formula_sum   'Hf10 Be2 In1 Sb5'
_cell_volume   360.39649899
_cell_formula_units_Z   1
loop_
 _symmetry_equiv_pos_site_id
 _symmetry_equiv_pos_as_xyz
  1  'x, y, z'
loop_
 _atom_site_type_symbol
 _atom_site_label
 _atom_site_symmetry_multiplicity
 _atom_site_fract_x
 _atom_site_fract_y
 _atom_site_fract_z
 _atom_site_occupancy
  Hf  Hf0  1  0.668160  0.332895  0.499457  1
  Hf  Hf1  1  0.332895  0.668160  0.499457  1
  Hf  Hf2  1  0.332895  0.668160  0.000543  1
  Hf  Hf3  1  0.668160  0.332895  0.000543  1
  Hf  Hf4  1  0.748508  0.748508  0.250000  1
  Hf  Hf5  1  0.252395  0.999733  0.250000  1
  Hf  Hf6  1  0.999733  0.252395  0.250000  1
  Hf  Hf7  1  0.249414  0.249414  0.750000  1
  Hf  Hf8  1  0.747847  0.000400  0.750000  1
  Hf  Hf9  1  0.000400  0.747847  0.750000  1
  Be  Be10  1  0.000549  0.000549  0.000756  1
  Be  Be11  1  0.000549  0.000549  0.499244  1
  In  In12  1  0.390893  0.390893  0.250000  1
  Sb  Sb13  1  0.608784  0.000179  0.250000  1
  Sb  Sb14  1  0.000179  0.608784  0.250000  1
  Sb  Sb15  1  0.606145  0.606145  0.750000  1
  Sb  Sb16  1  0.391669  0.000825  0.750000  1
  Sb  Sb17  1  0.000825  0.391669  0.750000  1
