# generated using pymatgen
data_TbYb2Ce(B4Ru)4
_symmetry_space_group_name_H-M   'P 1'
_cell_length_a   3.57182200
_cell_length_b   5.97677502
_cell_length_c   11.56438048
_cell_angle_alpha   89.94385223
_cell_angle_beta   90.00000000
_cell_angle_gamma   90.00000000
_symmetry_Int_Tables_number   1
_chemical_formula_structural   TbYb2Ce(B4Ru)4
_chemical_formula_sum   'Tb1 Yb2 Ce1 B16 Ru4'
_cell_volume   246.87600422
_cell_formula_units_Z   1
loop_
 _symmetry_equiv_pos_site_id
 _symmetry_equiv_pos_as_xyz
  1  'x, y, z'
loop_
 _atom_site_type_symbol
 _atom_site_label
 _atom_site_symmetry_multiplicity
 _atom_site_fract_x
 _atom_site_fract_y
 _atom_site_fract_z
 _atom_site_occupancy
  Tb  Tb0  1  0.500000  0.371224  0.652210  1
  Yb  Yb1  1  0.500000  0.128041  0.147884  1
  Yb  Yb2  1  0.500000  0.872164  0.850857  1
  Ce  Ce3  1  0.500000  0.629004  0.348266  1
  B  B4  1  0.000000  0.476254  0.189759  1
  B  B5  1  0.000000  0.524488  0.809110  1
  B  B6  1  0.000000  0.975348  0.308631  1
  B  B7  1  0.000000  0.024730  0.692634  1
  B  B8  1  0.000000  0.286318  0.314325  1
  B  B9  1  0.000000  0.714366  0.687007  1
  B  B10  1  0.000000  0.787168  0.183647  1
  B  B11  1  0.000000  0.211942  0.815860  1
  B  B12  1  0.000000  0.363500  0.469476  1
  B  B13  1  0.000000  0.636734  0.531566  1
  B  B14  1  0.000000  0.864152  0.030274  1
  B  B15  1  0.000000  0.135605  0.969175  1
  B  B16  1  0.000000  0.385976  0.045705  1
  B  B17  1  0.000000  0.612948  0.953390  1
  B  B18  1  0.000000  0.889638  0.454068  1
  B  B19  1  0.000000  0.111369  0.547876  1
  Ru  Ru20  1  0.500000  0.139741  0.407360  1
  Ru  Ru21  1  0.500000  0.859672  0.591097  1
  Ru  Ru22  1  0.500000  0.636668  0.089869  1
  Ru  Ru23  1  0.500000  0.362952  0.909954  1
