# generated using pymatgen
data_Nb10Ga3Si3C
_symmetry_space_group_name_H-M   'P 1'
_cell_length_a   7.68414800
_cell_length_b   7.68414718
_cell_length_c   5.33155200
_cell_angle_alpha   90.00000000
_cell_angle_beta   90.00000000
_cell_angle_gamma   119.99999494
_symmetry_Int_Tables_number   1
_chemical_formula_structural   Nb10Ga3Si3C
_chemical_formula_sum   'Nb10 Ga3 Si3 C1'
_cell_volume   272.63129003
_cell_formula_units_Z   1
loop_
 _symmetry_equiv_pos_site_id
 _symmetry_equiv_pos_as_xyz
  1  'x, y, z'
loop_
 _atom_site_type_symbol
 _atom_site_label
 _atom_site_symmetry_multiplicity
 _atom_site_fract_x
 _atom_site_fract_y
 _atom_site_fract_z
 _atom_site_occupancy
  Nb  Nb0  1  0.000000  0.761527  0.258293  1
  Nb  Nb1  1  0.238473  0.238473  0.258293  1
  Nb  Nb2  1  0.761527  0.000000  0.258293  1
  Nb  Nb3  1  0.000000  0.236796  0.741755  1
  Nb  Nb4  1  0.763204  0.763204  0.741755  1
  Nb  Nb5  1  0.236796  0.000000  0.741755  1
  Nb  Nb6  1  0.333333  0.666667  0.997596  1
  Nb  Nb7  1  0.666667  0.333333  0.997596  1
  Nb  Nb8  1  0.666667  0.333333  0.501694  1
  Nb  Nb9  1  0.333333  0.666667  0.501694  1
  Ga  Ga10  1  0.000000  0.400736  0.244221  1
  Ga  Ga11  1  0.599264  0.599264  0.244221  1
  Ga  Ga12  1  0.400736  0.000000  0.244221  1
  Si  Si13  1  0.000000  0.599700  0.756859  1
  Si  Si14  1  0.400300  0.400300  0.756859  1
  Si  Si15  1  0.599700  0.000000  0.756859  1
  C  C16  1  0.000000  0.000000  0.498034  1
