# generated using pymatgen
data_Li8Tm8Sn7Sb
_symmetry_space_group_name_H-M   'P 1'
_cell_length_a   9.32302335
_cell_length_b   9.32302366
_cell_length_c   7.12776634
_cell_angle_alpha   90.06062375
_cell_angle_beta   89.93937810
_cell_angle_gamma   119.98657065
_symmetry_Int_Tables_number   1
_chemical_formula_structural   Li8Tm8Sn7Sb
_chemical_formula_sum   'Li8 Tm8 Sn7 Sb1'
_cell_volume   536.60668038
_cell_formula_units_Z   1
loop_
 _symmetry_equiv_pos_site_id
 _symmetry_equiv_pos_as_xyz
  1  'x, y, z'
loop_
 _atom_site_type_symbol
 _atom_site_label
 _atom_site_symmetry_multiplicity
 _atom_site_fract_x
 _atom_site_fract_y
 _atom_site_fract_z
 _atom_site_occupancy
  Li  Li0  1  0.832591  0.666153  0.712360  1
  Li  Li1  1  0.833300  0.166700  0.712689  1
  Li  Li2  1  0.333732  0.666268  0.821578  1
  Li  Li3  1  0.666748  0.333252  0.321263  1
  Li  Li4  1  0.666549  0.833477  0.212556  1
  Li  Li5  1  0.166523  0.333451  0.212556  1
  Li  Li6  1  0.166728  0.833272  0.212847  1
  Li  Li7  1  0.333847  0.167409  0.712360  1
  Tm  Tm8  1  0.999130  0.000870  0.002088  1
  Tm  Tm9  1  0.999323  0.000677  0.498895  1
  Tm  Tm10  1  0.511428  0.488572  0.006400  1
  Tm  Tm11  1  0.021664  0.509920  0.504960  1
  Tm  Tm12  1  0.490080  0.978336  0.504960  1
  Tm  Tm13  1  0.513349  0.023409  0.008309  1
  Tm  Tm14  1  0.976591  0.486651  0.008309  1
  Tm  Tm15  1  0.488604  0.511396  0.506053  1
  Sn  Sn16  1  0.666790  0.333210  0.740971  1
  Sn  Sn17  1  0.332986  0.667014  0.241038  1
  Sn  Sn18  1  0.833277  0.166723  0.269305  1
  Sn  Sn19  1  0.166396  0.333440  0.770075  1
  Sn  Sn20  1  0.333162  0.166026  0.269810  1
  Sn  Sn21  1  0.833974  0.666838  0.269810  1
  Sn  Sn22  1  0.666560  0.833604  0.770075  1
  Sb  Sb23  1  0.166667  0.833333  0.768734  1
