# generated using pymatgen
data_Tm3CdHg4
_symmetry_space_group_name_H-M   'P 1'
_cell_length_a   6.34999792
_cell_length_b   6.34999807
_cell_length_c   5.06489900
_cell_angle_alpha   90.00000000
_cell_angle_beta   90.00000000
_cell_angle_gamma   108.30343761
_symmetry_Int_Tables_number   1
_chemical_formula_structural   Tm3CdHg4
_chemical_formula_sum   'Tm3 Cd1 Hg4'
_cell_volume   193.89661591
_cell_formula_units_Z   1
loop_
 _symmetry_equiv_pos_site_id
 _symmetry_equiv_pos_as_xyz
  1  'x, y, z'
loop_
 _atom_site_type_symbol
 _atom_site_label
 _atom_site_symmetry_multiplicity
 _atom_site_fract_x
 _atom_site_fract_y
 _atom_site_fract_z
 _atom_site_occupancy
  Tm  Tm0  1  0.854844  0.145156  0.750000  1
  Tm  Tm1  1  0.128103  0.871897  0.250000  1
  Tm  Tm2  1  0.389901  0.610099  0.750000  1
  Cd  Cd3  1  0.626031  0.373969  0.250000  1
  Hg  Hg4  1  0.630312  0.872210  0.250000  1
  Hg  Hg5  1  0.359326  0.116308  0.750000  1
  Hg  Hg6  1  0.883692  0.640674  0.750000  1
  Hg  Hg7  1  0.127790  0.369688  0.250000  1
