# generated using pymatgen
data_Tb3PrY(FeB3)2
_symmetry_space_group_name_H-M   'P 1'
_cell_length_a   5.44050846
_cell_length_b   5.44050743
_cell_length_c   8.34727091
_cell_angle_alpha   70.98076515
_cell_angle_beta   70.98076917
_cell_angle_gamma   59.99999070
_symmetry_Int_Tables_number   1
_chemical_formula_structural   Tb3PrY(FeB3)2
_chemical_formula_sum   'Tb3 Pr1 Y1 Fe2 B6'
_cell_volume   198.24324222
_cell_formula_units_Z   1
loop_
 _symmetry_equiv_pos_site_id
 _symmetry_equiv_pos_as_xyz
  1  'x, y, z'
loop_
 _atom_site_type_symbol
 _atom_site_label
 _atom_site_symmetry_multiplicity
 _atom_site_fract_x
 _atom_site_fract_y
 _atom_site_fract_z
 _atom_site_occupancy
  Tb  Tb0  1  0.749393  0.749393  0.751821  1
  Tb  Tb1  1  0.250557  0.250557  0.248328  1
  Tb  Tb2  1  0.582922  0.582922  0.251234  1
  Pr  Pr3  1  0.000065  0.000065  0.999806  1
  Y  Y4  1  0.417437  0.417437  0.747690  1
  Fe  Fe5  1  0.882588  0.882588  0.352234  1
  Fe  Fe6  1  0.117334  0.117334  0.647999  1
  B  B7  1  0.500029  0.167275  0.500148  1
  B  B8  1  0.832547  0.500029  0.500148  1
  B  B9  1  0.167275  0.832547  0.500148  1
  B  B10  1  0.167275  0.500029  0.500148  1
  B  B11  1  0.832547  0.167275  0.500148  1
  B  B12  1  0.500029  0.832547  0.500148  1
