# generated using pymatgen
data_Er8HfSi16W11
_symmetry_space_group_name_H-M   'P 1'
_cell_length_a   6.87917366
_cell_length_b   6.87724733
_cell_length_c   12.79138536
_cell_angle_alpha   89.89765150
_cell_angle_beta   90.21749811
_cell_angle_gamma   90.04055728
_symmetry_Int_Tables_number   1
_chemical_formula_structural   Er8HfSi16W11
_chemical_formula_sum   'Er8 Hf1 Si16 W11'
_cell_volume   605.15213654
_cell_formula_units_Z   1
loop_
 _symmetry_equiv_pos_site_id
 _symmetry_equiv_pos_as_xyz
  1  'x, y, z'
loop_
 _atom_site_type_symbol
 _atom_site_label
 _atom_site_symmetry_multiplicity
 _atom_site_fract_x
 _atom_site_fract_y
 _atom_site_fract_z
 _atom_site_occupancy
  Er  Er0  1  0.339075  0.999391  0.467129  1
  Er  Er1  1  0.499030  0.838289  0.719838  1
  Er  Er2  1  0.497992  0.162079  0.218927  1
  Er  Er3  1  0.838523  0.500328  0.279842  1
  Er  Er4  1  0.162412  0.497990  0.782414  1
  Er  Er5  1  0.660530  0.001266  0.969970  1
  Er  Er6  1  0.000495  0.338530  0.530666  1
  Er  Er7  1  0.001272  0.661616  0.031133  1
  Hf  Hf8  1  0.996363  0.841954  0.624575  1
  Si  Si9  1  0.206555  0.133178  0.684231  1
  Si  Si10  1  0.373483  0.701979  0.934041  1
  Si  Si11  1  0.629310  0.298314  0.432732  1
  Si  Si12  1  0.701461  0.372264  0.066694  1
  Si  Si13  1  0.303747  0.628158  0.564431  1
  Si  Si14  1  0.797557  0.872906  0.183512  1
  Si  Si15  1  0.126365  0.200633  0.316430  1
  Si  Si16  1  0.871611  0.796098  0.820194  1
  Si  Si17  1  0.288402  0.963544  0.063973  1
  Si  Si18  1  0.537295  0.788854  0.313498  1
  Si  Si19  1  0.462024  0.209987  0.814404  1
  Si  Si20  1  0.787935  0.533719  0.687236  1
  Si  Si21  1  0.211311  0.461830  0.186157  1
  Si  Si22  1  0.701959  0.044479  0.563807  1
  Si  Si23  1  0.963402  0.288999  0.937527  1
  Si  Si24  1  0.042113  0.708440  0.431368  1
  W  W25  1  0.333197  0.333226  0.000884  1
  W  W26  1  0.167797  0.831979  0.247970  1
  W  W27  1  0.831137  0.168179  0.751187  1
  W  W28  1  0.666667  0.664848  0.498722  1
  W  W29  1  0.164917  0.999897  0.874653  1
  W  W30  1  0.500791  0.663352  0.123532  1
  W  W31  1  0.499423  0.338365  0.623772  1
  W  W32  1  0.662041  0.497032  0.877260  1
  W  W33  1  0.339908  0.494691  0.375056  1
  W  W34  1  0.836442  0.000003  0.375054  1
  W  W35  1  0.997458  0.163607  0.127176  1
