# generated using pymatgen
data_Lu12Fe5Sb
_symmetry_space_group_name_H-M   'P 1'
_cell_length_a   8.09053310
_cell_length_b   8.09053266
_cell_length_c   8.09053284
_cell_angle_alpha   111.12783080
_cell_angle_beta   111.03560603
_cell_angle_gamma   106.29614037
_symmetry_Int_Tables_number   1
_chemical_formula_structural   Lu12Fe5Sb
_chemical_formula_sum   'Lu12 Fe5 Sb1'
_cell_volume   406.73810560
_cell_formula_units_Z   1
loop_
 _symmetry_equiv_pos_site_id
 _symmetry_equiv_pos_as_xyz
  1  'x, y, z'
loop_
 _atom_site_type_symbol
 _atom_site_label
 _atom_site_symmetry_multiplicity
 _atom_site_fract_x
 _atom_site_fract_y
 _atom_site_fract_z
 _atom_site_occupancy
  Lu  Lu0  1  0.274982  0.182389  0.457370  1
  Lu  Lu1  1  0.725018  0.817611  0.542630  1
  Lu  Lu2  1  0.274982  0.817611  0.092591  1
  Lu  Lu3  1  0.725018  0.182389  0.907409  1
  Lu  Lu4  1  0.615578  0.311458  0.304120  1
  Lu  Lu5  1  0.384422  0.688542  0.695880  1
  Lu  Lu6  1  0.007336  0.311458  0.695880  1
  Lu  Lu7  1  0.992664  0.688542  0.304120  1
  Lu  Lu8  1  0.218554  0.414993  0.196439  1
  Lu  Lu9  1  0.781446  0.585007  0.803561  1
  Lu  Lu10  1  0.218554  0.022117  0.803561  1
  Lu  Lu11  1  0.781446  0.977883  0.196439  1
  Fe  Fe12  1  0.000000  0.380134  0.380134  1
  Fe  Fe13  1  0.000000  0.619866  0.619866  1
  Fe  Fe14  1  0.391552  0.891552  0.500000  1
  Fe  Fe15  1  0.608448  0.108448  0.500000  1
  Fe  Fe16  1  0.000000  0.000000  0.000000  1
  Sb  Sb17  1  0.500000  0.500000  0.000000  1
