# generated using pymatgen
data_TbDy4Cr3(P3Ir4)4
_symmetry_space_group_name_H-M   'P 1'
_cell_length_a   12.63809500
_cell_length_b   12.63820287
_cell_length_c   3.95878800
_cell_angle_alpha   90.00000000
_cell_angle_beta   90.00000000
_cell_angle_gamma   120.00027879
_symmetry_Int_Tables_number   1
_chemical_formula_structural   TbDy4Cr3(P3Ir4)4
_chemical_formula_sum   'Tb1 Dy4 Cr3 P12 Ir16'
_cell_volume   547.59389165
_cell_formula_units_Z   1
loop_
 _symmetry_equiv_pos_site_id
 _symmetry_equiv_pos_as_xyz
  1  'x, y, z'
loop_
 _atom_site_type_symbol
 _atom_site_label
 _atom_site_symmetry_multiplicity
 _atom_site_fract_x
 _atom_site_fract_y
 _atom_site_fract_z
 _atom_site_occupancy
  Tb  Tb0  1  0.000000  0.810650  0.000000  1
  Dy  Dy1  1  0.333331  0.666668  0.500000  1
  Dy  Dy2  1  0.666669  0.333336  0.500000  1
  Dy  Dy3  1  0.189362  0.189360  0.000000  1
  Dy  Dy4  1  0.810638  0.999999  0.000000  1
  Cr  Cr5  1  0.000000  0.453385  0.500000  1
  Cr  Cr6  1  0.546617  0.546616  0.500000  1
  Cr  Cr7  1  0.453383  0.999999  0.500000  1
  P  P8  1  0.000000  0.632220  0.500000  1
  P  P9  1  0.367709  0.367708  0.500000  1
  P  P10  1  0.632291  0.999999  0.500000  1
  P  P11  1  0.516252  0.684181  0.000000  1
  P  P12  1  0.315807  0.832073  0.000000  1
  P  P13  1  0.167919  0.483742  0.000000  1
  P  P14  1  0.483748  0.167928  0.000000  1
  P  P15  1  0.684193  0.516265  0.000000  1
  P  P16  1  0.832081  0.315823  0.000000  1
  P  P17  1  0.000000  0.177711  0.500000  1
  P  P18  1  0.822231  0.822282  0.500000  1
  P  P19  1  0.177769  0.000051  0.500000  1
  Ir  Ir20  1  0.509383  0.868587  0.000000  1
  Ir  Ir21  1  0.131416  0.640782  0.000000  1
  Ir  Ir22  1  0.359203  0.490614  0.000000  1
  Ir  Ir23  1  0.490617  0.359203  0.000000  1
  Ir  Ir24  1  0.868584  0.509365  0.000000  1
  Ir  Ir25  1  0.640797  0.131411  0.000000  1
  Ir  Ir26  1  0.000000  0.287287  0.000000  1
  Ir  Ir27  1  0.712664  0.712697  0.000000  1
  Ir  Ir28  1  0.287336  0.000034  0.000000  1
  Ir  Ir29  1  0.623724  0.802661  0.500000  1
  Ir  Ir30  1  0.197442  0.821070  0.500000  1
  Ir  Ir31  1  0.178941  0.376278  0.500000  1
  Ir  Ir32  1  0.376276  0.178938  0.500000  1
  Ir  Ir33  1  0.802558  0.623628  0.500000  1
  Ir  Ir34  1  0.821059  0.197337  0.500000  1
  Ir  Ir35  1  0.000000  0.000111  0.500000  1
