# generated using pymatgen
data_Er3Bi3SbRuO14
_symmetry_space_group_name_H-M   'P 1'
_cell_length_a   6.41374686
_cell_length_b   6.64173858
_cell_length_c   7.56651855
_cell_angle_alpha   106.62547187
_cell_angle_beta   89.27761268
_cell_angle_gamma   98.31554988
_symmetry_Int_Tables_number   1
_chemical_formula_structural   Er3Bi3SbRuO14
_chemical_formula_sum   'Er3 Bi3 Sb1 Ru1 O14'
_cell_volume   305.45951529
_cell_formula_units_Z   1
loop_
 _symmetry_equiv_pos_site_id
 _symmetry_equiv_pos_as_xyz
  1  'x, y, z'
loop_
 _atom_site_type_symbol
 _atom_site_label
 _atom_site_symmetry_multiplicity
 _atom_site_fract_x
 _atom_site_fract_y
 _atom_site_fract_z
 _atom_site_occupancy
  Er  Er0  1  0.547022  0.993686  0.749395  1
  Er  Er1  1  0.454362  0.003564  0.253349  1
  Er  Er2  1  0.258193  0.532944  0.883353  1
  Bi  Bi3  1  0.741562  0.478106  0.115197  1
  Bi  Bi4  1  0.733139  0.460637  0.612045  1
  Bi  Bi5  1  0.256928  0.534105  0.390255  1
  Sb  Sb6  1  0.004682  0.001426  0.998766  1
  Ru  Ru7  1  0.002291  0.005915  0.501255  1
  O  O8  1  0.439775  0.652525  0.164448  1
  O  O9  1  0.543636  0.343345  0.826316  1
  O  O10  1  0.297735  0.932773  0.953454  1
  O  O11  1  0.706287  0.043524  0.046572  1
  O  O12  1  0.288677  0.925261  0.514363  1
  O  O13  1  0.712670  0.079434  0.487361  1
  O  O14  1  0.529482  0.353203  0.346210  1
  O  O15  1  0.455921  0.644606  0.662227  1
  O  O16  1  0.939694  0.679884  0.951901  1
  O  O17  1  0.085456  0.313999  0.035553  1
  O  O18  1  0.093458  0.310254  0.624132  1
  O  O19  1  0.905821  0.702923  0.383012  1
  O  O20  1  0.900522  0.944453  0.733670  1
  O  O21  1  0.102689  0.063435  0.267163  1
