# generated using pymatgen
data_Ho15Th(HgPt)4
_symmetry_space_group_name_H-M   'P 1'
_cell_length_a   9.62430129
_cell_length_b   9.62430291
_cell_length_c   9.62430185
_cell_angle_alpha   60.28452262
_cell_angle_beta   60.28452047
_cell_angle_gamma   60.28451494
_symmetry_Int_Tables_number   1
_chemical_formula_structural   Ho15Th(HgPt)4
_chemical_formula_sum   'Ho15 Th1 Hg4 Pt4'
_cell_volume   634.42491273
_cell_formula_units_Z   1
loop_
 _symmetry_equiv_pos_site_id
 _symmetry_equiv_pos_as_xyz
  1  'x, y, z'
loop_
 _atom_site_type_symbol
 _atom_site_label
 _atom_site_symmetry_multiplicity
 _atom_site_fract_x
 _atom_site_fract_y
 _atom_site_fract_z
 _atom_site_occupancy
  Ho  Ho0  1  0.606979  0.606979  0.181097  1
  Ho  Ho1  1  0.606979  0.181097  0.606979  1
  Ho  Ho2  1  0.181097  0.606979  0.606979  1
  Ho  Ho3  1  0.063778  0.438355  0.438355  1
  Ho  Ho4  1  0.440319  0.060913  0.060913  1
  Ho  Ho5  1  0.438355  0.063778  0.438355  1
  Ho  Ho6  1  0.060913  0.440319  0.060913  1
  Ho  Ho7  1  0.438355  0.438355  0.063778  1
  Ho  Ho8  1  0.060913  0.060913  0.440319  1
  Ho  Ho9  1  0.186770  0.816175  0.816175  1
  Ho  Ho10  1  0.812894  0.187601  0.187601  1
  Ho  Ho11  1  0.816175  0.186770  0.816175  1
  Ho  Ho12  1  0.187601  0.812894  0.187601  1
  Ho  Ho13  1  0.816175  0.816175  0.186770  1
  Ho  Ho14  1  0.187601  0.187601  0.812894  1
  Th  Th15  1  0.600632  0.600632  0.600632  1
  Hg  Hg16  1  0.836606  0.836606  0.836606  1
  Hg  Hg17  1  0.837821  0.837821  0.487510  1
  Hg  Hg18  1  0.837821  0.487510  0.837821  1
  Hg  Hg19  1  0.487510  0.837821  0.837821  1
  Pt  Pt20  1  0.395486  0.395486  0.395486  1
  Pt  Pt21  1  0.390318  0.390318  0.818585  1
  Pt  Pt22  1  0.390318  0.818585  0.390318  1
  Pt  Pt23  1  0.818585  0.390318  0.390318  1
