# generated using pymatgen
data_Tb16NdHo3Sn16
_symmetry_space_group_name_H-M   'P 1'
_cell_length_a   8.07860735
_cell_length_b   8.22250200
_cell_length_c   15.55085300
_cell_angle_alpha   90.00746988
_cell_angle_beta   89.88123962
_cell_angle_gamma   89.95161468
_symmetry_Int_Tables_number   1
_chemical_formula_structural   Tb16NdHo3Sn16
_chemical_formula_sum   'Tb16 Nd1 Ho3 Sn16'
_cell_volume   1032.98404350
_cell_formula_units_Z   1
loop_
 _symmetry_equiv_pos_site_id
 _symmetry_equiv_pos_as_xyz
  1  'x, y, z'
loop_
 _atom_site_type_symbol
 _atom_site_label
 _atom_site_symmetry_multiplicity
 _atom_site_fract_x
 _atom_site_fract_y
 _atom_site_fract_z
 _atom_site_occupancy
  Tb  Tb0  1  0.366528  0.836441  0.877710  1
  Tb  Tb1  1  0.867062  0.663717  0.621464  1
  Tb  Tb2  1  0.632781  0.163196  0.377916  1
  Tb  Tb3  1  0.133935  0.336890  0.122605  1
  Tb  Tb4  1  0.633840  0.163431  0.122533  1
  Tb  Tb5  1  0.132786  0.336672  0.377832  1
  Tb  Tb6  1  0.367354  0.836550  0.621674  1
  Tb  Tb7  1  0.866511  0.663350  0.877894  1
  Tb  Tb8  1  0.519811  0.321913  0.902551  1
  Tb  Tb9  1  0.020509  0.178653  0.597845  1
  Tb  Tb10  1  0.479889  0.678592  0.402280  1
  Tb  Tb11  1  0.980690  0.820698  0.097828  1
  Tb  Tb12  1  0.480501  0.678813  0.097741  1
  Tb  Tb13  1  0.979862  0.821417  0.402334  1
  Tb  Tb14  1  0.520005  0.321514  0.596881  1
  Tb  Tb15  1  0.198746  0.502171  0.749588  1
  Nd  Nd16  1  0.017976  0.179173  0.903375  1
  Ho  Ho17  1  0.698587  0.997485  0.749327  1
  Ho  Ho18  1  0.801271  0.497965  0.250236  1
  Ho  Ho19  1  0.301486  0.002034  0.250297  1
  Sn  Sn20  1  0.296234  0.034917  0.043319  1
  Sn  Sn21  1  0.793160  0.463818  0.457701  1
  Sn  Sn22  1  0.707073  0.964387  0.541892  1
  Sn  Sn23  1  0.207270  0.538403  0.958916  1
  Sn  Sn24  1  0.702884  0.960789  0.958941  1
  Sn  Sn25  1  0.206752  0.536306  0.541436  1
  Sn  Sn26  1  0.293195  0.036120  0.457805  1
  Sn  Sn27  1  0.793585  0.463986  0.042337  1
  Sn  Sn28  1  0.565309  0.618778  0.749834  1
  Sn  Sn29  1  0.064554  0.880865  0.749563  1
  Sn  Sn30  1  0.435607  0.382017  0.250192  1
  Sn  Sn31  1  0.935559  0.118293  0.250179  1
  Sn  Sn32  1  0.330670  0.146493  0.749322  1
  Sn  Sn33  1  0.826718  0.353852  0.748475  1
  Sn  Sn34  1  0.670796  0.852557  0.250045  1
  Sn  Sn35  1  0.170501  0.647736  0.250131  1
