# generated using pymatgen
data_Yb3UAs6Ru7
_symmetry_space_group_name_H-M   'P 1'
_cell_length_a   7.22781446
_cell_length_b   7.17800838
_cell_length_c   7.17800962
_cell_angle_alpha   109.33024212
_cell_angle_beta   109.61182981
_cell_angle_gamma   109.61184069
_symmetry_Int_Tables_number   1
_chemical_formula_structural   Yb3UAs6Ru7
_chemical_formula_sum   'Yb3 U1 As6 Ru7'
_cell_volume   286.17815989
_cell_formula_units_Z   1
loop_
 _symmetry_equiv_pos_site_id
 _symmetry_equiv_pos_as_xyz
  1  'x, y, z'
loop_
 _atom_site_type_symbol
 _atom_site_label
 _atom_site_symmetry_multiplicity
 _atom_site_fract_x
 _atom_site_fract_y
 _atom_site_fract_z
 _atom_site_occupancy
  Yb  Yb0  1  0.000000  0.000000  0.500000  1
  Yb  Yb1  1  0.000000  0.500000  0.000000  1
  Yb  Yb2  1  0.500000  0.500000  0.500000  1
  U  U3  1  0.500000  0.000000  0.000000  1
  As  As4  1  0.312639  0.000000  0.316645  1
  As  As5  1  0.004006  0.316645  0.316645  1
  As  As6  1  0.995994  0.683355  0.683355  1
  As  As7  1  0.312639  0.316645  0.000000  1
  As  As8  1  0.687361  0.683355  0.000000  1
  As  As9  1  0.687361  0.000000  0.683355  1
  Ru  Ru10  1  0.742776  0.485552  0.242776  1
  Ru  Ru11  1  0.500000  0.757224  0.242776  1
  Ru  Ru12  1  0.500000  0.242776  0.757224  1
  Ru  Ru13  1  0.742776  0.242776  0.485552  1
  Ru  Ru14  1  0.257224  0.757224  0.514448  1
  Ru  Ru15  1  0.257224  0.514448  0.757224  1
  Ru  Ru16  1  0.000000  0.000000  0.000000  1
