# generated using pymatgen
data_ZnCoAg2(PO4)2
_symmetry_space_group_name_H-M   'P 1'
_cell_length_a   10.59234900
_cell_length_b   5.24554537
_cell_length_c   9.06971327
_cell_angle_alpha   55.16194260
_cell_angle_beta   90.00000000
_cell_angle_gamma   90.00000000
_symmetry_Int_Tables_number   1
_chemical_formula_structural   ZnCoAg2(PO4)2
_chemical_formula_sum   'Zn2 Co2 Ag4 P4 O16'
_cell_volume   413.61657243
_cell_formula_units_Z   2
loop_
 _symmetry_equiv_pos_site_id
 _symmetry_equiv_pos_as_xyz
  1  'x, y, z'
loop_
 _atom_site_type_symbol
 _atom_site_label
 _atom_site_symmetry_multiplicity
 _atom_site_fract_x
 _atom_site_fract_y
 _atom_site_fract_z
 _atom_site_occupancy
  Zn  Zn0  1  0.658931  0.665861  0.024987  1
  Zn  Zn1  1  0.841069  0.665861  0.524987  1
  Co  Co2  1  0.341256  0.336193  0.974070  1
  Co  Co3  1  0.158744  0.336193  0.474070  1
  Ag  Ag4  1  0.392624  0.820216  0.479152  1
  Ag  Ag5  1  0.107376  0.820216  0.979152  1
  Ag  Ag6  1  0.607229  0.179813  0.520895  1
  Ag  Ag7  1  0.892771  0.179813  0.020895  1
  P  P8  1  0.395370  0.600798  0.209109  1
  P  P9  1  0.104630  0.600798  0.709109  1
  P  P10  1  0.605181  0.399199  0.791111  1
  P  P11  1  0.894819  0.399199  0.291111  1
  O  O12  1  0.378042  0.913812  0.189523  1
  O  O13  1  0.121958  0.913812  0.689523  1
  O  O14  1  0.622182  0.085767  0.810997  1
  O  O15  1  0.877818  0.085767  0.310997  1
  O  O16  1  0.538200  0.513249  0.225309  1
  O  O17  1  0.961800  0.513249  0.725309  1
  O  O18  1  0.462276  0.486041  0.774218  1
  O  O19  1  0.037724  0.486041  0.274218  1
  O  O20  1  0.335990  0.630358  0.044112  1
  O  O21  1  0.164010  0.630358  0.544112  1
  O  O22  1  0.663788  0.369574  0.956587  1
  O  O23  1  0.836212  0.369574  0.456587  1
  O  O24  1  0.331802  0.338033  0.388438  1
  O  O25  1  0.168198  0.338033  0.888438  1
  O  O26  1  0.668720  0.661086  0.611492  1
  O  O27  1  0.831280  0.661086  0.111492  1
