# generated using pymatgen
data_La8Dy11LuSi16
_symmetry_space_group_name_H-M   'P 1'
_cell_length_a   7.83145014
_cell_length_b   7.83145014
_cell_length_c   14.50061138
_cell_angle_alpha   90.01880692
_cell_angle_beta   89.98119308
_cell_angle_gamma   90.01021487
_symmetry_Int_Tables_number   1
_chemical_formula_structural   La8Dy11LuSi16
_chemical_formula_sum   'La8 Dy11 Lu1 Si16'
_cell_volume   889.34575064
_cell_formula_units_Z   1
loop_
 _symmetry_equiv_pos_site_id
 _symmetry_equiv_pos_as_xyz
  1  'x, y, z'
loop_
 _atom_site_type_symbol
 _atom_site_label
 _atom_site_symmetry_multiplicity
 _atom_site_fract_x
 _atom_site_fract_y
 _atom_site_fract_z
 _atom_site_occupancy
  La  La0  1  0.991607  0.642339  0.041322  1
  La  La1  1  0.008559  0.357408  0.541319  1
  La  La2  1  0.642339  0.991607  0.958678  1
  La  La3  1  0.142331  0.508151  0.791773  1
  La  La4  1  0.857989  0.491190  0.290710  1
  La  La5  1  0.508151  0.142331  0.208227  1
  La  La6  1  0.491190  0.857989  0.709290  1
  La  La7  1  0.357408  0.008559  0.458681  1
  Dy  Dy8  1  0.360836  0.491978  0.374789  1
  Dy  Dy9  1  0.860720  0.007698  0.374699  1
  Dy  Dy10  1  0.992512  0.139105  0.124670  1
  Dy  Dy11  1  0.007698  0.860720  0.625301  1
  Dy  Dy12  1  0.639091  0.507382  0.875612  1
  Dy  Dy13  1  0.491978  0.360836  0.625211  1
  Dy  Dy14  1  0.507382  0.639091  0.124388  1
  Dy  Dy15  1  0.139105  0.992512  0.875330  1
  Dy  Dy16  1  0.682555  0.682555  0.500000  1
  Dy  Dy17  1  0.818053  0.182784  0.750077  1
  Dy  Dy18  1  0.182784  0.818053  0.249923  1
  Lu  Lu19  1  0.317599  0.317599  0.000000  1
  Si  Si20  1  0.064788  0.710620  0.438147  1
  Si  Si21  1  0.936463  0.289630  0.938160  1
  Si  Si22  1  0.710620  0.064788  0.561853  1
  Si  Si23  1  0.211728  0.434387  0.186590  1
  Si  Si24  1  0.788620  0.564917  0.688524  1
  Si  Si25  1  0.434387  0.211728  0.813410  1
  Si  Si26  1  0.564917  0.788620  0.311476  1
  Si  Si27  1  0.289630  0.936463  0.061840  1
  Si  Si28  1  0.847472  0.795811  0.809135  1
  Si  Si29  1  0.153096  0.203412  0.308225  1
  Si  Si30  1  0.795811  0.847472  0.190865  1
  Si  Si31  1  0.295774  0.652525  0.558988  1
  Si  Si32  1  0.703552  0.347321  0.058897  1
  Si  Si33  1  0.652525  0.295774  0.441012  1
  Si  Si34  1  0.347321  0.703552  0.941103  1
  Si  Si35  1  0.203412  0.153096  0.691775  1
