# generated using pymatgen
data_Zr3Sc(MnP)4
_symmetry_space_group_name_H-M   'P 1'
_cell_length_a   3.63543600
_cell_length_b   6.45762987
_cell_length_c   7.52430602
_cell_angle_alpha   89.94041187
_cell_angle_beta   90.00000000
_cell_angle_gamma   90.00000000
_symmetry_Int_Tables_number   1
_chemical_formula_structural   Zr3Sc(MnP)4
_chemical_formula_sum   'Zr3 Sc1 Mn4 P4'
_cell_volume   176.64277069
_cell_formula_units_Z   1
loop_
 _symmetry_equiv_pos_site_id
 _symmetry_equiv_pos_as_xyz
  1  'x, y, z'
loop_
 _atom_site_type_symbol
 _atom_site_label
 _atom_site_symmetry_multiplicity
 _atom_site_fract_x
 _atom_site_fract_y
 _atom_site_fract_z
 _atom_site_occupancy
  Zr  Zr0  1  0.250000  0.029798  0.824536  1
  Zr  Zr1  1  0.750000  0.969058  0.175579  1
  Zr  Zr2  1  0.750000  0.469932  0.325132  1
  Sc  Sc3  1  0.250000  0.530678  0.674791  1
  Mn  Mn4  1  0.750000  0.363956  0.939769  1
  Mn  Mn5  1  0.250000  0.135018  0.440489  1
  Mn  Mn6  1  0.750000  0.865412  0.560124  1
  Mn  Mn7  1  0.250000  0.636294  0.059367  1
  P  P8  1  0.250000  0.269618  0.126101  1
  P  P9  1  0.250000  0.768324  0.376533  1
  P  P10  1  0.750000  0.728193  0.871077  1
  P  P11  1  0.750000  0.233718  0.626501  1
