# generated using pymatgen
data_Dy9Ho(IrRu)2
_symmetry_space_group_name_H-M   'P 1'
_cell_length_a   6.40125149
_cell_length_b   7.28725367
_cell_length_c   8.50228569
_cell_angle_alpha   96.78656308
_cell_angle_beta   112.11353958
_cell_angle_gamma   89.99999433
_symmetry_Int_Tables_number   1
_chemical_formula_structural   Dy9Ho(IrRu)2
_chemical_formula_sum   'Dy9 Ho1 Ir2 Ru2'
_cell_volume   364.43458379
_cell_formula_units_Z   1
loop_
 _symmetry_equiv_pos_site_id
 _symmetry_equiv_pos_as_xyz
  1  'x, y, z'
loop_
 _atom_site_type_symbol
 _atom_site_label
 _atom_site_symmetry_multiplicity
 _atom_site_fract_x
 _atom_site_fract_y
 _atom_site_fract_z
 _atom_site_occupancy
  Dy  Dy0  1  0.978745  0.917620  0.186139  1
  Dy  Dy1  1  0.792606  0.582380  0.813861  1
  Dy  Dy2  1  0.024016  0.085126  0.814904  1
  Dy  Dy3  1  0.209112  0.414874  0.185096  1
  Dy  Dy4  1  0.642693  0.816178  0.435296  1
  Dy  Dy5  1  0.207397  0.683822  0.564704  1
  Dy  Dy6  1  0.355528  0.185996  0.563177  1
  Dy  Dy7  1  0.792351  0.314004  0.436823  1
  Dy  Dy8  1  0.422591  0.750000  0.000000  1
  Ho  Ho9  1  0.576210  0.250000  0.000000  1
  Ir  Ir10  1  0.823599  0.576590  0.221207  1
  Ir  Ir11  1  0.602393  0.923410  0.778793  1
  Ru  Ru12  1  0.176042  0.424841  0.779328  1
  Ru  Ru13  1  0.396714  0.075159  0.220672  1
