# generated using pymatgen
data_Ac2Al6Si4Pd
_symmetry_space_group_name_H-M   'P 1'
_cell_length_a   4.27183343
_cell_length_b   4.27240411
_cell_length_c   17.53451500
_cell_angle_alpha   90.03889093
_cell_angle_beta   96.89765510
_cell_angle_gamma   120.10085551
_symmetry_Int_Tables_number   1
_chemical_formula_structural   Ac2Al6Si4Pd
_chemical_formula_sum   'Ac2 Al6 Si4 Pd1'
_cell_volume   274.16951291
_cell_formula_units_Z   1
loop_
 _symmetry_equiv_pos_site_id
 _symmetry_equiv_pos_as_xyz
  1  'x, y, z'
loop_
 _atom_site_type_symbol
 _atom_site_label
 _atom_site_symmetry_multiplicity
 _atom_site_fract_x
 _atom_site_fract_y
 _atom_site_fract_z
 _atom_site_occupancy
  Ac  Ac0  1  0.867530  0.433740  0.298735  1
  Ac  Ac1  1  0.132472  0.566263  0.701268  1
  Al  Al2  1  0.360402  0.680659  0.041102  1
  Al  Al3  1  0.099293  0.048934  0.144663  1
  Al  Al4  1  0.628570  0.814671  0.444744  1
  Al  Al5  1  0.371431  0.185327  0.555259  1
  Al  Al6  1  0.900706  0.951071  0.855339  1
  Al  Al7  1  0.639608  0.319352  0.958904  1
  Si  Si8  1  0.461002  0.729995  0.189223  1
  Si  Si9  1  0.274164  0.137076  0.411872  1
  Si  Si10  1  0.725840  0.862924  0.588133  1
  Si  Si11  1  0.538997  0.270005  0.810776  1
  Pd  Pd12  1  0.999986  0.999981  0.999984  1
