# generated using pymatgen
data_Nd(Eu2Pt)2
_symmetry_space_group_name_H-M   'P 1'
_cell_length_a   6.87736531
_cell_length_b   7.68517894
_cell_length_c   9.23479687
_cell_angle_alpha   97.07366700
_cell_angle_beta   111.86133401
_cell_angle_gamma   89.99999726
_symmetry_Int_Tables_number   1
_chemical_formula_structural   Nd(Eu2Pt)2
_chemical_formula_sum   'Nd2 Eu8 Pt4'
_cell_volume   448.98862678
_cell_formula_units_Z   2
loop_
 _symmetry_equiv_pos_site_id
 _symmetry_equiv_pos_as_xyz
  1  'x, y, z'
loop_
 _atom_site_type_symbol
 _atom_site_label
 _atom_site_symmetry_multiplicity
 _atom_site_fract_x
 _atom_site_fract_y
 _atom_site_fract_z
 _atom_site_occupancy
  Nd  Nd0  1  0.568520  0.250000  0.000000  1
  Nd  Nd1  1  0.431479  0.750000  0.000000  1
  Eu  Eu2  1  0.986392  0.918275  0.182421  1
  Eu  Eu3  1  0.196029  0.418275  0.182421  1
  Eu  Eu4  1  0.794478  0.317860  0.434669  1
  Eu  Eu5  1  0.640191  0.817861  0.434669  1
  Eu  Eu6  1  0.359809  0.182139  0.565331  1
  Eu  Eu7  1  0.205522  0.682140  0.565331  1
  Eu  Eu8  1  0.803971  0.581725  0.817578  1
  Eu  Eu9  1  0.013608  0.081725  0.817578  1
  Pt  Pt10  1  0.800220  0.575906  0.207607  1
  Pt  Pt11  1  0.407388  0.075907  0.207607  1
  Pt  Pt12  1  0.592612  0.924093  0.792393  1
  Pt  Pt13  1  0.199780  0.424094  0.792393  1
