# generated using pymatgen
data_Th3Ga24MoPd8
_symmetry_space_group_name_H-M   'P 1'
_cell_length_a   8.53297222
_cell_length_b   8.53297197
_cell_length_c   8.53297140
_cell_angle_alpha   89.94210612
_cell_angle_beta   89.94211014
_cell_angle_gamma   89.94212109
_symmetry_Int_Tables_number   1
_chemical_formula_structural   Th3Ga24MoPd8
_chemical_formula_sum   'Th3 Ga24 Mo1 Pd8'
_cell_volume   621.29845884
_cell_formula_units_Z   1
loop_
 _symmetry_equiv_pos_site_id
 _symmetry_equiv_pos_as_xyz
  1  'x, y, z'
loop_
 _atom_site_type_symbol
 _atom_site_label
 _atom_site_symmetry_multiplicity
 _atom_site_fract_x
 _atom_site_fract_y
 _atom_site_fract_z
 _atom_site_occupancy
  Th  Th0  1  0.000000  0.500000  0.000000  1
  Th  Th1  1  0.500000  0.000000  0.000000  1
  Th  Th2  1  0.000000  0.000000  0.500000  1
  Ga  Ga3  1  0.989099  0.643657  0.643657  1
  Ga  Ga4  1  0.643657  0.643657  0.989099  1
  Ga  Ga5  1  0.643657  0.989099  0.643657  1
  Ga  Ga6  1  0.010901  0.356343  0.356343  1
  Ga  Ga7  1  0.356343  0.356343  0.010901  1
  Ga  Ga8  1  0.356343  0.010901  0.356343  1
  Ga  Ga9  1  0.733220  0.500000  0.266780  1
  Ga  Ga10  1  0.266780  0.500000  0.733220  1
  Ga  Ga11  1  0.500000  0.266780  0.733220  1
  Ga  Ga12  1  0.500000  0.733220  0.266780  1
  Ga  Ga13  1  0.266780  0.733220  0.500000  1
  Ga  Ga14  1  0.733220  0.266780  0.500000  1
  Ga  Ga15  1  0.838282  0.142834  0.838282  1
  Ga  Ga16  1  0.142834  0.838282  0.838282  1
  Ga  Ga17  1  0.838282  0.838282  0.142834  1
  Ga  Ga18  1  0.161718  0.857166  0.161718  1
  Ga  Ga19  1  0.857166  0.161718  0.161718  1
  Ga  Ga20  1  0.161718  0.161718  0.857166  1
  Ga  Ga21  1  0.728263  0.490648  0.728263  1
  Ga  Ga22  1  0.490648  0.728263  0.728263  1
  Ga  Ga23  1  0.728263  0.728263  0.490648  1
  Ga  Ga24  1  0.271737  0.509352  0.271737  1
  Ga  Ga25  1  0.509352  0.271737  0.271737  1
  Ga  Ga26  1  0.271737  0.271737  0.509352  1
  Mo  Mo27  1  0.500000  0.500000  0.500000  1
  Pd  Pd28  1  0.837615  0.837615  0.837615  1
  Pd  Pd29  1  0.162385  0.162385  0.162385  1
  Pd  Pd30  1  0.665312  0.334688  0.000000  1
  Pd  Pd31  1  0.000000  0.334688  0.665312  1
  Pd  Pd32  1  0.334688  0.000000  0.665312  1
  Pd  Pd33  1  0.334688  0.665312  0.000000  1
  Pd  Pd34  1  0.000000  0.665312  0.334688  1
  Pd  Pd35  1  0.665312  0.000000  0.334688  1
