# generated using pymatgen
data_Y3Ho9Co4BiIr
_symmetry_space_group_name_H-M   'P 1'
_cell_length_a   8.32782032
_cell_length_b   8.32782771
_cell_length_c   8.31767179
_cell_angle_alpha   111.05939326
_cell_angle_beta   110.55874891
_cell_angle_gamma   106.87963415
_symmetry_Int_Tables_number   1
_chemical_formula_structural   Y3Ho9Co4BiIr
_chemical_formula_sum   'Y3 Ho9 Co4 Bi1 Ir1'
_cell_volume   443.07736999
_cell_formula_units_Z   1
loop_
 _symmetry_equiv_pos_site_id
 _symmetry_equiv_pos_as_xyz
  1  'x, y, z'
loop_
 _atom_site_type_symbol
 _atom_site_label
 _atom_site_symmetry_multiplicity
 _atom_site_fract_x
 _atom_site_fract_y
 _atom_site_fract_z
 _atom_site_occupancy
  Y  Y0  1  0.815915  0.713533  0.529448  1
  Y  Y1  1  0.183718  0.286078  0.469796  1
  Y  Y2  1  0.183550  0.713202  0.896752  1
  Ho  Ho3  1  0.817936  0.286273  0.104209  1
  Ho  Ho4  1  0.688398  0.378028  0.690754  1
  Ho  Ho5  1  0.311564  0.621512  0.309843  1
  Ho  Ho6  1  0.688331  0.998276  0.309841  1
  Ho  Ho7  1  0.312725  0.002358  0.690756  1
  Ho  Ho8  1  0.592922  0.789974  0.803712  1
  Ho  Ho9  1  0.408878  0.211081  0.197164  1
  Ho  Ho10  1  0.986084  0.788289  0.197167  1
  Ho  Ho11  1  0.013737  0.210787  0.803709  1
  Co  Co12  1  0.622907  0.000118  0.623025  1
  Co  Co13  1  0.376962  0.000223  0.377185  1
  Co  Co14  1  0.109202  0.610334  0.497432  1
  Co  Co15  1  0.887098  0.388228  0.497430  1
  Bi  Bi16  1  0.499628  0.500232  0.999859  1
  Ir  Ir17  1  0.000445  0.001474  0.001919  1
