# generated using pymatgen
data_TbEr3AlNi
_symmetry_space_group_name_H-M   'P 1'
_cell_length_a   9.38632598
_cell_length_b   9.38632549
_cell_length_c   9.38468300
_cell_angle_alpha   60.00577779
_cell_angle_beta   60.00577952
_cell_angle_gamma   59.98842698
_symmetry_Int_Tables_number   1
_chemical_formula_structural   TbEr3AlNi
_chemical_formula_sum   'Tb4 Er12 Al4 Ni4'
_cell_volume   584.64975794
_cell_formula_units_Z   4
loop_
 _symmetry_equiv_pos_site_id
 _symmetry_equiv_pos_as_xyz
  1  'x, y, z'
loop_
 _atom_site_type_symbol
 _atom_site_label
 _atom_site_symmetry_multiplicity
 _atom_site_fract_x
 _atom_site_fract_y
 _atom_site_fract_z
 _atom_site_occupancy
  Tb  Tb0  1  0.186402  0.813598  0.813598  1
  Tb  Tb1  1  0.813598  0.186402  0.186402  1
  Tb  Tb2  1  0.813598  0.186402  0.813598  1
  Tb  Tb3  1  0.186402  0.813598  0.186402  1
  Er  Er4  1  0.812146  0.812146  0.187854  1
  Er  Er5  1  0.187854  0.187854  0.812146  1
  Er  Er6  1  0.601004  0.601004  0.599519  1
  Er  Er7  1  0.601004  0.601004  0.198471  1
  Er  Er8  1  0.599519  0.198471  0.601004  1
  Er  Er9  1  0.198471  0.599519  0.601004  1
  Er  Er10  1  0.059722  0.440278  0.440278  1
  Er  Er11  1  0.440278  0.059722  0.059722  1
  Er  Er12  1  0.440278  0.059722  0.440278  1
  Er  Er13  1  0.059722  0.440278  0.059722  1
  Er  Er14  1  0.440041  0.440041  0.059959  1
  Er  Er15  1  0.059959  0.059959  0.440041  1
  Al  Al16  1  0.826442  0.826442  0.826937  1
  Al  Al17  1  0.826442  0.826442  0.520177  1
  Al  Al18  1  0.826937  0.520177  0.826442  1
  Al  Al19  1  0.520177  0.826937  0.826442  1
  Ni  Ni20  1  0.392454  0.392454  0.393523  1
  Ni  Ni21  1  0.392454  0.392454  0.821568  1
  Ni  Ni22  1  0.393523  0.821568  0.392454  1
  Ni  Ni23  1  0.821568  0.393523  0.392454  1
