# generated using pymatgen
data_Ba14Sr(SnSb6)2
_symmetry_space_group_name_H-M   'P 1'
_cell_length_a   10.59477485
_cell_length_b   10.59477567
_cell_length_c   10.59477500
_cell_angle_alpha   88.20966842
_cell_angle_beta   88.20967369
_cell_angle_gamma   88.20967064
_symmetry_Int_Tables_number   1
_chemical_formula_structural   Ba14Sr(SnSb6)2
_chemical_formula_sum   'Ba14 Sr1 Sn2 Sb12'
_cell_volume   1187.54953702
_cell_formula_units_Z   1
loop_
 _symmetry_equiv_pos_site_id
 _symmetry_equiv_pos_as_xyz
  1  'x, y, z'
loop_
 _atom_site_type_symbol
 _atom_site_label
 _atom_site_symmetry_multiplicity
 _atom_site_fract_x
 _atom_site_fract_y
 _atom_site_fract_z
 _atom_site_occupancy
  Ba  Ba0  1  0.410499  0.281314  0.773496  1
  Ba  Ba1  1  0.773496  0.410499  0.281314  1
  Ba  Ba2  1  0.281314  0.773496  0.410499  1
  Ba  Ba3  1  0.017678  0.524820  0.663376  1
  Ba  Ba4  1  0.663376  0.017678  0.524820  1
  Ba  Ba5  1  0.524820  0.663376  0.017678  1
  Ba  Ba6  1  0.171721  0.531863  0.026826  1
  Ba  Ba7  1  0.026826  0.171721  0.531863  1
  Ba  Ba8  1  0.531863  0.026826  0.171721  1
  Ba  Ba9  1  0.776142  0.290819  0.924169  1
  Ba  Ba10  1  0.924169  0.776142  0.290819  1
  Ba  Ba11  1  0.290819  0.924169  0.776142  1
  Ba  Ba12  1  0.166310  0.166310  0.166310  1
  Ba  Ba13  1  0.399291  0.399291  0.399291  1
  Sr  Sr14  1  0.946611  0.946611  0.946611  1
  Sn  Sn15  1  0.760426  0.760426  0.760426  1
  Sn  Sn16  1  0.603239  0.603239  0.603239  1
  Sb  Sb17  1  0.708343  0.348135  0.601899  1
  Sb  Sb18  1  0.601899  0.708343  0.348135  1
  Sb  Sb19  1  0.348135  0.601899  0.708343  1
  Sb  Sb20  1  0.620701  0.978688  0.855444  1
  Sb  Sb21  1  0.855444  0.620701  0.978688  1
  Sb  Sb22  1  0.978688  0.855444  0.620701  1
  Sb  Sb23  1  0.472324  0.343868  0.085909  1
  Sb  Sb24  1  0.085909  0.472324  0.343868  1
  Sb  Sb25  1  0.343868  0.085909  0.472324  1
  Sb  Sb26  1  0.093565  0.229803  0.847447  1
  Sb  Sb27  1  0.847447  0.093565  0.229803  1
  Sb  Sb28  1  0.229803  0.847447  0.093565  1
