# generated using pymatgen
data_Eu4Hf(MoO4)3
_symmetry_space_group_name_H-M   'P 1'
_cell_length_a   5.66061164
_cell_length_b   5.87451346
_cell_length_c   8.09160514
_cell_angle_alpha   89.87068591
_cell_angle_beta   89.99365474
_cell_angle_gamma   89.65777437
_symmetry_Int_Tables_number   1
_chemical_formula_structural   Eu4Hf(MoO4)3
_chemical_formula_sum   'Eu4 Hf1 Mo3 O12'
_cell_volume   269.06740431
_cell_formula_units_Z   1
loop_
 _symmetry_equiv_pos_site_id
 _symmetry_equiv_pos_as_xyz
  1  'x, y, z'
loop_
 _atom_site_type_symbol
 _atom_site_label
 _atom_site_symmetry_multiplicity
 _atom_site_fract_x
 _atom_site_fract_y
 _atom_site_fract_z
 _atom_site_occupancy
  Eu  Eu0  1  0.982229  0.051762  0.248591  1
  Eu  Eu1  1  0.488139  0.447495  0.751642  1
  Eu  Eu2  1  0.511861  0.552505  0.248358  1
  Eu  Eu3  1  0.017771  0.948238  0.751409  1
  Hf  Hf4  1  0.000000  0.500000  0.500000  1
  Mo  Mo5  1  0.500000  0.000000  0.000000  1
  Mo  Mo6  1  0.500000  0.000000  0.500000  1
  Mo  Mo7  1  0.000000  0.500000  0.000000  1
  O  O8  1  0.605510  0.040221  0.755667  1
  O  O9  1  0.196502  0.208066  0.555172  1
  O  O10  1  0.207597  0.199369  0.946184  1
  O  O11  1  0.694624  0.295953  0.053569  1
  O  O12  1  0.704208  0.301482  0.449512  1
  O  O13  1  0.100036  0.461319  0.253614  1
  O  O14  1  0.899964  0.538681  0.746386  1
  O  O15  1  0.295792  0.698518  0.550488  1
  O  O16  1  0.305376  0.704047  0.946431  1
  O  O17  1  0.792403  0.800631  0.053816  1
  O  O18  1  0.803498  0.791934  0.444828  1
  O  O19  1  0.394490  0.959779  0.244333  1
