# generated using pymatgen
data_Y2MoWN4
_symmetry_space_group_name_H-M   'P 1'
_cell_length_a   3.21668000
_cell_length_b   5.72746800
_cell_length_c   10.59321000
_cell_angle_alpha   90.00000000
_cell_angle_beta   90.00000000
_cell_angle_gamma   90.00000000
_symmetry_Int_Tables_number   1
_chemical_formula_structural   Y2MoWN4
_chemical_formula_sum   'Y4 Mo2 W2 N8'
_cell_volume   195.16328162
_cell_formula_units_Z   2
loop_
 _symmetry_equiv_pos_site_id
 _symmetry_equiv_pos_as_xyz
  1  'x, y, z'
loop_
 _atom_site_type_symbol
 _atom_site_label
 _atom_site_symmetry_multiplicity
 _atom_site_fract_x
 _atom_site_fract_y
 _atom_site_fract_z
 _atom_site_occupancy
  Y  Y0  1  0.250000  0.079253  0.853597  1
  Y  Y1  1  0.250000  0.579253  0.646403  1
  Y  Y2  1  0.750000  0.920122  0.145196  1
  Y  Y3  1  0.750000  0.420122  0.354804  1
  Mo  Mo4  1  0.750000  0.566907  0.906221  1
  Mo  Mo5  1  0.750000  0.066907  0.593779  1
  W  W6  1  0.250000  0.433688  0.094504  1
  W  W7  1  0.250000  0.933688  0.405496  1
  N  N8  1  0.250000  0.164868  0.248885  1
  N  N9  1  0.250000  0.664868  0.251115  1
  N  N10  1  0.750000  0.836209  0.749775  1
  N  N11  1  0.750000  0.336209  0.750225  1
  N  N12  1  0.250000  0.758066  0.994323  1
  N  N13  1  0.250000  0.258066  0.505677  1
  N  N14  1  0.750000  0.240887  0.008665  1
  N  N15  1  0.750000  0.740887  0.491335  1
