# generated using pymatgen
data_Nd11Er(SiI3)4
_symmetry_space_group_name_H-M   'P 1'
_cell_length_a   10.82529663
_cell_length_b   10.82529694
_cell_length_c   10.83263320
_cell_angle_alpha   109.50085616
_cell_angle_beta   109.50084740
_cell_angle_gamma   109.40506445
_symmetry_Int_Tables_number   1
_chemical_formula_structural   Nd11Er(SiI3)4
_chemical_formula_sum   'Nd11 Er1 Si4 I12'
_cell_volume   977.30115411
_cell_formula_units_Z   1
loop_
 _symmetry_equiv_pos_site_id
 _symmetry_equiv_pos_as_xyz
  1  'x, y, z'
loop_
 _atom_site_type_symbol
 _atom_site_label
 _atom_site_symmetry_multiplicity
 _atom_site_fract_x
 _atom_site_fract_y
 _atom_site_fract_z
 _atom_site_occupancy
  Nd  Nd0  1  0.465338  0.482002  0.232735  1
  Nd  Nd1  1  0.751645  0.232190  0.268981  1
  Nd  Nd2  1  0.748785  0.016958  0.481654  1
  Nd  Nd3  1  0.232371  0.464311  0.481903  1
  Nd  Nd4  1  0.267810  0.748355  0.231019  1
  Nd  Nd5  1  0.035689  0.267629  0.018097  1
  Nd  Nd6  1  0.017998  0.034662  0.267265  1
  Nd  Nd7  1  0.483042  0.751215  0.018346  1
  Nd  Nd8  1  0.482849  0.232153  0.464713  1
  Nd  Nd9  1  0.018365  0.481635  0.750000  1
  Nd  Nd10  1  0.267847  0.017151  0.035287  1
  Er  Er11  1  0.228156  0.271844  0.750000  1
  Si  Si12  1  0.250249  0.249751  0.250000  1
  Si  Si13  1  0.500022  0.999978  0.250000  1
  Si  Si14  1  0.003464  0.249220  0.503115  1
  Si  Si15  1  0.250780  0.496536  0.996885  1
  I  I16  1  0.250005  0.756967  0.742416  1
  I  I17  1  0.506224  0.497983  0.757914  1
  I  I18  1  0.984917  0.741757  0.991961  1
  I  I19  1  0.743033  0.249995  0.757584  1
  I  I20  1  0.002017  0.993776  0.742086  1
  I  I21  1  0.250818  0.999645  0.513492  1
  I  I22  1  0.758243  0.515083  0.508039  1
  I  I23  1  0.500355  0.249182  0.986508  1
  I  I24  1  0.757525  0.742475  0.250000  1
  I  I25  1  0.742491  0.992311  0.984818  1
  I  I26  1  0.992273  0.507727  0.250000  1
  I  I27  1  0.507689  0.757509  0.515182  1
