# generated using pymatgen
data_Tb6Cd23Sb
_symmetry_space_group_name_H-M   'P 1'
_cell_length_a   10.00689500
_cell_length_b   10.00689540
_cell_length_c   10.00689500
_cell_angle_alpha   59.99999800
_cell_angle_beta   59.99999671
_cell_angle_gamma   60.00000291
_symmetry_Int_Tables_number   1
_chemical_formula_structural   Tb6Cd23Sb
_chemical_formula_sum   'Tb6 Cd23 Sb1'
_cell_volume   708.57045590
_cell_formula_units_Z   1
loop_
 _symmetry_equiv_pos_site_id
 _symmetry_equiv_pos_as_xyz
  1  'x, y, z'
loop_
 _atom_site_type_symbol
 _atom_site_label
 _atom_site_symmetry_multiplicity
 _atom_site_fract_x
 _atom_site_fract_y
 _atom_site_fract_z
 _atom_site_occupancy
  Tb  Tb0  1  0.785074  0.785074  0.214926  1
  Tb  Tb1  1  0.214926  0.785074  0.214926  1
  Tb  Tb2  1  0.785074  0.214926  0.214926  1
  Tb  Tb3  1  0.214926  0.214926  0.785074  1
  Tb  Tb4  1  0.785074  0.214926  0.785074  1
  Tb  Tb5  1  0.214926  0.785074  0.785074  1
  Cd  Cd6  1  0.837442  0.837442  0.487673  1
  Cd  Cd7  1  0.837442  0.487673  0.837442  1
  Cd  Cd8  1  0.487673  0.837442  0.837442  1
  Cd  Cd9  1  0.837442  0.837442  0.837442  1
  Cd  Cd10  1  0.162558  0.162558  0.512327  1
  Cd  Cd11  1  0.162558  0.512327  0.162558  1
  Cd  Cd12  1  0.512327  0.162558  0.162558  1
  Cd  Cd13  1  0.162558  0.162558  0.162558  1
  Cd  Cd14  1  0.622362  0.622362  0.132915  1
  Cd  Cd15  1  0.622362  0.132915  0.622362  1
  Cd  Cd16  1  0.132915  0.622362  0.622362  1
  Cd  Cd17  1  0.622362  0.622362  0.622362  1
  Cd  Cd18  1  0.377638  0.377638  0.867085  1
  Cd  Cd19  1  0.377638  0.867085  0.377638  1
  Cd  Cd20  1  0.867085  0.377638  0.377638  1
  Cd  Cd21  1  0.377638  0.377638  0.377638  1
  Cd  Cd22  1  0.000000  0.000000  0.500000  1
  Cd  Cd23  1  0.500000  0.000000  0.500000  1
  Cd  Cd24  1  0.000000  0.500000  0.500000  1
  Cd  Cd25  1  0.500000  0.500000  0.000000  1
  Cd  Cd26  1  0.000000  0.500000  0.000000  1
  Cd  Cd27  1  0.500000  0.000000  0.000000  1
  Cd  Cd28  1  0.500000  0.500000  0.500000  1
  Sb  Sb29  1  0.000000  0.000000  0.000000  1
