# generated using pymatgen
data_Er2MnCo2Si5
_symmetry_space_group_name_H-M   'P 1'
_cell_length_a   5.40005698
_cell_length_b   7.96423485
_cell_length_c   7.96423604
_cell_angle_alpha   72.86924023
_cell_angle_beta   70.18287873
_cell_angle_gamma   70.18287229
_symmetry_Int_Tables_number   1
_chemical_formula_structural   Er2MnCo2Si5
_chemical_formula_sum   'Er4 Mn2 Co4 Si10'
_cell_volume   296.84467381
_cell_formula_units_Z   2
loop_
 _symmetry_equiv_pos_site_id
 _symmetry_equiv_pos_as_xyz
  1  'x, y, z'
loop_
 _atom_site_type_symbol
 _atom_site_label
 _atom_site_symmetry_multiplicity
 _atom_site_fract_x
 _atom_site_fract_y
 _atom_site_fract_z
 _atom_site_occupancy
  Er  Er0  1  0.364167  0.868187  0.403480  1
  Er  Er1  1  0.635833  0.131813  0.596520  1
  Er  Er2  1  0.864167  0.403480  0.868187  1
  Er  Er3  1  0.135833  0.596520  0.131813  1
  Mn  Mn4  1  0.750000  0.000000  0.000000  1
  Mn  Mn5  1  0.250000  0.000000  0.000000  1
  Co  Co6  1  0.140884  0.261273  0.456958  1
  Co  Co7  1  0.859116  0.738727  0.543042  1
  Co  Co8  1  0.640884  0.456958  0.261273  1
  Co  Co9  1  0.359116  0.543042  0.738727  1
  Si  Si10  1  0.750000  0.500000  0.500000  1
  Si  Si11  1  0.250000  0.500000  0.500000  1
  Si  Si12  1  0.532028  0.217972  0.217972  1
  Si  Si13  1  0.967972  0.782028  0.782028  1
  Si  Si14  1  0.467972  0.782028  0.782028  1
  Si  Si15  1  0.032028  0.217972  0.217972  1
  Si  Si16  1  0.099125  0.069943  0.731807  1
  Si  Si17  1  0.900875  0.930057  0.268193  1
  Si  Si18  1  0.599125  0.731807  0.069943  1
  Si  Si19  1  0.400875  0.268193  0.930057  1
