# generated using pymatgen
data_Dy16Cd3Hg(IrPt)2
_symmetry_space_group_name_H-M   'P 1'
_cell_length_a   9.64180661
_cell_length_b   9.64180644
_cell_length_c   9.61055900
_cell_angle_alpha   60.10495290
_cell_angle_beta   60.10495542
_cell_angle_gamma   60.28418855
_symmetry_Int_Tables_number   1
_chemical_formula_structural   Dy16Cd3Hg(IrPt)2
_chemical_formula_sum   'Dy16 Cd3 Hg1 Ir2 Pt2'
_cell_volume   634.11008913
_cell_formula_units_Z   1
loop_
 _symmetry_equiv_pos_site_id
 _symmetry_equiv_pos_as_xyz
  1  'x, y, z'
loop_
 _atom_site_type_symbol
 _atom_site_label
 _atom_site_symmetry_multiplicity
 _atom_site_fract_x
 _atom_site_fract_y
 _atom_site_fract_z
 _atom_site_occupancy
  Dy  Dy0  1  0.599241  0.599241  0.596135  1
  Dy  Dy1  1  0.603014  0.603014  0.197435  1
  Dy  Dy2  1  0.607354  0.191356  0.602775  1
  Dy  Dy3  1  0.191356  0.607354  0.602775  1
  Dy  Dy4  1  0.056375  0.441466  0.439827  1
  Dy  Dy5  1  0.439006  0.056393  0.062402  1
  Dy  Dy6  1  0.441466  0.056375  0.439827  1
  Dy  Dy7  1  0.056393  0.439006  0.062402  1
  Dy  Dy8  1  0.441215  0.441215  0.059011  1
  Dy  Dy9  1  0.060736  0.060736  0.436948  1
  Dy  Dy10  1  0.187780  0.815170  0.811222  1
  Dy  Dy11  1  0.813073  0.187694  0.187275  1
  Dy  Dy12  1  0.815170  0.187780  0.811222  1
  Dy  Dy13  1  0.187694  0.813073  0.187275  1
  Dy  Dy14  1  0.813134  0.813134  0.187035  1
  Dy  Dy15  1  0.187459  0.187459  0.810996  1
  Cd  Cd16  1  0.831037  0.831037  0.504457  1
  Cd  Cd17  1  0.830362  0.505742  0.830996  1
  Cd  Cd18  1  0.505742  0.830362  0.830996  1
  Hg  Hg19  1  0.834703  0.834703  0.834703  1
  Ir  Ir20  1  0.390410  0.823356  0.393010  1
  Ir  Ir21  1  0.823356  0.390410  0.393010  1
  Pt  Pt22  1  0.392592  0.392592  0.396196  1
  Pt  Pt23  1  0.391331  0.391331  0.822072  1
