# generated using pymatgen
data_NdHg3(Pt2O7)2
_symmetry_space_group_name_H-M   'P 1'
_cell_length_a   7.38461688
_cell_length_b   7.38461616
_cell_length_c   7.38461650
_cell_angle_alpha   59.48550078
_cell_angle_beta   59.48550202
_cell_angle_gamma   59.48550206
_symmetry_Int_Tables_number   1
_chemical_formula_structural   NdHg3(Pt2O7)2
_chemical_formula_sum   'Nd1 Hg3 Pt4 O14'
_cell_volume   281.42113816
_cell_formula_units_Z   1
loop_
 _symmetry_equiv_pos_site_id
 _symmetry_equiv_pos_as_xyz
  1  'x, y, z'
loop_
 _atom_site_type_symbol
 _atom_site_label
 _atom_site_symmetry_multiplicity
 _atom_site_fract_x
 _atom_site_fract_y
 _atom_site_fract_z
 _atom_site_occupancy
  Nd  Nd0  1  0.125000  0.125000  0.125000  1
  Hg  Hg1  1  0.625000  0.125000  0.125000  1
  Hg  Hg2  1  0.125000  0.625000  0.125000  1
  Hg  Hg3  1  0.125000  0.125000  0.625000  1
  Pt  Pt4  1  0.625000  0.625000  0.125000  1
  Pt  Pt5  1  0.625000  0.625000  0.625000  1
  Pt  Pt6  1  0.625000  0.125000  0.625000  1
  Pt  Pt7  1  0.125000  0.625000  0.625000  1
  O  O8  1  0.715562  0.294522  0.294522  1
  O  O9  1  0.702404  0.296263  0.702404  1
  O  O10  1  0.991743  0.991743  0.991743  1
  O  O11  1  0.294522  0.715562  0.294522  1
  O  O12  1  0.702404  0.702404  0.296263  1
  O  O13  1  0.953737  0.547596  0.547596  1
  O  O14  1  0.296263  0.702404  0.702404  1
  O  O15  1  0.258257  0.258257  0.258257  1
  O  O16  1  0.955478  0.534438  0.955478  1
  O  O17  1  0.547596  0.953737  0.547596  1
  O  O18  1  0.547596  0.547596  0.953737  1
  O  O19  1  0.955478  0.955478  0.534438  1
  O  O20  1  0.534438  0.955478  0.955478  1
  O  O21  1  0.294522  0.294522  0.715562  1
