# generated using pymatgen
data_CaTh2As3
_symmetry_space_group_name_H-M   'P 1'
_cell_length_a   4.26827600
_cell_length_b   4.26827511
_cell_length_c   10.39139600
_cell_angle_alpha   90.00000000
_cell_angle_beta   90.00000000
_cell_angle_gamma   119.99999137
_symmetry_Int_Tables_number   1
_chemical_formula_structural   CaTh2As3
_chemical_formula_sum   'Ca1 Th2 As3'
_cell_volume   163.94926109
_cell_formula_units_Z   1
loop_
 _symmetry_equiv_pos_site_id
 _symmetry_equiv_pos_as_xyz
  1  'x, y, z'
loop_
 _atom_site_type_symbol
 _atom_site_label
 _atom_site_symmetry_multiplicity
 _atom_site_fract_x
 _atom_site_fract_y
 _atom_site_fract_z
 _atom_site_occupancy
  Ca  Ca0  1  0.000000  0.000000  0.000000  1
  Th  Th1  1  0.333333  0.666667  0.670780  1
  Th  Th2  1  0.666667  0.333333  0.329220  1
  As  As3  1  0.333333  0.666667  0.170184  1
  As  As4  1  0.666667  0.333333  0.829816  1
  As  As5  1  0.000000  0.000000  0.500000  1
