# generated using pymatgen
data_LiDyHo15Cd3Ni4
_symmetry_space_group_name_H-M   'P 1'
_cell_length_a   9.50560612
_cell_length_b   9.50560656
_cell_length_c   9.50560737
_cell_angle_alpha   59.89007746
_cell_angle_beta   59.89007637
_cell_angle_gamma   59.89007603
_symmetry_Int_Tables_number   1
_chemical_formula_structural   LiDyHo15Cd3Ni4
_chemical_formula_sum   'Li1 Dy1 Ho15 Cd3 Ni4'
_cell_volume   605.81505161
_cell_formula_units_Z   1
loop_
 _symmetry_equiv_pos_site_id
 _symmetry_equiv_pos_as_xyz
  1  'x, y, z'
loop_
 _atom_site_type_symbol
 _atom_site_label
 _atom_site_symmetry_multiplicity
 _atom_site_fract_x
 _atom_site_fract_y
 _atom_site_fract_z
 _atom_site_occupancy
  Li  Li0  1  0.571529  0.571529  0.571529  1
  Dy  Dy1  1  0.347140  0.347140  0.347140  1
  Ho  Ho2  1  0.348403  0.348403  0.954805  1
  Ho  Ho3  1  0.348403  0.954805  0.348403  1
  Ho  Ho4  1  0.954805  0.348403  0.348403  1
  Ho  Ho5  1  0.811789  0.190666  0.190666  1
  Ho  Ho6  1  0.186810  0.814006  0.814006  1
  Ho  Ho7  1  0.190666  0.811789  0.190666  1
  Ho  Ho8  1  0.814006  0.186810  0.814006  1
  Ho  Ho9  1  0.190666  0.190666  0.811789  1
  Ho  Ho10  1  0.814006  0.814006  0.186810  1
  Ho  Ho11  1  0.935514  0.564639  0.564639  1
  Ho  Ho12  1  0.563623  0.936474  0.936474  1
  Ho  Ho13  1  0.564639  0.935514  0.564639  1
  Ho  Ho14  1  0.936474  0.563623  0.936474  1
  Ho  Ho15  1  0.564639  0.564639  0.935514  1
  Ho  Ho16  1  0.936474  0.936474  0.563623  1
  Cd  Cd17  1  0.582069  0.582069  0.255979  1
  Cd  Cd18  1  0.582069  0.255979  0.582069  1
  Cd  Cd19  1  0.255979  0.582069  0.582069  1
  Ni  Ni20  1  0.143288  0.143288  0.143288  1
  Ni  Ni21  1  0.141438  0.141438  0.574132  1
  Ni  Ni22  1  0.141438  0.574132  0.141438  1
  Ni  Ni23  1  0.574132  0.141438  0.141438  1
