# generated using pymatgen
data_SrTbHo2(Pt2O7)2
_symmetry_space_group_name_H-M   'P 1'
_cell_length_a   7.33836230
_cell_length_b   7.33873391
_cell_length_c   7.33873379
_cell_angle_alpha   59.79297306
_cell_angle_beta   59.84306823
_cell_angle_gamma   59.84305935
_symmetry_Int_Tables_number   1
_chemical_formula_structural   SrTbHo2(Pt2O7)2
_chemical_formula_sum   'Sr1 Tb1 Ho2 Pt4 O14'
_cell_volume   278.36285315
_cell_formula_units_Z   1
loop_
 _symmetry_equiv_pos_site_id
 _symmetry_equiv_pos_as_xyz
  1  'x, y, z'
loop_
 _atom_site_type_symbol
 _atom_site_label
 _atom_site_symmetry_multiplicity
 _atom_site_fract_x
 _atom_site_fract_y
 _atom_site_fract_z
 _atom_site_occupancy
  Sr  Sr0  1  0.625000  0.625000  0.625000  1
  Tb  Tb1  1  0.125000  0.625000  0.625000  1
  Ho  Ho2  1  0.625000  0.625000  0.125000  1
  Ho  Ho3  1  0.625000  0.125000  0.625000  1
  Pt  Pt4  1  0.125000  0.125000  0.125000  1
  Pt  Pt5  1  0.625000  0.125000  0.125000  1
  Pt  Pt6  1  0.125000  0.625000  0.125000  1
  Pt  Pt7  1  0.125000  0.125000  0.625000  1
  O  O8  1  0.055446  0.458163  0.458163  1
  O  O9  1  0.791467  0.791323  0.194001  1
  O  O10  1  0.787621  0.213292  0.213292  1
  O  O11  1  0.458533  0.055999  0.458677  1
  O  O12  1  0.754651  0.758731  0.758731  1
  O  O13  1  0.036067  0.037922  0.462181  1
  O  O14  1  0.036067  0.462181  0.037922  1
  O  O15  1  0.791467  0.194001  0.791323  1
  O  O16  1  0.213933  0.787819  0.212078  1
  O  O17  1  0.213933  0.212078  0.787819  1
  O  O18  1  0.495349  0.491269  0.491269  1
  O  O19  1  0.462379  0.036708  0.036708  1
  O  O20  1  0.458533  0.458677  0.055999  1
  O  O21  1  0.194554  0.791837  0.791837  1
