# generated using pymatgen
data_Zr3In3Rh2Au
_symmetry_space_group_name_H-M   'P 1'
_cell_length_a   7.61775100
_cell_length_b   7.61775172
_cell_length_c   3.57039000
_cell_angle_alpha   90.00000000
_cell_angle_beta   90.00000000
_cell_angle_gamma   119.99999255
_symmetry_Int_Tables_number   1
_chemical_formula_structural   Zr3In3Rh2Au
_chemical_formula_sum   'Zr3 In3 Rh2 Au1'
_cell_volume   179.43200425
_cell_formula_units_Z   1
loop_
 _symmetry_equiv_pos_site_id
 _symmetry_equiv_pos_as_xyz
  1  'x, y, z'
loop_
 _atom_site_type_symbol
 _atom_site_label
 _atom_site_symmetry_multiplicity
 _atom_site_fract_x
 _atom_site_fract_y
 _atom_site_fract_z
 _atom_site_occupancy
  Zr  Zr0  1  0.977779  0.382110  0.500000  1
  Zr  Zr1  1  0.617890  0.595669  0.500000  1
  Zr  Zr2  1  0.404331  0.022221  0.500000  1
  In  In3  1  0.004763  0.733749  0.000000  1
  In  In4  1  0.266251  0.271014  0.000000  1
  In  In5  1  0.728986  0.995237  0.000000  1
  Rh  Rh6  1  0.666667  0.333333  0.000000  1
  Rh  Rh7  1  0.000000  0.000000  0.500000  1
  Au  Au8  1  0.333333  0.666667  0.000000  1
