# generated using pymatgen
data_La2PaSn3RuRh2
_symmetry_space_group_name_H-M   'P 1'
_cell_length_a   7.75429700
_cell_length_b   7.82791333
_cell_length_c   3.94765000
_cell_angle_alpha   90.00000000
_cell_angle_beta   90.00000000
_cell_angle_gamma   120.47406596
_symmetry_Int_Tables_number   1
_chemical_formula_structural   La2PaSn3RuRh2
_chemical_formula_sum   'La2 Pa1 Sn3 Ru1 Rh2'
_cell_volume   206.52051608
_cell_formula_units_Z   1
loop_
 _symmetry_equiv_pos_site_id
 _symmetry_equiv_pos_as_xyz
  1  'x, y, z'
loop_
 _atom_site_type_symbol
 _atom_site_label
 _atom_site_symmetry_multiplicity
 _atom_site_fract_x
 _atom_site_fract_y
 _atom_site_fract_z
 _atom_site_occupancy
  La  La0  1  0.591462  0.587199  0.000000  1
  La  La1  1  0.410954  0.000406  0.000000  1
  Pa  Pa2  1  0.991596  0.413091  0.000000  1
  Sn  Sn3  1  0.254168  0.254205  0.500000  1
  Sn  Sn4  1  0.000092  0.757766  0.500000  1
  Sn  Sn5  1  0.742663  0.996148  0.500000  1
  Ru  Ru6  1  0.723453  0.344066  0.500000  1
  Rh  Rh7  1  0.285870  0.628207  0.500000  1
  Rh  Rh8  1  0.999741  0.018912  0.000000  1
