# generated using pymatgen
data_CaYV3O8
_symmetry_space_group_name_H-M   'P 1'
_cell_length_a   6.37131200
_cell_length_b   6.37131231
_cell_length_c   5.10774274
_cell_angle_alpha   71.20196065
_cell_angle_beta   71.20195658
_cell_angle_gamma   57.76263409
_symmetry_Int_Tables_number   1
_chemical_formula_structural   CaYV3O8
_chemical_formula_sum   'Ca1 Y1 V3 O8'
_cell_volume   163.07164956
_cell_formula_units_Z   1
loop_
 _symmetry_equiv_pos_site_id
 _symmetry_equiv_pos_as_xyz
  1  'x, y, z'
loop_
 _atom_site_type_symbol
 _atom_site_label
 _atom_site_symmetry_multiplicity
 _atom_site_fract_x
 _atom_site_fract_y
 _atom_site_fract_z
 _atom_site_occupancy
  Ca  Ca0  1  0.278055  0.278055  0.669096  1
  Y  Y1  1  0.724779  0.724779  0.334481  1
  V  V2  1  0.000516  0.000516  0.496812  1
  V  V3  1  0.738681  0.262572  0.000769  1
  V  V4  1  0.262572  0.738681  0.000769  1
  O  O5  1  0.400117  0.400117  0.947107  1
  O  O6  1  0.603885  0.603885  0.063892  1
  O  O7  1  0.897286  0.897286  0.913745  1
  O  O8  1  0.100268  0.100268  0.086507  1
  O  O9  1  0.337550  0.878864  0.611658  1
  O  O10  1  0.878864  0.337550  0.611658  1
  O  O11  1  0.108108  0.669320  0.381753  1
  O  O12  1  0.669320  0.108108  0.381753  1
