# generated using pymatgen
data_Tb6Th2MgHgRu2
_symmetry_space_group_name_H-M   'P 1'
_cell_length_a   9.73764134
_cell_length_b   9.73764237
_cell_length_c   9.74984700
_cell_angle_alpha   59.95852761
_cell_angle_beta   59.95852408
_cell_angle_gamma   60.10944560
_symmetry_Int_Tables_number   1
_chemical_formula_structural   Tb6Th2MgHgRu2
_chemical_formula_sum   'Tb12 Th4 Mg2 Hg2 Ru4'
_cell_volume   653.84580622
_cell_formula_units_Z   2
loop_
 _symmetry_equiv_pos_site_id
 _symmetry_equiv_pos_as_xyz
  1  'x, y, z'
loop_
 _atom_site_type_symbol
 _atom_site_label
 _atom_site_symmetry_multiplicity
 _atom_site_fract_x
 _atom_site_fract_y
 _atom_site_fract_z
 _atom_site_occupancy
  Tb  Tb0  1  0.061756  0.437116  0.438917  1
  Tb  Tb1  1  0.437116  0.061756  0.062211  1
  Tb  Tb2  1  0.437116  0.061756  0.438917  1
  Tb  Tb3  1  0.061756  0.437116  0.062211  1
  Tb  Tb4  1  0.437271  0.437271  0.062729  1
  Tb  Tb5  1  0.059567  0.059567  0.440433  1
  Tb  Tb6  1  0.184277  0.812476  0.814273  1
  Tb  Tb7  1  0.812476  0.184277  0.188974  1
  Tb  Tb8  1  0.812476  0.184277  0.814273  1
  Tb  Tb9  1  0.184277  0.812476  0.188974  1
  Tb  Tb10  1  0.813648  0.813648  0.186352  1
  Tb  Tb11  1  0.186724  0.186724  0.813276  1
  Th  Th12  1  0.596259  0.596259  0.596354  1
  Th  Th13  1  0.596259  0.596259  0.211129  1
  Th  Th14  1  0.599141  0.206670  0.597095  1
  Th  Th15  1  0.206670  0.599141  0.597095  1
  Mg  Mg16  1  0.829780  0.519165  0.825527  1
  Mg  Mg17  1  0.519165  0.829780  0.825527  1
  Hg  Hg18  1  0.832054  0.832054  0.838733  1
  Hg  Hg19  1  0.832054  0.832054  0.497160  1
  Ru  Ru20  1  0.393796  0.393796  0.392648  1
  Ru  Ru21  1  0.393796  0.393796  0.819760  1
  Ru  Ru22  1  0.394355  0.818214  0.393716  1
  Ru  Ru23  1  0.818214  0.394355  0.393716  1
