# generated using pymatgen
data_AlV12Si2Os
_symmetry_space_group_name_H-M   'P 1'
_cell_length_a   4.74837000
_cell_length_b   4.75055800
_cell_length_c   9.50139100
_cell_angle_alpha   90.00000000
_cell_angle_beta   90.00000000
_cell_angle_gamma   90.00000000
_symmetry_Int_Tables_number   1
_chemical_formula_structural   AlV12Si2Os
_chemical_formula_sum   'Al1 V12 Si2 Os1'
_cell_volume   214.32674471
_cell_formula_units_Z   1
loop_
 _symmetry_equiv_pos_site_id
 _symmetry_equiv_pos_as_xyz
  1  'x, y, z'
loop_
 _atom_site_type_symbol
 _atom_site_label
 _atom_site_symmetry_multiplicity
 _atom_site_fract_x
 _atom_site_fract_y
 _atom_site_fract_z
 _atom_site_occupancy
  Al  Al0  1  0.500000  0.500000  0.001549  1
  V  V1  1  0.000000  0.500000  0.123953  1
  V  V2  1  0.000000  0.500000  0.626017  1
  V  V3  1  0.500000  0.250179  0.744794  1
  V  V4  1  0.500000  0.251516  0.254498  1
  V  V5  1  0.755260  0.000000  0.001421  1
  V  V6  1  0.750425  0.000000  0.499310  1
  V  V7  1  0.000000  0.500000  0.870740  1
  V  V8  1  0.000000  0.500000  0.379216  1
  V  V9  1  0.500000  0.749821  0.744794  1
  V  V10  1  0.500000  0.748484  0.254498  1
  V  V11  1  0.244740  0.000000  0.001421  1
  V  V12  1  0.249575  0.000000  0.499310  1
  Si  Si13  1  0.500000  0.500000  0.497582  1
  Si  Si14  1  0.000000  0.000000  0.250536  1
  Os  Os15  1  0.000000  0.000000  0.750362  1
