# generated using pymatgen
data_Dy12ZnCo4Hg
_symmetry_space_group_name_H-M   'P 1'
_cell_length_a   8.28895831
_cell_length_b   8.28895808
_cell_length_c   8.28895821
_cell_angle_alpha   106.58172316
_cell_angle_beta   109.93902664
_cell_angle_gamma   111.93763626
_symmetry_Int_Tables_number   1
_chemical_formula_structural   Dy12ZnCo4Hg
_chemical_formula_sum   'Dy12 Zn1 Co4 Hg1'
_cell_volume   437.43609086
_cell_formula_units_Z   1
loop_
 _symmetry_equiv_pos_site_id
 _symmetry_equiv_pos_as_xyz
  1  'x, y, z'
loop_
 _atom_site_type_symbol
 _atom_site_label
 _atom_site_symmetry_multiplicity
 _atom_site_fract_x
 _atom_site_fract_y
 _atom_site_fract_z
 _atom_site_occupancy
  Dy  Dy0  1  0.304266  0.264373  0.568638  1
  Dy  Dy1  1  0.695734  0.735627  0.431362  1
  Dy  Dy2  1  0.304266  0.735627  0.039893  1
  Dy  Dy3  1  0.695734  0.264373  0.960107  1
  Dy  Dy4  1  0.186327  0.511873  0.325545  1
  Dy  Dy5  1  0.186327  0.860782  0.674455  1
  Dy  Dy6  1  0.813673  0.488127  0.674455  1
  Dy  Dy7  1  0.813673  0.139218  0.325545  1
  Dy  Dy8  1  0.399487  0.219823  0.179663  1
  Dy  Dy9  1  0.040159  0.219823  0.820337  1
  Dy  Dy10  1  0.959841  0.780177  0.179663  1
  Dy  Dy11  1  0.600513  0.780177  0.820337  1
  Zn  Zn12  1  0.500000  0.500000  0.000000  1
  Co  Co13  1  0.165733  0.500000  0.665733  1
  Co  Co14  1  0.834267  0.500000  0.334267  1
  Co  Co15  1  0.000000  0.114310  0.114310  1
  Co  Co16  1  0.000000  0.885690  0.885690  1
  Hg  Hg17  1  0.500000  0.000000  0.500000  1
