# generated using pymatgen
data_Y3Zn2In3Ir
_symmetry_space_group_name_H-M   'P 1'
_cell_length_a   7.78701200
_cell_length_b   7.78701268
_cell_length_c   3.84414700
_cell_angle_alpha   90.00000000
_cell_angle_beta   90.00000000
_cell_angle_gamma   119.99999710
_symmetry_Int_Tables_number   1
_chemical_formula_structural   Y3Zn2In3Ir
_chemical_formula_sum   'Y3 Zn2 In3 Ir1'
_cell_volume   201.87026684
_cell_formula_units_Z   1
loop_
 _symmetry_equiv_pos_site_id
 _symmetry_equiv_pos_as_xyz
  1  'x, y, z'
loop_
 _atom_site_type_symbol
 _atom_site_label
 _atom_site_symmetry_multiplicity
 _atom_site_fract_x
 _atom_site_fract_y
 _atom_site_fract_z
 _atom_site_occupancy
  Y  Y0  1  0.585945  0.611034  0.000000  1
  Y  Y1  1  0.388966  0.974910  0.000000  1
  Y  Y2  1  0.025090  0.414055  0.000000  1
  Zn  Zn3  1  0.000000  0.000000  0.000000  1
  Zn  Zn4  1  0.666667  0.333333  0.500000  1
  In  In5  1  0.993146  0.732262  0.500000  1
  In  In6  1  0.267738  0.260884  0.500000  1
  In  In7  1  0.739116  0.006854  0.500000  1
  Ir  Ir8  1  0.333333  0.666667  0.500000  1
