# generated using pymatgen
data_Yb4B16Os3Ru
_symmetry_space_group_name_H-M   'P 1'
_cell_length_a   3.53738800
_cell_length_b   5.94650199
_cell_length_c   11.51415991
_cell_angle_alpha   89.93402704
_cell_angle_beta   90.00000000
_cell_angle_gamma   90.00000000
_symmetry_Int_Tables_number   1
_chemical_formula_structural   Yb4B16Os3Ru
_chemical_formula_sum   'Yb4 B16 Os3 Ru1'
_cell_volume   242.20116911
_cell_formula_units_Z   1
loop_
 _symmetry_equiv_pos_site_id
 _symmetry_equiv_pos_as_xyz
  1  'x, y, z'
loop_
 _atom_site_type_symbol
 _atom_site_label
 _atom_site_symmetry_multiplicity
 _atom_site_fract_x
 _atom_site_fract_y
 _atom_site_fract_z
 _atom_site_occupancy
  Yb  Yb0  1  0.500000  0.629989  0.149976  1
  Yb  Yb1  1  0.500000  0.370669  0.850018  1
  Yb  Yb2  1  0.500000  0.129794  0.349347  1
  Yb  Yb3  1  0.500000  0.870070  0.650815  1
  B  B4  1  0.000000  0.976210  0.191851  1
  B  B5  1  0.000000  0.023412  0.808017  1
  B  B6  1  0.000000  0.475897  0.308160  1
  B  B7  1  0.000000  0.524590  0.691899  1
  B  B8  1  0.000000  0.787109  0.314996  1
  B  B9  1  0.000000  0.212812  0.685006  1
  B  B10  1  0.000000  0.286636  0.184940  1
  B  B11  1  0.000000  0.713290  0.815258  1
  B  B12  1  0.000000  0.864170  0.469411  1
  B  B13  1  0.000000  0.135840  0.530570  1
  B  B14  1  0.000000  0.364432  0.030725  1
  B  B15  1  0.000000  0.635506  0.968914  1
  B  B16  1  0.000000  0.886756  0.047250  1
  B  B17  1  0.000000  0.112835  0.952577  1
  B  B18  1  0.000000  0.386749  0.452536  1
  B  B19  1  0.000000  0.613333  0.547408  1
  Os  Os20  1  0.500000  0.635299  0.411953  1
  Os  Os21  1  0.500000  0.364153  0.588099  1
  Os  Os22  1  0.500000  0.136066  0.088088  1
  Ru  Ru23  1  0.500000  0.864383  0.912186  1
