# generated using pymatgen
data_CaCd3Ru3RhO14
_symmetry_space_group_name_H-M   'P 1'
_cell_length_a   7.26375627
_cell_length_b   7.21803749
_cell_length_c   7.21803809
_cell_angle_alpha   60.40224321
_cell_angle_beta   60.54621488
_cell_angle_gamma   60.54620505
_symmetry_Int_Tables_number   1
_chemical_formula_structural   CaCd3Ru3RhO14
_chemical_formula_sum   'Ca1 Cd3 Ru3 Rh1 O14'
_cell_volume   270.61106121
_cell_formula_units_Z   1
loop_
 _symmetry_equiv_pos_site_id
 _symmetry_equiv_pos_as_xyz
  1  'x, y, z'
loop_
 _atom_site_type_symbol
 _atom_site_label
 _atom_site_symmetry_multiplicity
 _atom_site_fract_x
 _atom_site_fract_y
 _atom_site_fract_z
 _atom_site_occupancy
  Ca  Ca0  1  0.125000  0.625000  0.625000  1
  Cd  Cd1  1  0.625000  0.125000  0.625000  1
  Cd  Cd2  1  0.625000  0.625000  0.125000  1
  Cd  Cd3  1  0.625000  0.625000  0.625000  1
  Ru  Ru4  1  0.625000  0.125000  0.125000  1
  Ru  Ru5  1  0.125000  0.625000  0.125000  1
  Ru  Ru6  1  0.125000  0.125000  0.625000  1
  Rh  Rh7  1  0.125000  0.125000  0.125000  1
  O  O8  1  0.200176  0.200848  0.795850  1
  O  O9  1  0.200176  0.795850  0.200848  1
  O  O10  1  0.451107  0.052361  0.052361  1
  O  O11  1  0.197101  0.806538  0.806538  1
  O  O12  1  0.052899  0.443462  0.443462  1
  O  O13  1  0.811158  0.809475  0.194332  1
  O  O14  1  0.438842  0.440525  0.055668  1
  O  O15  1  0.515309  0.495726  0.495726  1
  O  O16  1  0.049824  0.049152  0.454150  1
  O  O17  1  0.438842  0.055668  0.440525  1
  O  O18  1  0.049824  0.454150  0.049152  1
  O  O19  1  0.734691  0.754274  0.754274  1
  O  O20  1  0.811158  0.194332  0.809475  1
  O  O21  1  0.798893  0.197639  0.197639  1
