# generated using pymatgen
data_Nb6B4Os7Ru3
_symmetry_space_group_name_H-M   'P 1'
_cell_length_a   9.53246592
_cell_length_b   9.55512591
_cell_length_c   3.02014500
_cell_angle_alpha   90.00000000
_cell_angle_beta   90.00000000
_cell_angle_gamma   90.08957773
_symmetry_Int_Tables_number   1
_chemical_formula_structural   Nb6B4Os7Ru3
_chemical_formula_sum   'Nb6 B4 Os7 Ru3'
_cell_volume   275.08628556
_cell_formula_units_Z   1
loop_
 _symmetry_equiv_pos_site_id
 _symmetry_equiv_pos_as_xyz
  1  'x, y, z'
loop_
 _atom_site_type_symbol
 _atom_site_label
 _atom_site_symmetry_multiplicity
 _atom_site_fract_x
 _atom_site_fract_y
 _atom_site_fract_z
 _atom_site_occupancy
  Nb  Nb0  1  0.823029  0.676610  0.000000  1
  Nb  Nb1  1  0.176664  0.323004  0.000000  1
  Nb  Nb2  1  0.323018  0.823406  0.000000  1
  Nb  Nb3  1  0.676236  0.177527  0.000000  1
  Nb  Nb4  1  0.500143  0.500199  0.000000  1
  Nb  Nb5  1  0.997987  0.999434  0.000000  1
  B  B6  1  0.621199  0.879389  0.000000  1
  B  B7  1  0.379519  0.120114  0.000000  1
  B  B8  1  0.120672  0.621016  0.000000  1
  B  B9  1  0.879950  0.379316  0.000000  1
  Os  Os10  1  0.571769  0.720375  0.500000  1
  Os  Os11  1  0.429033  0.279810  0.500000  1
  Os  Os12  1  0.070768  0.780394  0.500000  1
  Os  Os13  1  0.929412  0.219819  0.500000  1
  Os  Os14  1  0.280391  0.570990  0.500000  1
  Os  Os15  1  0.719838  0.428780  0.500000  1
  Os  Os16  1  0.219325  0.070069  0.500000  1
  Ru  Ru17  1  0.780276  0.929308  0.500000  1
  Ru  Ru18  1  0.500876  0.999984  0.500000  1
  Ru  Ru19  1  0.999894  0.500453  0.500000  1
