# generated using pymatgen
data_SeSCl
_symmetry_space_group_name_H-M   'P 1'
_cell_length_a   9.30431303
_cell_length_b   9.30448492
_cell_length_c   9.30470543
_cell_angle_alpha   104.88588385
_cell_angle_beta   104.88509258
_cell_angle_gamma   104.88974042
_symmetry_Int_Tables_number   1
_chemical_formula_structural   SeSCl
_chemical_formula_sum   'Se6 S6 Cl6'
_cell_volume   705.96138479
_cell_formula_units_Z   6
loop_
 _symmetry_equiv_pos_site_id
 _symmetry_equiv_pos_as_xyz
  1  'x, y, z'
loop_
 _atom_site_type_symbol
 _atom_site_label
 _atom_site_symmetry_multiplicity
 _atom_site_fract_x
 _atom_site_fract_y
 _atom_site_fract_z
 _atom_site_occupancy
  Se  Se0  1  0.640577  0.483054  0.903436  1
  Se  Se1  1  0.483038  0.903406  0.640532  1
  Se  Se2  1  0.903385  0.640568  0.483106  1
  Se  Se3  1  0.096615  0.359432  0.516894  1
  Se  Se4  1  0.516962  0.096594  0.359468  1
  Se  Se5  1  0.359423  0.516946  0.096564  1
  S  S6  1  0.858219  0.477105  0.592601  1
  S  S7  1  0.407469  0.141855  0.522885  1
  S  S8  1  0.477033  0.592549  0.858157  1
  S  S9  1  0.141781  0.522895  0.407399  1
  S  S10  1  0.592531  0.858145  0.477115  1
  S  S11  1  0.522967  0.407451  0.141843  1
  Cl  Cl12  1  0.670075  0.077357  0.870541  1
  Cl  Cl13  1  0.077385  0.870573  0.670071  1
  Cl  Cl14  1  0.870567  0.670079  0.077396  1
  Cl  Cl15  1  0.922615  0.129427  0.329929  1
  Cl  Cl16  1  0.329925  0.922643  0.129459  1
  Cl  Cl17  1  0.129433  0.329921  0.922604  1
