# generated using pymatgen
data_Hf5Ti3Al14GaRh7
_symmetry_space_group_name_H-M   'P 1'
_cell_length_a   8.77660836
_cell_length_b   8.77662575
_cell_length_c   8.77685327
_cell_angle_alpha   120.32520118
_cell_angle_beta   119.83197475
_cell_angle_gamma   89.86496709
_symmetry_Int_Tables_number   1
_chemical_formula_structural   Hf5Ti3Al14GaRh7
_chemical_formula_sum   'Hf5 Ti3 Al14 Ga1 Rh7'
_cell_volume   477.47282597
_cell_formula_units_Z   1
loop_
 _symmetry_equiv_pos_site_id
 _symmetry_equiv_pos_as_xyz
  1  'x, y, z'
loop_
 _atom_site_type_symbol
 _atom_site_label
 _atom_site_symmetry_multiplicity
 _atom_site_fract_x
 _atom_site_fract_y
 _atom_site_fract_z
 _atom_site_occupancy
  Hf  Hf0  1  0.797666  0.293745  0.078109  1
  Hf  Hf1  1  0.215640  0.293760  0.496094  1
  Hf  Hf2  1  0.198611  0.698489  0.499871  1
  Hf  Hf3  1  0.215810  0.719544  0.922155  1
  Hf  Hf4  1  0.797379  0.719546  0.503720  1
  Ti  Ti5  1  0.783368  0.283295  0.499993  1
  Ti  Ti6  1  0.379717  0.123662  0.743931  1
  Ti  Ti7  1  0.379740  0.635749  0.256017  1
  Al  Al8  1  0.162512  0.335564  0.173043  1
  Al  Al9  1  0.162303  0.988985  0.826689  1
  Al  Al10  1  0.151190  0.342187  0.809070  1
  Al  Al11  1  0.533127  0.342192  0.191020  1
  Al  Al12  1  0.839480  0.653718  0.814218  1
  Al  Al13  1  0.839451  0.025181  0.185746  1
  Al  Al14  1  0.835782  0.661213  0.174577  1
  Al  Al15  1  0.486639  0.661235  0.825454  1
  Al  Al16  1  0.387013  0.124108  0.262905  1
  Al  Al17  1  0.861209  0.124081  0.737103  1
  Al  Al18  1  0.621737  0.881451  0.259691  1
  Al  Al19  1  0.621811  0.362074  0.740237  1
  Al  Al20  1  0.618327  0.877093  0.741073  1
  Al  Al21  1  0.136019  0.877083  0.258757  1
  Ga  Ga22  1  0.984161  0.484395  0.500215  1
  Rh  Rh23  1  0.000558  0.000467  0.502020  1
  Rh  Rh24  1  0.498451  0.000465  0.999917  1
  Rh  Rh25  1  0.496463  0.496580  0.000126  1
  Rh  Rh26  1  0.498436  0.498771  0.498075  1
  Rh  Rh27  1  0.000649  0.498736  0.000270  1
  Rh  Rh28  1  0.999086  0.999108  0.000040  1
  Rh  Rh29  1  0.497657  0.997520  0.499867  1
