# generated using pymatgen
data_ZrSc5(AlCu2)6
_symmetry_space_group_name_H-M   'P 1'
_cell_length_a   4.40509100
_cell_length_b   6.11804700
_cell_length_c   13.30059801
_cell_angle_alpha   90.00000000
_cell_angle_beta   89.99653839
_cell_angle_gamma   90.00000000
_symmetry_Int_Tables_number   1
_chemical_formula_structural   ZrSc5(AlCu2)6
_chemical_formula_sum   'Zr1 Sc5 Al6 Cu12'
_cell_volume   358.45848134
_cell_formula_units_Z   1
loop_
 _symmetry_equiv_pos_site_id
 _symmetry_equiv_pos_as_xyz
  1  'x, y, z'
loop_
 _atom_site_type_symbol
 _atom_site_label
 _atom_site_symmetry_multiplicity
 _atom_site_fract_x
 _atom_site_fract_y
 _atom_site_fract_z
 _atom_site_occupancy
  Zr  Zr0  1  0.000000  0.000000  0.000000  1
  Sc  Sc1  1  0.500304  0.500001  0.167034  1
  Sc  Sc2  1  0.000314  0.000000  0.333438  1
  Sc  Sc3  1  0.500000  0.500001  0.500000  1
  Sc  Sc4  1  0.999686  0.000000  0.666561  1
  Sc  Sc5  1  0.499695  0.500001  0.832966  1
  Al  Al6  1  0.000000  0.500001  0.000000  1
  Al  Al7  1  0.500300  0.000000  0.167012  1
  Al  Al8  1  0.000290  0.500001  0.333128  1
  Al  Al9  1  0.500000  0.000000  0.500000  1
  Al  Al10  1  0.999710  0.500001  0.666872  1
  Al  Al11  1  0.499700  0.000000  0.832989  1
  Cu  Cu12  1  0.500000  0.254712  0.000000  1
  Cu  Cu13  1  0.500000  0.745288  0.000000  1
  Cu  Cu14  1  0.000366  0.250740  0.167823  1
  Cu  Cu15  1  0.000366  0.749260  0.167823  1
  Cu  Cu16  1  0.500347  0.249981  0.333400  1
  Cu  Cu17  1  0.500347  0.750019  0.333400  1
  Cu  Cu18  1  0.000000  0.250311  0.500000  1
  Cu  Cu19  1  0.000000  0.749689  0.500000  1
  Cu  Cu20  1  0.499653  0.249981  0.666600  1
  Cu  Cu21  1  0.499653  0.750019  0.666600  1
  Cu  Cu22  1  0.999634  0.250740  0.832177  1
  Cu  Cu23  1  0.999634  0.749260  0.832177  1
