# generated using pymatgen
data_Tm2CuSi2Tc
_symmetry_space_group_name_H-M   'P 1'
_cell_length_a   4.19981300
_cell_length_b   6.90662131
_cell_length_c   7.32764399
_cell_angle_alpha   91.45062484
_cell_angle_beta   90.00000000
_cell_angle_gamma   90.00000000
_symmetry_Int_Tables_number   1
_chemical_formula_structural   Tm2CuSi2Tc
_chemical_formula_sum   'Tm4 Cu2 Si4 Tc2'
_cell_volume   212.48131737
_cell_formula_units_Z   2
loop_
 _symmetry_equiv_pos_site_id
 _symmetry_equiv_pos_as_xyz
  1  'x, y, z'
loop_
 _atom_site_type_symbol
 _atom_site_label
 _atom_site_symmetry_multiplicity
 _atom_site_fract_x
 _atom_site_fract_y
 _atom_site_fract_z
 _atom_site_occupancy
  Tm  Tm0  1  0.250000  0.994903  0.798391  1
  Tm  Tm1  1  0.750000  0.005097  0.201609  1
  Tm  Tm2  1  0.250000  0.496851  0.688141  1
  Tm  Tm3  1  0.750000  0.503149  0.311859  1
  Cu  Cu4  1  0.750000  0.833235  0.573225  1
  Cu  Cu5  1  0.250000  0.166765  0.426775  1
  Si  Si6  1  0.250000  0.294812  0.093072  1
  Si  Si7  1  0.750000  0.705188  0.906928  1
  Si  Si8  1  0.250000  0.792419  0.390839  1
  Si  Si9  1  0.750000  0.207581  0.609161  1
  Tc  Tc10  1  0.750000  0.343779  0.930578  1
  Tc  Tc11  1  0.250000  0.656221  0.069422  1
