# generated using pymatgen
data_Ac2Nd2Ga5Ir9
_symmetry_space_group_name_H-M   'P 1'
_cell_length_a   12.35311919
_cell_length_b   12.35311965
_cell_length_c   12.35311996
_cell_angle_alpha   26.77750429
_cell_angle_beta   26.77751020
_cell_angle_gamma   26.77750406
_symmetry_Int_Tables_number   1
_chemical_formula_structural   Ac2Nd2Ga5Ir9
_chemical_formula_sum   'Ac2 Nd2 Ga5 Ir9'
_cell_volume   337.38761527
_cell_formula_units_Z   1
loop_
 _symmetry_equiv_pos_site_id
 _symmetry_equiv_pos_as_xyz
  1  'x, y, z'
loop_
 _atom_site_type_symbol
 _atom_site_label
 _atom_site_symmetry_multiplicity
 _atom_site_fract_x
 _atom_site_fract_y
 _atom_site_fract_z
 _atom_site_occupancy
  Ac  Ac0  1  0.948871  0.948871  0.948871  1
  Ac  Ac1  1  0.051129  0.051129  0.051129  1
  Nd  Nd2  1  0.852179  0.852179  0.852179  1
  Nd  Nd3  1  0.147821  0.147821  0.147821  1
  Ga  Ga4  1  0.500000  0.500000  0.500000  1
  Ga  Ga5  1  0.721563  0.721563  0.721563  1
  Ga  Ga6  1  0.278437  0.278437  0.278437  1
  Ga  Ga7  1  0.610827  0.610827  0.610827  1
  Ga  Ga8  1  0.389173  0.389173  0.389173  1
  Ir  Ir9  1  0.500000  0.500000  0.000000  1
  Ir  Ir10  1  0.000000  0.500000  0.500000  1
  Ir  Ir11  1  0.500000  0.000000  0.500000  1
  Ir  Ir12  1  0.386347  0.896308  0.386347  1
  Ir  Ir13  1  0.386347  0.386347  0.896308  1
  Ir  Ir14  1  0.896308  0.386347  0.386347  1
  Ir  Ir15  1  0.613653  0.103692  0.613653  1
  Ir  Ir16  1  0.613653  0.613653  0.103692  1
  Ir  Ir17  1  0.103692  0.613653  0.613653  1
