# generated using pymatgen
data_Lu6Sc4(GaAs)3
_symmetry_space_group_name_H-M   'P 1'
_cell_length_a   8.22171300
_cell_length_b   8.20840612
_cell_length_c   6.02181900
_cell_angle_alpha   90.00000000
_cell_angle_beta   90.00000000
_cell_angle_gamma   120.05363695
_symmetry_Int_Tables_number   1
_chemical_formula_structural   Lu6Sc4(GaAs)3
_chemical_formula_sum   'Lu6 Sc4 Ga3 As3'
_cell_volume   351.75841497
_cell_formula_units_Z   1
loop_
 _symmetry_equiv_pos_site_id
 _symmetry_equiv_pos_as_xyz
  1  'x, y, z'
loop_
 _atom_site_type_symbol
 _atom_site_label
 _atom_site_symmetry_multiplicity
 _atom_site_fract_x
 _atom_site_fract_y
 _atom_site_fract_z
 _atom_site_occupancy
  Lu  Lu0  1  0.241017  0.000000  0.250000  1
  Lu  Lu1  1  0.242997  0.240782  0.750000  1
  Lu  Lu2  1  0.002215  0.759218  0.750000  1
  Lu  Lu3  1  0.002400  0.243528  0.250000  1
  Lu  Lu4  1  0.758873  0.756472  0.250000  1
  Lu  Lu5  1  0.755849  0.000000  0.750000  1
  Sc  Sc6  1  0.331695  0.665680  0.001735  1
  Sc  Sc7  1  0.666016  0.334320  0.498265  1
  Sc  Sc8  1  0.666016  0.334320  0.001735  1
  Sc  Sc9  1  0.331695  0.665680  0.498265  1
  Ga  Ga10  1  0.998364  0.600525  0.250000  1
  Ga  Ga11  1  0.397839  0.399475  0.250000  1
  Ga  Ga12  1  0.398881  0.000000  0.750000  1
  As  As13  1  0.604660  0.000000  0.250000  1
  As  As14  1  0.603567  0.605650  0.750000  1
  As  As15  1  0.997916  0.394350  0.750000  1
