# generated using pymatgen
data_Pu3AsF20
_symmetry_space_group_name_H-M   'P 1'
_cell_length_a   9.13504672
_cell_length_b   9.13504686
_cell_length_c   5.32843100
_cell_angle_alpha   85.48647644
_cell_angle_beta   85.48647638
_cell_angle_gamma   112.69549308
_symmetry_Int_Tables_number   1
_chemical_formula_structural   Pu3AsF20
_chemical_formula_sum   'Pu3 As1 F20'
_cell_volume   406.06506325
_cell_formula_units_Z   1
loop_
 _symmetry_equiv_pos_site_id
 _symmetry_equiv_pos_as_xyz
  1  'x, y, z'
loop_
 _atom_site_type_symbol
 _atom_site_label
 _atom_site_symmetry_multiplicity
 _atom_site_fract_x
 _atom_site_fract_y
 _atom_site_fract_z
 _atom_site_occupancy
  Pu  Pu0  1  0.793617  0.206383  0.500000  1
  Pu  Pu1  1  0.752723  0.739064  0.255982  1
  Pu  Pu2  1  0.260936  0.247277  0.744018  1
  As  As3  1  0.198939  0.801061  0.500000  1
  F  F4  1  0.271649  0.457244  0.851232  1
  F  F5  1  0.367791  0.356763  0.399745  1
  F  F6  1  0.471007  0.263376  0.856809  1
  F  F7  1  0.025617  0.214301  0.618610  1
  F  F8  1  0.643237  0.632209  0.600255  1
  F  F9  1  0.542756  0.728351  0.148768  1
  F  F10  1  0.861747  0.857499  0.914246  1
  F  F11  1  0.000377  0.789758  0.392853  1
  F  F12  1  0.167339  0.619233  0.390758  1
  F  F13  1  0.910871  0.313055  0.159630  1
  F  F14  1  0.581034  0.167201  0.373095  1
  F  F15  1  0.832799  0.418966  0.626905  1
  F  F16  1  0.785699  0.974383  0.381390  1
  F  F17  1  0.686945  0.089129  0.840370  1
  F  F18  1  0.210242  0.999623  0.607147  1
  F  F19  1  0.380767  0.832661  0.609242  1
  F  F20  1  0.142501  0.138253  0.085754  1
  F  F21  1  0.736624  0.528993  0.143191  1
  F  F22  1  0.284422  0.909643  0.206318  1
  F  F23  1  0.090357  0.715578  0.793682  1
