# generated using pymatgen
data_Ho3Al2Ga3Ir
_symmetry_space_group_name_H-M   'P 1'
_cell_length_a   6.97975400
_cell_length_b   6.93529236
_cell_length_c   4.27509300
_cell_angle_alpha   90.00000000
_cell_angle_beta   90.00000000
_cell_angle_gamma   120.21228972
_symmetry_Int_Tables_number   1
_chemical_formula_structural   Ho3Al2Ga3Ir
_chemical_formula_sum   'Ho3 Al2 Ga3 Ir1'
_cell_volume   178.83317089
_cell_formula_units_Z   1
loop_
 _symmetry_equiv_pos_site_id
 _symmetry_equiv_pos_as_xyz
  1  'x, y, z'
loop_
 _atom_site_type_symbol
 _atom_site_label
 _atom_site_symmetry_multiplicity
 _atom_site_fract_x
 _atom_site_fract_y
 _atom_site_fract_z
 _atom_site_occupancy
  Ho  Ho0  1  0.415317  0.000000  0.000000  1
  Ho  Ho1  1  0.998250  0.411235  0.000000  1
  Ho  Ho2  1  0.587015  0.588765  0.000000  1
  Al  Al3  1  0.230863  0.228738  0.500000  1
  Al  Al4  1  0.002125  0.771262  0.500000  1
  Ga  Ga5  1  0.763579  0.000000  0.500000  1
  Ga  Ga6  1  0.666404  0.337187  0.500000  1
  Ga  Ga7  1  0.329217  0.662813  0.500000  1
  Ir  Ir8  1  0.007230  0.000000  0.000000  1
