# generated using pymatgen
data_Y7(TmBi2)3
_symmetry_space_group_name_H-M   'P 1'
_cell_length_a   8.25057300
_cell_length_b   9.51485109
_cell_length_c   12.06137311
_cell_angle_alpha   90.01551772
_cell_angle_beta   90.00000000
_cell_angle_gamma   90.00000000
_symmetry_Int_Tables_number   1
_chemical_formula_structural   Y7(TmBi2)3
_chemical_formula_sum   'Y14 Tm6 Bi12'
_cell_volume   946.85361870
_cell_formula_units_Z   2
loop_
 _symmetry_equiv_pos_site_id
 _symmetry_equiv_pos_as_xyz
  1  'x, y, z'
loop_
 _atom_site_type_symbol
 _atom_site_label
 _atom_site_symmetry_multiplicity
 _atom_site_fract_x
 _atom_site_fract_y
 _atom_site_fract_z
 _atom_site_occupancy
  Y  Y0  1  0.186450  0.749995  0.719116  1
  Y  Y1  1  0.686450  0.750005  0.780884  1
  Y  Y2  1  0.813651  0.249710  0.281120  1
  Y  Y3  1  0.313651  0.250290  0.218880  1
  Y  Y4  1  0.693791  0.937281  0.059718  1
  Y  Y5  1  0.193791  0.562719  0.440282  1
  Y  Y6  1  0.693953  0.562565  0.059807  1
  Y  Y7  1  0.193953  0.937435  0.440193  1
  Y  Y8  1  0.305867  0.063496  0.940171  1
  Y  Y9  1  0.805867  0.436504  0.559829  1
  Y  Y10  1  0.354377  0.750165  0.215267  1
  Y  Y11  1  0.854377  0.749835  0.284733  1
  Y  Y12  1  0.646077  0.249826  0.784611  1
  Y  Y13  1  0.146077  0.250174  0.715389  1
  Tm  Tm14  1  0.026463  0.749733  0.988860  1
  Tm  Tm15  1  0.526463  0.750267  0.511140  1
  Tm  Tm16  1  0.974705  0.250519  0.010899  1
  Tm  Tm17  1  0.474705  0.249481  0.489101  1
  Tm  Tm18  1  0.305764  0.435186  0.940040  1
  Tm  Tm19  1  0.805764  0.064814  0.559960  1
  Bi  Bi20  1  0.434211  0.003608  0.672566  1
  Bi  Bi21  1  0.934211  0.496392  0.827434  1
  Bi  Bi22  1  0.566029  0.503604  0.327217  1
  Bi  Bi23  1  0.066029  0.996396  0.172783  1
  Bi  Bi24  1  0.566094  0.996307  0.327528  1
  Bi  Bi25  1  0.066094  0.503693  0.172472  1
  Bi  Bi26  1  0.433714  0.496296  0.672869  1
  Bi  Bi27  1  0.933714  0.003704  0.827131  1
  Bi  Bi28  1  0.407782  0.748172  0.957954  1
  Bi  Bi29  1  0.907782  0.751828  0.542046  1
  Bi  Bi30  1  0.591071  0.250601  0.041415  1
  Bi  Bi31  1  0.091071  0.249399  0.458585  1
