# generated using pymatgen
data_Er12In2TcOs2
_symmetry_space_group_name_H-M   'P 1'
_cell_length_a   8.35722218
_cell_length_b   8.35722242
_cell_length_c   8.35722300
_cell_angle_alpha   109.50176613
_cell_angle_beta   109.50177398
_cell_angle_gamma   109.41014404
_symmetry_Int_Tables_number   1
_chemical_formula_structural   Er12In2TcOs2
_chemical_formula_sum   'Er12 In2 Tc1 Os2'
_cell_volume   449.32813390
_cell_formula_units_Z   1
loop_
 _symmetry_equiv_pos_site_id
 _symmetry_equiv_pos_as_xyz
  1  'x, y, z'
loop_
 _atom_site_type_symbol
 _atom_site_label
 _atom_site_symmetry_multiplicity
 _atom_site_fract_x
 _atom_site_fract_y
 _atom_site_fract_z
 _atom_site_occupancy
  Er  Er0  1  0.186005  0.428683  0.242678  1
  Er  Er1  1  0.813995  0.571317  0.757322  1
  Er  Er2  1  0.186005  0.943327  0.757322  1
  Er  Er3  1  0.943327  0.186005  0.757322  1
  Er  Er4  1  0.813995  0.056673  0.242678  1
  Er  Er5  1  0.056673  0.813995  0.242678  1
  Er  Er6  1  0.428683  0.186005  0.242678  1
  Er  Er7  1  0.571317  0.813995  0.757322  1
  Er  Er8  1  0.317444  0.317444  0.634889  1
  Er  Er9  1  0.682556  0.682556  0.365111  1
  Er  Er10  1  0.682556  0.317444  0.000000  1
  Er  Er11  1  0.317444  0.682556  0.000000  1
  In  In12  1  0.000000  0.500000  0.500000  1
  In  In13  1  0.500000  0.000000  0.500000  1
  Tc  Tc14  1  0.000000  0.000000  0.000000  1
  Os  Os15  1  0.345543  0.345543  0.000000  1
  Os  Os16  1  0.654457  0.654457  0.000000  1
