# generated using pymatgen
data_Lu2Zr3(ReTc2)8
_symmetry_space_group_name_H-M   'P 1'
_cell_length_a   8.45504371
_cell_length_b   8.47648809
_cell_length_c   8.49034179
_cell_angle_alpha   109.52717513
_cell_angle_beta   109.42499933
_cell_angle_gamma   109.34391828
_symmetry_Int_Tables_number   1
_chemical_formula_structural   Lu2Zr3(ReTc2)8
_chemical_formula_sum   'Lu2 Zr3 Re8 Tc16'
_cell_volume   469.09716360
_cell_formula_units_Z   1
loop_
 _symmetry_equiv_pos_site_id
 _symmetry_equiv_pos_as_xyz
  1  'x, y, z'
loop_
 _atom_site_type_symbol
 _atom_site_label
 _atom_site_symmetry_multiplicity
 _atom_site_fract_x
 _atom_site_fract_y
 _atom_site_fract_z
 _atom_site_occupancy
  Lu  Lu0  1  0.999627  0.000031  0.000000  1
  Lu  Lu1  1  0.623539  0.999899  0.000000  1
  Zr  Zr2  1  0.001656  0.626428  0.000000  1
  Zr  Zr3  1  0.001357  0.000498  0.626850  1
  Zr  Zr4  1  0.374507  0.373649  0.373150  1
  Re  Re5  1  0.999967  0.377295  0.192447  1
  Re  Re6  1  0.807520  0.184849  0.807553  1
  Re  Re7  1  0.807503  0.807067  0.184331  1
  Re  Re8  1  0.000190  0.193276  0.377081  1
  Re  Re9  1  0.197682  0.999910  0.376355  1
  Re  Re10  1  0.623173  0.622737  0.815669  1
  Re  Re11  1  0.821327  0.623555  0.623645  1
  Re  Re12  1  0.623109  0.816194  0.622919  1
  Tc  Tc13  1  0.394764  0.669371  0.000000  1
  Tc  Tc14  1  0.723584  0.328379  0.328539  1
  Tc  Tc15  1  0.395045  0.999840  0.671461  1
  Tc  Tc16  1  0.673456  0.395947  0.000000  1
  Tc  Tc17  1  0.997448  0.394282  0.675102  1
  Tc  Tc18  1  0.322346  0.719180  0.324898  1
  Tc  Tc19  1  0.322361  0.325076  0.718496  1
  Tc  Tc20  1  0.997633  0.675146  0.394530  1
  Tc  Tc21  1  0.673829  0.999889  0.395926  1
  Tc  Tc22  1  0.603865  0.606580  0.281504  1
  Tc  Tc23  1  0.277902  0.603963  0.604074  1
  Tc  Tc24  1  0.603103  0.280616  0.605470  1
  Tc  Tc25  1  0.376273  0.194998  0.000000  1
  Tc  Tc26  1  0.182795  0.806364  0.806381  1
  Tc  Tc27  1  0.376414  0.999984  0.193619  1
  Tc  Tc28  1  0.198028  0.374997  0.000000  1
