# generated using pymatgen
data_Pr3Dy3Al24CuOs7
_symmetry_space_group_name_H-M   'P 1'
_cell_length_a   8.87953581
_cell_length_b   8.86641673
_cell_length_c   9.63319040
_cell_angle_alpha   90.04157566
_cell_angle_beta   89.91613173
_cell_angle_gamma   119.71368132
_symmetry_Int_Tables_number   1
_chemical_formula_structural   Pr3Dy3Al24CuOs7
_chemical_formula_sum   'Pr3 Dy3 Al24 Cu1 Os7'
_cell_volume   658.69519612
_cell_formula_units_Z   1
loop_
 _symmetry_equiv_pos_site_id
 _symmetry_equiv_pos_as_xyz
  1  'x, y, z'
loop_
 _atom_site_type_symbol
 _atom_site_label
 _atom_site_symmetry_multiplicity
 _atom_site_fract_x
 _atom_site_fract_y
 _atom_site_fract_z
 _atom_site_occupancy
  Pr  Pr0  1  0.188066  0.381530  0.248315  1
  Pr  Pr1  1  0.811567  0.619310  0.751919  1
  Pr  Pr2  1  0.617515  0.810967  0.248179  1
  Dy  Dy3  1  0.387929  0.190053  0.750394  1
  Dy  Dy4  1  0.194353  0.804842  0.251020  1
  Dy  Dy5  1  0.804759  0.193879  0.748744  1
  Al  Al6  1  0.330839  0.668795  0.016685  1
  Al  Al7  1  0.667610  0.331585  0.979008  1
  Al  Al8  1  0.666568  0.332571  0.520302  1
  Al  Al9  1  0.332576  0.666767  0.483236  1
  Al  Al10  1  0.164243  0.326795  0.575550  1
  Al  Al11  1  0.836606  0.671409  0.426592  1
  Al  Al12  1  0.671358  0.836225  0.574672  1
  Al  Al13  1  0.846149  0.675323  0.078492  1
  Al  Al14  1  0.327887  0.163034  0.428868  1
  Al  Al15  1  0.155102  0.323850  0.920079  1
  Al  Al16  1  0.164847  0.837487  0.573967  1
  Al  Al17  1  0.324394  0.154733  0.075645  1
  Al  Al18  1  0.835469  0.164156  0.427596  1
  Al  Al19  1  0.675109  0.846301  0.920550  1
  Al  Al20  1  0.834257  0.165528  0.071027  1
  Al  Al21  1  0.165895  0.836963  0.926932  1
  Al  Al22  1  0.559640  0.123962  0.248958  1
  Al  Al23  1  0.438794  0.877589  0.750657  1
  Al  Al24  1  0.875157  0.438838  0.249264  1
  Al  Al25  1  0.123817  0.560186  0.750937  1
  Al  Al26  1  0.562940  0.435300  0.251504  1
  Al  Al27  1  0.435846  0.560692  0.749879  1
  Al  Al28  1  0.001023  0.998084  0.250433  1
  Al  Al29  1  0.005372  0.005152  0.749858  1
  Cu  Cu30  1  0.498658  0.498482  0.999064  1
  Os  Os31  1  0.499020  0.001421  0.998198  1
  Os  Os32  1  0.999431  0.499837  0.999664  1
  Os  Os33  1  0.499083  0.000734  0.501403  1
  Os  Os34  1  0.999667  0.499565  0.500539  1
  Os  Os35  1  0.499197  0.498185  0.501606  1
  Os  Os36  1  0.999632  0.000074  0.999724  1
  Os  Os37  1  0.999627  0.999797  0.500539  1
