# generated using pymatgen
data_La3Cd3SiGeAu
_symmetry_space_group_name_H-M   'P 1'
_cell_length_a   7.60857700
_cell_length_b   7.60857728
_cell_length_c   4.49428300
_cell_angle_alpha   90.00000000
_cell_angle_beta   90.00000000
_cell_angle_gamma   120.00000314
_symmetry_Int_Tables_number   1
_chemical_formula_structural   La3Cd3SiGeAu
_chemical_formula_sum   'La3 Cd3 Si1 Ge1 Au1'
_cell_volume   225.31905959
_cell_formula_units_Z   1
loop_
 _symmetry_equiv_pos_site_id
 _symmetry_equiv_pos_as_xyz
  1  'x, y, z'
loop_
 _atom_site_type_symbol
 _atom_site_label
 _atom_site_symmetry_multiplicity
 _atom_site_fract_x
 _atom_site_fract_y
 _atom_site_fract_z
 _atom_site_occupancy
  La  La0  1  0.412272  0.998577  0.000000  1
  La  La1  1  0.586305  0.587728  0.000000  1
  La  La2  1  0.001423  0.413695  0.000000  1
  Cd  Cd3  1  0.749573  0.998263  0.500000  1
  Cd  Cd4  1  0.248690  0.250427  0.500000  1
  Cd  Cd5  1  0.001737  0.751310  0.500000  1
  Si  Si6  1  0.333333  0.666667  0.500000  1
  Ge  Ge7  1  0.666667  0.333333  0.500000  1
  Au  Au8  1  0.000000  0.000000  0.000000  1
