# generated using pymatgen
data_CeUBiN2
_symmetry_space_group_name_H-M   'P 1'
_cell_length_a   7.05822239
_cell_length_b   7.05822308
_cell_length_c   7.05822374
_cell_angle_alpha   147.59132239
_cell_angle_beta   147.59133251
_cell_angle_gamma   46.48901905
_symmetry_Int_Tables_number   1
_chemical_formula_structural   CeUBiN2
_chemical_formula_sum   'Ce1 U1 Bi1 N2'
_cell_volume   100.64397787
_cell_formula_units_Z   1
loop_
 _symmetry_equiv_pos_site_id
 _symmetry_equiv_pos_as_xyz
  1  'x, y, z'
loop_
 _atom_site_type_symbol
 _atom_site_label
 _atom_site_symmetry_multiplicity
 _atom_site_fract_x
 _atom_site_fract_y
 _atom_site_fract_z
 _atom_site_occupancy
  Ce  Ce0  1  0.341612  0.341612  0.000000  1
  U  U1  1  0.666764  0.666764  0.000000  1
  Bi  Bi2  1  0.005379  0.005379  0.000000  1
  N  N3  1  0.243123  0.743123  0.500000  1
  N  N4  1  0.743123  0.243123  0.500000  1
