# generated using pymatgen
data_Tm3Pa3MnCo17P12
_symmetry_space_group_name_H-M   'P 1'
_cell_length_a   3.71683300
_cell_length_b   10.47486287
_cell_length_c   12.16178194
_cell_angle_alpha   90.02084746
_cell_angle_beta   90.00000000
_cell_angle_gamma   90.00000000
_symmetry_Int_Tables_number   1
_chemical_formula_structural   Tm3Pa3MnCo17P12
_chemical_formula_sum   'Tm3 Pa3 Mn1 Co17 P12'
_cell_volume   473.49846783
_cell_formula_units_Z   1
loop_
 _symmetry_equiv_pos_site_id
 _symmetry_equiv_pos_as_xyz
  1  'x, y, z'
loop_
 _atom_site_type_symbol
 _atom_site_label
 _atom_site_symmetry_multiplicity
 _atom_site_fract_x
 _atom_site_fract_y
 _atom_site_fract_z
 _atom_site_occupancy
  Tm  Tm0  1  0.500000  0.185575  0.204413  1
  Tm  Tm1  1  0.000000  0.683603  0.795038  1
  Tm  Tm2  1  0.000000  0.316606  0.792949  1
  Pa  Pa3  1  0.000000  0.499461  0.529136  1
  Pa  Pa4  1  0.500000  0.001099  0.474283  1
  Pa  Pa5  1  0.500000  0.819425  0.206893  1
  Mn  Mn6  1  0.000000  0.999294  0.845758  1
  Co  Co7  1  0.500000  0.500171  0.159013  1
  Co  Co8  1  0.500000  0.499068  0.696078  1
  Co  Co9  1  0.000000  0.994820  0.299819  1
  Co  Co10  1  0.000000  0.499221  0.982433  1
  Co  Co11  1  0.500000  0.000742  0.014996  1
  Co  Co12  1  0.500000  0.335264  0.992287  1
  Co  Co13  1  0.500000  0.665542  0.993602  1
  Co  Co14  1  0.000000  0.169097  0.006417  1
  Co  Co15  1  0.000000  0.834030  0.008654  1
  Co  Co16  1  0.500000  0.299801  0.431137  1
  Co  Co17  1  0.500000  0.697236  0.431288  1
  Co  Co18  1  0.000000  0.197115  0.566822  1
  Co  Co19  1  0.000000  0.802272  0.570886  1
  Co  Co20  1  0.500000  0.878740  0.712199  1
  Co  Co21  1  0.500000  0.121243  0.710565  1
  Co  Co22  1  0.000000  0.622086  0.287729  1
  Co  Co23  1  0.000000  0.379717  0.288910  1
  P  P24  1  0.500000  0.499844  0.876677  1
  P  P25  1  0.000000  0.004729  0.118598  1
  P  P26  1  0.500000  0.498599  0.343860  1
  P  P27  1  0.000000  0.999592  0.658624  1
  P  P28  1  0.500000  0.306471  0.616707  1
  P  P29  1  0.500000  0.692527  0.618712  1
  P  P30  1  0.000000  0.190187  0.380376  1
  P  P31  1  0.000000  0.806717  0.388291  1
  P  P32  1  0.500000  0.846311  0.894021  1
  P  P33  1  0.500000  0.155112  0.893114  1
  P  P34  1  0.000000  0.649955  0.103672  1
  P  P35  1  0.000000  0.348722  0.106043  1
