# generated using pymatgen
data_Dy7Ho3Ir5Au
_symmetry_space_group_name_H-M   'P 1'
_cell_length_a   11.03574067
_cell_length_b   10.96836200
_cell_length_c   6.32646002
_cell_angle_alpha   90.00000000
_cell_angle_beta   89.87396690
_cell_angle_gamma   90.00000000
_symmetry_Int_Tables_number   1
_chemical_formula_structural   Dy7Ho3Ir5Au
_chemical_formula_sum   'Dy14 Ho6 Ir10 Au2'
_cell_volume   765.77816560
_cell_formula_units_Z   2
loop_
 _symmetry_equiv_pos_site_id
 _symmetry_equiv_pos_as_xyz
  1  'x, y, z'
loop_
 _atom_site_type_symbol
 _atom_site_label
 _atom_site_symmetry_multiplicity
 _atom_site_fract_x
 _atom_site_fract_y
 _atom_site_fract_z
 _atom_site_occupancy
  Dy  Dy0  1  0.292027  0.088519  0.371861  1
  Dy  Dy1  1  0.292027  0.911481  0.871861  1
  Dy  Dy2  1  0.698115  0.092222  0.865639  1
  Dy  Dy3  1  0.698115  0.907778  0.365639  1
  Dy  Dy4  1  0.578068  0.789278  0.877024  1
  Dy  Dy5  1  0.578068  0.210722  0.377024  1
  Dy  Dy6  1  0.408179  0.790584  0.376939  1
  Dy  Dy7  1  0.408179  0.209416  0.876939  1
  Dy  Dy8  1  0.209910  0.411176  0.621398  1
  Dy  Dy9  1  0.209910  0.588824  0.121398  1
  Dy  Dy10  1  0.788992  0.419536  0.123355  1
  Dy  Dy11  1  0.788992  0.580464  0.623355  1
  Dy  Dy12  1  0.917528  0.705399  0.139105  1
  Dy  Dy13  1  0.917528  0.294601  0.639105  1
  Ho  Ho14  1  0.096153  0.702577  0.624000  1
  Ho  Ho15  1  0.096153  0.297423  0.124000  1
  Ho  Ho16  1  0.009617  0.997340  0.499802  1
  Ho  Ho17  1  0.009617  0.002660  0.999802  1
  Ho  Ho18  1  0.499826  0.498856  0.000699  1
  Ho  Ho19  1  0.499826  0.501144  0.500699  1
  Ir  Ir20  1  0.153600  0.153788  0.750476  1
  Ir  Ir21  1  0.153600  0.846212  0.250476  1
  Ir  Ir22  1  0.655363  0.346363  0.748235  1
  Ir  Ir23  1  0.655363  0.653637  0.248235  1
  Ir  Ir24  1  0.347311  0.346400  0.251499  1
  Ir  Ir25  1  0.347311  0.653600  0.751499  1
  Ir  Ir26  1  0.499815  0.999722  0.120976  1
  Ir  Ir27  1  0.499815  0.000278  0.620976  1
  Ir  Ir28  1  0.999804  0.500967  0.878814  1
  Ir  Ir29  1  0.999804  0.499033  0.378814  1
  Au  Au30  1  0.845690  0.154722  0.250178  1
  Au  Au31  1  0.845690  0.845278  0.750178  1
