# generated using pymatgen
data_TbSmEr2SiBr6
_symmetry_space_group_name_H-M   'P 1'
_cell_length_a   4.06852000
_cell_length_b   13.35963583
_cell_length_c   14.06727934
_cell_angle_alpha   89.39431054
_cell_angle_beta   90.00000000
_cell_angle_gamma   90.00000000
_symmetry_Int_Tables_number   1
_chemical_formula_structural   TbSmEr2SiBr6
_chemical_formula_sum   'Tb2 Sm2 Er4 Si2 Br12'
_cell_volume   764.56941244
_cell_formula_units_Z   2
loop_
 _symmetry_equiv_pos_site_id
 _symmetry_equiv_pos_as_xyz
  1  'x, y, z'
loop_
 _atom_site_type_symbol
 _atom_site_label
 _atom_site_symmetry_multiplicity
 _atom_site_fract_x
 _atom_site_fract_y
 _atom_site_fract_z
 _atom_site_occupancy
  Tb  Tb0  1  0.000000  0.618162  0.920716  1
  Tb  Tb1  1  0.000000  0.381838  0.079284  1
  Sm  Sm2  1  0.000000  0.120686  0.580694  1
  Sm  Sm3  1  0.000000  0.879314  0.419306  1
  Er  Er4  1  0.500000  0.117759  0.341576  1
  Er  Er5  1  0.500000  0.882241  0.658424  1
  Er  Er6  1  0.500000  0.616325  0.156943  1
  Er  Er7  1  0.500000  0.383675  0.843057  1
  Si  Si8  1  0.500000  0.000000  0.500000  1
  Si  Si9  1  0.500000  0.500000  0.000000  1
  Br  Br10  1  0.500000  0.244866  0.164998  1
  Br  Br11  1  0.500000  0.755134  0.835002  1
  Br  Br12  1  0.500000  0.738027  0.331535  1
  Br  Br13  1  0.500000  0.261973  0.668465  1
  Br  Br14  1  0.000000  0.253616  0.404920  1
  Br  Br15  1  0.000000  0.746384  0.595080  1
  Br  Br16  1  0.000000  0.751821  0.089792  1
  Br  Br17  1  0.000000  0.248179  0.910208  1
  Br  Br18  1  0.000000  0.009240  0.241656  1
  Br  Br19  1  0.000000  0.990760  0.758344  1
  Br  Br20  1  0.000000  0.504108  0.255185  1
  Br  Br21  1  0.000000  0.495892  0.744815  1
