# generated using pymatgen
data_Ti2CF2
_symmetry_space_group_name_H-M   'P 1'
_cell_length_a   7.81058949
_cell_length_b   7.81058933
_cell_length_c   7.81058990
_cell_angle_alpha   22.56826800
_cell_angle_beta   22.56827029
_cell_angle_gamma   22.56827074
_symmetry_Int_Tables_number   1
_chemical_formula_structural   Ti2CF2
_chemical_formula_sum   'Ti2 C1 F2'
_cell_volume   61.56478285
_cell_formula_units_Z   1
loop_
 _symmetry_equiv_pos_site_id
 _symmetry_equiv_pos_as_xyz
  1  'x, y, z'
loop_
 _atom_site_type_symbol
 _atom_site_label
 _atom_site_symmetry_multiplicity
 _atom_site_fract_x
 _atom_site_fract_y
 _atom_site_fract_z
 _atom_site_occupancy
  Ti  Ti0  1  0.116754  0.116754  0.116754  1
  Ti  Ti1  1  0.883246  0.883246  0.883246  1
  C  C2  1  0.500000  0.500000  0.500000  1
  F  F3  1  0.271866  0.271866  0.271866  1
  F  F4  1  0.728134  0.728134  0.728134  1
