# generated using pymatgen
data_LiDyY2In3Pt2
_symmetry_space_group_name_H-M   'P 1'
_cell_length_a   7.80256115
_cell_length_b   7.81649554
_cell_length_c   3.73849200
_cell_angle_alpha   90.00000000
_cell_angle_beta   90.00000000
_cell_angle_gamma   120.05910849
_symmetry_Int_Tables_number   1
_chemical_formula_structural   LiDyY2In3Pt2
_chemical_formula_sum   'Li1 Dy1 Y2 In3 Pt2'
_cell_volume   197.34102144
_cell_formula_units_Z   1
loop_
 _symmetry_equiv_pos_site_id
 _symmetry_equiv_pos_as_xyz
  1  'x, y, z'
loop_
 _atom_site_type_symbol
 _atom_site_label
 _atom_site_symmetry_multiplicity
 _atom_site_fract_x
 _atom_site_fract_y
 _atom_site_fract_z
 _atom_site_occupancy
  Li  Li0  1  0.000000  0.999969  0.500000  1
  Dy  Dy1  1  0.000000  0.583040  0.500000  1
  Y  Y2  1  0.583540  0.000014  0.500000  1
  Y  Y3  1  0.416460  0.416474  0.500000  1
  In  In4  1  0.745443  0.745359  0.000000  1
  In  In5  1  0.000000  0.254684  0.000000  1
  In  In6  1  0.254557  0.999916  0.000000  1
  Pt  Pt7  1  0.332437  0.666491  0.000000  1
  Pt  Pt8  1  0.667563  0.334053  0.000000  1
