# generated using pymatgen
data_DyHoMnIr3
_symmetry_space_group_name_H-M   'P 1'
_cell_length_a   5.18125811
_cell_length_b   5.18125911
_cell_length_c   5.18125811
_cell_angle_alpha   63.78173571
_cell_angle_beta   63.78173256
_cell_angle_gamma   63.78173705
_symmetry_Int_Tables_number   1
_chemical_formula_structural   DyHoMnIr3
_chemical_formula_sum   'Dy1 Ho1 Mn1 Ir3'
_cell_volume   106.56004513
_cell_formula_units_Z   1
loop_
 _symmetry_equiv_pos_site_id
 _symmetry_equiv_pos_as_xyz
  1  'x, y, z'
loop_
 _atom_site_type_symbol
 _atom_site_label
 _atom_site_symmetry_multiplicity
 _atom_site_fract_x
 _atom_site_fract_y
 _atom_site_fract_z
 _atom_site_occupancy
  Dy  Dy0  1  0.250891  0.250891  0.250891  1
  Ho  Ho1  1  0.999011  0.999011  0.999011  1
  Mn  Mn2  1  0.625006  0.625006  0.625006  1
  Ir  Ir3  1  0.625088  0.625088  0.124914  1
  Ir  Ir4  1  0.625088  0.124914  0.625088  1
  Ir  Ir5  1  0.124914  0.625088  0.625088  1
