# generated using pymatgen
data_Ba3Sr2SnBi2
_symmetry_space_group_name_H-M   'P 1'
_cell_length_a   9.15624400
_cell_length_b   10.60090700
_cell_length_c   14.84039900
_cell_angle_alpha   90.00000000
_cell_angle_beta   90.00000000
_cell_angle_gamma   90.00000000
_symmetry_Int_Tables_number   1
_chemical_formula_structural   Ba3Sr2SnBi2
_chemical_formula_sum   'Ba12 Sr8 Sn4 Bi8'
_cell_volume   1440.47577685
_cell_formula_units_Z   4
loop_
 _symmetry_equiv_pos_site_id
 _symmetry_equiv_pos_as_xyz
  1  'x, y, z'
loop_
 _atom_site_type_symbol
 _atom_site_label
 _atom_site_symmetry_multiplicity
 _atom_site_fract_x
 _atom_site_fract_y
 _atom_site_fract_z
 _atom_site_occupancy
  Ba  Ba0  1  0.190059  0.750000  0.217529  1
  Ba  Ba1  1  0.309941  0.750000  0.717529  1
  Ba  Ba2  1  0.809941  0.250000  0.782471  1
  Ba  Ba3  1  0.690059  0.250000  0.282471  1
  Ba  Ba4  1  0.453673  0.750000  0.001207  1
  Ba  Ba5  1  0.046327  0.750000  0.501207  1
  Ba  Ba6  1  0.546327  0.250000  0.998793  1
  Ba  Ba7  1  0.953673  0.250000  0.498793  1
  Ba  Ba8  1  0.673756  0.750000  0.304098  1
  Ba  Ba9  1  0.826244  0.750000  0.804098  1
  Ba  Ba10  1  0.326244  0.250000  0.695902  1
  Ba  Ba11  1  0.173756  0.250000  0.195902  1
  Sr  Sr12  1  0.844095  0.522730  0.094823  1
  Sr  Sr13  1  0.655905  0.977270  0.594823  1
  Sr  Sr14  1  0.155905  0.022730  0.905177  1
  Sr  Sr15  1  0.344095  0.477270  0.405177  1
  Sr  Sr16  1  0.155905  0.477270  0.905177  1
  Sr  Sr17  1  0.344095  0.022730  0.405177  1
  Sr  Sr18  1  0.844095  0.977270  0.094823  1
  Sr  Sr19  1  0.655905  0.522730  0.594823  1
  Sn  Sn20  1  0.451433  0.750000  0.494180  1
  Sn  Sn21  1  0.048567  0.750000  0.994180  1
  Sn  Sn22  1  0.548567  0.250000  0.505820  1
  Sn  Sn23  1  0.951433  0.250000  0.005820  1
  Bi  Bi24  1  0.971504  0.501174  0.327623  1
  Bi  Bi25  1  0.528496  0.998826  0.827623  1
  Bi  Bi26  1  0.028496  0.001174  0.672377  1
  Bi  Bi27  1  0.471504  0.498826  0.172377  1
  Bi  Bi28  1  0.028496  0.498826  0.672377  1
  Bi  Bi29  1  0.471504  0.001174  0.172377  1
  Bi  Bi30  1  0.971504  0.998826  0.327623  1
  Bi  Bi31  1  0.528496  0.501174  0.827623  1
