# generated using pymatgen
data_Sr8AgAs5
_symmetry_space_group_name_H-M   'P 1'
_cell_length_a   8.30407612
_cell_length_b   8.30407637
_cell_length_c   8.30407628
_cell_angle_alpha   109.18006947
_cell_angle_beta   109.18007164
_cell_angle_gamma   110.05510589
_symmetry_Int_Tables_number   1
_chemical_formula_structural   Sr8AgAs5
_chemical_formula_sum   'Sr8 Ag1 As5'
_cell_volume   440.77627872
_cell_formula_units_Z   1
loop_
 _symmetry_equiv_pos_site_id
 _symmetry_equiv_pos_as_xyz
  1  'x, y, z'
loop_
 _atom_site_type_symbol
 _atom_site_label
 _atom_site_symmetry_multiplicity
 _atom_site_fract_x
 _atom_site_fract_y
 _atom_site_fract_z
 _atom_site_occupancy
  Sr  Sr0  1  0.739048  0.363947  0.240423  1
  Sr  Sr1  1  0.976933  0.735727  0.095435  1
  Sr  Sr2  1  0.640294  0.881498  0.904565  1
  Sr  Sr3  1  0.123523  0.498624  0.759577  1
  Sr  Sr4  1  0.636053  0.876477  0.375103  1
  Sr  Sr5  1  0.501376  0.260952  0.624897  1
  Sr  Sr6  1  0.264273  0.359706  0.241205  1
  Sr  Sr7  1  0.118502  0.023067  0.758795  1
  Ag  Ag8  1  0.250000  0.750000  0.500000  1
  As  As9  1  0.745085  0.633171  0.618264  1
  As  As10  1  0.366829  0.985093  0.111914  1
  As  As11  1  0.014907  0.126821  0.381736  1
  As  As12  1  0.500000  0.500000  0.000000  1
  As  As13  1  0.873179  0.254915  0.888086  1
