# generated using pymatgen
data_Pr2VGa6
_symmetry_space_group_name_H-M   'P 1'
_cell_length_a   6.35293603
_cell_length_b   6.35293620
_cell_length_c   6.35293500
_cell_angle_alpha   60.00000104
_cell_angle_beta   60.00000016
_cell_angle_gamma   60.00000700
_symmetry_Int_Tables_number   1
_chemical_formula_structural   Pr2VGa6
_chemical_formula_sum   'Pr2 V1 Ga6'
_cell_volume   181.30443061
_cell_formula_units_Z   1
loop_
 _symmetry_equiv_pos_site_id
 _symmetry_equiv_pos_as_xyz
  1  'x, y, z'
loop_
 _atom_site_type_symbol
 _atom_site_label
 _atom_site_symmetry_multiplicity
 _atom_site_fract_x
 _atom_site_fract_y
 _atom_site_fract_z
 _atom_site_occupancy
  Pr  Pr0  1  0.750000  0.750000  0.750000  1
  Pr  Pr1  1  0.250000  0.250000  0.250000  1
  V  V2  1  0.500000  0.500000  0.500000  1
  Ga  Ga3  1  0.782279  0.782279  0.217721  1
  Ga  Ga4  1  0.217721  0.782279  0.217721  1
  Ga  Ga5  1  0.782279  0.217721  0.217721  1
  Ga  Ga6  1  0.217721  0.217721  0.782279  1
  Ga  Ga7  1  0.782279  0.217721  0.782279  1
  Ga  Ga8  1  0.217721  0.782279  0.782279  1
