# generated using pymatgen
data_SrSm6SeBr12
_symmetry_space_group_name_H-M   'P 1'
_cell_length_a   9.27095602
_cell_length_b   9.26880679
_cell_length_c   9.26985235
_cell_angle_alpha   106.02967818
_cell_angle_beta   106.03886570
_cell_angle_gamma   106.02410504
_symmetry_Int_Tables_number   1
_chemical_formula_structural   SrSm6SeBr12
_chemical_formula_sum   'Sr1 Sm6 Se1 Br12'
_cell_volume   680.16300101
_cell_formula_units_Z   1
loop_
 _symmetry_equiv_pos_site_id
 _symmetry_equiv_pos_as_xyz
  1  'x, y, z'
loop_
 _atom_site_type_symbol
 _atom_site_label
 _atom_site_symmetry_multiplicity
 _atom_site_fract_x
 _atom_site_fract_y
 _atom_site_fract_z
 _atom_site_occupancy
  Sr  Sr0  1  0.500000  0.500000  0.500000  1
  Sm  Sm1  1  0.100357  0.315949  0.020001  1
  Sm  Sm2  1  0.315444  0.019899  0.100259  1
  Sm  Sm3  1  0.019999  0.100407  0.315728  1
  Sm  Sm4  1  0.980000  0.899593  0.684272  1
  Sm  Sm5  1  0.684556  0.980100  0.899740  1
  Sm  Sm6  1  0.899643  0.684051  0.979999  1
  Se  Se7  1  0.000000  0.000000  0.000000  1
  Br  Br8  1  0.227983  0.678459  0.075363  1
  Br  Br9  1  0.448637  0.364015  0.139398  1
  Br  Br10  1  0.678567  0.075448  0.228047  1
  Br  Br11  1  0.924634  0.771878  0.321512  1
  Br  Br12  1  0.139502  0.448813  0.364028  1
  Br  Br13  1  0.363931  0.139431  0.448778  1
  Br  Br14  1  0.636069  0.860569  0.551222  1
  Br  Br15  1  0.860497  0.551187  0.635972  1
  Br  Br16  1  0.075367  0.228123  0.678489  1
  Br  Br17  1  0.321434  0.924553  0.771953  1
  Br  Br18  1  0.551362  0.635984  0.860602  1
  Br  Br19  1  0.772017  0.321542  0.924637  1
