# generated using pymatgen
data_Pr20Si15Pb
_symmetry_space_group_name_H-M   'P 1'
_cell_length_a   7.98666129
_cell_length_b   7.96697718
_cell_length_c   15.52780705
_cell_angle_alpha   90.08048781
_cell_angle_beta   89.96835754
_cell_angle_gamma   90.01420430
_symmetry_Int_Tables_number   1
_chemical_formula_structural   Pr20Si15Pb
_chemical_formula_sum   'Pr20 Si15 Pb1'
_cell_volume   988.02619173
_cell_formula_units_Z   1
loop_
 _symmetry_equiv_pos_site_id
 _symmetry_equiv_pos_as_xyz
  1  'x, y, z'
loop_
 _atom_site_type_symbol
 _atom_site_label
 _atom_site_symmetry_multiplicity
 _atom_site_fract_x
 _atom_site_fract_y
 _atom_site_fract_z
 _atom_site_occupancy
  Pr  Pr0  1  0.382225  0.475256  0.371459  1
  Pr  Pr1  1  0.862334  0.034918  0.370743  1
  Pr  Pr2  1  0.978910  0.126405  0.122793  1
  Pr  Pr3  1  0.019591  0.875142  0.627804  1
  Pr  Pr4  1  0.626634  0.520213  0.873720  1
  Pr  Pr5  1  0.482245  0.370291  0.630231  1
  Pr  Pr6  1  0.521630  0.625080  0.125334  1
  Pr  Pr7  1  0.125514  0.979900  0.877588  1
  Pr  Pr8  1  0.988255  0.618242  0.052408  1
  Pr  Pr9  1  0.009695  0.373508  0.558991  1
  Pr  Pr10  1  0.620562  0.988877  0.945985  1
  Pr  Pr11  1  0.119358  0.511944  0.804699  1
  Pr  Pr12  1  0.870149  0.479963  0.294397  1
  Pr  Pr13  1  0.512838  0.118141  0.194238  1
  Pr  Pr14  1  0.490801  0.883140  0.698384  1
  Pr  Pr15  1  0.386537  0.014099  0.445517  1
  Pr  Pr16  1  0.678922  0.693185  0.502699  1
  Pr  Pr17  1  0.809835  0.191715  0.751417  1
  Pr  Pr18  1  0.195318  0.809191  0.240911  1
  Pr  Pr19  1  0.307624  0.308190  0.000079  1
  Si  Si20  1  0.920683  0.288460  0.939965  1
  Si  Si21  1  0.714847  0.078779  0.560813  1
  Si  Si22  1  0.213600  0.420574  0.190046  1
  Si  Si23  1  0.788772  0.580182  0.691043  1
  Si  Si24  1  0.419852  0.213403  0.812141  1
  Si  Si25  1  0.580482  0.787116  0.309626  1
  Si  Si26  1  0.288630  0.921083  0.057220  1
  Si  Si27  1  0.829848  0.805955  0.797096  1
  Si  Si28  1  0.172899  0.192797  0.293994  1
  Si  Si29  1  0.806654  0.829097  0.203522  1
  Si  Si30  1  0.313755  0.666751  0.556275  1
  Si  Si31  1  0.695537  0.331263  0.045492  1
  Si  Si32  1  0.670963  0.309438  0.458648  1
  Si  Si33  1  0.330659  0.693413  0.953655  1
  Si  Si34  1  0.193888  0.169817  0.706978  1
  Pb  Pb35  1  0.069956  0.714474  0.434090  1
