# generated using pymatgen
data_HoEr(ScSb5)2
_symmetry_space_group_name_H-M   'P 1'
_cell_length_a   4.19740800
_cell_length_b   13.03298002
_cell_length_c   14.21134511
_cell_angle_alpha   78.83883989
_cell_angle_beta   90.00000000
_cell_angle_gamma   90.00000000
_symmetry_Int_Tables_number   1
_chemical_formula_structural   HoEr(ScSb5)2
_chemical_formula_sum   'Ho2 Er2 Sc4 Sb20'
_cell_volume   762.72405747
_cell_formula_units_Z   2
loop_
 _symmetry_equiv_pos_site_id
 _symmetry_equiv_pos_as_xyz
  1  'x, y, z'
loop_
 _atom_site_type_symbol
 _atom_site_label
 _atom_site_symmetry_multiplicity
 _atom_site_fract_x
 _atom_site_fract_y
 _atom_site_fract_z
 _atom_site_occupancy
  Ho  Ho0  1  0.250000  0.953633  0.355171  1
  Ho  Ho1  1  0.750000  0.046367  0.644829  1
  Er  Er2  1  0.250000  0.669168  0.576359  1
  Er  Er3  1  0.750000  0.330832  0.423641  1
  Sc  Sc4  1  0.250000  0.396617  0.772525  1
  Sc  Sc5  1  0.750000  0.603383  0.227475  1
  Sc  Sc6  1  0.250000  0.657491  0.858591  1
  Sc  Sc7  1  0.750000  0.342509  0.141409  1
  Sb  Sb8  1  0.250000  0.147495  0.779936  1
  Sb  Sb9  1  0.750000  0.852505  0.220064  1
  Sb  Sb10  1  0.250000  0.143528  0.483391  1
  Sb  Sb11  1  0.750000  0.856472  0.516609  1
  Sb  Sb12  1  0.250000  0.162624  0.161516  1
  Sb  Sb13  1  0.750000  0.837376  0.838484  1
  Sb  Sb14  1  0.250000  0.422063  0.974942  1
  Sb  Sb15  1  0.750000  0.577937  0.025058  1
  Sb  Sb16  1  0.750000  0.028336  0.913622  1
  Sb  Sb17  1  0.250000  0.971664  0.086378  1
  Sb  Sb18  1  0.750000  0.142716  0.316429  1
  Sb  Sb19  1  0.250000  0.857284  0.683571  1
  Sb  Sb20  1  0.750000  0.279816  0.936417  1
  Sb  Sb21  1  0.250000  0.720184  0.063583  1
  Sb  Sb22  1  0.750000  0.289137  0.658638  1
  Sb  Sb23  1  0.250000  0.710863  0.341362  1
  Sb  Sb24  1  0.750000  0.573462  0.740989  1
  Sb  Sb25  1  0.250000  0.426538  0.259011  1
  Sb  Sb26  1  0.750000  0.570178  0.444073  1
  Sb  Sb27  1  0.250000  0.429822  0.555927  1
