# generated using pymatgen
data_Tb15Th(InOs)4
_symmetry_space_group_name_H-M   'P 1'
_cell_length_a   9.71928686
_cell_length_b   9.71047862
_cell_length_c   9.71928600
_cell_angle_alpha   59.96998540
_cell_angle_beta   59.99999612
_cell_angle_gamma   59.96998866
_symmetry_Int_Tables_number   1
_chemical_formula_structural   Tb15Th(InOs)4
_chemical_formula_sum   'Tb15 Th1 In4 Os4'
_cell_volume   648.33164958
_cell_formula_units_Z   1
loop_
 _symmetry_equiv_pos_site_id
 _symmetry_equiv_pos_as_xyz
  1  'x, y, z'
loop_
 _atom_site_type_symbol
 _atom_site_label
 _atom_site_symmetry_multiplicity
 _atom_site_fract_x
 _atom_site_fract_y
 _atom_site_fract_z
 _atom_site_occupancy
  Tb  Tb0  1  0.941594  0.940675  0.558866  1
  Tb  Tb1  1  0.940687  0.558052  0.940687  1
  Tb  Tb2  1  0.310849  0.688410  0.310849  1
  Tb  Tb3  1  0.940687  0.558052  0.560574  1
  Tb  Tb4  1  0.308226  0.305900  0.692938  1
  Tb  Tb5  1  0.098436  0.099822  0.098436  1
  Tb  Tb6  1  0.560574  0.558052  0.940687  1
  Tb  Tb7  1  0.098436  0.099822  0.703308  1
  Tb  Tb8  1  0.692938  0.305900  0.692938  1
  Tb  Tb9  1  0.689892  0.688410  0.310849  1
  Tb  Tb10  1  0.692938  0.305900  0.308226  1
  Tb  Tb11  1  0.310849  0.688410  0.689892  1
  Tb  Tb12  1  0.558866  0.940675  0.558866  1
  Tb  Tb13  1  0.703308  0.099822  0.098436  1
  Tb  Tb14  1  0.558866  0.940675  0.941594  1
  Th  Th15  1  0.093711  0.718868  0.093711  1
  In  In16  1  0.332152  0.331570  0.332152  1
  In  In17  1  0.004127  0.331570  0.332152  1
  In  In18  1  0.331765  0.004702  0.331765  1
  In  In19  1  0.332152  0.331570  0.004127  1
  Os  Os20  1  0.890079  0.890886  0.890079  1
  Os  Os21  1  0.890079  0.890886  0.328955  1
  Os  Os22  1  0.328955  0.890886  0.890079  1
  Os  Os23  1  0.889838  0.330488  0.889838  1
