# generated using pymatgen
data_Tb3Cd5Pd
_symmetry_space_group_name_H-M   'P 1'
_cell_length_a   8.09451200
_cell_length_b   8.09451198
_cell_length_c   3.82991500
_cell_angle_alpha   90.00000000
_cell_angle_beta   90.00000000
_cell_angle_gamma   120.00000008
_symmetry_Int_Tables_number   1
_chemical_formula_structural   Tb3Cd5Pd
_chemical_formula_sum   'Tb3 Cd5 Pd1'
_cell_volume   217.32070648
_cell_formula_units_Z   1
loop_
 _symmetry_equiv_pos_site_id
 _symmetry_equiv_pos_as_xyz
  1  'x, y, z'
loop_
 _atom_site_type_symbol
 _atom_site_label
 _atom_site_symmetry_multiplicity
 _atom_site_fract_x
 _atom_site_fract_y
 _atom_site_fract_z
 _atom_site_occupancy
  Tb  Tb0  1  0.612489  0.033178  0.000000  1
  Tb  Tb1  1  0.966822  0.579311  0.000000  1
  Tb  Tb2  1  0.420689  0.387511  0.000000  1
  Cd  Cd3  1  0.272732  0.994391  0.500000  1
  Cd  Cd4  1  0.005609  0.278340  0.500000  1
  Cd  Cd5  1  0.721660  0.727268  0.500000  1
  Cd  Cd6  1  0.333333  0.666667  0.500000  1
  Cd  Cd7  1  0.000000  0.000000  0.000000  1
  Pd  Pd8  1  0.666667  0.333333  0.500000  1
