# generated using pymatgen
data_BaSr2Li3(NiN)4
_symmetry_space_group_name_H-M   'P 1'
_cell_length_a   4.11066592
_cell_length_b   7.04002978
_cell_length_c   9.49199015
_cell_angle_alpha   111.76746111
_cell_angle_beta   102.50551085
_cell_angle_gamma   89.99999548
_symmetry_Int_Tables_number   1
_chemical_formula_structural   BaSr2Li3(NiN)4
_chemical_formula_sum   'Ba1 Sr2 Li3 Ni4 N4'
_cell_volume   248.07332128
_cell_formula_units_Z   1
loop_
 _symmetry_equiv_pos_site_id
 _symmetry_equiv_pos_as_xyz
  1  'x, y, z'
loop_
 _atom_site_type_symbol
 _atom_site_label
 _atom_site_symmetry_multiplicity
 _atom_site_fract_x
 _atom_site_fract_y
 _atom_site_fract_z
 _atom_site_occupancy
  Ba  Ba0  1  0.000000  0.000000  0.000000  1
  Sr  Sr1  1  0.220326  0.220326  0.440652  1
  Sr  Sr2  1  0.779675  0.779674  0.559348  1
  Li  Li3  1  0.500001  0.500000  0.000000  1
  Li  Li4  1  0.116981  0.616980  0.233960  1
  Li  Li5  1  0.883021  0.383020  0.766040  1
  Ni  Ni6  1  0.623491  0.373435  0.246980  1
  Ni  Ni7  1  0.623491  0.873546  0.246980  1
  Ni  Ni8  1  0.376510  0.126454  0.753020  1
  Ni  Ni9  1  0.376510  0.626566  0.753020  1
  N  N10  1  0.624204  0.124203  0.248408  1
  N  N11  1  0.619612  0.619611  0.239222  1
  N  N12  1  0.380388  0.380388  0.760777  1
  N  N13  1  0.375797  0.875796  0.751592  1
