# generated using pymatgen
data_Pr6ErLuO12
_symmetry_space_group_name_H-M   'P 1'
_cell_length_a   6.99569926
_cell_length_b   6.99569909
_cell_length_c   6.99569942
_cell_angle_alpha   92.18399215
_cell_angle_beta   92.18399275
_cell_angle_gamma   92.18397453
_symmetry_Int_Tables_number   1
_chemical_formula_structural   Pr6ErLuO12
_chemical_formula_sum   'Pr6 Er1 Lu1 O12'
_cell_volume   341.60256429
_cell_formula_units_Z   1
loop_
 _symmetry_equiv_pos_site_id
 _symmetry_equiv_pos_as_xyz
  1  'x, y, z'
loop_
 _atom_site_type_symbol
 _atom_site_label
 _atom_site_symmetry_multiplicity
 _atom_site_fract_x
 _atom_site_fract_y
 _atom_site_fract_z
 _atom_site_occupancy
  Pr  Pr0  1  0.558911  0.065751  0.253842  1
  Pr  Pr1  1  0.065751  0.253842  0.558911  1
  Pr  Pr2  1  0.746158  0.441089  0.934249  1
  Pr  Pr3  1  0.253842  0.558911  0.065751  1
  Pr  Pr4  1  0.934249  0.746158  0.441089  1
  Pr  Pr5  1  0.441089  0.934249  0.746158  1
  Er  Er6  1  0.000000  0.000000  0.000000  1
  Lu  Lu7  1  0.500000  0.500000  0.500000  1
  O  O8  1  0.693299  0.086815  0.934420  1
  O  O9  1  0.913185  0.065580  0.306701  1
  O  O10  1  0.407230  0.196091  0.536095  1
  O  O11  1  0.065580  0.306701  0.913185  1
  O  O12  1  0.536095  0.407230  0.196091  1
  O  O13  1  0.803909  0.463905  0.592770  1
  O  O14  1  0.196091  0.536095  0.407230  1
  O  O15  1  0.463905  0.592770  0.803909  1
  O  O16  1  0.934420  0.693299  0.086815  1
  O  O17  1  0.592770  0.803909  0.463905  1
  O  O18  1  0.086815  0.934420  0.693299  1
  O  O19  1  0.306701  0.913185  0.065580  1
