# generated using pymatgen
data_Pr3Np(Ni3Ge5)2
_symmetry_space_group_name_H-M   'P 1'
_cell_length_a   5.99665526
_cell_length_b   8.25277348
_cell_length_c   8.27166319
_cell_angle_alpha   72.80388580
_cell_angle_beta   68.74730621
_cell_angle_gamma   68.69629391
_symmetry_Int_Tables_number   1
_chemical_formula_structural   Pr3Np(Ni3Ge5)2
_chemical_formula_sum   'Pr3 Np1 Ni6 Ge10'
_cell_volume   349.05318658
_cell_formula_units_Z   1
loop_
 _symmetry_equiv_pos_site_id
 _symmetry_equiv_pos_as_xyz
  1  'x, y, z'
loop_
 _atom_site_type_symbol
 _atom_site_label
 _atom_site_symmetry_multiplicity
 _atom_site_fract_x
 _atom_site_fract_y
 _atom_site_fract_z
 _atom_site_occupancy
  Pr  Pr0  1  0.131706  0.130899  0.605690  1
  Pr  Pr1  1  0.368691  0.393003  0.869615  1
  Pr  Pr2  1  0.632811  0.606204  0.128174  1
  Np  Np3  1  0.867646  0.870802  0.393905  1
  Ni  Ni4  1  0.250041  0.000420  0.002431  1
  Ni  Ni5  1  0.747108  0.000420  0.002431  1
  Ni  Ni6  1  0.632029  0.259511  0.476432  1
  Ni  Ni7  1  0.365729  0.744459  0.524081  1
  Ni  Ni8  1  0.135820  0.473827  0.254534  1
  Ni  Ni9  1  0.866834  0.522199  0.744133  1
  Ge  Ge10  1  0.245037  0.504711  0.498010  1
  Ge  Ge11  1  0.752242  0.504711  0.498010  1
  Ge  Ge12  1  0.012776  0.233868  0.237733  1
  Ge  Ge13  1  0.489793  0.762013  0.760728  1
  Ge  Ge14  1  0.987466  0.762013  0.760728  1
  Ge  Ge15  1  0.515622  0.233868  0.237733  1
  Ge  Ge16  1  0.604526  0.048552  0.742394  1
  Ge  Ge17  1  0.397636  0.946662  0.258066  1
  Ge  Ge18  1  0.098775  0.747201  0.055249  1
  Ge  Ge19  1  0.897711  0.254653  0.949926  1
