# generated using pymatgen
data_Pr8V(IrO8)3
_symmetry_space_group_name_H-M   'P 1'
_cell_length_a   5.47003256
_cell_length_b   9.45345925
_cell_length_c   10.22736545
_cell_angle_alpha   89.85869926
_cell_angle_beta   90.01686185
_cell_angle_gamma   89.93083966
_symmetry_Int_Tables_number   1
_chemical_formula_structural   Pr8V(IrO8)3
_chemical_formula_sum   'Pr8 V1 Ir3 O24'
_cell_volume   528.86251572
_cell_formula_units_Z   1
loop_
 _symmetry_equiv_pos_site_id
 _symmetry_equiv_pos_as_xyz
  1  'x, y, z'
loop_
 _atom_site_type_symbol
 _atom_site_label
 _atom_site_symmetry_multiplicity
 _atom_site_fract_x
 _atom_site_fract_y
 _atom_site_fract_z
 _atom_site_occupancy
  Pr  Pr0  1  0.034974  0.218985  0.131724  1
  Pr  Pr1  1  0.466437  0.770156  0.633081  1
  Pr  Pr2  1  0.969233  0.713383  0.374686  1
  Pr  Pr3  1  0.531050  0.287071  0.860158  1
  Pr  Pr4  1  0.025066  0.109279  0.539181  1
  Pr  Pr5  1  0.474701  0.899051  0.037892  1
  Pr  Pr6  1  0.976164  0.602944  0.955136  1
  Pr  Pr7  1  0.525245  0.402947  0.467786  1
  V  V8  1  0.041221  0.492825  0.648150  1
  Ir  Ir9  1  0.545931  0.001956  0.358389  1
  Ir  Ir10  1  0.955578  0.996627  0.856967  1
  Ir  Ir11  1  0.456300  0.504115  0.142611  1
  O  O12  1  0.437965  0.148325  0.478517  1
  O  O13  1  0.063101  0.852309  0.981521  1
  O  O14  1  0.562144  0.649477  0.018931  1
  O  O15  1  0.932947  0.352130  0.523934  1
  O  O16  1  0.723272  0.389693  0.065333  1
  O  O17  1  0.777829  0.609101  0.563945  1
  O  O18  1  0.281807  0.887787  0.433819  1
  O  O19  1  0.223641  0.112459  0.933864  1
  O  O20  1  0.248727  0.411989  0.006685  1
  O  O21  1  0.249651  0.589485  0.507883  1
  O  O22  1  0.754846  0.912781  0.494589  1
  O  O23  1  0.748228  0.089387  0.993418  1
  O  O24  1  0.188847  0.631422  0.179050  1
  O  O25  1  0.304845  0.365777  0.675870  1
  O  O26  1  0.812676  0.130750  0.319580  1
  O  O27  1  0.687532  0.866483  0.822453  1
  O  O28  1  0.336854  0.057105  0.216470  1
  O  O29  1  0.162816  0.943225  0.716716  1
  O  O30  1  0.661902  0.560358  0.281488  1
  O  O31  1  0.836743  0.447763  0.781445  1
  O  O32  1  0.326792  0.361462  0.257439  1
  O  O33  1  0.178450  0.631872  0.755473  1
  O  O34  1  0.676421  0.861061  0.243200  1
  O  O35  1  0.820064  0.138460  0.742618  1
