# generated using pymatgen
data_Ti11Nb3(P3S)2
_symmetry_space_group_name_H-M   'P 1'
_cell_length_a   7.55725246
_cell_length_b   7.55725270
_cell_length_c   13.56752175
_cell_angle_alpha   75.91138041
_cell_angle_beta   75.91137980
_cell_angle_gamma   26.00571644
_symmetry_Int_Tables_number   1
_chemical_formula_structural   Ti11Nb3(P3S)2
_chemical_formula_sum   'Ti11 Nb3 P6 S2'
_cell_volume   328.97637565
_cell_formula_units_Z   1
loop_
 _symmetry_equiv_pos_site_id
 _symmetry_equiv_pos_as_xyz
  1  'x, y, z'
loop_
 _atom_site_type_symbol
 _atom_site_label
 _atom_site_symmetry_multiplicity
 _atom_site_fract_x
 _atom_site_fract_y
 _atom_site_fract_z
 _atom_site_occupancy
  Ti  Ti0  1  0.661714  0.661714  0.031183  1
  Ti  Ti1  1  0.338286  0.338286  0.968817  1
  Ti  Ti2  1  0.997033  0.997033  0.664577  1
  Ti  Ti3  1  0.002967  0.002967  0.335423  1
  Ti  Ti4  1  0.822430  0.822430  0.541661  1
  Ti  Ti5  1  0.177570  0.177570  0.458339  1
  Ti  Ti6  1  0.206235  0.206235  0.203102  1
  Ti  Ti7  1  0.793765  0.793765  0.796898  1
  Ti  Ti8  1  0.197525  0.197525  0.692257  1
  Ti  Ti9  1  0.802475  0.802475  0.307743  1
  Ti  Ti10  1  0.000000  0.000000  0.000000  1
  Nb  Nb11  1  0.426538  0.426538  0.171240  1
  Nb  Nb12  1  0.573462  0.573462  0.828760  1
  Nb  Nb13  1  0.500000  0.500000  0.500000  1
  P  P14  1  0.369105  0.369105  0.662273  1
  P  P15  1  0.630895  0.630895  0.337727  1
  P  P16  1  0.371904  0.371904  0.394477  1
  P  P17  1  0.628096  0.628096  0.605523  1
  P  P18  1  0.180717  0.180717  0.891559  1
  P  P19  1  0.819283  0.819283  0.108441  1
  S  S20  1  0.064080  0.064080  0.150295  1
  S  S21  1  0.935920  0.935920  0.849705  1
