# generated using pymatgen
data_La4ScCdIn2
_symmetry_space_group_name_H-M   'P 1'
_cell_length_a   9.40885557
_cell_length_b   9.40885582
_cell_length_c   9.40885600
_cell_angle_alpha   95.90410078
_cell_angle_beta   95.90409481
_cell_angle_gamma   142.58660486
_symmetry_Int_Tables_number   1
_chemical_formula_structural   La4ScCdIn2
_chemical_formula_sum   'La8 Sc2 Cd2 In4'
_cell_volume   479.32484804
_cell_formula_units_Z   2
loop_
 _symmetry_equiv_pos_site_id
 _symmetry_equiv_pos_as_xyz
  1  'x, y, z'
loop_
 _atom_site_type_symbol
 _atom_site_label
 _atom_site_symmetry_multiplicity
 _atom_site_fract_x
 _atom_site_fract_y
 _atom_site_fract_z
 _atom_site_occupancy
  La  La0  1  0.908646  0.228043  0.136689  1
  La  La1  1  0.228043  0.091354  0.319397  1
  La  La2  1  0.771957  0.908646  0.680603  1
  La  La3  1  0.091354  0.771957  0.863311  1
  La  La4  1  0.728043  0.408646  0.136689  1
  La  La5  1  0.271957  0.591354  0.863311  1
  La  La6  1  0.591354  0.728043  0.319397  1
  La  La7  1  0.408646  0.271957  0.680603  1
  Sc  Sc8  1  0.750000  0.250000  0.500000  1
  Sc  Sc9  1  0.250000  0.750000  0.500000  1
  Cd  Cd10  1  0.750000  0.750000  0.000000  1
  Cd  Cd11  1  0.250000  0.250000  0.000000  1
  In  In12  1  0.850244  0.649756  0.500000  1
  In  In13  1  0.649756  0.149756  0.799514  1
  In  In14  1  0.350244  0.850244  0.200486  1
  In  In15  1  0.149756  0.350244  0.500000  1
