# generated using pymatgen
data_CoCuPtS4
_symmetry_space_group_name_H-M   'P 1'
_cell_length_a   6.91247870
_cell_length_b   6.91247956
_cell_length_c   6.91247956
_cell_angle_alpha   120.81379767
_cell_angle_beta   119.19446682
_cell_angle_gamma   89.99856932
_symmetry_Int_Tables_number   1
_chemical_formula_structural   CoCuPtS4
_chemical_formula_sum   'Co2 Cu2 Pt2 S8'
_cell_volume   233.48068194
_cell_formula_units_Z   2
loop_
 _symmetry_equiv_pos_site_id
 _symmetry_equiv_pos_as_xyz
  1  'x, y, z'
loop_
 _atom_site_type_symbol
 _atom_site_label
 _atom_site_symmetry_multiplicity
 _atom_site_fract_x
 _atom_site_fract_y
 _atom_site_fract_z
 _atom_site_occupancy
  Co  Co0  1  0.500000  0.000000  0.000000  1
  Co  Co1  1  0.500000  0.500000  0.500000  1
  Cu  Cu2  1  0.879446  0.629446  0.250000  1
  Cu  Cu3  1  0.120554  0.370554  0.750000  1
  Pt  Pt4  1  0.500000  0.000000  0.500000  1
  Pt  Pt5  1  0.000000  0.000000  0.000000  1
  S  S6  1  0.731390  0.745262  0.513872  1
  S  S7  1  0.731390  0.217517  0.986128  1
  S  S8  1  0.723296  0.755194  0.968102  1
  S  S9  1  0.287092  0.755194  0.531898  1
  S  S10  1  0.268610  0.254738  0.486128  1
  S  S11  1  0.268610  0.782483  0.013872  1
  S  S12  1  0.276704  0.244806  0.031898  1
  S  S13  1  0.712908  0.244806  0.468102  1
