# generated using pymatgen
data_Tm4FeTcOs6
_symmetry_space_group_name_H-M   'P 1'
_cell_length_a   5.35073401
_cell_length_b   5.21699475
_cell_length_c   8.77208400
_cell_angle_alpha   90.00000000
_cell_angle_beta   90.00000000
_cell_angle_gamma   120.71656898
_symmetry_Int_Tables_number   1
_chemical_formula_structural   Tm4FeTcOs6
_chemical_formula_sum   'Tm4 Fe1 Tc1 Os6'
_cell_volume   210.51633101
_cell_formula_units_Z   1
loop_
 _symmetry_equiv_pos_site_id
 _symmetry_equiv_pos_as_xyz
  1  'x, y, z'
loop_
 _atom_site_type_symbol
 _atom_site_label
 _atom_site_symmetry_multiplicity
 _atom_site_fract_x
 _atom_site_fract_y
 _atom_site_fract_z
 _atom_site_occupancy
  Tm  Tm0  1  0.669928  0.339680  0.562405  1
  Tm  Tm1  1  0.332551  0.665144  0.434149  1
  Tm  Tm2  1  0.332551  0.665144  0.065851  1
  Tm  Tm3  1  0.669928  0.339680  0.937595  1
  Fe  Fe4  1  0.830942  0.661249  0.250000  1
  Tc  Tc5  1  0.166923  0.333560  0.750000  1
  Os  Os6  1  0.002315  0.004021  0.497226  1
  Os  Os7  1  0.002315  0.004021  0.002774  1
  Os  Os8  1  0.172831  0.826572  0.750000  1
  Os  Os9  1  0.651565  0.826231  0.750000  1
  Os  Os10  1  0.823009  0.167211  0.250000  1
  Os  Os11  1  0.345144  0.167488  0.250000  1
