# generated using pymatgen
data_Pa5(CS2)2
_symmetry_space_group_name_H-M   'P 1'
_cell_length_a   3.79765619
_cell_length_b   8.66221777
_cell_length_c   9.10370200
_cell_angle_alpha   92.65179867
_cell_angle_beta   77.75186576
_cell_angle_gamma   49.08413931
_symmetry_Int_Tables_number   1
_chemical_formula_structural   Pa5(CS2)2
_chemical_formula_sum   'Pa5 C2 S4'
_cell_volume   214.08637163
_cell_formula_units_Z   1
loop_
 _symmetry_equiv_pos_site_id
 _symmetry_equiv_pos_as_xyz
  1  'x, y, z'
loop_
 _atom_site_type_symbol
 _atom_site_label
 _atom_site_symmetry_multiplicity
 _atom_site_fract_x
 _atom_site_fract_y
 _atom_site_fract_z
 _atom_site_occupancy
  Pa  Pa0  1  0.427335  0.928742  0.832279  1
  Pa  Pa1  1  0.330974  0.790614  0.440546  1
  Pa  Pa2  1  0.483741  0.296424  0.616054  1
  Pa  Pa3  1  0.387874  0.158022  0.224378  1
  Pa  Pa4  1  0.407566  0.543652  0.027652  1
  C  C5  1  0.400444  0.072199  0.456860  1
  C  C6  1  0.414316  0.014745  0.599886  1
  S  S7  1  0.449575  0.617899  0.720216  1
  S  S8  1  0.397865  0.847559  0.135074  1
  S  S9  1  0.365392  0.469356  0.335200  1
  S  S10  1  0.417266  0.239316  0.921540  1
