# generated using pymatgen
data_Tb2Er13Th(InIr)4
_symmetry_space_group_name_H-M   'P 1'
_cell_length_a   9.65348113
_cell_length_b   9.61285297
_cell_length_c   9.64830009
_cell_angle_alpha   59.98344798
_cell_angle_beta   60.06172527
_cell_angle_gamma   59.89175962
_symmetry_Int_Tables_number   1
_chemical_formula_structural   Tb2Er13Th(InIr)4
_chemical_formula_sum   'Tb2 Er13 Th1 In4 Ir4'
_cell_volume   632.79503987
_cell_formula_units_Z   1
loop_
 _symmetry_equiv_pos_site_id
 _symmetry_equiv_pos_as_xyz
  1  'x, y, z'
loop_
 _atom_site_type_symbol
 _atom_site_label
 _atom_site_symmetry_multiplicity
 _atom_site_fract_x
 _atom_site_fract_y
 _atom_site_fract_z
 _atom_site_occupancy
  Tb  Tb0  1  0.697175  0.103149  0.101986  1
  Tb  Tb1  1  0.559430  0.939490  0.940395  1
  Er  Er2  1  0.942116  0.940067  0.558224  1
  Er  Er3  1  0.939937  0.557566  0.938810  1
  Er  Er4  1  0.312310  0.687119  0.313575  1
  Er  Er5  1  0.938660  0.558800  0.561717  1
  Er  Er6  1  0.310101  0.309694  0.690687  1
  Er  Er7  1  0.097937  0.099622  0.099680  1
  Er  Er8  1  0.561726  0.559053  0.938054  1
  Er  Er9  1  0.101371  0.102517  0.697936  1
  Er  Er10  1  0.691409  0.309102  0.689916  1
  Er  Er11  1  0.689194  0.687264  0.312702  1
  Er  Er12  1  0.690571  0.309782  0.311512  1
  Er  Er13  1  0.311399  0.688517  0.689205  1
  Er  Er14  1  0.558641  0.939641  0.558947  1
  Th  Th15  1  0.098153  0.707535  0.098493  1
  In  In16  1  0.333462  0.333226  0.334398  1
  In  In17  1  0.999428  0.332574  0.333757  1
  In  In18  1  0.332633  0.000243  0.333551  1
  In  In19  1  0.333119  0.332885  0.999462  1
  Ir  Ir20  1  0.893434  0.893174  0.889530  1
  Ir  Ir21  1  0.891575  0.891646  0.326421  1
  Ir  Ir22  1  0.323903  0.892373  0.890479  1
  Ir  Ir23  1  0.892319  0.324961  0.890565  1
