# generated using pymatgen
data_Th6Sb8PdPt5
_symmetry_space_group_name_H-M   'P 1'
_cell_length_a   8.61786373
_cell_length_b   8.61786368
_cell_length_c   8.61786372
_cell_angle_alpha   109.45862512
_cell_angle_beta   109.45863326
_cell_angle_gamma   109.49641058
_symmetry_Int_Tables_number   1
_chemical_formula_structural   Th6Sb8PdPt5
_chemical_formula_sum   'Th6 Sb8 Pd1 Pt5'
_cell_volume   492.69356330
_cell_formula_units_Z   1
loop_
 _symmetry_equiv_pos_site_id
 _symmetry_equiv_pos_as_xyz
  1  'x, y, z'
loop_
 _atom_site_type_symbol
 _atom_site_label
 _atom_site_symmetry_multiplicity
 _atom_site_fract_x
 _atom_site_fract_y
 _atom_site_fract_z
 _atom_site_occupancy
  Th  Th0  1  0.875566  0.250667  0.127033  1
  Th  Th1  1  0.623634  0.748532  0.372967  1
  Th  Th2  1  0.251468  0.124434  0.875101  1
  Th  Th3  1  0.749333  0.376366  0.624899  1
  Th  Th4  1  0.125000  0.875000  0.250000  1
  Th  Th5  1  0.375000  0.625000  0.750000  1
  Sb  Sb6  1  0.673641  0.499968  0.999772  1
  Sb  Sb7  1  0.502271  0.002157  0.673770  1
  Sb  Sb8  1  0.000196  0.673869  0.500228  1
  Sb  Sb9  1  0.828387  0.828501  0.826230  1
  Sb  Sb10  1  0.500032  0.999804  0.173673  1
  Sb  Sb11  1  0.171499  0.497729  0.999886  1
  Sb  Sb12  1  0.997843  0.171613  0.500114  1
  Sb  Sb13  1  0.326131  0.326359  0.326327  1
  Pd  Pd14  1  0.875000  0.125000  0.750000  1
  Pt  Pt15  1  0.374320  0.250388  0.624920  1
  Pt  Pt16  1  0.125468  0.749400  0.875080  1
  Pt  Pt17  1  0.250600  0.625680  0.376068  1
  Pt  Pt18  1  0.749612  0.874532  0.123932  1
  Pt  Pt19  1  0.625000  0.375000  0.250000  1
