# generated using pymatgen
data_Nd4AgIr
_symmetry_space_group_name_H-M   'P 1'
_cell_length_a   9.89415115
_cell_length_b   9.89415076
_cell_length_c   9.89415100
_cell_angle_alpha   59.99999587
_cell_angle_beta   59.99999716
_cell_angle_gamma   59.99999875
_symmetry_Int_Tables_number   1
_chemical_formula_structural   Nd4AgIr
_chemical_formula_sum   'Nd16 Ag4 Ir4'
_cell_volume   684.88960345
_cell_formula_units_Z   4
loop_
 _symmetry_equiv_pos_site_id
 _symmetry_equiv_pos_as_xyz
  1  'x, y, z'
loop_
 _atom_site_type_symbol
 _atom_site_label
 _atom_site_symmetry_multiplicity
 _atom_site_fract_x
 _atom_site_fract_y
 _atom_site_fract_z
 _atom_site_occupancy
  Nd  Nd0  1  0.350145  0.350145  0.350145  1
  Nd  Nd1  1  0.350145  0.350145  0.949566  1
  Nd  Nd2  1  0.350145  0.949566  0.350145  1
  Nd  Nd3  1  0.949566  0.350145  0.350145  1
  Nd  Nd4  1  0.809813  0.190187  0.190187  1
  Nd  Nd5  1  0.190187  0.809813  0.809813  1
  Nd  Nd6  1  0.190187  0.809813  0.190187  1
  Nd  Nd7  1  0.809813  0.190187  0.809813  1
  Nd  Nd8  1  0.190187  0.190187  0.809813  1
  Nd  Nd9  1  0.809813  0.809813  0.190187  1
  Nd  Nd10  1  0.937947  0.562053  0.562053  1
  Nd  Nd11  1  0.562053  0.937947  0.937947  1
  Nd  Nd12  1  0.562053  0.937947  0.562053  1
  Nd  Nd13  1  0.937947  0.562053  0.937947  1
  Nd  Nd14  1  0.562053  0.562053  0.937947  1
  Nd  Nd15  1  0.937947  0.937947  0.562053  1
  Ag  Ag16  1  0.580455  0.580455  0.580455  1
  Ag  Ag17  1  0.580455  0.580455  0.258635  1
  Ag  Ag18  1  0.580455  0.258635  0.580455  1
  Ag  Ag19  1  0.258635  0.580455  0.580455  1
  Ir  Ir20  1  0.141980  0.141980  0.141980  1
  Ir  Ir21  1  0.141980  0.141980  0.574058  1
  Ir  Ir22  1  0.141980  0.574058  0.141980  1
  Ir  Ir23  1  0.574058  0.141980  0.141980  1
