# generated using pymatgen
data_HoLu5(AlAu)6
_symmetry_space_group_name_H-M   'P 1'
_cell_length_a   7.32848200
_cell_length_b   7.33043781
_cell_length_c   7.91854800
_cell_angle_alpha   90.00000000
_cell_angle_beta   90.00000000
_cell_angle_gamma   120.15432746
_symmetry_Int_Tables_number   1
_chemical_formula_structural   HoLu5(AlAu)6
_chemical_formula_sum   'Ho1 Lu5 Al6 Au6'
_cell_volume   367.82618936
_cell_formula_units_Z   1
loop_
 _symmetry_equiv_pos_site_id
 _symmetry_equiv_pos_as_xyz
  1  'x, y, z'
loop_
 _atom_site_type_symbol
 _atom_site_label
 _atom_site_symmetry_multiplicity
 _atom_site_fract_x
 _atom_site_fract_y
 _atom_site_fract_z
 _atom_site_occupancy
  Ho  Ho0  1  0.414433  0.414292  0.750000  1
  Lu  Lu1  1  0.587053  0.000300  0.750000  1
  Lu  Lu2  1  0.000124  0.587114  0.750000  1
  Lu  Lu3  1  0.000435  0.588892  0.250000  1
  Lu  Lu4  1  0.588680  0.000000  0.250000  1
  Lu  Lu5  1  0.411599  0.411670  0.250000  1
  Al  Al6  1  0.751580  0.751515  0.002378  1
  Al  Al7  1  0.248048  0.999743  0.000079  1
  Al  Al8  1  0.999799  0.248215  0.000607  1
  Al  Al9  1  0.751580  0.751515  0.497622  1
  Al  Al10  1  0.248048  0.999743  0.499921  1
  Al  Al11  1  0.999799  0.248215  0.499393  1
  Au  Au12  1  0.997366  0.997333  0.750000  1
  Au  Au13  1  0.000429  0.000805  0.250000  1
  Au  Au14  1  0.667618  0.332775  0.002614  1
  Au  Au15  1  0.667618  0.332775  0.497386  1
  Au  Au16  1  0.332897  0.667552  0.497589  1
  Au  Au17  1  0.332897  0.667552  0.002411  1
