# generated using pymatgen
data_Li3La3Sn4Hg
_symmetry_space_group_name_H-M   'P 1'
_cell_length_a   4.80348668
_cell_length_b   7.44078594
_cell_length_c   9.00891046
_cell_angle_alpha   114.24640226
_cell_angle_beta   105.46184668
_cell_angle_gamma   89.99999323
_symmetry_Int_Tables_number   1
_chemical_formula_structural   Li3La3Sn4Hg
_chemical_formula_sum   'Li3 La3 Sn4 Hg1'
_cell_volume   280.76010796
_cell_formula_units_Z   1
loop_
 _symmetry_equiv_pos_site_id
 _symmetry_equiv_pos_as_xyz
  1  'x, y, z'
loop_
 _atom_site_type_symbol
 _atom_site_label
 _atom_site_symmetry_multiplicity
 _atom_site_fract_x
 _atom_site_fract_y
 _atom_site_fract_z
 _atom_site_occupancy
  Li  Li0  1  0.329517  0.016644  0.659034  1
  Li  Li1  1  0.328150  0.644518  0.656301  1
  Li  Li2  1  0.669239  0.358768  0.338478  1
  La  La3  1  0.002192  0.003063  0.004385  1
  La  La4  1  0.128893  0.623901  0.257787  1
  La  La5  1  0.872069  0.367449  0.744138  1
  Sn  Sn6  1  0.494215  0.686811  0.988431  1
  Sn  Sn7  1  0.500139  0.303817  0.000278  1
  Sn  Sn8  1  0.787022  0.779096  0.574044  1
  Sn  Sn9  1  0.217841  0.237019  0.435683  1
  Hg  Hg10  1  0.670721  0.978913  0.341441  1
