# generated using pymatgen
data_LiAc6Ga3Ge8
_symmetry_space_group_name_H-M   'P 1'
_cell_length_a   4.66696383
_cell_length_b   4.54870542
_cell_length_c   22.55666100
_cell_angle_alpha   84.21312066
_cell_angle_beta   95.93786674
_cell_angle_gamma   89.99998875
_symmetry_Int_Tables_number   1
_chemical_formula_structural   LiAc6Ga3Ge8
_chemical_formula_sum   'Li1 Ac6 Ga3 Ge8'
_cell_volume   473.82461972
_cell_formula_units_Z   1
loop_
 _symmetry_equiv_pos_site_id
 _symmetry_equiv_pos_as_xyz
  1  'x, y, z'
loop_
 _atom_site_type_symbol
 _atom_site_label
 _atom_site_symmetry_multiplicity
 _atom_site_fract_x
 _atom_site_fract_y
 _atom_site_fract_z
 _atom_site_occupancy
  Li  Li0  1  0.904845  0.344741  0.309535  1
  Ac  Ac1  1  0.374248  0.875746  0.248688  1
  Ac  Ac2  1  0.041756  0.208838  0.582699  1
  Ac  Ac3  1  0.705639  0.545290  0.911714  1
  Ac  Ac4  1  0.292152  0.458562  0.084362  1
  Ac  Ac5  1  0.961432  0.789101  0.422474  1
  Ac  Ac6  1  0.626238  0.123519  0.752406  1
  Ga  Ga7  1  0.570802  0.677522  0.641002  1
  Ga  Ga8  1  0.236529  0.012424  0.972631  1
  Ga  Ga9  1  0.761780  0.988475  0.023231  1
  Ge  Ge10  1  0.430281  0.320231  0.360069  1
  Ge  Ge11  1  0.095633  0.656613  0.691665  1
  Ge  Ge12  1  0.844230  0.401411  0.197112  1
  Ge  Ge13  1  0.511866  0.734516  0.530120  1
  Ge  Ge14  1  0.176609  0.069711  0.860362  1
  Ge  Ge15  1  0.821907  0.931719  0.136297  1
  Ge  Ge16  1  0.489455  0.263317  0.472359  1
  Ge  Ge17  1  0.154599  0.598264  0.803273  1
