# generated using pymatgen
data_TmLu2Hf(Co5P3)4
_symmetry_space_group_name_H-M   'P 1'
_cell_length_a   3.62128700
_cell_length_b   10.19084679
_cell_length_c   11.65476301
_cell_angle_alpha   89.97463286
_cell_angle_beta   90.00000000
_cell_angle_gamma   90.00000000
_symmetry_Int_Tables_number   1
_chemical_formula_structural   TmLu2Hf(Co5P3)4
_chemical_formula_sum   'Tm1 Lu2 Hf1 Co20 P12'
_cell_volume   430.10711053
_cell_formula_units_Z   1
loop_
 _symmetry_equiv_pos_site_id
 _symmetry_equiv_pos_as_xyz
  1  'x, y, z'
loop_
 _atom_site_type_symbol
 _atom_site_label
 _atom_site_symmetry_multiplicity
 _atom_site_fract_x
 _atom_site_fract_y
 _atom_site_fract_z
 _atom_site_occupancy
  Tm  Tm0  1  0.750000  0.417636  0.297141  1
  Lu  Lu1  1  0.250000  0.917387  0.202688  1
  Lu  Lu2  1  0.750000  0.082404  0.797293  1
  Hf  Hf3  1  0.250000  0.581564  0.701015  1
  Co  Co4  1  0.250000  0.718653  0.993308  1
  Co  Co5  1  0.250000  0.780672  0.493750  1
  Co  Co6  1  0.750000  0.282131  0.006053  1
  Co  Co7  1  0.750000  0.218512  0.508864  1
  Co  Co8  1  0.250000  0.409883  0.489624  1
  Co  Co9  1  0.250000  0.092454  0.987149  1
  Co  Co10  1  0.750000  0.593138  0.517083  1
  Co  Co11  1  0.750000  0.907631  0.012897  1
  Co  Co12  1  0.250000  0.221972  0.176977  1
  Co  Co13  1  0.250000  0.278174  0.677702  1
  Co  Co14  1  0.750000  0.775876  0.822150  1
  Co  Co15  1  0.750000  0.721175  0.323798  1
  Co  Co16  1  0.250000  0.881201  0.700103  1
  Co  Co17  1  0.250000  0.616958  0.198677  1
  Co  Co18  1  0.750000  0.116641  0.301175  1
  Co  Co19  1  0.750000  0.386505  0.798180  1
  Co  Co20  1  0.250000  0.469507  0.927445  1
  Co  Co21  1  0.250000  0.031613  0.431782  1
  Co  Co22  1  0.750000  0.533187  0.066228  1
  Co  Co23  1  0.750000  0.965805  0.569523  1
  P  P24  1  0.250000  0.418879  0.110918  1
  P  P25  1  0.250000  0.080640  0.613693  1
  P  P26  1  0.750000  0.581376  0.883477  1
  P  P27  1  0.750000  0.918280  0.387091  1
  P  P28  1  0.250000  0.268723  0.870240  1
  P  P29  1  0.250000  0.231008  0.371293  1
  P  P30  1  0.750000  0.731050  0.130068  1
  P  P31  1  0.750000  0.766680  0.631644  1
  P  P32  1  0.250000  0.600883  0.390407  1
  P  P33  1  0.250000  0.899849  0.890914  1
  P  P34  1  0.750000  0.401147  0.609979  1
  P  P35  1  0.750000  0.100806  0.109675  1
