# generated using pymatgen
data_Hf2Ta2NbN6
_symmetry_space_group_name_H-M   'P 1'
_cell_length_a   5.30931057
_cell_length_b   5.31996936
_cell_length_c   10.57294800
_cell_angle_alpha   90.00000000
_cell_angle_beta   90.00000000
_cell_angle_gamma   120.06641368
_symmetry_Int_Tables_number   1
_chemical_formula_structural   Hf2Ta2NbN6
_chemical_formula_sum   'Hf4 Ta4 Nb2 N12'
_cell_volume   258.45382108
_cell_formula_units_Z   2
loop_
 _symmetry_equiv_pos_site_id
 _symmetry_equiv_pos_as_xyz
  1  'x, y, z'
loop_
 _atom_site_type_symbol
 _atom_site_label
 _atom_site_symmetry_multiplicity
 _atom_site_fract_x
 _atom_site_fract_y
 _atom_site_fract_z
 _atom_site_occupancy
  Hf  Hf0  1  0.665622  0.333727  0.999684  1
  Hf  Hf1  1  0.334378  0.668106  0.999684  1
  Hf  Hf2  1  0.334378  0.668106  0.500316  1
  Hf  Hf3  1  0.665622  0.333727  0.500316  1
  Ta  Ta4  1  0.000000  0.318787  0.750000  1
  Ta  Ta5  1  0.318597  0.319083  0.250000  1
  Ta  Ta6  1  0.681403  0.000486  0.250000  1
  Ta  Ta7  1  0.000000  0.681329  0.250000  1
  Nb  Nb8  1  0.679758  0.679030  0.750000  1
  Nb  Nb9  1  0.320242  0.999272  0.750000  1
  N  N10  1  0.654424  0.654739  0.373036  1
  N  N11  1  0.345576  0.000315  0.373036  1
  N  N12  1  0.000000  0.346863  0.372921  1
  N  N13  1  0.341872  0.345313  0.625355  1
  N  N14  1  0.658128  0.003441  0.625355  1
  N  N15  1  0.000000  0.648501  0.626141  1
  N  N16  1  0.341872  0.345313  0.874645  1
  N  N17  1  0.658128  0.003441  0.874645  1
  N  N18  1  0.000000  0.648501  0.873859  1
  N  N19  1  0.654424  0.654739  0.126964  1
  N  N20  1  0.345576  0.000315  0.126964  1
  N  N21  1  0.000000  0.346863  0.127079  1
