# generated using pymatgen
data_Rb2Ga2Bi2O7
_symmetry_space_group_name_H-M   'P 1'
_cell_length_a   5.95384800
_cell_length_b   5.95384833
_cell_length_c   8.75416800
_cell_angle_alpha   90.00000000
_cell_angle_beta   90.00000000
_cell_angle_gamma   119.99999816
_symmetry_Int_Tables_number   1
_chemical_formula_structural   Rb2Ga2Bi2O7
_chemical_formula_sum   'Rb2 Ga2 Bi2 O7'
_cell_volume   268.74539221
_cell_formula_units_Z   1
loop_
 _symmetry_equiv_pos_site_id
 _symmetry_equiv_pos_as_xyz
  1  'x, y, z'
loop_
 _atom_site_type_symbol
 _atom_site_label
 _atom_site_symmetry_multiplicity
 _atom_site_fract_x
 _atom_site_fract_y
 _atom_site_fract_z
 _atom_site_occupancy
  Rb  Rb0  1  0.666666  0.333333  0.412126  1
  Rb  Rb1  1  0.333334  0.666667  0.587874  1
  Ga  Ga2  1  0.000000  0.000000  0.209093  1
  Ga  Ga3  1  0.000000  0.000000  0.790908  1
  Bi  Bi4  1  0.333334  0.666667  0.150453  1
  Bi  Bi5  1  0.666666  0.333333  0.849547  1
  O  O6  1  0.000000  0.000000  0.000000  1
  O  O7  1  0.167971  0.335942  0.289025  1
  O  O8  1  0.167971  0.832029  0.289025  1
  O  O9  1  0.664059  0.832029  0.289025  1
  O  O10  1  0.335942  0.167971  0.710976  1
  O  O11  1  0.832029  0.167971  0.710976  1
  O  O12  1  0.832028  0.664058  0.710976  1
