# generated using pymatgen
data_LaSeBrO3
_symmetry_space_group_name_H-M   'P 1'
_cell_length_a   6.12945368
_cell_length_b   6.12945427
_cell_length_c   8.01505254
_cell_angle_alpha   104.85387755
_cell_angle_beta   104.85387692
_cell_angle_gamma   91.62948102
_symmetry_Int_Tables_number   1
_chemical_formula_structural   LaSeBrO3
_chemical_formula_sum   'La2 Se2 Br2 O6'
_cell_volume   279.90550021
_cell_formula_units_Z   2
loop_
 _symmetry_equiv_pos_site_id
 _symmetry_equiv_pos_as_xyz
  1  'x, y, z'
loop_
 _atom_site_type_symbol
 _atom_site_label
 _atom_site_symmetry_multiplicity
 _atom_site_fract_x
 _atom_site_fract_y
 _atom_site_fract_z
 _atom_site_occupancy
  La  La0  1  0.759718  0.240285  0.499999  1
  La  La1  1  0.240285  0.759718  0.499999  1
  Se  Se2  1  0.696817  0.696817  0.233455  1
  Se  Se3  1  0.303184  0.303184  0.766545  1
  Br  Br4  1  0.311331  0.311331  0.232739  1
  Br  Br5  1  0.688663  0.688663  0.767259  1
  O  O6  1  0.845918  0.530393  0.360363  1
  O  O7  1  0.530393  0.845918  0.360363  1
  O  O8  1  0.916372  0.916372  0.303470  1
  O  O9  1  0.083626  0.083626  0.696530  1
  O  O10  1  0.469608  0.154083  0.639639  1
  O  O11  1  0.154083  0.469608  0.639639  1
