# generated using pymatgen
data_TeSBr
_symmetry_space_group_name_H-M   'P 1'
_cell_length_a   3.76162100
_cell_length_b   10.06830200
_cell_length_c   11.26036100
_cell_angle_alpha   90.00000000
_cell_angle_beta   90.00000000
_cell_angle_gamma   90.00000000
_symmetry_Int_Tables_number   1
_chemical_formula_structural   TeSBr
_chemical_formula_sum   'Te4 S4 Br4'
_cell_volume   426.46518624
_cell_formula_units_Z   4
loop_
 _symmetry_equiv_pos_site_id
 _symmetry_equiv_pos_as_xyz
  1  'x, y, z'
loop_
 _atom_site_type_symbol
 _atom_site_label
 _atom_site_symmetry_multiplicity
 _atom_site_fract_x
 _atom_site_fract_y
 _atom_site_fract_z
 _atom_site_occupancy
  Te  Te0  1  0.261071  0.605714  0.369670  1
  Te  Te1  1  0.761071  0.394286  0.630330  1
  Te  Te2  1  0.761071  0.894286  0.869670  1
  Te  Te3  1  0.261071  0.105714  0.130330  1
  S  S4  1  0.262451  0.337093  0.488405  1
  S  S5  1  0.762451  0.662907  0.511595  1
  S  S6  1  0.762451  0.162907  0.988405  1
  S  S7  1  0.262451  0.837093  0.011595  1
  Br  Br8  1  0.262678  0.988678  0.694836  1
  Br  Br9  1  0.762678  0.011322  0.305164  1
  Br  Br10  1  0.762678  0.511322  0.194836  1
  Br  Br11  1  0.262678  0.488678  0.805164  1
