# generated using pymatgen
data_ErTm3(B6Ir)2
_symmetry_space_group_name_H-M   'P 1'
_cell_length_a   3.60795400
_cell_length_b   9.12640304
_cell_length_c   11.45975504
_cell_angle_alpha   90.01014738
_cell_angle_beta   90.00000000
_cell_angle_gamma   90.00000000
_symmetry_Int_Tables_number   1
_chemical_formula_structural   ErTm3(B6Ir)2
_chemical_formula_sum   'Er2 Tm6 B24 Ir4'
_cell_volume   377.34270949
_cell_formula_units_Z   2
loop_
 _symmetry_equiv_pos_site_id
 _symmetry_equiv_pos_as_xyz
  1  'x, y, z'
loop_
 _atom_site_type_symbol
 _atom_site_label
 _atom_site_symmetry_multiplicity
 _atom_site_fract_x
 _atom_site_fract_y
 _atom_site_fract_z
 _atom_site_occupancy
  Er  Er0  1  0.000000  0.321423  0.413082  1
  Er  Er1  1  0.000000  0.678577  0.586918  1
  Tm  Tm2  1  0.000000  0.821294  0.086880  1
  Tm  Tm3  1  0.000000  0.178706  0.913120  1
  Tm  Tm4  1  0.000000  0.944222  0.374548  1
  Tm  Tm5  1  0.000000  0.055778  0.625452  1
  Tm  Tm6  1  0.000000  0.444270  0.125336  1
  Tm  Tm7  1  0.000000  0.555730  0.874664  1
  B  B8  1  0.500000  0.553303  0.434005  1
  B  B9  1  0.500000  0.446697  0.565995  1
  B  B10  1  0.500000  0.053226  0.065823  1
  B  B11  1  0.500000  0.946774  0.934177  1
  B  B12  1  0.500000  0.749925  0.420880  1
  B  B13  1  0.500000  0.250075  0.579120  1
  B  B14  1  0.500000  0.249824  0.078901  1
  B  B15  1  0.500000  0.750176  0.921099  1
  B  B16  1  0.500000  0.793874  0.264970  1
  B  B17  1  0.500000  0.206126  0.735030  1
  B  B18  1  0.500000  0.293779  0.234771  1
  B  B19  1  0.500000  0.706221  0.765229  1
  B  B20  1  0.500000  0.631910  0.183818  1
  B  B21  1  0.500000  0.368090  0.816182  1
  B  B22  1  0.500000  0.131733  0.316007  1
  B  B23  1  0.500000  0.868267  0.683993  1
  B  B24  1  0.500000  0.981159  0.212950  1
  B  B25  1  0.500000  0.018841  0.787050  1
  B  B26  1  0.500000  0.481320  0.286871  1
  B  B27  1  0.500000  0.518680  0.713129  1
  B  B28  1  0.500000  0.609477  0.029934  1
  B  B29  1  0.500000  0.390523  0.970066  1
  B  B30  1  0.500000  0.109123  0.470178  1
  B  B31  1  0.500000  0.890877  0.529822  1
  Ir  Ir32  1  0.000000  0.638579  0.320945  1
  Ir  Ir33  1  0.000000  0.361421  0.679055  1
  Ir  Ir34  1  0.000000  0.138246  0.178652  1
  Ir  Ir35  1  0.000000  0.861754  0.821348  1
