# generated using pymatgen
data_PrNd7Y2(SiB4)4
_symmetry_space_group_name_H-M   'P 1'
_cell_length_a   7.38941920
_cell_length_b   7.38941206
_cell_length_c   8.43555700
_cell_angle_alpha   89.99776973
_cell_angle_beta   90.00220799
_cell_angle_gamma   90.01734521
_symmetry_Int_Tables_number   1
_chemical_formula_structural   PrNd7Y2(SiB4)4
_chemical_formula_sum   'Pr1 Nd7 Y2 Si4 B16'
_cell_volume   460.61060633
_cell_formula_units_Z   1
loop_
 _symmetry_equiv_pos_site_id
 _symmetry_equiv_pos_as_xyz
  1  'x, y, z'
loop_
 _atom_site_type_symbol
 _atom_site_label
 _atom_site_symmetry_multiplicity
 _atom_site_fract_x
 _atom_site_fract_y
 _atom_site_fract_z
 _atom_site_occupancy
  Pr  Pr0  1  0.179979  0.320022  0.227794  1
  Nd  Nd1  1  0.680004  0.179945  0.226391  1
  Nd  Nd2  1  0.320010  0.819873  0.773532  1
  Nd  Nd3  1  0.320056  0.819996  0.226391  1
  Nd  Nd4  1  0.819821  0.680179  0.226663  1
  Nd  Nd5  1  0.820011  0.679988  0.773565  1
  Nd  Nd6  1  0.680127  0.179990  0.773534  1
  Nd  Nd7  1  0.179834  0.320166  0.773480  1
  Y  Y8  1  0.999781  0.999487  0.500143  1
  Y  Y9  1  0.500514  0.500218  0.500144  1
  Si  Si10  1  0.113845  0.614333  0.500024  1
  Si  Si11  1  0.885666  0.386156  0.500026  1
  Si  Si12  1  0.386156  0.113843  0.500076  1
  Si  Si13  1  0.614054  0.885948  0.499967  1
  B  B14  1  0.171456  0.038930  0.999936  1
  B  B15  1  0.828342  0.960855  0.999922  1
  B  B16  1  0.960683  0.171470  0.999956  1
  B  B17  1  0.328530  0.539316  0.999955  1
  B  B18  1  0.039007  0.828332  0.999911  1
  B  B19  1  0.671667  0.460993  0.999912  1
  B  B20  1  0.539146  0.671659  0.999922  1
  B  B21  1  0.461069  0.328544  0.999935  1
  B  B22  1  0.091243  0.591316  0.999719  1
  B  B23  1  0.908683  0.408757  0.999718  1
  B  B24  1  0.408992  0.091008  0.999843  1
  B  B25  1  0.591211  0.908790  0.000039  1
  B  B26  1  0.999806  0.999646  0.153352  1
  B  B27  1  0.999904  0.999949  0.846400  1
  B  B28  1  0.500051  0.500096  0.846400  1
  B  B29  1  0.500354  0.500195  0.153352  1
