# generated using pymatgen
data_Nd16MgCd3Os4
_symmetry_space_group_name_H-M   'P 1'
_cell_length_a   9.98853572
_cell_length_b   9.98889655
_cell_length_c   9.98820388
_cell_angle_alpha   59.76704320
_cell_angle_beta   59.76450067
_cell_angle_gamma   59.76880125
_symmetry_Int_Tables_number   1
_chemical_formula_structural   Nd16MgCd3Os4
_chemical_formula_sum   'Nd16 Mg1 Cd3 Os4'
_cell_volume   700.94814775
_cell_formula_units_Z   1
loop_
 _symmetry_equiv_pos_site_id
 _symmetry_equiv_pos_as_xyz
  1  'x, y, z'
loop_
 _atom_site_type_symbol
 _atom_site_label
 _atom_site_symmetry_multiplicity
 _atom_site_fract_x
 _atom_site_fract_y
 _atom_site_fract_z
 _atom_site_occupancy
  Nd  Nd0  1  0.345032  0.344959  0.345049  1
  Nd  Nd1  1  0.344633  0.344452  0.964706  1
  Nd  Nd2  1  0.344530  0.964623  0.344555  1
  Nd  Nd3  1  0.964639  0.344437  0.344686  1
  Nd  Nd4  1  0.807993  0.191415  0.191246  1
  Nd  Nd5  1  0.191359  0.810966  0.810947  1
  Nd  Nd6  1  0.191294  0.808083  0.191204  1
  Nd  Nd7  1  0.810987  0.191343  0.810972  1
  Nd  Nd8  1  0.191279  0.191404  0.808007  1
  Nd  Nd9  1  0.810940  0.810950  0.191339  1
  Nd  Nd10  1  0.939146  0.561610  0.561466  1
  Nd  Nd11  1  0.559536  0.941733  0.941749  1
  Nd  Nd12  1  0.561491  0.939149  0.561454  1
  Nd  Nd13  1  0.941780  0.559645  0.941767  1
  Nd  Nd14  1  0.561566  0.561614  0.939101  1
  Nd  Nd15  1  0.941776  0.941743  0.559416  1
  Mg  Mg16  1  0.574825  0.574934  0.574809  1
  Cd  Cd17  1  0.579316  0.579509  0.261194  1
  Cd  Cd18  1  0.579412  0.261260  0.579418  1
  Cd  Cd19  1  0.261212  0.579514  0.579324  1
  Os  Os20  1  0.137769  0.137674  0.137876  1
  Os  Os21  1  0.137017  0.136788  0.585610  1
  Os  Os22  1  0.136923  0.585413  0.137031  1
  Os  Os23  1  0.585538  0.136782  0.137071  1
