# generated using pymatgen
data_Tb12TlFe2Co2Pt
_symmetry_space_group_name_H-M   'P 1'
_cell_length_a   8.36812917
_cell_length_b   8.36812898
_cell_length_c   8.36812998
_cell_angle_alpha   110.60441502
_cell_angle_beta   110.07060002
_cell_angle_gamma   107.75266352
_symmetry_Int_Tables_number   1
_chemical_formula_structural   Tb12TlFe2Co2Pt
_chemical_formula_sum   'Tb12 Tl1 Fe2 Co2 Pt1'
_cell_volume   450.77667561
_cell_formula_units_Z   1
loop_
 _symmetry_equiv_pos_site_id
 _symmetry_equiv_pos_as_xyz
  1  'x, y, z'
loop_
 _atom_site_type_symbol
 _atom_site_label
 _atom_site_symmetry_multiplicity
 _atom_site_fract_x
 _atom_site_fract_y
 _atom_site_fract_z
 _atom_site_occupancy
  Tb  Tb0  1  0.315080  0.617925  0.302842  1
  Tb  Tb1  1  0.684920  0.382075  0.697158  1
  Tb  Tb2  1  0.315080  0.012238  0.697158  1
  Tb  Tb3  1  0.684920  0.987762  0.302842  1
  Tb  Tb4  1  0.184640  0.291101  0.475740  1
  Tb  Tb5  1  0.815360  0.708899  0.524260  1
  Tb  Tb6  1  0.184640  0.708899  0.893540  1
  Tb  Tb7  1  0.815360  0.291101  0.106460  1
  Tb  Tb8  1  0.412759  0.213283  0.199477  1
  Tb  Tb9  1  0.587241  0.786717  0.800523  1
  Tb  Tb10  1  0.013807  0.213283  0.800523  1
  Tb  Tb11  1  0.986193  0.786717  0.199477  1
  Tl  Tl12  1  0.500000  0.500000  0.000000  1
  Fe  Fe13  1  0.108638  0.608638  0.500000  1
  Fe  Fe14  1  0.891362  0.391362  0.500000  1
  Co  Co15  1  0.381884  0.000000  0.381884  1
  Co  Co16  1  0.618116  0.000000  0.618116  1
  Pt  Pt17  1  0.000000  0.000000  0.000000  1
