# generated using pymatgen
data_NdTmSn5Pd3
_symmetry_space_group_name_H-M   'P 1'
_cell_length_a   13.61241800
_cell_length_b   13.61241780
_cell_length_c   7.41671400
_cell_angle_alpha   90.00000000
_cell_angle_beta   90.00000000
_cell_angle_gamma   160.50452958
_symmetry_Int_Tables_number   1
_chemical_formula_structural   NdTmSn5Pd3
_chemical_formula_sum   'Nd2 Tm2 Sn10 Pd6'
_cell_volume   458.64891277
_cell_formula_units_Z   2
loop_
 _symmetry_equiv_pos_site_id
 _symmetry_equiv_pos_as_xyz
  1  'x, y, z'
loop_
 _atom_site_type_symbol
 _atom_site_label
 _atom_site_symmetry_multiplicity
 _atom_site_fract_x
 _atom_site_fract_y
 _atom_site_fract_z
 _atom_site_occupancy
  Nd  Nd0  1  0.171882  0.828118  0.750201  1
  Nd  Nd1  1  0.828118  0.171882  0.250201  1
  Tm  Tm2  1  0.478592  0.521408  0.741113  1
  Tm  Tm3  1  0.521408  0.478592  0.241113  1
  Sn  Sn4  1  0.881594  0.118406  0.734833  1
  Sn  Sn5  1  0.118406  0.881594  0.234833  1
  Sn  Sn6  1  0.701516  0.298484  0.050594  1
  Sn  Sn7  1  0.298484  0.701516  0.550594  1
  Sn  Sn8  1  0.596861  0.403139  0.602605  1
  Sn  Sn9  1  0.403139  0.596861  0.102605  1
  Sn  Sn10  1  0.953930  0.046070  0.398894  1
  Sn  Sn11  1  0.046070  0.953930  0.898894  1
  Sn  Sn12  1  0.288102  0.711898  0.975899  1
  Sn  Sn13  1  0.711898  0.288102  0.475899  1
  Pd  Pd14  1  0.049595  0.950405  0.515535  1
  Pd  Pd15  1  0.950405  0.049595  0.015535  1
  Pd  Pd16  1  0.777491  0.222509  0.773943  1
  Pd  Pd17  1  0.222509  0.777491  0.273943  1
  Pd  Pd18  1  0.400445  0.599555  0.484380  1
  Pd  Pd19  1  0.599555  0.400445  0.984380  1
