# generated using pymatgen
data_Sc8Ti8Si16Mo3W
_symmetry_space_group_name_H-M   'P 1'
_cell_length_a   6.61974643
_cell_length_b   6.77522947
_cell_length_c   12.95731200
_cell_angle_alpha   90.00000000
_cell_angle_beta   90.00000000
_cell_angle_gamma   90.00015982
_symmetry_Int_Tables_number   1
_chemical_formula_structural   Sc8Ti8Si16Mo3W
_chemical_formula_sum   'Sc8 Ti8 Si16 Mo3 W1'
_cell_volume   581.13934464
_cell_formula_units_Z   1
loop_
 _symmetry_equiv_pos_site_id
 _symmetry_equiv_pos_as_xyz
  1  'x, y, z'
loop_
 _atom_site_type_symbol
 _atom_site_label
 _atom_site_symmetry_multiplicity
 _atom_site_fract_x
 _atom_site_fract_y
 _atom_site_fract_z
 _atom_site_occupancy
  Sc  Sc0  1  0.501187  0.674785  0.595512  1
  Sc  Sc1  1  0.001152  0.825118  0.904452  1
  Sc  Sc2  1  0.498940  0.325399  0.095760  1
  Sc  Sc3  1  0.998631  0.174649  0.404206  1
  Sc  Sc4  1  0.498940  0.325399  0.404240  1
  Sc  Sc5  1  0.998631  0.174649  0.095794  1
  Sc  Sc6  1  0.501187  0.674785  0.904488  1
  Sc  Sc7  1  0.001152  0.825118  0.595548  1
  Ti  Ti8  1  0.666608  0.172204  0.626691  1
  Ti  Ti9  1  0.166541  0.327896  0.873326  1
  Ti  Ti10  1  0.333432  0.827655  0.126673  1
  Ti  Ti11  1  0.833325  0.672267  0.373181  1
  Ti  Ti12  1  0.333432  0.827655  0.373327  1
  Ti  Ti13  1  0.833325  0.672267  0.126819  1
  Ti  Ti14  1  0.666608  0.172204  0.873309  1
  Ti  Ti15  1  0.166541  0.327896  0.626674  1
  Si  Si16  1  0.665486  0.964121  0.459020  1
  Si  Si17  1  0.165485  0.536029  0.040690  1
  Si  Si18  1  0.334271  0.036250  0.959433  1
  Si  Si19  1  0.834385  0.463801  0.540580  1
  Si  Si20  1  0.334271  0.036250  0.540567  1
  Si  Si21  1  0.834385  0.463801  0.959420  1
  Si  Si22  1  0.665486  0.964121  0.040980  1
  Si  Si23  1  0.165485  0.536029  0.459310  1
  Si  Si24  1  0.465316  0.384892  0.750000  1
  Si  Si25  1  0.965281  0.115134  0.750000  1
  Si  Si26  1  0.534803  0.615430  0.250000  1
  Si  Si27  1  0.035224  0.884631  0.250000  1
  Si  Si28  1  0.705160  0.861283  0.750000  1
  Si  Si29  1  0.205134  0.638711  0.750000  1
  Si  Si30  1  0.295132  0.138734  0.250000  1
  Si  Si31  1  0.794866  0.361150  0.250000  1
  Mo  Mo32  1  0.839809  0.491504  0.750000  1
  Mo  Mo33  1  0.339837  0.008583  0.750000  1
  Mo  Mo34  1  0.160276  0.508295  0.250000  1
  W  W35  1  0.660280  0.991307  0.250000  1
