# generated using pymatgen
data_RbNa(CoAs)4
_symmetry_space_group_name_H-M   'P 1'
_cell_length_a   3.78088700
_cell_length_b   3.78088700
_cell_length_c   13.54103200
_cell_angle_alpha   90.00000000
_cell_angle_beta   90.00000000
_cell_angle_gamma   90.00000000
_symmetry_Int_Tables_number   1
_chemical_formula_structural   RbNa(CoAs)4
_chemical_formula_sum   'Rb1 Na1 Co4 As4'
_cell_volume   193.57049465
_cell_formula_units_Z   1
loop_
 _symmetry_equiv_pos_site_id
 _symmetry_equiv_pos_as_xyz
  1  'x, y, z'
loop_
 _atom_site_type_symbol
 _atom_site_label
 _atom_site_symmetry_multiplicity
 _atom_site_fract_x
 _atom_site_fract_y
 _atom_site_fract_z
 _atom_site_occupancy
  Rb  Rb0  1  0.500000  0.500000  0.500000  1
  Na  Na1  1  0.000000  0.000000  0.000000  1
  Co  Co2  1  0.500000  0.000000  0.773880  1
  Co  Co3  1  0.000000  0.500000  0.773880  1
  Co  Co4  1  0.500000  0.000000  0.226120  1
  Co  Co5  1  0.000000  0.500000  0.226120  1
  As  As6  1  0.000000  0.000000  0.674572  1
  As  As7  1  0.000000  0.000000  0.325428  1
  As  As8  1  0.500000  0.500000  0.872189  1
  As  As9  1  0.500000  0.500000  0.127811  1
