# generated using pymatgen
data_Y3Ho3VB14Mo
_symmetry_space_group_name_H-M   'P 1'
_cell_length_a   8.13881633
_cell_length_b   8.13881675
_cell_length_c   9.44634727
_cell_angle_alpha   89.97328810
_cell_angle_beta   90.02671103
_cell_angle_gamma   155.54277496
_symmetry_Int_Tables_number   1
_chemical_formula_structural   Y3Ho3VB14Mo
_chemical_formula_sum   'Y3 Ho3 V1 B14 Mo1'
_cell_volume   259.06048528
_cell_formula_units_Z   1
loop_
 _symmetry_equiv_pos_site_id
 _symmetry_equiv_pos_as_xyz
  1  'x, y, z'
loop_
 _atom_site_type_symbol
 _atom_site_label
 _atom_site_symmetry_multiplicity
 _atom_site_fract_x
 _atom_site_fract_y
 _atom_site_fract_z
 _atom_site_occupancy
  Y  Y0  1  0.257959  0.742041  0.250131  1
  Y  Y1  1  0.744868  0.255132  0.750000  1
  Y  Y2  1  0.606194  0.393806  0.061809  1
  Ho  Ho3  1  0.393439  0.606561  0.942122  1
  Ho  Ho4  1  0.393456  0.606544  0.557826  1
  Ho  Ho5  1  0.606005  0.393995  0.438862  1
  V  V6  1  0.447404  0.552596  0.250140  1
  B  B7  1  0.978823  0.021177  0.095214  1
  B  B8  1  0.019153  0.980847  0.908753  1
  B  B9  1  0.019343  0.980657  0.590855  1
  B  B10  1  0.979001  0.020999  0.404957  1
  B  B11  1  0.773046  0.226954  0.032813  1
  B  B12  1  0.227525  0.772475  0.968138  1
  B  B13  1  0.227294  0.772706  0.531621  1
  B  B14  1  0.772802  0.227198  0.467104  1
  B  B15  1  0.867755  0.132245  0.149868  1
  B  B16  1  0.134515  0.865485  0.853276  1
  B  B17  1  0.134468  0.865532  0.646222  1
  B  B18  1  0.867755  0.132245  0.350148  1
  B  B19  1  0.041193  0.958807  0.250407  1
  B  B20  1  0.955097  0.044903  0.749945  1
  Mo  Mo21  1  0.552905  0.447095  0.749789  1
