# generated using pymatgen
data_Pr11Nd9(Si2Ir)4
_symmetry_space_group_name_H-M   'P 1'
_cell_length_a   7.97595507
_cell_length_b   8.92216400
_cell_length_c   12.45313510
_cell_angle_alpha   90.00000000
_cell_angle_beta   90.01480081
_cell_angle_gamma   90.00000000
_symmetry_Int_Tables_number   1
_chemical_formula_structural   Pr11Nd9(Si2Ir)4
_chemical_formula_sum   'Pr11 Nd9 Si8 Ir4'
_cell_volume   886.19967368
_cell_formula_units_Z   1
loop_
 _symmetry_equiv_pos_site_id
 _symmetry_equiv_pos_as_xyz
  1  'x, y, z'
loop_
 _atom_site_type_symbol
 _atom_site_label
 _atom_site_symmetry_multiplicity
 _atom_site_fract_x
 _atom_site_fract_y
 _atom_site_fract_z
 _atom_site_occupancy
  Pr  Pr0  1  0.326986  0.250000  0.282748  1
  Pr  Pr1  1  0.173188  0.250000  0.782478  1
  Pr  Pr2  1  0.826977  0.750000  0.217289  1
  Pr  Pr3  1  0.150825  0.750000  0.795706  1
  Pr  Pr4  1  0.848620  0.250000  0.203784  1
  Pr  Pr5  1  0.651326  0.250000  0.703840  1
  Pr  Pr6  1  0.348769  0.750000  0.296058  1
  Pr  Pr7  1  0.539348  0.750000  0.998829  1
  Pr  Pr8  1  0.460919  0.250000  0.000692  1
  Pr  Pr9  1  0.039187  0.250000  0.501035  1
  Pr  Pr10  1  0.959988  0.750000  0.499618  1
  Nd  Nd11  1  0.672898  0.750000  0.717280  1
  Nd  Nd12  1  0.820050  0.465313  0.923511  1
  Nd  Nd13  1  0.179807  0.534892  0.076182  1
  Nd  Nd14  1  0.320645  0.535200  0.576577  1
  Nd  Nd15  1  0.179807  0.965108  0.076182  1
  Nd  Nd16  1  0.680037  0.465149  0.424004  1
  Nd  Nd17  1  0.820050  0.034687  0.923511  1
  Nd  Nd18  1  0.680037  0.034851  0.424004  1
  Nd  Nd19  1  0.320645  0.964800  0.576577  1
  Si  Si20  1  0.943643  0.003815  0.671750  1
  Si  Si21  1  0.055087  0.995267  0.328394  1
  Si  Si22  1  0.445946  0.994551  0.827858  1
  Si  Si23  1  0.055087  0.504733  0.328394  1
  Si  Si24  1  0.555043  0.004654  0.171630  1
  Si  Si25  1  0.943643  0.496185  0.671750  1
  Si  Si26  1  0.555043  0.495346  0.171630  1
  Si  Si27  1  0.445946  0.505449  0.827858  1
  Ir  Ir28  1  0.930091  0.750000  0.986977  1
  Ir  Ir29  1  0.070315  0.250000  0.012697  1
  Ir  Ir30  1  0.429869  0.250000  0.513011  1
  Ir  Ir31  1  0.570175  0.750000  0.488145  1
