# generated using pymatgen
data_Tb3NbIn2Ir3
_symmetry_space_group_name_H-M   'P 1'
_cell_length_a   7.36254867
_cell_length_b   7.08775088
_cell_length_c   4.26842100
_cell_angle_alpha   90.00000000
_cell_angle_beta   90.00000000
_cell_angle_gamma   118.77283650
_symmetry_Int_Tables_number   1
_chemical_formula_structural   Tb3NbIn2Ir3
_chemical_formula_sum   'Tb3 Nb1 In2 Ir3'
_cell_volume   195.24194363
_cell_formula_units_Z   1
loop_
 _symmetry_equiv_pos_site_id
 _symmetry_equiv_pos_as_xyz
  1  'x, y, z'
loop_
 _atom_site_type_symbol
 _atom_site_label
 _atom_site_symmetry_multiplicity
 _atom_site_fract_x
 _atom_site_fract_y
 _atom_site_fract_z
 _atom_site_occupancy
  Tb  Tb0  1  0.412398  0.413651  0.000000  1
  Tb  Tb1  1  0.587602  0.001253  0.000000  1
  Tb  Tb2  1  0.000000  0.597133  0.000000  1
  Nb  Nb3  1  0.000000  0.246264  0.500000  1
  In  In4  1  0.750506  0.749535  0.500000  1
  In  In5  1  0.249494  0.999028  0.500000  1
  Ir  Ir6  1  0.000000  0.037623  0.000000  1
  Ir  Ir7  1  0.312792  0.634153  0.500000  1
  Ir  Ir8  1  0.687208  0.321360  0.500000  1
