# generated using pymatgen
data_NdLu2AuO7
_symmetry_space_group_name_H-M   'P 1'
_cell_length_a   6.45294500
_cell_length_b   6.45294656
_cell_length_c   7.44068800
_cell_angle_alpha   90.00000000
_cell_angle_beta   90.00000000
_cell_angle_gamma   108.64070522
_symmetry_Int_Tables_number   1
_chemical_formula_structural   NdLu2AuO7
_chemical_formula_sum   'Nd2 Lu4 Au2 O14'
_cell_volume   293.58063023
_cell_formula_units_Z   2
loop_
 _symmetry_equiv_pos_site_id
 _symmetry_equiv_pos_as_xyz
  1  'x, y, z'
loop_
 _atom_site_type_symbol
 _atom_site_label
 _atom_site_symmetry_multiplicity
 _atom_site_fract_x
 _atom_site_fract_y
 _atom_site_fract_z
 _atom_site_occupancy
  Nd  Nd0  1  0.499650  0.499650  0.000000  1
  Nd  Nd1  1  0.500350  0.500350  0.500000  1
  Lu  Lu2  1  0.528074  0.999562  0.750400  1
  Lu  Lu3  1  0.471926  0.000438  0.250400  1
  Lu  Lu4  1  0.000438  0.471926  0.749600  1
  Lu  Lu5  1  0.999562  0.528074  0.249600  1
  Au  Au6  1  0.000237  0.000237  0.000000  1
  Au  Au7  1  0.999763  0.999763  0.500000  1
  O  O8  1  0.647475  0.352525  0.750000  1
  O  O9  1  0.352525  0.647475  0.250000  1
  O  O10  1  0.918796  0.081204  0.750000  1
  O  O11  1  0.081204  0.918796  0.250000  1
  O  O12  1  0.331944  0.075119  0.976156  1
  O  O13  1  0.668056  0.924881  0.476156  1
  O  O14  1  0.924881  0.668056  0.523844  1
  O  O15  1  0.075119  0.331944  0.023844  1
  O  O16  1  0.356425  0.643575  0.750000  1
  O  O17  1  0.643575  0.356425  0.250000  1
  O  O18  1  0.331561  0.074829  0.524548  1
  O  O19  1  0.668439  0.925171  0.024548  1
  O  O20  1  0.925171  0.668439  0.975452  1
  O  O21  1  0.074829  0.331561  0.475452  1
