# generated using pymatgen
data_La3ErAu5
_symmetry_space_group_name_H-M   'P 1'
_cell_length_a   8.33582518
_cell_length_b   8.33582620
_cell_length_c   8.33582622
_cell_angle_alpha   65.79886808
_cell_angle_beta   65.79886865
_cell_angle_gamma   65.79884600
_symmetry_Int_Tables_number   1
_chemical_formula_structural   La3ErAu5
_chemical_formula_sum   'La6 Er2 Au10'
_cell_volume   461.06575956
_cell_formula_units_Z   2
loop_
 _symmetry_equiv_pos_site_id
 _symmetry_equiv_pos_as_xyz
  1  'x, y, z'
loop_
 _atom_site_type_symbol
 _atom_site_label
 _atom_site_symmetry_multiplicity
 _atom_site_fract_x
 _atom_site_fract_y
 _atom_site_fract_z
 _atom_site_occupancy
  La  La0  1  0.892607  0.186591  0.621138  1
  La  La1  1  0.621138  0.892607  0.186591  1
  La  La2  1  0.186591  0.621138  0.892607  1
  La  La3  1  0.107393  0.813409  0.378862  1
  La  La4  1  0.378862  0.107393  0.813409  1
  La  La5  1  0.813409  0.378862  0.107393  1
  Er  Er6  1  0.656527  0.656527  0.656527  1
  Er  Er7  1  0.343473  0.343473  0.343473  1
  Au  Au8  1  0.000000  0.000000  0.000000  1
  Au  Au9  1  0.500000  0.500000  0.500000  1
  Au  Au10  1  0.802417  0.802417  0.802417  1
  Au  Au11  1  0.197583  0.197583  0.197583  1
  Au  Au12  1  0.940383  0.548372  0.322654  1
  Au  Au13  1  0.322654  0.940383  0.548372  1
  Au  Au14  1  0.548372  0.322654  0.940383  1
  Au  Au15  1  0.059617  0.451628  0.677346  1
  Au  Au16  1  0.677346  0.059617  0.451628  1
  Au  Au17  1  0.451628  0.677346  0.059617  1
