# generated using pymatgen
data_La2Lu3Si4
_symmetry_space_group_name_H-M   'P 1'
_cell_length_a   7.75380600
_cell_length_b   7.75380600
_cell_length_c   14.23783400
_cell_angle_alpha   90.00000000
_cell_angle_beta   90.00000000
_cell_angle_gamma   90.00000000
_symmetry_Int_Tables_number   1
_chemical_formula_structural   La2Lu3Si4
_chemical_formula_sum   'La8 Lu12 Si16'
_cell_volume   856.00004341
_cell_formula_units_Z   4
loop_
 _symmetry_equiv_pos_site_id
 _symmetry_equiv_pos_as_xyz
  1  'x, y, z'
loop_
 _atom_site_type_symbol
 _atom_site_label
 _atom_site_symmetry_multiplicity
 _atom_site_fract_x
 _atom_site_fract_y
 _atom_site_fract_z
 _atom_site_occupancy
  La  La0  1  0.990997  0.643726  0.039462  1
  La  La1  1  0.009003  0.356274  0.539462  1
  La  La2  1  0.643726  0.990997  0.960538  1
  La  La3  1  0.143726  0.509003  0.789462  1
  La  La4  1  0.856274  0.490997  0.289462  1
  La  La5  1  0.509003  0.143726  0.210538  1
  La  La6  1  0.490997  0.856274  0.710538  1
  La  La7  1  0.356274  0.009003  0.460538  1
  Lu  Lu8  1  0.359891  0.493899  0.374881  1
  Lu  Lu9  1  0.859891  0.006101  0.375119  1
  Lu  Lu10  1  0.993899  0.140109  0.124881  1
  Lu  Lu11  1  0.006101  0.859891  0.624881  1
  Lu  Lu12  1  0.640109  0.506101  0.874881  1
  Lu  Lu13  1  0.493899  0.359891  0.625119  1
  Lu  Lu14  1  0.506101  0.640109  0.125119  1
  Lu  Lu15  1  0.140109  0.993899  0.875119  1
  Lu  Lu16  1  0.682062  0.682062  0.500000  1
  Lu  Lu17  1  0.817938  0.182062  0.750000  1
  Lu  Lu18  1  0.182062  0.817938  0.250000  1
  Lu  Lu19  1  0.317938  0.317938  0.000000  1
  Si  Si20  1  0.063345  0.712910  0.436775  1
  Si  Si21  1  0.936655  0.287090  0.936775  1
  Si  Si22  1  0.712910  0.063345  0.563225  1
  Si  Si23  1  0.212911  0.436655  0.186775  1
  Si  Si24  1  0.787090  0.563345  0.686775  1
  Si  Si25  1  0.436655  0.212911  0.813225  1
  Si  Si26  1  0.563345  0.787090  0.313225  1
  Si  Si27  1  0.287090  0.936655  0.063225  1
  Si  Si28  1  0.850243  0.796546  0.810599  1
  Si  Si29  1  0.149757  0.203454  0.310599  1
  Si  Si30  1  0.796546  0.850243  0.189401  1
  Si  Si31  1  0.296546  0.649757  0.560599  1
  Si  Si32  1  0.703454  0.350243  0.060599  1
  Si  Si33  1  0.649757  0.296546  0.439401  1
  Si  Si34  1  0.350243  0.703454  0.939401  1
  Si  Si35  1  0.203454  0.149757  0.689401  1
