# generated using pymatgen
data_Ce3Ho5(MnCd)2
_symmetry_space_group_name_H-M   'P 1'
_cell_length_a   9.49628128
_cell_length_b   9.49628157
_cell_length_c   9.53991880
_cell_angle_alpha   60.62029475
_cell_angle_beta   60.62030258
_cell_angle_gamma   60.01288367
_symmetry_Int_Tables_number   1
_chemical_formula_structural   Ce3Ho5(MnCd)2
_chemical_formula_sum   'Ce6 Ho10 Mn4 Cd4'
_cell_volume   614.02879399
_cell_formula_units_Z   2
loop_
 _symmetry_equiv_pos_site_id
 _symmetry_equiv_pos_as_xyz
  1  'x, y, z'
loop_
 _atom_site_type_symbol
 _atom_site_label
 _atom_site_symmetry_multiplicity
 _atom_site_fract_x
 _atom_site_fract_y
 _atom_site_fract_z
 _atom_site_occupancy
  Ce  Ce0  1  0.185715  0.809967  0.182061  1
  Ce  Ce1  1  0.809967  0.185716  0.182062  1
  Ce  Ce2  1  0.331703  0.331703  0.970671  1
  Ce  Ce3  1  0.325037  0.973700  0.363171  1
  Ce  Ce4  1  0.973700  0.325037  0.363171  1
  Ce  Ce5  1  0.357346  0.357346  0.315930  1
  Ho  Ho6  1  0.562804  0.562804  0.927950  1
  Ho  Ho7  1  0.932392  0.547637  0.942471  1
  Ho  Ho8  1  0.547637  0.932392  0.942471  1
  Ho  Ho9  1  0.925918  0.925918  0.583160  1
  Ho  Ho10  1  0.565158  0.939641  0.555530  1
  Ho  Ho11  1  0.939641  0.565158  0.555530  1
  Ho  Ho12  1  0.188829  0.188829  0.791450  1
  Ho  Ho13  1  0.804521  0.183637  0.817911  1
  Ho  Ho14  1  0.183636  0.804522  0.817911  1
  Ho  Ho15  1  0.806995  0.806996  0.186184  1
  Mn  Mn16  1  0.128697  0.128697  0.536721  1
  Mn  Mn17  1  0.171634  0.589427  0.180387  1
  Mn  Mn18  1  0.589427  0.171634  0.180387  1
  Mn  Mn19  1  0.175309  0.175309  0.092161  1
  Cd  Cd20  1  0.584060  0.584060  0.259889  1
  Cd  Cd21  1  0.578853  0.254939  0.582699  1
  Cd  Cd22  1  0.254939  0.578853  0.582699  1
  Cd  Cd23  1  0.576082  0.576082  0.587423  1
