# generated using pymatgen
data_K2ErTmB24
_symmetry_space_group_name_H-M   'P 1'
_cell_length_a   4.14866900
_cell_length_b   4.14866900
_cell_length_c   16.65110400
_cell_angle_alpha   90.00000000
_cell_angle_beta   90.00000000
_cell_angle_gamma   90.00000000
_symmetry_Int_Tables_number   1
_chemical_formula_structural   K2ErTmB24
_chemical_formula_sum   'K2 Er1 Tm1 B24'
_cell_volume   286.58971840
_cell_formula_units_Z   1
loop_
 _symmetry_equiv_pos_site_id
 _symmetry_equiv_pos_as_xyz
  1  'x, y, z'
loop_
 _atom_site_type_symbol
 _atom_site_label
 _atom_site_symmetry_multiplicity
 _atom_site_fract_x
 _atom_site_fract_y
 _atom_site_fract_z
 _atom_site_occupancy
  K  K0  1  0.000000  0.000000  0.249442  1
  K  K1  1  0.000000  0.000000  0.750558  1
  Er  Er2  1  0.000000  0.000000  0.000000  1
  Tm  Tm3  1  0.000000  0.000000  0.500000  1
  B  B4  1  0.201295  0.500000  0.121816  1
  B  B5  1  0.201205  0.500000  0.377933  1
  B  B6  1  0.201205  0.500000  0.622067  1
  B  B7  1  0.201295  0.500000  0.878184  1
  B  B8  1  0.500000  0.500000  0.197877  1
  B  B9  1  0.500000  0.500000  0.451030  1
  B  B10  1  0.500000  0.500000  0.698037  1
  B  B11  1  0.500000  0.500000  0.951133  1
  B  B12  1  0.500000  0.201295  0.121816  1
  B  B13  1  0.500000  0.201205  0.377933  1
  B  B14  1  0.500000  0.201205  0.622067  1
  B  B15  1  0.500000  0.201295  0.878184  1
  B  B16  1  0.500000  0.500000  0.048867  1
  B  B17  1  0.500000  0.500000  0.301963  1
  B  B18  1  0.500000  0.500000  0.548970  1
  B  B19  1  0.500000  0.500000  0.802123  1
  B  B20  1  0.500000  0.798705  0.121816  1
  B  B21  1  0.500000  0.798795  0.377933  1
  B  B22  1  0.500000  0.798795  0.622067  1
  B  B23  1  0.500000  0.798705  0.878184  1
  B  B24  1  0.798705  0.500000  0.121816  1
  B  B25  1  0.798795  0.500000  0.377933  1
  B  B26  1  0.798795  0.500000  0.622067  1
  B  B27  1  0.798705  0.500000  0.878184  1
