# generated using pymatgen
data_La5Nd9Th2Mg3CdIr4
_symmetry_space_group_name_H-M   'P 1'
_cell_length_a   10.01567827
_cell_length_b   10.01913565
_cell_length_c   10.05488700
_cell_angle_alpha   59.93044158
_cell_angle_beta   60.09926635
_cell_angle_gamma   60.30271863
_symmetry_Int_Tables_number   1
_chemical_formula_structural   La5Nd9Th2Mg3CdIr4
_chemical_formula_sum   'La5 Nd9 Th2 Mg3 Cd1 Ir4'
_cell_volume   715.24133476
_cell_formula_units_Z   1
loop_
 _symmetry_equiv_pos_site_id
 _symmetry_equiv_pos_as_xyz
  1  'x, y, z'
loop_
 _atom_site_type_symbol
 _atom_site_label
 _atom_site_symmetry_multiplicity
 _atom_site_fract_x
 _atom_site_fract_y
 _atom_site_fract_z
 _atom_site_occupancy
  La  La0  1  0.349145  0.956266  0.347603  1
  La  La1  1  0.959381  0.347468  0.347481  1
  La  La2  1  0.811986  0.188446  0.185843  1
  La  La3  1  0.186746  0.812340  0.809593  1
  La  La4  1  0.189497  0.810454  0.189818  1
  Nd  Nd5  1  0.809162  0.189873  0.810190  1
  Nd  Nd6  1  0.190422  0.193503  0.807371  1
  Nd  Nd7  1  0.807336  0.809013  0.190189  1
  Nd  Nd8  1  0.939467  0.562867  0.565541  1
  Nd  Nd9  1  0.563472  0.938846  0.933514  1
  Nd  Nd10  1  0.564098  0.940466  0.564215  1
  Nd  Nd11  1  0.940767  0.561276  0.934592  1
  Nd  Nd12  1  0.563788  0.561589  0.938605  1
  Nd  Nd13  1  0.937359  0.936906  0.562753  1
  Th  Th14  1  0.343789  0.343772  0.347183  1
  Th  Th15  1  0.346235  0.344078  0.963163  1
  Mg  Mg16  1  0.577607  0.577077  0.581582  1
  Mg  Mg17  1  0.576479  0.578240  0.263840  1
  Mg  Mg18  1  0.574229  0.262851  0.582187  1
  Cd  Cd19  1  0.258547  0.576105  0.582525  1
  Ir  Ir20  1  0.143675  0.145556  0.139782  1
  Ir  Ir21  1  0.146996  0.143690  0.570576  1
  Ir  Ir22  1  0.152120  0.567767  0.139597  1
  Ir  Ir23  1  0.567697  0.151546  0.142258  1
