# generated using pymatgen
data_NpSi2PtAu
_symmetry_space_group_name_H-M   'P 1'
_cell_length_a   4.26638500
_cell_length_b   4.26638500
_cell_length_c   10.07628800
_cell_angle_alpha   90.00000000
_cell_angle_beta   90.00000000
_cell_angle_gamma   90.00000000
_symmetry_Int_Tables_number   1
_chemical_formula_structural   NpSi2PtAu
_chemical_formula_sum   'Np2 Si4 Pt2 Au2'
_cell_volume   183.40900698
_cell_formula_units_Z   2
loop_
 _symmetry_equiv_pos_site_id
 _symmetry_equiv_pos_as_xyz
  1  'x, y, z'
loop_
 _atom_site_type_symbol
 _atom_site_label
 _atom_site_symmetry_multiplicity
 _atom_site_fract_x
 _atom_site_fract_y
 _atom_site_fract_z
 _atom_site_occupancy
  Np  Np0  1  0.500000  0.000000  0.742257  1
  Np  Np1  1  0.000000  0.500000  0.257743  1
  Si  Si2  1  0.500000  0.000000  0.147791  1
  Si  Si3  1  0.000000  0.500000  0.852209  1
  Si  Si4  1  0.500000  0.500000  0.500000  1
  Si  Si5  1  0.000000  0.000000  0.500000  1
  Pt  Pt6  1  0.500000  0.000000  0.383512  1
  Pt  Pt7  1  0.000000  0.500000  0.616488  1
  Au  Au8  1  0.500000  0.500000  0.000000  1
  Au  Au9  1  0.000000  0.000000  0.000000  1
