# generated using pymatgen
data_Lu3Ag3IrPb2
_symmetry_space_group_name_H-M   'P 1'
_cell_length_a   8.21293800
_cell_length_b   8.21293755
_cell_length_c   3.53066400
_cell_angle_alpha   90.00000000
_cell_angle_beta   90.00000000
_cell_angle_gamma   119.99999378
_symmetry_Int_Tables_number   1
_chemical_formula_structural   Lu3Ag3IrPb2
_chemical_formula_sum   'Lu3 Ag3 Ir1 Pb2'
_cell_volume   206.24532490
_cell_formula_units_Z   1
loop_
 _symmetry_equiv_pos_site_id
 _symmetry_equiv_pos_as_xyz
  1  'x, y, z'
loop_
 _atom_site_type_symbol
 _atom_site_label
 _atom_site_symmetry_multiplicity
 _atom_site_fract_x
 _atom_site_fract_y
 _atom_site_fract_z
 _atom_site_occupancy
  Lu  Lu0  1  0.579130  0.949002  0.500000  1
  Lu  Lu1  1  0.369872  0.420870  0.500000  1
  Lu  Lu2  1  0.050998  0.630128  0.500000  1
  Ag  Ag3  1  0.703763  0.707448  0.000000  1
  Ag  Ag4  1  0.003687  0.296237  0.000000  1
  Ag  Ag5  1  0.292552  0.996313  0.000000  1
  Ir  Ir6  1  0.333333  0.666667  0.000000  1
  Pb  Pb7  1  0.000000  0.000000  0.500000  1
  Pb  Pb8  1  0.666667  0.333333  0.000000  1
