# generated using pymatgen
data_Tb5Dy10Ho5(CoSb2)4
_symmetry_space_group_name_H-M   'P 1'
_cell_length_a   7.91045649
_cell_length_b   8.76288462
_cell_length_c   12.20901312
_cell_angle_alpha   90.00154352
_cell_angle_beta   89.98201367
_cell_angle_gamma   90.01990019
_symmetry_Int_Tables_number   1
_chemical_formula_structural   Tb5Dy10Ho5(CoSb2)4
_chemical_formula_sum   'Tb5 Dy10 Ho5 Co4 Sb8'
_cell_volume   846.30937523
_cell_formula_units_Z   1
loop_
 _symmetry_equiv_pos_site_id
 _symmetry_equiv_pos_as_xyz
  1  'x, y, z'
loop_
 _atom_site_type_symbol
 _atom_site_label
 _atom_site_symmetry_multiplicity
 _atom_site_fract_x
 _atom_site_fract_y
 _atom_site_fract_z
 _atom_site_occupancy
  Tb  Tb0  1  0.622502  0.750276  0.306280  1
  Tb  Tb1  1  0.122072  0.250264  0.193261  1
  Tb  Tb2  1  0.378689  0.249699  0.693768  1
  Tb  Tb3  1  0.878192  0.749799  0.806531  1
  Tb  Tb4  1  0.320933  0.464834  0.435120  1
  Dy  Dy5  1  0.154553  0.749896  0.202798  1
  Dy  Dy6  1  0.654848  0.249872  0.296961  1
  Dy  Dy7  1  0.845489  0.250074  0.797005  1
  Dy  Dy8  1  0.345397  0.750096  0.703119  1
  Dy  Dy9  1  0.453145  0.749938  0.997838  1
  Dy  Dy10  1  0.952379  0.249846  0.502144  1
  Dy  Dy11  1  0.546381  0.250102  0.002011  1
  Dy  Dy12  1  0.045379  0.750222  0.498014  1
  Dy  Dy13  1  0.821911  0.964662  0.065002  1
  Dy  Dy14  1  0.321930  0.035260  0.435127  1
  Ho  Ho15  1  0.177463  0.464364  0.934867  1
  Ho  Ho16  1  0.677704  0.535767  0.565294  1
  Ho  Ho17  1  0.177576  0.035572  0.934830  1
  Ho  Ho18  1  0.677623  0.964018  0.565338  1
  Ho  Ho19  1  0.822564  0.535397  0.064923  1
  Co  Co20  1  0.435123  0.750171  0.490830  1
  Co  Co21  1  0.934689  0.250157  0.009086  1
  Co  Co22  1  0.567424  0.249610  0.509676  1
  Co  Co23  1  0.065970  0.749749  0.990680  1
  Sb  Sb24  1  0.928890  0.991785  0.327133  1
  Sb  Sb25  1  0.428622  0.008334  0.172727  1
  Sb  Sb26  1  0.071446  0.491702  0.672640  1
  Sb  Sb27  1  0.571175  0.508322  0.827294  1
  Sb  Sb28  1  0.071262  0.008308  0.672776  1
  Sb  Sb29  1  0.571406  0.991643  0.827421  1
  Sb  Sb30  1  0.928062  0.508438  0.326997  1
  Sb  Sb31  1  0.429199  0.491824  0.172504  1
