# generated using pymatgen
data_HfZr7Ti8(NbGe4)4
_symmetry_space_group_name_H-M   'P 1'
_cell_length_a   6.83193356
_cell_length_b   6.96122131
_cell_length_c   13.18860250
_cell_angle_alpha   89.99764103
_cell_angle_beta   90.03154929
_cell_angle_gamma   90.03387994
_symmetry_Int_Tables_number   1
_chemical_formula_structural   HfZr7Ti8(NbGe4)4
_chemical_formula_sum   'Hf1 Zr7 Ti8 Nb4 Ge16'
_cell_volume   627.23128470
_cell_formula_units_Z   1
loop_
 _symmetry_equiv_pos_site_id
 _symmetry_equiv_pos_as_xyz
  1  'x, y, z'
loop_
 _atom_site_type_symbol
 _atom_site_label
 _atom_site_symmetry_multiplicity
 _atom_site_fract_x
 _atom_site_fract_y
 _atom_site_fract_z
 _atom_site_occupancy
  Hf  Hf0  1  0.991626  0.824689  0.594298  1
  Zr  Zr1  1  0.491691  0.674925  0.594173  1
  Zr  Zr2  1  0.991732  0.824979  0.905984  1
  Zr  Zr3  1  0.508451  0.325174  0.094176  1
  Zr  Zr4  1  0.008331  0.174766  0.406045  1
  Zr  Zr5  1  0.508331  0.324978  0.405936  1
  Zr  Zr6  1  0.008181  0.174963  0.094162  1
  Zr  Zr7  1  0.491564  0.674859  0.905626  1
  Ti  Ti8  1  0.658406  0.167745  0.624596  1
  Ti  Ti9  1  0.158243  0.332253  0.875203  1
  Ti  Ti10  1  0.341816  0.832160  0.124813  1
  Ti  Ti11  1  0.842005  0.668160  0.375479  1
  Ti  Ti12  1  0.341949  0.831985  0.375367  1
  Ti  Ti13  1  0.841690  0.668000  0.124705  1
  Ti  Ti14  1  0.658093  0.167748  0.875066  1
  Ti  Ti15  1  0.158380  0.331900  0.624685  1
  Nb  Nb16  1  0.829988  0.493664  0.749759  1
  Nb  Nb17  1  0.329612  0.006352  0.749797  1
  Nb  Nb18  1  0.170278  0.506669  0.250166  1
  Nb  Nb19  1  0.670255  0.993457  0.250171  1
  Ge  Ge20  1  0.683483  0.957746  0.461702  1
  Ge  Ge21  1  0.182457  0.542061  0.038756  1
  Ge  Ge22  1  0.317417  0.042101  0.961175  1
  Ge  Ge23  1  0.817997  0.458902  0.538955  1
  Ge  Ge24  1  0.315871  0.041235  0.539011  1
  Ge  Ge25  1  0.817486  0.457840  0.961163  1
  Ge  Ge26  1  0.682628  0.957808  0.038759  1
  Ge  Ge27  1  0.182204  0.542669  0.461647  1
  Ge  Ge28  1  0.457308  0.378212  0.749857  1
  Ge  Ge29  1  0.957570  0.121071  0.749707  1
  Ge  Ge30  1  0.542750  0.621732  0.250075  1
  Ge  Ge31  1  0.042572  0.878399  0.249959  1
  Ge  Ge32  1  0.693728  0.859353  0.749587  1
  Ge  Ge33  1  0.192265  0.641581  0.749354  1
  Ge  Ge34  1  0.306817  0.140634  0.250005  1
  Ge  Ge35  1  0.806824  0.359232  0.250079  1
