# generated using pymatgen
data_CaYb4Ho(Si3Ru)8
_symmetry_space_group_name_H-M   'P 1'
_cell_length_a   10.17000249
_cell_length_b   10.17000360
_cell_length_c   8.15268763
_cell_angle_alpha   89.95368352
_cell_angle_beta   90.04631054
_cell_angle_gamma   132.72816234
_symmetry_Int_Tables_number   1
_chemical_formula_structural   CaYb4Ho(Si3Ru)8
_chemical_formula_sum   'Ca1 Yb4 Ho1 Si24 Ru8'
_cell_volume   619.41624774
_cell_formula_units_Z   1
loop_
 _symmetry_equiv_pos_site_id
 _symmetry_equiv_pos_as_xyz
  1  'x, y, z'
loop_
 _atom_site_type_symbol
 _atom_site_label
 _atom_site_symmetry_multiplicity
 _atom_site_fract_x
 _atom_site_fract_y
 _atom_site_fract_z
 _atom_site_occupancy
  Ca  Ca0  1  0.500867  0.000867  0.750000  1
  Yb  Yb1  1  0.499714  0.499715  0.499798  1
  Yb  Yb2  1  0.999715  0.999714  0.000202  1
  Yb  Yb3  1  0.999170  0.499170  0.250000  1
  Yb  Yb4  1  0.498276  0.998276  0.250000  1
  Ho  Ho5  1  0.000077  0.500077  0.750000  1
  Si  Si6  1  0.794553  0.204564  0.498539  1
  Si  Si7  1  0.294433  0.705395  0.000553  1
  Si  Si8  1  0.205395  0.794433  0.499447  1
  Si  Si9  1  0.704564  0.294553  0.001461  1
  Si  Si10  1  0.332982  0.333362  0.832338  1
  Si  Si11  1  0.664143  0.667759  0.167986  1
  Si  Si12  1  0.167759  0.164143  0.332014  1
  Si  Si13  1  0.833362  0.832982  0.667662  1
  Si  Si14  1  0.123437  0.891123  0.729984  1
  Si  Si15  1  0.109229  0.876103  0.269585  1
  Si  Si16  1  0.608412  0.375217  0.230886  1
  Si  Si17  1  0.625927  0.394069  0.769942  1
  Si  Si18  1  0.875217  0.108412  0.269114  1
  Si  Si19  1  0.894069  0.125927  0.730058  1
  Si  Si20  1  0.391123  0.623437  0.770016  1
  Si  Si21  1  0.376103  0.609229  0.230415  1
  Si  Si22  1  0.347626  0.113593  0.505939  1
  Si  Si23  1  0.887285  0.654463  0.493331  1
  Si  Si24  1  0.385965  0.152682  0.009008  1
  Si  Si25  1  0.845690  0.613017  0.991428  1
  Si  Si26  1  0.652682  0.885965  0.490992  1
  Si  Si27  1  0.113017  0.345690  0.508572  1
  Si  Si28  1  0.613593  0.847626  0.994061  1
  Si  Si29  1  0.154463  0.387285  0.006669  1
  Ru  Ru30  1  0.672598  0.332142  0.501044  1
  Ru  Ru31  1  0.168075  0.828796  0.999283  1
  Ru  Ru32  1  0.328796  0.668075  0.500717  1
  Ru  Ru33  1  0.832142  0.172598  0.998956  1
  Ru  Ru34  1  0.126735  0.125647  0.624482  1
  Ru  Ru35  1  0.873241  0.873913  0.375204  1
  Ru  Ru36  1  0.373913  0.373241  0.124796  1
  Ru  Ru37  1  0.625647  0.626735  0.875518  1
