# generated using pymatgen
data_Y4Er2ZnGa17Pd4
_symmetry_space_group_name_H-M   'P 1'
_cell_length_a   8.15074451
_cell_length_b   8.15074455
_cell_length_c   15.72820332
_cell_angle_alpha   74.52692445
_cell_angle_beta   74.52692325
_cell_angle_gamma   30.69997778
_symmetry_Int_Tables_number   1
_chemical_formula_structural   Y4Er2ZnGa17Pd4
_chemical_formula_sum   'Y4 Er2 Zn1 Ga17 Pd4'
_cell_volume   512.64320944
_cell_formula_units_Z   1
loop_
 _symmetry_equiv_pos_site_id
 _symmetry_equiv_pos_as_xyz
  1  'x, y, z'
loop_
 _atom_site_type_symbol
 _atom_site_label
 _atom_site_symmetry_multiplicity
 _atom_site_fract_x
 _atom_site_fract_y
 _atom_site_fract_z
 _atom_site_occupancy
  Y  Y0  1  0.750250  0.750250  0.750827  1
  Y  Y1  1  0.250162  0.250162  0.249728  1
  Y  Y2  1  0.600389  0.600389  0.601376  1
  Y  Y3  1  0.099382  0.099382  0.100233  1
  Er  Er4  1  0.901104  0.901104  0.900406  1
  Er  Er5  1  0.399816  0.399816  0.398856  1
  Zn  Zn6  1  0.499836  0.499836  0.999885  1
  Ga  Ga7  1  0.821758  0.821758  0.538330  1
  Ga  Ga8  1  0.324611  0.324611  0.038946  1
  Ga  Ga9  1  0.675348  0.675348  0.960375  1
  Ga  Ga10  1  0.178491  0.178491  0.460953  1
  Ga  Ga11  1  0.539457  0.539457  0.825061  1
  Ga  Ga12  1  0.038784  0.038784  0.321472  1
  Ga  Ga13  1  0.960528  0.960528  0.678755  1
  Ga  Ga14  1  0.459810  0.459810  0.175008  1
  Ga  Ga15  1  0.262182  0.262182  0.895950  1
  Ga  Ga16  1  0.760986  0.760986  0.394472  1
  Ga  Ga17  1  0.239297  0.239297  0.605717  1
  Ga  Ga18  1  0.738141  0.738141  0.104299  1
  Ga  Ga19  1  0.395352  0.395352  0.761837  1
  Ga  Ga20  1  0.894828  0.894828  0.261492  1
  Ga  Ga21  1  0.105490  0.105490  0.738807  1
  Ga  Ga22  1  0.604897  0.604897  0.238491  1
  Ga  Ga23  1  0.000046  0.000046  0.499970  1
  Pd  Pd24  1  0.093592  0.093592  0.906304  1
  Pd  Pd25  1  0.590506  0.590506  0.408607  1
  Pd  Pd26  1  0.408895  0.408895  0.590801  1
  Pd  Pd27  1  0.906060  0.906060  0.093039  1
