# generated using pymatgen
data_Nd20CoTc3Sb8
_symmetry_space_group_name_H-M   'P 1'
_cell_length_a   8.26282244
_cell_length_b   9.07717400
_cell_length_c   12.62077447
_cell_angle_alpha   90.00000000
_cell_angle_beta   90.31520291
_cell_angle_gamma   90.00000000
_symmetry_Int_Tables_number   1
_chemical_formula_structural   Nd20CoTc3Sb8
_chemical_formula_sum   'Nd20 Co1 Tc3 Sb8'
_cell_volume   946.58259541
_cell_formula_units_Z   1
loop_
 _symmetry_equiv_pos_site_id
 _symmetry_equiv_pos_as_xyz
  1  'x, y, z'
loop_
 _atom_site_type_symbol
 _atom_site_label
 _atom_site_symmetry_multiplicity
 _atom_site_fract_x
 _atom_site_fract_y
 _atom_site_fract_z
 _atom_site_occupancy
  Nd  Nd0  1  0.157709  0.750000  0.208544  1
  Nd  Nd1  1  0.657703  0.250000  0.288477  1
  Nd  Nd2  1  0.845120  0.250000  0.789478  1
  Nd  Nd3  1  0.346666  0.750000  0.707062  1
  Nd  Nd4  1  0.444723  0.750000  0.995181  1
  Nd  Nd5  1  0.951613  0.250000  0.502761  1
  Nd  Nd6  1  0.551425  0.250000  0.003144  1
  Nd  Nd7  1  0.046298  0.750000  0.497844  1
  Nd  Nd8  1  0.625986  0.750000  0.302718  1
  Nd  Nd9  1  0.124741  0.250000  0.194145  1
  Nd  Nd10  1  0.375491  0.250000  0.696827  1
  Nd  Nd11  1  0.875026  0.750000  0.807218  1
  Nd  Nd12  1  0.821117  0.959267  0.069080  1
  Nd  Nd13  1  0.321475  0.036176  0.431719  1
  Nd  Nd14  1  0.180485  0.465894  0.934427  1
  Nd  Nd15  1  0.678123  0.537087  0.567900  1
  Nd  Nd16  1  0.180485  0.034106  0.934427  1
  Nd  Nd17  1  0.678123  0.962913  0.567900  1
  Nd  Nd18  1  0.821117  0.540733  0.069080  1
  Nd  Nd19  1  0.321475  0.463824  0.431719  1
  Co  Co20  1  0.075373  0.750000  0.991594  1
  Tc  Tc21  1  0.412373  0.750000  0.484826  1
  Tc  Tc22  1  0.918618  0.250000  0.010998  1
  Tc  Tc23  1  0.585670  0.250000  0.513387  1
  Sb  Sb24  1  0.928845  0.994067  0.327785  1
  Sb  Sb25  1  0.427045  0.006031  0.170362  1
  Sb  Sb26  1  0.072649  0.494500  0.673147  1
  Sb  Sb27  1  0.572994  0.506178  0.828478  1
  Sb  Sb28  1  0.072649  0.005500  0.673147  1
  Sb  Sb29  1  0.572994  0.993822  0.828478  1
  Sb  Sb30  1  0.928845  0.505933  0.327785  1
  Sb  Sb31  1  0.427045  0.493969  0.170362  1
