# generated using pymatgen
data_Ho3ScGa2Ir3
_symmetry_space_group_name_H-M   'P 1'
_cell_length_a   7.14676911
_cell_length_b   7.14676856
_cell_length_c   4.06699600
_cell_angle_alpha   90.00000000
_cell_angle_beta   90.00000000
_cell_angle_gamma   120.35678589
_symmetry_Int_Tables_number   1
_chemical_formula_structural   Ho3ScGa2Ir3
_chemical_formula_sum   'Ho3 Sc1 Ga2 Ir3'
_cell_volume   179.24671778
_cell_formula_units_Z   1
loop_
 _symmetry_equiv_pos_site_id
 _symmetry_equiv_pos_as_xyz
  1  'x, y, z'
loop_
 _atom_site_type_symbol
 _atom_site_label
 _atom_site_symmetry_multiplicity
 _atom_site_fract_x
 _atom_site_fract_y
 _atom_site_fract_z
 _atom_site_occupancy
  Ho  Ho0  1  0.392549  0.392549  0.500000  1
  Ho  Ho1  1  0.581257  0.012712  0.500000  1
  Ho  Ho2  1  0.012712  0.581257  0.500000  1
  Sc  Sc3  1  0.766361  0.766361  0.000000  1
  Ga  Ga4  1  0.246598  0.995376  0.000000  1
  Ga  Ga5  1  0.995376  0.246598  0.000000  1
  Ir  Ir6  1  0.664512  0.335838  0.000000  1
  Ir  Ir7  1  0.335838  0.664512  0.000000  1
  Ir  Ir8  1  0.004800  0.004800  0.500000  1
