# generated using pymatgen
data_YErZr2(Co5P3)4
_symmetry_space_group_name_H-M   'P 1'
_cell_length_a   3.62609200
_cell_length_b   10.20889954
_cell_length_c   11.67797461
_cell_angle_alpha   90.03710169
_cell_angle_beta   90.00000000
_cell_angle_gamma   90.00000000
_symmetry_Int_Tables_number   1
_chemical_formula_structural   YErZr2(Co5P3)4
_chemical_formula_sum   'Y1 Er1 Zr2 Co20 P12'
_cell_volume   432.29994906
_cell_formula_units_Z   1
loop_
 _symmetry_equiv_pos_site_id
 _symmetry_equiv_pos_as_xyz
  1  'x, y, z'
loop_
 _atom_site_type_symbol
 _atom_site_label
 _atom_site_symmetry_multiplicity
 _atom_site_fract_x
 _atom_site_fract_y
 _atom_site_fract_z
 _atom_site_occupancy
  Y  Y0  1  0.750000  0.417372  0.296981  1
  Er  Er1  1  0.750000  0.082337  0.797060  1
  Zr  Zr2  1  0.250000  0.581989  0.701430  1
  Zr  Zr3  1  0.250000  0.918188  0.201317  1
  Co  Co4  1  0.250000  0.718924  0.993432  1
  Co  Co5  1  0.250000  0.781450  0.493998  1
  Co  Co6  1  0.750000  0.281878  0.008093  1
  Co  Co7  1  0.750000  0.217839  0.508455  1
  Co  Co8  1  0.250000  0.409712  0.490884  1
  Co  Co9  1  0.250000  0.090378  0.989597  1
  Co  Co10  1  0.750000  0.593602  0.515322  1
  Co  Co11  1  0.750000  0.906887  0.014943  1
  Co  Co12  1  0.250000  0.221149  0.177391  1
  Co  Co13  1  0.250000  0.277870  0.677895  1
  Co  Co14  1  0.750000  0.776459  0.822596  1
  Co  Co15  1  0.750000  0.724042  0.322743  1
  Co  Co16  1  0.250000  0.881177  0.699172  1
  Co  Co17  1  0.250000  0.619627  0.198676  1
  Co  Co18  1  0.750000  0.113819  0.299507  1
  Co  Co19  1  0.750000  0.385622  0.799347  1
  Co  Co20  1  0.250000  0.469564  0.928746  1
  Co  Co21  1  0.250000  0.029992  0.429456  1
  Co  Co22  1  0.750000  0.534829  0.066680  1
  Co  Co23  1  0.750000  0.965437  0.567512  1
  P  P24  1  0.250000  0.419181  0.110406  1
  P  P25  1  0.250000  0.080705  0.611609  1
  P  P26  1  0.750000  0.581368  0.884574  1
  P  P27  1  0.750000  0.918592  0.384999  1
  P  P28  1  0.250000  0.269318  0.871173  1
  P  P29  1  0.250000  0.229487  0.371751  1
  P  P30  1  0.750000  0.732585  0.131152  1
  P  P31  1  0.750000  0.767639  0.631318  1
  P  P32  1  0.250000  0.602347  0.391058  1
  P  P33  1  0.250000  0.898677  0.890590  1
  P  P34  1  0.750000  0.400211  0.610168  1
  P  P35  1  0.750000  0.099747  0.109968  1
