# generated using pymatgen
data_Sr4ErTm(MoO6)2
_symmetry_space_group_name_H-M   'P 1'
_cell_length_a   5.80595172
_cell_length_b   5.86616608
_cell_length_c   8.29480958
_cell_angle_alpha   89.98091481
_cell_angle_beta   90.56304655
_cell_angle_gamma   90.00331743
_symmetry_Int_Tables_number   1
_chemical_formula_structural   Sr4ErTm(MoO6)2
_chemical_formula_sum   'Sr4 Er1 Tm1 Mo2 O12'
_cell_volume   282.49658356
_cell_formula_units_Z   1
loop_
 _symmetry_equiv_pos_site_id
 _symmetry_equiv_pos_as_xyz
  1  'x, y, z'
loop_
 _atom_site_type_symbol
 _atom_site_label
 _atom_site_symmetry_multiplicity
 _atom_site_fract_x
 _atom_site_fract_y
 _atom_site_fract_z
 _atom_site_occupancy
  Sr  Sr0  1  0.005334  0.035837  0.247823  1
  Sr  Sr1  1  0.494658  0.535963  0.251640  1
  Sr  Sr2  1  0.505342  0.464036  0.748359  1
  Sr  Sr3  1  0.994665  0.964164  0.752177  1
  Er  Er4  1  0.000000  0.500000  0.500000  1
  Tm  Tm5  1  0.500001  0.000000  0.000000  1
  Mo  Mo6  1  0.000000  0.500000  0.000000  1
  Mo  Mo7  1  0.500000  0.000000  0.500000  1
  O  O8  1  0.269962  0.304467  0.035613  1
  O  O9  1  0.200738  0.778910  0.042417  1
  O  O10  1  0.923605  0.479990  0.238001  1
  O  O11  1  0.576073  0.980009  0.261121  1
  O  O12  1  0.300173  0.278631  0.457393  1
  O  O13  1  0.230305  0.805312  0.464170  1
  O  O14  1  0.769696  0.194688  0.535831  1
  O  O15  1  0.699826  0.721369  0.542608  1
  O  O16  1  0.423928  0.019991  0.738878  1
  O  O17  1  0.076394  0.520009  0.761998  1
  O  O18  1  0.799263  0.221089  0.957584  1
  O  O19  1  0.730039  0.695534  0.964387  1
