# generated using pymatgen
data_Tb5Lu3(ScSb)12
_symmetry_space_group_name_H-M   'P 1'
_cell_length_a   7.76463210
_cell_length_b   8.91029600
_cell_length_c   11.55943515
_cell_angle_alpha   90.00000000
_cell_angle_beta   89.98174694
_cell_angle_gamma   90.00000000
_symmetry_Int_Tables_number   1
_chemical_formula_structural   Tb5Lu3(ScSb)12
_chemical_formula_sum   'Tb5 Lu3 Sc12 Sb12'
_cell_volume   799.74144894
_cell_formula_units_Z   1
loop_
 _symmetry_equiv_pos_site_id
 _symmetry_equiv_pos_as_xyz
  1  'x, y, z'
loop_
 _atom_site_type_symbol
 _atom_site_label
 _atom_site_symmetry_multiplicity
 _atom_site_fract_x
 _atom_site_fract_y
 _atom_site_fract_z
 _atom_site_occupancy
  Tb  Tb0  1  0.184325  0.750000  0.722206  1
  Tb  Tb1  1  0.683608  0.750000  0.778898  1
  Tb  Tb2  1  0.816525  0.250000  0.278417  1
  Tb  Tb3  1  0.316926  0.250000  0.221361  1
  Tb  Tb4  1  0.852024  0.750000  0.283540  1
  Lu  Lu5  1  0.350610  0.750000  0.217554  1
  Lu  Lu6  1  0.148838  0.250000  0.717495  1
  Lu  Lu7  1  0.648672  0.250000  0.782330  1
  Sc  Sc8  1  0.193601  0.562512  0.440437  1
  Sc  Sc9  1  0.693429  0.937889  0.059284  1
  Sc  Sc10  1  0.806245  0.062335  0.560226  1
  Sc  Sc11  1  0.306374  0.437466  0.939481  1
  Sc  Sc12  1  0.806245  0.437665  0.560226  1
  Sc  Sc13  1  0.306374  0.062534  0.939481  1
  Sc  Sc14  1  0.193601  0.937488  0.440437  1
  Sc  Sc15  1  0.693429  0.562111  0.059284  1
  Sc  Sc16  1  0.024655  0.750000  0.989462  1
  Sc  Sc17  1  0.524230  0.750000  0.509815  1
  Sc  Sc18  1  0.975912  0.250000  0.009025  1
  Sc  Sc19  1  0.475255  0.250000  0.490622  1
  Sb  Sb20  1  0.935749  0.493583  0.832963  1
  Sb  Sb21  1  0.435822  0.006223  0.667102  1
  Sb  Sb22  1  0.065748  0.995442  0.165204  1
  Sb  Sb23  1  0.562377  0.505211  0.333258  1
  Sb  Sb24  1  0.065748  0.504558  0.165204  1
  Sb  Sb25  1  0.562377  0.994789  0.333258  1
  Sb  Sb26  1  0.935749  0.006417  0.832963  1
  Sb  Sb27  1  0.435822  0.493777  0.667102  1
  Sb  Sb28  1  0.908854  0.750000  0.539381  1
  Sb  Sb29  1  0.408334  0.750000  0.964077  1
  Sb  Sb30  1  0.091173  0.250000  0.463993  1
  Sb  Sb31  1  0.591368  0.250000  0.035913  1
