# generated using pymatgen
data_La8SnHg7Rh8
_symmetry_space_group_name_H-M   'P 1'
_cell_length_a   4.10252900
_cell_length_b   7.85344803
_cell_length_c   17.44918829
_cell_angle_alpha   90.45897812
_cell_angle_beta   90.00000000
_cell_angle_gamma   90.00000000
_symmetry_Int_Tables_number   1
_chemical_formula_structural   La8SnHg7Rh8
_chemical_formula_sum   'La8 Sn1 Hg7 Rh8'
_cell_volume   562.17732940
_cell_formula_units_Z   1
loop_
 _symmetry_equiv_pos_site_id
 _symmetry_equiv_pos_as_xyz
  1  'x, y, z'
loop_
 _atom_site_type_symbol
 _atom_site_label
 _atom_site_symmetry_multiplicity
 _atom_site_fract_x
 _atom_site_fract_y
 _atom_site_fract_z
 _atom_site_occupancy
  La  La0  1  0.750000  0.323921  0.440997  1
  La  La1  1  0.250000  0.064506  0.715951  1
  La  La2  1  0.250000  0.564691  0.784427  1
  La  La3  1  0.250000  0.668511  0.560309  1
  La  La4  1  0.750000  0.833279  0.057342  1
  La  La5  1  0.250000  0.171937  0.941654  1
  La  La6  1  0.750000  0.431942  0.215234  1
  La  La7  1  0.750000  0.934681  0.282791  1
  Sn  Sn8  1  0.250000  0.603660  0.347977  1
  Hg  Hg9  1  0.250000  0.108255  0.155010  1
  Hg  Hg10  1  0.250000  0.994676  0.433025  1
  Hg  Hg11  1  0.750000  0.892830  0.846570  1
  Hg  Hg12  1  0.750000  0.000747  0.564903  1
  Hg  Hg13  1  0.250000  0.498746  0.067467  1
  Hg  Hg14  1  0.750000  0.394017  0.652686  1
  Hg  Hg15  1  0.750000  0.504847  0.933739  1
  Rh  Rh16  1  0.750000  0.263110  0.808845  1
  Rh  Rh17  1  0.250000  0.255706  0.314232  1
  Rh  Rh18  1  0.250000  0.767346  0.945610  1
  Rh  Rh19  1  0.250000  0.264683  0.556304  1
  Rh  Rh20  1  0.250000  0.731887  0.198981  1
  Rh  Rh21  1  0.750000  0.729428  0.431166  1
  Rh  Rh22  1  0.750000  0.234599  0.056541  1
  Rh  Rh23  1  0.750000  0.761998  0.688238  1
