# generated using pymatgen
data_LuTh2(Ni3As2)3
_symmetry_space_group_name_H-M   'P 1'
_cell_length_a   3.99852300
_cell_length_b   10.87527400
_cell_length_c   12.85314900
_cell_angle_alpha   90.00000000
_cell_angle_beta   90.00000000
_cell_angle_gamma   90.00000000
_symmetry_Int_Tables_number   1
_chemical_formula_structural   LuTh2(Ni3As2)3
_chemical_formula_sum   'Lu2 Th4 Ni18 As12'
_cell_volume   558.91961125
_cell_formula_units_Z   2
loop_
 _symmetry_equiv_pos_site_id
 _symmetry_equiv_pos_as_xyz
  1  'x, y, z'
loop_
 _atom_site_type_symbol
 _atom_site_label
 _atom_site_symmetry_multiplicity
 _atom_site_fract_x
 _atom_site_fract_y
 _atom_site_fract_z
 _atom_site_occupancy
  Lu  Lu0  1  0.000000  0.686829  0.794055  1
  Lu  Lu1  1  0.000000  0.313171  0.794055  1
  Th  Th2  1  0.000000  0.500000  0.522045  1
  Th  Th3  1  0.500000  0.000000  0.482585  1
  Th  Th4  1  0.500000  0.811453  0.206129  1
  Th  Th5  1  0.500000  0.188547  0.206129  1
  Ni  Ni6  1  0.500000  0.500000  0.149849  1
  Ni  Ni7  1  0.000000  0.000000  0.851436  1
  Ni  Ni8  1  0.500000  0.500000  0.695052  1
  Ni  Ni9  1  0.000000  0.000000  0.302773  1
  Ni  Ni10  1  0.000000  0.500000  0.970150  1
  Ni  Ni11  1  0.500000  0.000000  0.020502  1
  Ni  Ni12  1  0.500000  0.336309  0.993995  1
  Ni  Ni13  1  0.500000  0.663691  0.993995  1
  Ni  Ni14  1  0.000000  0.169035  0.001971  1
  Ni  Ni15  1  0.000000  0.830965  0.001971  1
  Ni  Ni16  1  0.500000  0.304786  0.427359  1
  Ni  Ni17  1  0.500000  0.695214  0.427359  1
  Ni  Ni18  1  0.000000  0.195693  0.578237  1
  Ni  Ni19  1  0.000000  0.804307  0.578237  1
  Ni  Ni20  1  0.500000  0.879633  0.712029  1
  Ni  Ni21  1  0.500000  0.120367  0.712029  1
  Ni  Ni22  1  0.000000  0.619242  0.289096  1
  Ni  Ni23  1  0.000000  0.380758  0.289096  1
  As  As24  1  0.500000  0.500000  0.870138  1
  As  As25  1  0.000000  0.000000  0.120842  1
  As  As26  1  0.500000  0.500000  0.336333  1
  As  As27  1  0.000000  0.000000  0.667340  1
  As  As28  1  0.500000  0.308113  0.616829  1
  As  As29  1  0.500000  0.691887  0.616829  1
  As  As30  1  0.000000  0.191385  0.390724  1
  As  As31  1  0.000000  0.808615  0.390724  1
  As  As32  1  0.500000  0.846040  0.893017  1
  As  As33  1  0.500000  0.153960  0.893017  1
  As  As34  1  0.000000  0.645945  0.102036  1
  As  As35  1  0.000000  0.354055  0.102036  1
