# generated using pymatgen
data_La2Nd3Tm3(CdIr)2
_symmetry_space_group_name_H-M   'P 1'
_cell_length_a   9.83452123
_cell_length_b   9.83452206
_cell_length_c   9.83452200
_cell_angle_alpha   60.00000020
_cell_angle_beta   59.99999742
_cell_angle_gamma   60.00000494
_symmetry_Int_Tables_number   1
_chemical_formula_structural   La2Nd3Tm3(CdIr)2
_chemical_formula_sum   'La4 Nd6 Tm6 Cd4 Ir4'
_cell_volume   672.58123732
_cell_formula_units_Z   2
loop_
 _symmetry_equiv_pos_site_id
 _symmetry_equiv_pos_as_xyz
  1  'x, y, z'
loop_
 _atom_site_type_symbol
 _atom_site_label
 _atom_site_symmetry_multiplicity
 _atom_site_fract_x
 _atom_site_fract_y
 _atom_site_fract_z
 _atom_site_occupancy
  La  La0  1  0.350106  0.350106  0.350106  1
  La  La1  1  0.350106  0.350106  0.949681  1
  La  La2  1  0.350106  0.949681  0.350106  1
  La  La3  1  0.949681  0.350106  0.350106  1
  Nd  Nd4  1  0.938703  0.561297  0.561297  1
  Nd  Nd5  1  0.561297  0.938703  0.938703  1
  Nd  Nd6  1  0.561297  0.938703  0.561297  1
  Nd  Nd7  1  0.938703  0.561297  0.938703  1
  Nd  Nd8  1  0.561297  0.561297  0.938703  1
  Nd  Nd9  1  0.938703  0.938703  0.561297  1
  Tm  Tm10  1  0.815476  0.184524  0.184524  1
  Tm  Tm11  1  0.184524  0.815476  0.815476  1
  Tm  Tm12  1  0.184524  0.815476  0.184524  1
  Tm  Tm13  1  0.815476  0.184524  0.815476  1
  Tm  Tm14  1  0.184524  0.184524  0.815476  1
  Tm  Tm15  1  0.815476  0.815476  0.184524  1
  Cd  Cd16  1  0.580222  0.580222  0.580222  1
  Cd  Cd17  1  0.580222  0.580222  0.259333  1
  Cd  Cd18  1  0.580222  0.259333  0.580222  1
  Cd  Cd19  1  0.259333  0.580222  0.580222  1
  Ir  Ir20  1  0.138777  0.138777  0.138777  1
  Ir  Ir21  1  0.138777  0.138777  0.583668  1
  Ir  Ir22  1  0.138777  0.583668  0.138777  1
  Ir  Ir23  1  0.583668  0.138777  0.138777  1
