# generated using pymatgen
data_Cd5B3O9F
_symmetry_space_group_name_H-M   'P 1'
_cell_length_a   3.49011547
_cell_length_b   8.13760143
_cell_length_c   9.05175122
_cell_angle_alpha   63.28811862
_cell_angle_beta   94.48429681
_cell_angle_gamma   100.01685571
_symmetry_Int_Tables_number   1
_chemical_formula_structural   Cd5B3O9F
_chemical_formula_sum   'Cd5 B3 O9 F1'
_cell_volume   226.14368461
_cell_formula_units_Z   1
loop_
 _symmetry_equiv_pos_site_id
 _symmetry_equiv_pos_as_xyz
  1  'x, y, z'
loop_
 _atom_site_type_symbol
 _atom_site_label
 _atom_site_symmetry_multiplicity
 _atom_site_fract_x
 _atom_site_fract_y
 _atom_site_fract_z
 _atom_site_occupancy
  Cd  Cd0  1  0.026400  0.273479  0.000000  1
  Cd  Cd1  1  0.743419  0.549034  0.237817  1
  Cd  Cd2  1  0.403142  0.866839  0.354921  1
  Cd  Cd3  1  0.403142  0.221760  0.645079  1
  Cd  Cd4  1  0.743419  0.786852  0.762182  1
  B  B5  1  0.354689  0.925793  0.000000  1
  B  B6  1  0.985020  0.167270  0.392748  1
  B  B7  1  0.985020  0.560016  0.607253  1
  O  O8  1  0.445860  0.097203  0.000000  1
  O  O9  1  0.309849  0.765179  0.149520  1
  O  O10  1  0.969300  0.079322  0.290380  1
  O  O11  1  0.187372  0.346458  0.345771  1
  O  O12  1  0.793285  0.624347  0.456499  1
  O  O13  1  0.793285  0.080846  0.543501  1
  O  O14  1  0.187372  0.692230  0.654229  1
  O  O15  1  0.969300  0.369703  0.709620  1
  O  O16  1  0.309849  0.914698  0.850481  1
  F  F17  1  0.642273  0.481771  0.000000  1
