# generated using pymatgen
data_MgSc2SnRh4
_symmetry_space_group_name_H-M   'P 1'
_cell_length_a   6.26307300
_cell_length_b   6.26033400
_cell_length_c   6.70773500
_cell_angle_alpha   90.00000000
_cell_angle_beta   89.99977736
_cell_angle_gamma   90.00000000
_symmetry_Int_Tables_number   1
_chemical_formula_structural   MgSc2SnRh4
_chemical_formula_sum   'Mg2 Sc4 Sn2 Rh8'
_cell_volume   263.00310433
_cell_formula_units_Z   2
loop_
 _symmetry_equiv_pos_site_id
 _symmetry_equiv_pos_as_xyz
  1  'x, y, z'
loop_
 _atom_site_type_symbol
 _atom_site_label
 _atom_site_symmetry_multiplicity
 _atom_site_fract_x
 _atom_site_fract_y
 _atom_site_fract_z
 _atom_site_occupancy
  Mg  Mg0  1  0.750002  0.250000  0.499994  1
  Mg  Mg1  1  0.249997  0.750001  0.500006  1
  Sc  Sc2  1  0.250013  0.250000  0.000000  1
  Sc  Sc3  1  0.749987  0.750001  0.000000  1
  Sc  Sc4  1  0.249975  0.250000  0.499999  1
  Sc  Sc5  1  0.750025  0.750001  0.500002  1
  Sn  Sn6  1  0.749961  0.250000  0.999992  1
  Sn  Sn7  1  0.250039  0.750001  0.000008  1
  Rh  Rh8  1  0.000002  0.999995  0.250939  1
  Rh  Rh9  1  0.000002  0.500006  0.250939  1
  Rh  Rh10  1  0.500003  0.999996  0.250956  1
  Rh  Rh11  1  0.500003  0.500005  0.250956  1
  Rh  Rh12  1  0.499999  0.000004  0.749044  1
  Rh  Rh13  1  0.499999  0.499995  0.749044  1
  Rh  Rh14  1  0.999998  0.000005  0.749062  1
  Rh  Rh15  1  0.999998  0.499994  0.749062  1
