# generated using pymatgen
data_Dy5B4P8Ir19
_symmetry_space_group_name_H-M   'P 1'
_cell_length_a   12.42780916
_cell_length_b   12.40061574
_cell_length_c   3.96441300
_cell_angle_alpha   90.00000000
_cell_angle_beta   90.00000000
_cell_angle_gamma   119.69051107
_symmetry_Int_Tables_number   1
_chemical_formula_structural   Dy5B4P8Ir19
_chemical_formula_sum   'Dy5 B4 P8 Ir19'
_cell_volume   530.75404936
_cell_formula_units_Z   1
loop_
 _symmetry_equiv_pos_site_id
 _symmetry_equiv_pos_as_xyz
  1  'x, y, z'
loop_
 _atom_site_type_symbol
 _atom_site_label
 _atom_site_symmetry_multiplicity
 _atom_site_fract_x
 _atom_site_fract_y
 _atom_site_fract_z
 _atom_site_occupancy
  Dy  Dy0  1  0.332651  0.666486  0.500000  1
  Dy  Dy1  1  0.674480  0.331206  0.500000  1
  Dy  Dy2  1  0.182551  0.187628  0.000000  1
  Dy  Dy3  1  0.814850  0.002736  0.000000  1
  Dy  Dy4  1  0.001807  0.815775  0.000000  1
  B  B5  1  0.305015  0.816000  0.000000  1
  B  B6  1  0.178041  0.486714  0.000000  1
  B  B7  1  0.510842  0.692594  0.000000  1
  B  B8  1  0.824171  0.303296  0.000000  1
  P  P9  1  0.486358  0.173447  0.000000  1
  P  P10  1  0.692773  0.514225  0.000000  1
  P  P11  1  0.359011  0.364716  0.500000  1
  P  P12  1  0.639606  0.000856  0.500000  1
  P  P13  1  0.006071  0.639441  0.500000  1
  P  P14  1  0.816346  0.819835  0.500000  1
  P  P15  1  0.180532  0.998466  0.500000  1
  P  P16  1  0.002139  0.186105  0.500000  1
  Ir  Ir17  1  0.199855  0.818215  0.500000  1
  Ir  Ir18  1  0.181694  0.382395  0.500000  1
  Ir  Ir19  1  0.619198  0.803486  0.500000  1
  Ir  Ir20  1  0.821878  0.201194  0.500000  1
  Ir  Ir21  1  0.376008  0.181268  0.500000  1
  Ir  Ir22  1  0.806721  0.623502  0.500000  1
  Ir  Ir23  1  0.134777  0.637549  0.000000  1
  Ir  Ir24  1  0.359802  0.500040  0.000000  1
  Ir  Ir25  1  0.497735  0.859538  0.000000  1
  Ir  Ir26  1  0.642943  0.129594  0.000000  1
  Ir  Ir27  1  0.490763  0.363512  0.000000  1
  Ir  Ir28  1  0.869790  0.498323  0.000000  1
  Ir  Ir29  1  0.539412  0.548999  0.500000  1
  Ir  Ir30  1  0.453790  0.994854  0.500000  1
  Ir  Ir31  1  0.003222  0.455598  0.500000  1
  Ir  Ir32  1  0.701090  0.706932  0.000000  1
  Ir  Ir33  1  0.292826  0.994137  0.000000  1
  Ir  Ir34  1  0.001990  0.300451  0.000000  1
  Ir  Ir35  1  0.999262  0.000891  0.500000  1
