# generated using pymatgen
data_KPrNd5IrBr12
_symmetry_space_group_name_H-M   'P 1'
_cell_length_a   9.67034501
_cell_length_b   9.53649320
_cell_length_c   9.54732394
_cell_angle_alpha   105.36142854
_cell_angle_beta   105.71592513
_cell_angle_gamma   105.61406853
_symmetry_Int_Tables_number   1
_chemical_formula_structural   KPrNd5IrBr12
_chemical_formula_sum   'K1 Pr1 Nd5 Ir1 Br12'
_cell_volume   760.15492020
_cell_formula_units_Z   1
loop_
 _symmetry_equiv_pos_site_id
 _symmetry_equiv_pos_as_xyz
  1  'x, y, z'
loop_
 _atom_site_type_symbol
 _atom_site_label
 _atom_site_symmetry_multiplicity
 _atom_site_fract_x
 _atom_site_fract_y
 _atom_site_fract_z
 _atom_site_occupancy
  K  K0  1  0.499882  0.500379  0.499431  1
  Pr  Pr1  1  0.895027  0.689016  0.981681  1
  Nd  Nd2  1  0.104599  0.308802  0.018541  1
  Nd  Nd3  1  0.320006  0.018811  0.109972  1
  Nd  Nd4  1  0.018840  0.104321  0.308483  1
  Nd  Nd5  1  0.981422  0.896653  0.692068  1
  Nd  Nd6  1  0.679796  0.980571  0.890203  1
  Ir  Ir7  1  0.000044  0.999981  0.000367  1
  Br  Br8  1  0.217169  0.677495  0.074333  1
  Br  Br9  1  0.435437  0.347644  0.126829  1
  Br  Br10  1  0.679826  0.074883  0.215774  1
  Br  Br11  1  0.926677  0.785122  0.324718  1
  Br  Br12  1  0.128504  0.436965  0.348329  1
  Br  Br13  1  0.347690  0.127619  0.437395  1
  Br  Br14  1  0.652512  0.873238  0.562915  1
  Br  Br15  1  0.871144  0.563210  0.649081  1
  Br  Br16  1  0.074360  0.216885  0.678273  1
  Br  Br17  1  0.320246  0.925881  0.784602  1
  Br  Br18  1  0.562167  0.651772  0.871690  1
  Br  Br19  1  0.784656  0.320753  0.925320  1
