# generated using pymatgen
data_Tm4Lu8Ru3Rh
_symmetry_space_group_name_H-M   'P 1'
_cell_length_a   6.20218306
_cell_length_b   7.20752910
_cell_length_c   8.95255800
_cell_angle_alpha   90.00000000
_cell_angle_beta   90.00000000
_cell_angle_gamma   89.97655407
_symmetry_Int_Tables_number   1
_chemical_formula_structural   Tm4Lu8Ru3Rh
_chemical_formula_sum   'Tm4 Lu8 Ru3 Rh1'
_cell_volume   400.20092864
_cell_formula_units_Z   1
loop_
 _symmetry_equiv_pos_site_id
 _symmetry_equiv_pos_as_xyz
  1  'x, y, z'
loop_
 _atom_site_type_symbol
 _atom_site_label
 _atom_site_symmetry_multiplicity
 _atom_site_fract_x
 _atom_site_fract_y
 _atom_site_fract_z
 _atom_site_occupancy
  Tm  Tm0  1  0.871642  0.538552  0.250000  1
  Tm  Tm1  1  0.628853  0.038703  0.250000  1
  Tm  Tm2  1  0.126735  0.460722  0.750000  1
  Tm  Tm3  1  0.370509  0.961670  0.750000  1
  Lu  Lu4  1  0.332577  0.674362  0.061592  1
  Lu  Lu5  1  0.169997  0.179418  0.438233  1
  Lu  Lu6  1  0.669571  0.323431  0.563298  1
  Lu  Lu7  1  0.827939  0.822486  0.934410  1
  Lu  Lu8  1  0.669571  0.323431  0.936702  1
  Lu  Lu9  1  0.827939  0.822486  0.565590  1
  Lu  Lu10  1  0.332577  0.674362  0.438408  1
  Lu  Lu11  1  0.169997  0.179418  0.061767  1
  Ru  Ru12  1  0.461911  0.385138  0.250000  1
  Ru  Ru13  1  0.961681  0.114105  0.750000  1
  Ru  Ru14  1  0.535039  0.615159  0.750000  1
  Rh  Rh15  1  0.043463  0.886557  0.250000  1
