# generated using pymatgen
data_Tm3ScO6
_symmetry_space_group_name_H-M   'P 1'
_cell_length_a   6.51562201
_cell_length_b   6.51562252
_cell_length_c   6.51562214
_cell_angle_alpha   91.95245093
_cell_angle_beta   91.95244619
_cell_angle_gamma   91.95244744
_symmetry_Int_Tables_number   1
_chemical_formula_structural   Tm3ScO6
_chemical_formula_sum   'Tm6 Sc2 O12'
_cell_volume   276.11688103
_cell_formula_units_Z   2
loop_
 _symmetry_equiv_pos_site_id
 _symmetry_equiv_pos_as_xyz
  1  'x, y, z'
loop_
 _atom_site_type_symbol
 _atom_site_label
 _atom_site_symmetry_multiplicity
 _atom_site_fract_x
 _atom_site_fract_y
 _atom_site_fract_z
 _atom_site_occupancy
  Tm  Tm0  1  0.747241  0.931443  0.439136  1
  Tm  Tm1  1  0.931443  0.439136  0.747241  1
  Tm  Tm2  1  0.439136  0.747241  0.931443  1
  Tm  Tm3  1  0.252759  0.068557  0.560864  1
  Tm  Tm4  1  0.068557  0.560864  0.252759  1
  Tm  Tm5  1  0.560864  0.252759  0.068557  1
  Sc  Sc6  1  0.500000  0.500000  0.500000  1
  Sc  Sc7  1  0.000000  0.000000  0.000000  1
  O  O8  1  0.594477  0.463597  0.809041  1
  O  O9  1  0.463597  0.809041  0.594477  1
  O  O10  1  0.809041  0.594477  0.463597  1
  O  O11  1  0.405523  0.536403  0.190959  1
  O  O12  1  0.536403  0.190959  0.405523  1
  O  O13  1  0.190959  0.405523  0.536403  1
  O  O14  1  0.070159  0.912981  0.309012  1
  O  O15  1  0.912981  0.309012  0.070159  1
  O  O16  1  0.690988  0.929841  0.087019  1
  O  O17  1  0.087019  0.690988  0.929841  1
  O  O18  1  0.929841  0.087019  0.690988  1
  O  O19  1  0.309012  0.070159  0.912981  1
