# generated using pymatgen
data_KRbHo6F20
_symmetry_space_group_name_H-M   'P 1'
_cell_length_a   8.24274018
_cell_length_b   8.24271492
_cell_length_c   8.24269200
_cell_angle_alpha   59.99897698
_cell_angle_beta   59.99899358
_cell_angle_gamma   59.99964780
_symmetry_Int_Tables_number   1
_chemical_formula_structural   KRbHo6F20
_chemical_formula_sum   'K1 Rb1 Ho6 F20'
_cell_volume   395.99358243
_cell_formula_units_Z   1
loop_
 _symmetry_equiv_pos_site_id
 _symmetry_equiv_pos_as_xyz
  1  'x, y, z'
loop_
 _atom_site_type_symbol
 _atom_site_label
 _atom_site_symmetry_multiplicity
 _atom_site_fract_x
 _atom_site_fract_y
 _atom_site_fract_z
 _atom_site_occupancy
  K  K0  1  0.749982  0.749998  0.750068  1
  Rb  Rb1  1  0.249949  0.250029  0.249957  1
  Ho  Ho2  1  0.759532  0.240457  0.240468  1
  Ho  Ho3  1  0.240470  0.759541  0.759530  1
  Ho  Ho4  1  0.240457  0.759536  0.240467  1
  Ho  Ho5  1  0.759543  0.240466  0.759533  1
  Ho  Ho6  1  0.240465  0.240461  0.759532  1
  Ho  Ho7  1  0.759536  0.759542  0.240469  1
  F  F8  1  0.829034  0.500084  0.500077  1
  F  F9  1  0.170818  0.500079  0.500081  1
  F  F10  1  0.500082  0.829030  0.170805  1
  F  F11  1  0.500089  0.170802  0.829023  1
  F  F12  1  0.500083  0.829021  0.500082  1
  F  F13  1  0.170821  0.500078  0.829024  1
  F  F14  1  0.500084  0.170804  0.500085  1
  F  F15  1  0.829022  0.500086  0.170805  1
  F  F16  1  0.500089  0.500083  0.829021  1
  F  F17  1  0.500085  0.500086  0.170800  1
  F  F18  1  0.170814  0.829023  0.500083  1
  F  F19  1  0.829036  0.170808  0.500077  1
  F  F20  1  0.109171  0.109168  0.109172  1
  F  F21  1  0.887612  0.887611  0.887609  1
  F  F22  1  0.109173  0.109171  0.672484  1
  F  F23  1  0.109170  0.672491  0.109167  1
  F  F24  1  0.887607  0.887602  0.337185  1
  F  F25  1  0.887613  0.337170  0.887613  1
  F  F26  1  0.672481  0.109165  0.109175  1
  F  F27  1  0.337183  0.887608  0.887607  1
