# generated using pymatgen
data_Dy9Ho3Os3Ru
_symmetry_space_group_name_H-M   'P 1'
_cell_length_a   6.31541707
_cell_length_b   7.36229809
_cell_length_c   9.09264190
_cell_angle_alpha   89.99825278
_cell_angle_beta   90.05115849
_cell_angle_gamma   89.97828933
_symmetry_Int_Tables_number   1
_chemical_formula_structural   Dy9Ho3Os3Ru
_chemical_formula_sum   'Dy9 Ho3 Os3 Ru1'
_cell_volume   422.77112455
_cell_formula_units_Z   1
loop_
 _symmetry_equiv_pos_site_id
 _symmetry_equiv_pos_as_xyz
  1  'x, y, z'
loop_
 _atom_site_type_symbol
 _atom_site_label
 _atom_site_symmetry_multiplicity
 _atom_site_fract_x
 _atom_site_fract_y
 _atom_site_fract_z
 _atom_site_occupancy
  Dy  Dy0  1  0.329666  0.676198  0.064659  1
  Dy  Dy1  1  0.169331  0.175576  0.436906  1
  Dy  Dy2  1  0.668700  0.324329  0.563234  1
  Dy  Dy3  1  0.832394  0.825245  0.937225  1
  Dy  Dy4  1  0.668728  0.324085  0.936716  1
  Dy  Dy5  1  0.868582  0.538657  0.250208  1
  Dy  Dy6  1  0.631165  0.038907  0.250084  1
  Dy  Dy7  1  0.133106  0.460835  0.749863  1
  Dy  Dy8  1  0.368568  0.959283  0.749844  1
  Ho  Ho9  1  0.832313  0.825349  0.562575  1
  Ho  Ho10  1  0.329765  0.675839  0.435568  1
  Ho  Ho11  1  0.169316  0.175382  0.063110  1
  Os  Os12  1  0.039431  0.883853  0.250389  1
  Os  Os13  1  0.460055  0.384295  0.249888  1
  Os  Os14  1  0.960901  0.115946  0.750244  1
  Ru  Ru15  1  0.537974  0.616223  0.749487  1
