# generated using pymatgen
data_LiCaDyZnSi3
_symmetry_space_group_name_H-M   'P 1'
_cell_length_a   9.32070370
_cell_length_b   9.32070386
_cell_length_c   6.70996100
_cell_angle_alpha   90.00000000
_cell_angle_beta   90.00000000
_cell_angle_gamma   153.37289464
_symmetry_Int_Tables_number   1
_chemical_formula_structural   LiCaDyZnSi3
_chemical_formula_sum   'Li2 Ca2 Dy2 Zn2 Si6'
_cell_volume   261.25936013
_cell_formula_units_Z   2
loop_
 _symmetry_equiv_pos_site_id
 _symmetry_equiv_pos_as_xyz
  1  'x, y, z'
loop_
 _atom_site_type_symbol
 _atom_site_label
 _atom_site_symmetry_multiplicity
 _atom_site_fract_x
 _atom_site_fract_y
 _atom_site_fract_z
 _atom_site_occupancy
  Li  Li0  1  0.812152  0.187848  0.938381  1
  Li  Li1  1  0.187848  0.812152  0.438381  1
  Ca  Ca2  1  0.655918  0.344082  0.744597  1
  Ca  Ca3  1  0.344082  0.655918  0.244597  1
  Dy  Dy4  1  0.450670  0.549330  0.755932  1
  Dy  Dy5  1  0.549330  0.450670  0.255932  1
  Zn  Zn6  1  0.193316  0.806684  0.054954  1
  Zn  Zn7  1  0.806684  0.193316  0.554954  1
  Si  Si8  1  0.282162  0.717838  0.748285  1
  Si  Si9  1  0.717838  0.282162  0.248285  1
  Si  Si10  1  0.939454  0.060546  0.430422  1
  Si  Si11  1  0.056268  0.943732  0.577431  1
  Si  Si12  1  0.943732  0.056268  0.077431  1
  Si  Si13  1  0.060546  0.939454  0.930422  1
