# generated using pymatgen
data_Pu2Ga3Tc
_symmetry_space_group_name_H-M   'P 1'
_cell_length_a   5.37416601
_cell_length_b   5.50357121
_cell_length_c   5.50357100
_cell_angle_alpha   60.00000727
_cell_angle_beta   59.20022786
_cell_angle_gamma   59.20023662
_symmetry_Int_Tables_number   1
_chemical_formula_structural   Pu2Ga3Tc
_chemical_formula_sum   'Pu2 Ga3 Tc1'
_cell_volume   113.69153705
_cell_formula_units_Z   1
loop_
 _symmetry_equiv_pos_site_id
 _symmetry_equiv_pos_as_xyz
  1  'x, y, z'
loop_
 _atom_site_type_symbol
 _atom_site_label
 _atom_site_symmetry_multiplicity
 _atom_site_fract_x
 _atom_site_fract_y
 _atom_site_fract_z
 _atom_site_occupancy
  Pu  Pu0  1  0.255057  0.248314  0.248314  1
  Pu  Pu1  1  0.994943  0.001686  0.001686  1
  Ga  Ga2  1  0.625000  0.125000  0.625000  1
  Ga  Ga3  1  0.625000  0.625000  0.125000  1
  Ga  Ga4  1  0.625000  0.625000  0.625000  1
  Tc  Tc5  1  0.125000  0.625000  0.625000  1
