# generated using pymatgen
data_Tm9LuZnSb5
_symmetry_space_group_name_H-M   'P 1'
_cell_length_a   8.76413411
_cell_length_b   8.78282352
_cell_length_c   6.30532515
_cell_angle_alpha   90.00960737
_cell_angle_beta   90.01538273
_cell_angle_gamma   119.93984004
_symmetry_Int_Tables_number   1
_chemical_formula_structural   Tm9LuZnSb5
_chemical_formula_sum   'Tm9 Lu1 Zn1 Sb5'
_cell_volume   420.57572573
_cell_formula_units_Z   1
loop_
 _symmetry_equiv_pos_site_id
 _symmetry_equiv_pos_as_xyz
  1  'x, y, z'
loop_
 _atom_site_type_symbol
 _atom_site_label
 _atom_site_symmetry_multiplicity
 _atom_site_fract_x
 _atom_site_fract_y
 _atom_site_fract_z
 _atom_site_occupancy
  Tm  Tm0  1  0.664495  0.322306  0.499017  1
  Tm  Tm1  1  0.664578  0.322639  0.000954  1
  Tm  Tm2  1  0.342387  0.677879  0.498837  1
  Tm  Tm3  1  0.245750  0.999777  0.249959  1
  Tm  Tm4  1  0.759158  0.999932  0.750210  1
  Tm  Tm5  1  0.985885  0.232080  0.249901  1
  Tm  Tm6  1  0.753893  0.767983  0.249999  1
  Tm  Tm7  1  0.243023  0.242055  0.750055  1
  Tm  Tm8  1  0.001149  0.757598  0.749990  1
  Lu  Lu9  1  0.342585  0.678063  0.001184  1
  Zn  Zn10  1  0.603150  0.999385  0.249594  1
  Sb  Sb11  1  0.392898  0.999632  0.750419  1
  Sb  Sb12  1  0.997082  0.608422  0.249660  1
  Sb  Sb13  1  0.388614  0.392000  0.249698  1
  Sb  Sb14  1  0.609901  0.604816  0.750204  1
  Sb  Sb15  1  0.005452  0.395432  0.750320  1
