# generated using pymatgen
data_Tc5MoPt2
_symmetry_space_group_name_H-M   'P 1'
_cell_length_a   5.59857200
_cell_length_b   5.58413935
_cell_length_c   4.40808100
_cell_angle_alpha   90.00000000
_cell_angle_beta   90.00000000
_cell_angle_gamma   120.08553410
_symmetry_Int_Tables_number   1
_chemical_formula_structural   Tc5MoPt2
_chemical_formula_sum   'Tc5 Mo1 Pt2'
_cell_volume   119.24460783
_cell_formula_units_Z   1
loop_
 _symmetry_equiv_pos_site_id
 _symmetry_equiv_pos_as_xyz
  1  'x, y, z'
loop_
 _atom_site_type_symbol
 _atom_site_label
 _atom_site_symmetry_multiplicity
 _atom_site_fract_x
 _atom_site_fract_y
 _atom_site_fract_z
 _atom_site_occupancy
  Tc  Tc0  1  0.685046  0.841858  0.250000  1
  Tc  Tc1  1  0.156812  0.841858  0.250000  1
  Tc  Tc2  1  0.843169  0.686336  0.750000  1
  Tc  Tc3  1  0.314203  0.154258  0.750000  1
  Tc  Tc4  1  0.840057  0.154258  0.750000  1
  Mo  Mo5  1  0.158596  0.317193  0.250000  1
  Pt  Pt6  1  0.334727  0.669456  0.750000  1
  Pt  Pt7  1  0.667391  0.334782  0.250000  1
