# generated using pymatgen
data_Nd4DyIrOs
_symmetry_space_group_name_H-M   'P 1'
_cell_length_a   6.61507960
_cell_length_b   7.34270035
_cell_length_c   8.80702108
_cell_angle_alpha   96.44871757
_cell_angle_beta   112.05876508
_cell_angle_gamma   89.99999227
_symmetry_Int_Tables_number   1
_chemical_formula_structural   Nd4DyIrOs
_chemical_formula_sum   'Nd8 Dy2 Ir2 Os2'
_cell_volume   393.54367177
_cell_formula_units_Z   2
loop_
 _symmetry_equiv_pos_site_id
 _symmetry_equiv_pos_as_xyz
  1  'x, y, z'
loop_
 _atom_site_type_symbol
 _atom_site_label
 _atom_site_symmetry_multiplicity
 _atom_site_fract_x
 _atom_site_fract_y
 _atom_site_fract_z
 _atom_site_occupancy
  Nd  Nd0  1  0.792632  0.082492  0.819790  1
  Nd  Nd1  1  0.972842  0.417508  0.180210  1
  Nd  Nd2  1  0.204970  0.919861  0.183082  1
  Nd  Nd3  1  0.021888  0.580139  0.816918  1
  Nd  Nd4  1  0.214058  0.185327  0.564645  1
  Nd  Nd5  1  0.649413  0.314673  0.435355  1
  Nd  Nd6  1  0.787130  0.816633  0.431823  1
  Nd  Nd7  1  0.355308  0.683367  0.568177  1
  Dy  Dy8  1  0.432559  0.250000  0.000000  1
  Dy  Dy9  1  0.567576  0.750000  0.000000  1
  Ir  Ir10  1  0.399744  0.572700  0.214942  1
  Ir  Ir11  1  0.184802  0.927300  0.785058  1
  Os  Os12  1  0.601640  0.429214  0.786201  1
  Os  Os13  1  0.815439  0.070786  0.213799  1
