# generated using pymatgen
data_Dy5Tm5Si5Ge
_symmetry_space_group_name_H-M   'P 1'
_cell_length_a   8.38957692
_cell_length_b   8.39961561
_cell_length_c   6.28973600
_cell_angle_alpha   90.00000000
_cell_angle_beta   90.00000000
_cell_angle_gamma   120.04933496
_symmetry_Int_Tables_number   1
_chemical_formula_structural   Dy5Tm5Si5Ge
_chemical_formula_sum   'Dy5 Tm5 Si5 Ge1'
_cell_volume   383.65989616
_cell_formula_units_Z   1
loop_
 _symmetry_equiv_pos_site_id
 _symmetry_equiv_pos_as_xyz
  1  'x, y, z'
loop_
 _atom_site_type_symbol
 _atom_site_label
 _atom_site_symmetry_multiplicity
 _atom_site_fract_x
 _atom_site_fract_y
 _atom_site_fract_z
 _atom_site_occupancy
  Dy  Dy0  1  0.758074  0.757666  0.250000  1
  Dy  Dy1  1  0.242793  0.998068  0.250000  1
  Dy  Dy2  1  0.998481  0.243766  0.250000  1
  Dy  Dy3  1  0.242860  0.242634  0.750000  1
  Dy  Dy4  1  0.756570  0.999622  0.750000  1
  Tm  Tm5  1  0.668082  0.333463  0.500918  1
  Tm  Tm6  1  0.332824  0.667844  0.500916  1
  Tm  Tm7  1  0.332824  0.667844  0.999084  1
  Tm  Tm8  1  0.668082  0.333463  0.999082  1
  Tm  Tm9  1  0.999871  0.756096  0.750000  1
  Si  Si10  1  0.604970  0.999775  0.250000  1
  Si  Si11  1  0.999885  0.604800  0.250000  1
  Si  Si12  1  0.606563  0.605748  0.750000  1
  Si  Si13  1  0.393652  0.999327  0.750000  1
  Si  Si14  1  0.000148  0.395665  0.750000  1
  Ge  Ge15  1  0.394319  0.394219  0.250000  1
