# generated using pymatgen
data_TbPr7SiAsBr12
_symmetry_space_group_name_H-M   'P 1'
_cell_length_a   4.24534300
_cell_length_b   13.75093732
_cell_length_c   14.57431718
_cell_angle_alpha   90.31763808
_cell_angle_beta   90.00000000
_cell_angle_gamma   90.00000000
_symmetry_Int_Tables_number   1
_chemical_formula_structural   TbPr7SiAsBr12
_chemical_formula_sum   'Tb1 Pr7 Si1 As1 Br12'
_cell_volume   850.79833274
_cell_formula_units_Z   1
loop_
 _symmetry_equiv_pos_site_id
 _symmetry_equiv_pos_as_xyz
  1  'x, y, z'
loop_
 _atom_site_type_symbol
 _atom_site_label
 _atom_site_symmetry_multiplicity
 _atom_site_fract_x
 _atom_site_fract_y
 _atom_site_fract_z
 _atom_site_occupancy
  Tb  Tb0  1  0.500000  0.381892  0.841548  1
  Pr  Pr1  1  0.500000  0.119368  0.340242  1
  Pr  Pr2  1  0.500000  0.881001  0.660183  1
  Pr  Pr3  1  0.500000  0.618581  0.158761  1
  Pr  Pr4  1  0.000000  0.119760  0.579641  1
  Pr  Pr5  1  0.000000  0.881879  0.421471  1
  Pr  Pr6  1  0.000000  0.619584  0.920001  1
  Pr  Pr7  1  0.000000  0.379596  0.078947  1
  Si  Si8  1  0.500000  0.498122  0.997501  1
  As  As9  1  0.500000  0.000755  0.500593  1
  Br  Br10  1  0.500000  0.242127  0.162230  1
  Br  Br11  1  0.500000  0.757226  0.837023  1
  Br  Br12  1  0.500000  0.743453  0.338557  1
  Br  Br13  1  0.500000  0.258885  0.667029  1
  Br  Br14  1  0.000000  0.256099  0.411919  1
  Br  Br15  1  0.000000  0.744095  0.588380  1
  Br  Br16  1  0.000000  0.755147  0.088575  1
  Br  Br17  1  0.000000  0.251564  0.904114  1
  Br  Br18  1  0.000000  0.000982  0.243090  1
  Br  Br19  1  0.000000  0.999135  0.757225  1
  Br  Br20  1  0.000000  0.501633  0.256213  1
  Br  Br21  1  0.000000  0.489115  0.746756  1
