# generated using pymatgen
data_Ba4La4Nd3DySe16
_symmetry_space_group_name_H-M   'P 1'
_cell_length_a   4.37423300
_cell_length_b   12.97223379
_cell_length_c   15.66510365
_cell_angle_alpha   89.81721486
_cell_angle_beta   90.00000000
_cell_angle_gamma   90.00000000
_symmetry_Int_Tables_number   1
_chemical_formula_structural   Ba4La4Nd3DySe16
_chemical_formula_sum   'Ba4 La4 Nd3 Dy1 Se16'
_cell_volume   888.88943096
_cell_formula_units_Z   1
loop_
 _symmetry_equiv_pos_site_id
 _symmetry_equiv_pos_as_xyz
  1  'x, y, z'
loop_
 _atom_site_type_symbol
 _atom_site_label
 _atom_site_symmetry_multiplicity
 _atom_site_fract_x
 _atom_site_fract_y
 _atom_site_fract_z
 _atom_site_occupancy
  Ba  Ba0  1  0.250000  0.754396  0.343425  1
  Ba  Ba1  1  0.250000  0.255110  0.160061  1
  Ba  Ba2  1  0.750000  0.242435  0.654359  1
  Ba  Ba3  1  0.750000  0.745431  0.841821  1
  La  La4  1  0.250000  0.420500  0.391787  1
  La  La5  1  0.250000  0.925627  0.112369  1
  La  La6  1  0.750000  0.575959  0.610732  1
  La  La7  1  0.750000  0.076964  0.889996  1
  Nd  Nd8  1  0.250000  0.421651  0.898111  1
  Nd  Nd9  1  0.250000  0.925463  0.599525  1
  Nd  Nd10  1  0.750000  0.577020  0.102641  1
  Dy  Dy11  1  0.750000  0.076381  0.396320  1
  Se  Se12  1  0.250000  0.213040  0.818026  1
  Se  Se13  1  0.250000  0.715134  0.678197  1
  Se  Se14  1  0.750000  0.786860  0.181528  1
  Se  Se15  1  0.750000  0.281730  0.323503  1
  Se  Se16  1  0.250000  0.132752  0.514871  1
  Se  Se17  1  0.250000  0.631868  0.978103  1
  Se  Se18  1  0.750000  0.872594  0.474582  1
  Se  Se19  1  0.750000  0.366960  0.022641  1
  Se  Se20  1  0.250000  0.514854  0.215514  1
  Se  Se21  1  0.250000  0.020269  0.288813  1
  Se  Se22  1  0.750000  0.483394  0.786009  1
  Se  Se23  1  0.750000  0.984374  0.712999  1
  Se  Se24  1  0.250000  0.419071  0.581799  1
  Se  Se25  1  0.250000  0.920163  0.921008  1
  Se  Se26  1  0.750000  0.578696  0.420370  1
  Se  Se27  1  0.750000  0.081303  0.080890  1
