# generated using pymatgen
data_NpSc3(TcB6)2
_symmetry_space_group_name_H-M   'P 1'
_cell_length_a   3.54891800
_cell_length_b   8.94167198
_cell_length_c   11.26327947
_cell_angle_alpha   90.19822680
_cell_angle_beta   90.00000000
_cell_angle_gamma   90.00000000
_symmetry_Int_Tables_number   1
_chemical_formula_structural   NpSc3(TcB6)2
_chemical_formula_sum   'Np2 Sc6 Tc4 B24'
_cell_volume   357.41844380
_cell_formula_units_Z   2
loop_
 _symmetry_equiv_pos_site_id
 _symmetry_equiv_pos_as_xyz
  1  'x, y, z'
loop_
 _atom_site_type_symbol
 _atom_site_label
 _atom_site_symmetry_multiplicity
 _atom_site_fract_x
 _atom_site_fract_y
 _atom_site_fract_z
 _atom_site_occupancy
  Np  Np0  1  0.500000  0.320776  0.414519  1
  Np  Np1  1  0.500000  0.679224  0.585481  1
  Sc  Sc2  1  0.500000  0.178132  0.915576  1
  Sc  Sc3  1  0.500000  0.821868  0.084424  1
  Sc  Sc4  1  0.500000  0.443909  0.126559  1
  Sc  Sc5  1  0.500000  0.556091  0.873441  1
  Sc  Sc6  1  0.500000  0.054464  0.629419  1
  Sc  Sc7  1  0.500000  0.945536  0.370581  1
  Tc  Tc8  1  0.500000  0.140684  0.180131  1
  Tc  Tc9  1  0.500000  0.859316  0.819869  1
  Tc  Tc10  1  0.500000  0.359827  0.680113  1
  Tc  Tc11  1  0.500000  0.640173  0.319887  1
  B  B12  1  0.000000  0.099712  0.472565  1
  B  B13  1  0.000000  0.900288  0.527435  1
  B  B14  1  0.000000  0.400323  0.972667  1
  B  B15  1  0.000000  0.599677  0.027333  1
  B  B16  1  0.000000  0.130467  0.316412  1
  B  B17  1  0.000000  0.869533  0.683588  1
  B  B18  1  0.000000  0.369080  0.819071  1
  B  B19  1  0.000000  0.630920  0.180929  1
  B  B20  1  0.000000  0.053451  0.064592  1
  B  B21  1  0.000000  0.946549  0.935408  1
  B  B22  1  0.000000  0.446467  0.567279  1
  B  B23  1  0.000000  0.553533  0.432721  1
  B  B24  1  0.000000  0.481144  0.284686  1
  B  B25  1  0.000000  0.518856  0.715314  1
  B  B26  1  0.000000  0.020031  0.788915  1
  B  B27  1  0.000000  0.979969  0.211085  1
  B  B28  1  0.000000  0.252382  0.077701  1
  B  B29  1  0.000000  0.747618  0.922299  1
  B  B30  1  0.000000  0.246147  0.581511  1
  B  B31  1  0.000000  0.753853  0.418489  1
  B  B32  1  0.000000  0.295071  0.233783  1
  B  B33  1  0.000000  0.704929  0.766217  1
  B  B34  1  0.000000  0.204314  0.737993  1
  B  B35  1  0.000000  0.795686  0.262007  1
