# generated using pymatgen
data_Tb2HfZr(Al3Ir)6
_symmetry_space_group_name_H-M   'P 1'
_cell_length_a   7.51777016
_cell_length_b   7.50280492
_cell_length_c   9.35943200
_cell_angle_alpha   90.00000000
_cell_angle_beta   90.00000000
_cell_angle_gamma   119.71768702
_symmetry_Int_Tables_number   1
_chemical_formula_structural   Tb2HfZr(Al3Ir)6
_chemical_formula_sum   'Tb2 Hf1 Zr1 Al18 Ir6'
_cell_volume   458.48093000
_cell_formula_units_Z   1
loop_
 _symmetry_equiv_pos_site_id
 _symmetry_equiv_pos_as_xyz
  1  'x, y, z'
loop_
 _atom_site_type_symbol
 _atom_site_label
 _atom_site_symmetry_multiplicity
 _atom_site_fract_x
 _atom_site_fract_y
 _atom_site_fract_z
 _atom_site_occupancy
  Tb  Tb0  1  0.670527  0.994368  0.250000  1
  Tb  Tb1  1  0.329423  0.005756  0.750000  1
  Hf  Hf2  1  0.004797  0.328405  0.750000  1
  Zr  Zr3  1  0.994950  0.670852  0.250000  1
  Al  Al4  1  0.126743  0.124751  0.250000  1
  Al  Al5  1  0.872961  0.875184  0.750000  1
  Al  Al6  1  0.000224  0.337158  0.074745  1
  Al  Al7  1  0.999845  0.662703  0.925104  1
  Al  Al8  1  0.999845  0.662703  0.574896  1
  Al  Al9  1  0.332140  0.998505  0.422160  1
  Al  Al10  1  0.000224  0.337158  0.425255  1
  Al  Al11  1  0.668024  0.001666  0.578060  1
  Al  Al12  1  0.668024  0.001666  0.921940  1
  Al  Al13  1  0.332140  0.998505  0.077840  1
  Al  Al14  1  0.331263  0.333845  0.556246  1
  Al  Al15  1  0.668613  0.666204  0.444201  1
  Al  Al16  1  0.668613  0.666204  0.055799  1
  Al  Al17  1  0.331263  0.333845  0.943754  1
  Al  Al18  1  0.334330  0.547389  0.250000  1
  Al  Al19  1  0.665811  0.452758  0.750000  1
  Al  Al20  1  0.553545  0.344074  0.250000  1
  Al  Al21  1  0.446226  0.655511  0.750000  1
  Ir  Ir22  1  0.672692  0.327824  0.999081  1
  Ir  Ir23  1  0.327339  0.671828  0.999917  1
  Ir  Ir24  1  0.327339  0.671828  0.500083  1
  Ir  Ir25  1  0.672692  0.327824  0.500919  1
  Ir  Ir26  1  0.000204  0.000744  0.999323  1
  Ir  Ir27  1  0.000204  0.000744  0.500677  1
