# generated using pymatgen
data_Mg4Zn6NiOs
_symmetry_space_group_name_H-M   'P 1'
_cell_length_a   5.10674039
_cell_length_b   5.18021576
_cell_length_c   8.34823000
_cell_angle_alpha   90.00000000
_cell_angle_beta   90.00000000
_cell_angle_gamma   119.64293528
_symmetry_Int_Tables_number   1
_chemical_formula_structural   Mg4Zn6NiOs
_chemical_formula_sum   'Mg4 Zn6 Ni1 Os1'
_cell_volume   191.94113097
_cell_formula_units_Z   1
loop_
 _symmetry_equiv_pos_site_id
 _symmetry_equiv_pos_as_xyz
  1  'x, y, z'
loop_
 _atom_site_type_symbol
 _atom_site_label
 _atom_site_symmetry_multiplicity
 _atom_site_fract_x
 _atom_site_fract_y
 _atom_site_fract_z
 _atom_site_occupancy
  Mg  Mg0  1  0.323062  0.649399  0.064957  1
  Mg  Mg1  1  0.670967  0.333093  0.570367  1
  Mg  Mg2  1  0.670967  0.333093  0.929633  1
  Mg  Mg3  1  0.323062  0.649399  0.435043  1
  Zn  Zn4  1  0.001615  0.028191  0.005030  1
  Zn  Zn5  1  0.001615  0.028191  0.494970  1
  Zn  Zn6  1  0.347581  0.154988  0.250000  1
  Zn  Zn7  1  0.662007  0.828067  0.750000  1
  Zn  Zn8  1  0.169652  0.831719  0.750000  1
  Zn  Zn9  1  0.833615  0.659870  0.250000  1
  Ni  Ni10  1  0.821590  0.161018  0.250000  1
  Os  Os11  1  0.174269  0.342970  0.750000  1
