# generated using pymatgen
data_TaTiMn4(MoP2)2
_symmetry_space_group_name_H-M   'P 1'
_cell_length_a   3.58373400
_cell_length_b   6.06231366
_cell_length_c   6.99210685
_cell_angle_alpha   89.21012338
_cell_angle_beta   90.00000000
_cell_angle_gamma   90.00000000
_symmetry_Int_Tables_number   1
_chemical_formula_structural   TaTiMn4(MoP2)2
_chemical_formula_sum   'Ta1 Ti1 Mn4 Mo2 P4'
_cell_volume   151.89411755
_cell_formula_units_Z   1
loop_
 _symmetry_equiv_pos_site_id
 _symmetry_equiv_pos_as_xyz
  1  'x, y, z'
loop_
 _atom_site_type_symbol
 _atom_site_label
 _atom_site_symmetry_multiplicity
 _atom_site_fract_x
 _atom_site_fract_y
 _atom_site_fract_z
 _atom_site_occupancy
  Ta  Ta0  1  0.750000  0.472833  0.673875  1
  Ti  Ti1  1  0.750000  0.973030  0.820313  1
  Mn  Mn2  1  0.750000  0.360068  0.061455  1
  Mn  Mn3  1  0.250000  0.639395  0.942279  1
  Mn  Mn4  1  0.750000  0.856430  0.441446  1
  Mn  Mn5  1  0.250000  0.146154  0.555769  1
  Mo  Mo6  1  0.250000  0.532422  0.330733  1
  Mo  Mo7  1  0.250000  0.022901  0.172705  1
  P  P8  1  0.250000  0.778969  0.625242  1
  P  P9  1  0.750000  0.222842  0.372469  1
  P  P10  1  0.250000  0.262848  0.872455  1
  P  P11  1  0.750000  0.732104  0.131259  1
