# generated using pymatgen
data_Nd3Er2Bi3O14
_symmetry_space_group_name_H-M   'P 1'
_cell_length_a   6.66774751
_cell_length_b   6.72352515
_cell_length_c   7.82778041
_cell_angle_alpha   106.68494051
_cell_angle_beta   89.69343494
_cell_angle_gamma   98.78962485
_symmetry_Int_Tables_number   1
_chemical_formula_structural   Nd3Er2Bi3O14
_chemical_formula_sum   'Nd3 Er2 Bi3 O14'
_cell_volume   331.92785187
_cell_formula_units_Z   1
loop_
 _symmetry_equiv_pos_site_id
 _symmetry_equiv_pos_as_xyz
  1  'x, y, z'
loop_
 _atom_site_type_symbol
 _atom_site_label
 _atom_site_symmetry_multiplicity
 _atom_site_fract_x
 _atom_site_fract_y
 _atom_site_fract_z
 _atom_site_occupancy
  Nd  Nd0  1  0.270801  0.538097  0.883490  1
  Nd  Nd1  1  0.739859  0.455714  0.113805  1
  Nd  Nd2  1  0.749215  0.480901  0.618167  1
  Er  Er3  1  0.459599  0.009651  0.256364  1
  Er  Er4  1  0.536541  0.999212  0.747992  1
  Bi  Bi5  1  0.994409  0.998887  0.500042  1
  Bi  Bi6  1  0.998754  0.995872  0.997664  1
  Bi  Bi7  1  0.285288  0.540150  0.389498  1
  O  O8  1  0.450070  0.662861  0.175840  1
  O  O9  1  0.554917  0.344332  0.832215  1
  O  O10  1  0.304032  0.933323  0.951961  1
  O  O11  1  0.695792  0.062746  0.050436  1
  O  O12  1  0.298693  0.937507  0.518654  1
  O  O13  1  0.696401  0.074071  0.486893  1
  O  O14  1  0.539494  0.354782  0.342425  1
  O  O15  1  0.461222  0.650911  0.654669  1
  O  O16  1  0.927869  0.663475  0.943078  1
  O  O17  1  0.067613  0.321441  0.032890  1
  O  O18  1  0.068883  0.332507  0.622737  1
  O  O19  1  0.911706  0.666448  0.386735  1
  O  O20  1  0.869161  0.913382  0.728713  1
  O  O21  1  0.119678  0.063732  0.265728  1
