# generated using pymatgen
data_Ga2HgPd7
_symmetry_space_group_name_H-M   'P 1'
_cell_length_a   7.47216887
_cell_length_b   7.47216912
_cell_length_c   5.62419539
_cell_angle_alpha   71.37417490
_cell_angle_beta   71.37417691
_cell_angle_gamma   32.14802697
_symmetry_Int_Tables_number   1
_chemical_formula_structural   Ga2HgPd7
_chemical_formula_sum   'Ga2 Hg1 Pd7'
_cell_volume   157.59140108
_cell_formula_units_Z   1
loop_
 _symmetry_equiv_pos_site_id
 _symmetry_equiv_pos_as_xyz
  1  'x, y, z'
loop_
 _atom_site_type_symbol
 _atom_site_label
 _atom_site_symmetry_multiplicity
 _atom_site_fract_x
 _atom_site_fract_y
 _atom_site_fract_z
 _atom_site_occupancy
  Ga  Ga0  1  0.189252  0.189252  0.342423  1
  Ga  Ga1  1  0.810748  0.810748  0.657577  1
  Hg  Hg2  1  0.000000  0.000000  0.000000  1
  Pd  Pd3  1  0.000000  0.000000  0.500000  1
  Pd  Pd4  1  0.209582  0.209582  0.856393  1
  Pd  Pd5  1  0.790418  0.790418  0.143607  1
  Pd  Pd6  1  0.376329  0.376329  0.362968  1
  Pd  Pd7  1  0.623671  0.623671  0.637032  1
  Pd  Pd8  1  0.405056  0.405056  0.830996  1
  Pd  Pd9  1  0.594944  0.594944  0.169004  1
