# generated using pymatgen
data_Na2Yb(SnAs)6
_symmetry_space_group_name_H-M   'P 1'
_cell_length_a   7.12344298
_cell_length_b   7.12344373
_cell_length_c   9.32950600
_cell_angle_alpha   82.74739937
_cell_angle_beta   82.74740671
_cell_angle_gamma   119.43184191
_symmetry_Int_Tables_number   1
_chemical_formula_structural   Na2Yb(SnAs)6
_chemical_formula_sum   'Na2 Yb1 Sn6 As6'
_cell_volume   399.18422360
_cell_formula_units_Z   1
loop_
 _symmetry_equiv_pos_site_id
 _symmetry_equiv_pos_as_xyz
  1  'x, y, z'
loop_
 _atom_site_type_symbol
 _atom_site_label
 _atom_site_symmetry_multiplicity
 _atom_site_fract_x
 _atom_site_fract_y
 _atom_site_fract_z
 _atom_site_occupancy
  Na  Na0  1  0.666558  0.333442  0.000000  1
  Na  Na1  1  0.333442  0.666558  0.000000  1
  Yb  Yb2  1  0.000000  0.000000  0.000000  1
  Sn  Sn3  1  0.547506  0.880010  0.366509  1
  Sn  Sn4  1  0.212977  0.212977  0.366273  1
  Sn  Sn5  1  0.880010  0.547506  0.366509  1
  Sn  Sn6  1  0.452494  0.119990  0.633491  1
  Sn  Sn7  1  0.119990  0.452494  0.633491  1
  Sn  Sn8  1  0.787023  0.787023  0.633727  1
  As  As9  1  0.402907  0.402907  0.786223  1
  As  As10  1  0.071356  0.739690  0.785979  1
  As  As11  1  0.739690  0.071356  0.785979  1
  As  As12  1  0.597093  0.597093  0.213777  1
  As  As13  1  0.260310  0.928644  0.214021  1
  As  As14  1  0.928644  0.260310  0.214021  1
