# generated using pymatgen
data_Tb4HgPd
_symmetry_space_group_name_H-M   'P 1'
_cell_length_a   9.68932110
_cell_length_b   9.67934172
_cell_length_c   9.68245617
_cell_angle_alpha   60.32401544
_cell_angle_beta   60.31748285
_cell_angle_gamma   60.33609339
_symmetry_Int_Tables_number   1
_chemical_formula_structural   Tb4HgPd
_chemical_formula_sum   'Tb16 Hg4 Pd4'
_cell_volume   646.84454068
_cell_formula_units_Z   4
loop_
 _symmetry_equiv_pos_site_id
 _symmetry_equiv_pos_as_xyz
  1  'x, y, z'
loop_
 _atom_site_type_symbol
 _atom_site_label
 _atom_site_symmetry_multiplicity
 _atom_site_fract_x
 _atom_site_fract_y
 _atom_site_fract_z
 _atom_site_occupancy
  Tb  Tb0  1  0.351644  0.351103  0.351067  1
  Tb  Tb1  1  0.360584  0.360395  0.925870  1
  Tb  Tb2  1  0.360520  0.925919  0.360340  1
  Tb  Tb3  1  0.926342  0.360546  0.360547  1
  Tb  Tb4  1  0.812270  0.190298  0.190376  1
  Tb  Tb5  1  0.187364  0.812098  0.812147  1
  Tb  Tb6  1  0.189873  0.812525  0.190249  1
  Tb  Tb7  1  0.812467  0.187493  0.812480  1
  Tb  Tb8  1  0.190038  0.190341  0.812356  1
  Tb  Tb9  1  0.812342  0.812293  0.187664  1
  Tb  Tb10  1  0.935359  0.566124  0.566042  1
  Tb  Tb11  1  0.563132  0.936740  0.936733  1
  Tb  Tb12  1  0.566113  0.935057  0.566370  1
  Tb  Tb13  1  0.936509  0.562972  0.936832  1
  Tb  Tb14  1  0.566078  0.566429  0.935150  1
  Tb  Tb15  1  0.936503  0.936840  0.562993  1
  Hg  Hg16  1  0.585894  0.585827  0.585869  1
  Hg  Hg17  1  0.583667  0.584278  0.240530  1
  Hg  Hg18  1  0.583633  0.240703  0.584232  1
  Hg  Hg19  1  0.240613  0.584102  0.584084  1
  Pd  Pd20  1  0.148631  0.148401  0.148337  1
  Pd  Pd21  1  0.142185  0.141680  0.566120  1
  Pd  Pd22  1  0.142250  0.566046  0.141769  1
  Pd  Pd23  1  0.565989  0.141790  0.141845  1
