# generated using pymatgen
data_Sc8Ti3Si16Mo8W
_symmetry_space_group_name_H-M   'P 1'
_cell_length_a   6.57616066
_cell_length_b   6.79039855
_cell_length_c   12.76942000
_cell_angle_alpha   90.00000000
_cell_angle_beta   90.00000000
_cell_angle_gamma   89.97158497
_symmetry_Int_Tables_number   1
_chemical_formula_structural   Sc8Ti3Si16Mo8W
_chemical_formula_sum   'Sc8 Ti3 Si16 Mo8 W1'
_cell_volume   570.21521065
_cell_formula_units_Z   1
loop_
 _symmetry_equiv_pos_site_id
 _symmetry_equiv_pos_as_xyz
  1  'x, y, z'
loop_
 _atom_site_type_symbol
 _atom_site_label
 _atom_site_symmetry_multiplicity
 _atom_site_fract_x
 _atom_site_fract_y
 _atom_site_fract_z
 _atom_site_occupancy
  Sc  Sc0  1  0.500019  0.673096  0.594594  1
  Sc  Sc1  1  0.000709  0.827301  0.904916  1
  Sc  Sc2  1  0.501599  0.327636  0.094381  1
  Sc  Sc3  1  0.001311  0.172824  0.405286  1
  Sc  Sc4  1  0.501599  0.327636  0.405619  1
  Sc  Sc5  1  0.001311  0.172824  0.094714  1
  Sc  Sc6  1  0.500019  0.673096  0.905406  1
  Sc  Sc7  1  0.000709  0.827301  0.595084  1
  Ti  Ti8  1  0.839767  0.493023  0.750000  1
  Ti  Ti9  1  0.337985  0.007005  0.750000  1
  Ti  Ti10  1  0.160471  0.505916  0.250000  1
  Si  Si11  1  0.666899  0.963870  0.456585  1
  Si  Si12  1  0.166338  0.535536  0.041789  1
  Si  Si13  1  0.333600  0.036407  0.958674  1
  Si  Si14  1  0.833536  0.463255  0.541660  1
  Si  Si15  1  0.333600  0.036407  0.541326  1
  Si  Si16  1  0.833536  0.463255  0.958340  1
  Si  Si17  1  0.666899  0.963870  0.043415  1
  Si  Si18  1  0.166338  0.535536  0.458211  1
  Si  Si19  1  0.462064  0.379616  0.750000  1
  Si  Si20  1  0.961585  0.119542  0.750000  1
  Si  Si21  1  0.537962  0.621624  0.250000  1
  Si  Si22  1  0.034656  0.880984  0.250000  1
  Si  Si23  1  0.704862  0.863878  0.750000  1
  Si  Si24  1  0.204305  0.635893  0.750000  1
  Si  Si25  1  0.297213  0.137895  0.250000  1
  Si  Si26  1  0.795889  0.362220  0.250000  1
  Mo  Mo27  1  0.664636  0.171240  0.623012  1
  Mo  Mo28  1  0.165340  0.327664  0.876293  1
  Mo  Mo29  1  0.333605  0.828912  0.124297  1
  Mo  Mo30  1  0.832750  0.667590  0.375637  1
  Mo  Mo31  1  0.333605  0.828912  0.375703  1
  Mo  Mo32  1  0.832750  0.667590  0.124363  1
  Mo  Mo33  1  0.664636  0.171240  0.876988  1
  Mo  Mo34  1  0.165340  0.327664  0.623707  1
  W  W35  1  0.662557  0.001743  0.250000  1
