# generated using pymatgen
data_YLu4Si12Ir19
_symmetry_space_group_name_H-M   'P 1'
_cell_length_a   12.80169100
_cell_length_b   12.80169208
_cell_length_c   3.97451300
_cell_angle_alpha   90.00000000
_cell_angle_beta   90.00000000
_cell_angle_gamma   120.00000496
_symmetry_Int_Tables_number   1
_chemical_formula_structural   YLu4Si12Ir19
_chemical_formula_sum   'Y1 Lu4 Si12 Ir19'
_cell_volume   564.09110171
_cell_formula_units_Z   1
loop_
 _symmetry_equiv_pos_site_id
 _symmetry_equiv_pos_as_xyz
  1  'x, y, z'
loop_
 _atom_site_type_symbol
 _atom_site_label
 _atom_site_symmetry_multiplicity
 _atom_site_fract_x
 _atom_site_fract_y
 _atom_site_fract_z
 _atom_site_occupancy
  Y  Y0  1  0.333333  0.666667  0.000000  1
  Lu  Lu1  1  0.000095  0.184092  0.500000  1
  Lu  Lu2  1  0.815908  0.816002  0.500000  1
  Lu  Lu3  1  0.183998  0.999905  0.500000  1
  Lu  Lu4  1  0.666667  0.333333  0.000000  1
  Si  Si5  1  0.481488  0.312294  0.500000  1
  Si  Si6  1  0.819938  0.000505  0.000000  1
  Si  Si7  1  0.180567  0.180062  0.000000  1
  Si  Si8  1  0.999495  0.819433  0.000000  1
  Si  Si9  1  0.366982  0.999847  0.000000  1
  Si  Si10  1  0.687706  0.169195  0.500000  1
  Si  Si11  1  0.830805  0.518512  0.500000  1
  Si  Si12  1  0.519833  0.832268  0.500000  1
  Si  Si13  1  0.167732  0.687565  0.500000  1
  Si  Si14  1  0.312435  0.480167  0.500000  1
  Si  Si15  1  0.000153  0.367135  0.000000  1
  Si  Si16  1  0.632865  0.633018  0.000000  1
  Ir  Ir17  1  0.807008  0.182977  0.000000  1
  Ir  Ir18  1  0.375968  0.192992  0.000000  1
  Ir  Ir19  1  0.638909  0.511388  0.500000  1
  Ir  Ir20  1  0.872479  0.361091  0.500000  1
  Ir  Ir21  1  0.361048  0.873927  0.500000  1
  Ir  Ir22  1  0.512878  0.638952  0.500000  1
  Ir  Ir23  1  0.126073  0.487122  0.500000  1
  Ir  Ir24  1  0.817023  0.624032  0.000000  1
  Ir  Ir25  1  0.625035  0.818068  0.000000  1
  Ir  Ir26  1  0.181932  0.806966  0.000000  1
  Ir  Ir27  1  0.193034  0.374965  0.000000  1
  Ir  Ir28  1  0.999316  0.718347  0.500000  1
  Ir  Ir29  1  0.281653  0.280969  0.500000  1
  Ir  Ir30  1  0.719031  0.000684  0.500000  1
  Ir  Ir31  1  0.999578  0.552479  0.000000  1
  Ir  Ir32  1  0.447521  0.447099  0.000000  1
  Ir  Ir33  1  0.552901  0.000422  0.000000  1
  Ir  Ir34  1  0.000000  0.000000  0.000000  1
  Ir  Ir35  1  0.488612  0.127521  0.500000  1
