# generated using pymatgen
data_YHo19Cd6TcRu
_symmetry_space_group_name_H-M   'P 1'
_cell_length_a   9.52669835
_cell_length_b   9.53118582
_cell_length_c   9.86908400
_cell_angle_alpha   90.00000000
_cell_angle_beta   90.00000000
_cell_angle_gamma   120.01558950
_symmetry_Int_Tables_number   1
_chemical_formula_structural   YHo19Cd6TcRu
_chemical_formula_sum   'Y1 Ho19 Cd6 Tc1 Ru1'
_cell_volume   775.94079115
_cell_formula_units_Z   1
loop_
 _symmetry_equiv_pos_site_id
 _symmetry_equiv_pos_as_xyz
  1  'x, y, z'
loop_
 _atom_site_type_symbol
 _atom_site_label
 _atom_site_symmetry_multiplicity
 _atom_site_fract_x
 _atom_site_fract_y
 _atom_site_fract_z
 _atom_site_occupancy
  Y  Y0  1  0.919559  0.459780  0.250000  1
  Ho  Ho1  1  0.000026  0.000013  0.500180  1
  Ho  Ho2  1  0.000026  0.000013  0.999820  1
  Ho  Ho3  1  0.210204  0.790161  0.441370  1
  Ho  Ho4  1  0.210204  0.420044  0.441370  1
  Ho  Ho5  1  0.579982  0.789991  0.441326  1
  Ho  Ho6  1  0.789684  0.210053  0.559301  1
  Ho  Ho7  1  0.789684  0.579629  0.559301  1
  Ho  Ho8  1  0.420456  0.210227  0.559126  1
  Ho  Ho9  1  0.789684  0.210053  0.940699  1
  Ho  Ho10  1  0.789684  0.579629  0.940699  1
  Ho  Ho11  1  0.420456  0.210227  0.940874  1
  Ho  Ho12  1  0.210204  0.790161  0.058630  1
  Ho  Ho13  1  0.210204  0.420044  0.058630  1
  Ho  Ho14  1  0.579982  0.789991  0.058674  1
  Ho  Ho15  1  0.539824  0.459960  0.250000  1
  Ho  Ho16  1  0.539824  0.079864  0.250000  1
  Ho  Ho17  1  0.458773  0.541277  0.750000  1
  Ho  Ho18  1  0.458773  0.917498  0.750000  1
  Ho  Ho19  1  0.082504  0.541252  0.750000  1
  Cd  Cd20  1  0.885384  0.114455  0.250000  1
  Cd  Cd21  1  0.885384  0.770930  0.250000  1
  Cd  Cd22  1  0.229224  0.114613  0.250000  1
  Cd  Cd23  1  0.114408  0.885549  0.750000  1
  Cd  Cd24  1  0.114408  0.228859  0.750000  1
  Cd  Cd25  1  0.771168  0.885584  0.750000  1
  Tc  Tc26  1  0.333616  0.666808  0.250000  1
  Ru  Ru27  1  0.666671  0.333335  0.750000  1
