# generated using pymatgen
data_CaYb11(YSn2)8
_symmetry_space_group_name_H-M   'P 1'
_cell_length_a   7.85060572
_cell_length_b   8.44414657
_cell_length_c   16.05794300
_cell_angle_alpha   90.00000000
_cell_angle_beta   90.00000000
_cell_angle_gamma   89.92042226
_symmetry_Int_Tables_number   1
_chemical_formula_structural   CaYb11(YSn2)8
_chemical_formula_sum   'Ca1 Yb11 Y8 Sn16'
_cell_volume   1064.50675726
_cell_formula_units_Z   1
loop_
 _symmetry_equiv_pos_site_id
 _symmetry_equiv_pos_as_xyz
  1  'x, y, z'
loop_
 _atom_site_type_symbol
 _atom_site_label
 _atom_site_symmetry_multiplicity
 _atom_site_fract_x
 _atom_site_fract_y
 _atom_site_fract_z
 _atom_site_occupancy
  Ca  Ca0  1  0.837039  0.510425  0.750000  1
  Yb  Yb1  1  0.504179  0.688714  0.593864  1
  Yb  Yb2  1  0.004422  0.812877  0.907317  1
  Yb  Yb3  1  0.494975  0.310894  0.092775  1
  Yb  Yb4  1  0.995273  0.188705  0.407598  1
  Yb  Yb5  1  0.494975  0.310894  0.407225  1
  Yb  Yb6  1  0.995273  0.188705  0.092402  1
  Yb  Yb7  1  0.504179  0.688714  0.906136  1
  Yb  Yb8  1  0.004422  0.812877  0.592683  1
  Yb  Yb9  1  0.336232  0.989817  0.750000  1
  Yb  Yb10  1  0.163540  0.488432  0.250000  1
  Yb  Yb11  1  0.662637  0.010084  0.250000  1
  Y  Y12  1  0.672642  0.166363  0.622088  1
  Y  Y13  1  0.174592  0.334055  0.877682  1
  Y  Y14  1  0.326819  0.832575  0.122154  1
  Y  Y15  1  0.826872  0.665348  0.378107  1
  Y  Y16  1  0.326819  0.832575  0.377846  1
  Y  Y17  1  0.826872  0.665348  0.121893  1
  Y  Y18  1  0.672642  0.166363  0.877912  1
  Y  Y19  1  0.174592  0.334055  0.622318  1
  Sn  Sn20  1  0.671387  0.964488  0.459261  1
  Sn  Sn21  1  0.171240  0.535034  0.040110  1
  Sn  Sn22  1  0.328950  0.034995  0.959357  1
  Sn  Sn23  1  0.829137  0.465540  0.541516  1
  Sn  Sn24  1  0.328950  0.034995  0.540643  1
  Sn  Sn25  1  0.829137  0.465540  0.958484  1
  Sn  Sn26  1  0.671387  0.964488  0.040739  1
  Sn  Sn27  1  0.171240  0.535034  0.459890  1
  Sn  Sn28  1  0.471917  0.379085  0.750000  1
  Sn  Sn29  1  0.971202  0.125181  0.750000  1
  Sn  Sn30  1  0.528783  0.622095  0.250000  1
  Sn  Sn31  1  0.027765  0.875452  0.250000  1
  Sn  Sn32  1  0.719563  0.872554  0.750000  1
  Sn  Sn33  1  0.216558  0.629999  0.750000  1
  Sn  Sn34  1  0.281042  0.127232  0.250000  1
  Sn  Sn35  1  0.782745  0.370469  0.250000  1
