# generated using pymatgen
data_Tb15YTl4(InCo)2
_symmetry_space_group_name_H-M   'P 1'
_cell_length_a   10.40977600
_cell_length_b   10.42129296
_cell_length_c   7.10810403
_cell_angle_alpha   90.02169856
_cell_angle_beta   90.00000000
_cell_angle_gamma   119.96344272
_symmetry_Int_Tables_number   1
_chemical_formula_structural   Tb15YTl4(InCo)2
_chemical_formula_sum   'Tb15 Y1 Tl4 In2 Co2'
_cell_volume   668.04731084
_cell_formula_units_Z   1
loop_
 _symmetry_equiv_pos_site_id
 _symmetry_equiv_pos_as_xyz
  1  'x, y, z'
loop_
 _atom_site_type_symbol
 _atom_site_label
 _atom_site_symmetry_multiplicity
 _atom_site_fract_x
 _atom_site_fract_y
 _atom_site_fract_z
 _atom_site_occupancy
  Tb  Tb0  1  0.926258  0.463927  0.504692  1
  Tb  Tb1  1  0.537668  0.463927  0.504692  1
  Tb  Tb2  1  0.462735  0.925471  0.006643  1
  Tb  Tb3  1  0.074616  0.537306  0.006288  1
  Tb  Tb4  1  0.462691  0.537306  0.006288  1
  Tb  Tb5  1  0.177658  0.355315  0.709431  1
  Tb  Tb6  1  0.644808  0.822505  0.711697  1
  Tb  Tb7  1  0.177698  0.822505  0.711697  1
  Tb  Tb8  1  0.822265  0.644531  0.209422  1
  Tb  Tb9  1  0.355922  0.178512  0.209144  1
  Tb  Tb10  1  0.822590  0.178512  0.209144  1
  Tb  Tb11  1  0.666592  0.333185  0.896060  1
  Tb  Tb12  1  0.333365  0.666733  0.396787  1
  Tb  Tb13  1  0.999282  0.998563  0.490675  1
  Tb  Tb14  1  0.999138  0.998276  0.993566  1
  Y  Y15  1  0.535834  0.071667  0.504151  1
  Tl  Tl16  1  0.836700  0.673400  0.755432  1
  Tl  Tl17  1  0.326482  0.163181  0.754875  1
  Tl  Tl18  1  0.836699  0.163181  0.754875  1
  Tl  Tl19  1  0.163078  0.326157  0.255923  1
  In  In20  1  0.674254  0.837561  0.254849  1
  In  In21  1  0.163308  0.837561  0.254849  1
  Co  Co22  1  0.667116  0.334229  0.277868  1
  Co  Co23  1  0.333241  0.666485  0.778994  1
