# generated using pymatgen
data_Ca4InSnPt4
_symmetry_space_group_name_H-M   'P 1'
_cell_length_a   5.79092091
_cell_length_b   5.79092099
_cell_length_c   8.24955874
_cell_angle_alpha   77.84870153
_cell_angle_beta   77.84870335
_cell_angle_gamma   59.35791830
_symmetry_Int_Tables_number   1
_chemical_formula_structural   Ca4InSnPt4
_chemical_formula_sum   'Ca4 In1 Sn1 Pt4'
_cell_volume   230.92694454
_cell_formula_units_Z   1
loop_
 _symmetry_equiv_pos_site_id
 _symmetry_equiv_pos_as_xyz
  1  'x, y, z'
loop_
 _atom_site_type_symbol
 _atom_site_label
 _atom_site_symmetry_multiplicity
 _atom_site_fract_x
 _atom_site_fract_y
 _atom_site_fract_z
 _atom_site_occupancy
  Ca  Ca0  1  0.502686  0.795284  0.348999  1
  Ca  Ca1  1  0.204716  0.497314  0.151001  1
  Ca  Ca2  1  0.498542  0.201377  0.648748  1
  Ca  Ca3  1  0.798623  0.501458  0.851252  1
  In  In4  1  0.152801  0.847199  0.750000  1
  Sn  Sn5  1  0.846305  0.153695  0.250000  1
  Pt  Pt6  1  0.271096  0.998244  0.000621  1
  Pt  Pt7  1  0.001756  0.728904  0.499379  1
  Pt  Pt8  1  0.726561  0.003088  0.001086  1
  Pt  Pt9  1  0.996912  0.273439  0.498914  1
