# generated using pymatgen
data_Y3Er3Al24Ir3Os5
_symmetry_space_group_name_H-M   'P 1'
_cell_length_a   8.79404989
_cell_length_b   8.81401884
_cell_length_c   9.55838390
_cell_angle_alpha   89.98964997
_cell_angle_beta   89.76053149
_cell_angle_gamma   119.81245161
_symmetry_Int_Tables_number   1
_chemical_formula_structural   Y3Er3Al24Ir3Os5
_chemical_formula_sum   'Y3 Er3 Al24 Ir3 Os5'
_cell_volume   642.82150073
_cell_formula_units_Z   1
loop_
 _symmetry_equiv_pos_site_id
 _symmetry_equiv_pos_as_xyz
  1  'x, y, z'
loop_
 _atom_site_type_symbol
 _atom_site_label
 _atom_site_symmetry_multiplicity
 _atom_site_fract_x
 _atom_site_fract_y
 _atom_site_fract_z
 _atom_site_occupancy
  Y  Y0  1  0.190179  0.383805  0.251584  1
  Y  Y1  1  0.809565  0.616631  0.748544  1
  Y  Y2  1  0.614965  0.812139  0.249726  1
  Er  Er3  1  0.387444  0.188495  0.750392  1
  Er  Er4  1  0.198572  0.809299  0.251995  1
  Er  Er5  1  0.801364  0.190139  0.748175  1
  Al  Al6  1  0.333501  0.667552  0.023076  1
  Al  Al7  1  0.666487  0.332610  0.975513  1
  Al  Al8  1  0.667352  0.332762  0.522878  1
  Al  Al9  1  0.332289  0.667066  0.478402  1
  Al  Al10  1  0.161797  0.325719  0.577739  1
  Al  Al11  1  0.838134  0.673785  0.422918  1
  Al  Al12  1  0.673130  0.836984  0.576138  1
  Al  Al13  1  0.836900  0.673791  0.076592  1
  Al  Al14  1  0.326548  0.162943  0.424887  1
  Al  Al15  1  0.163110  0.325701  0.922832  1
  Al  Al16  1  0.163273  0.835631  0.575878  1
  Al  Al17  1  0.326361  0.162910  0.075708  1
  Al  Al18  1  0.836401  0.164831  0.424891  1
  Al  Al19  1  0.673563  0.837111  0.923196  1
  Al  Al20  1  0.835412  0.163287  0.074322  1
  Al  Al21  1  0.164461  0.837200  0.924977  1
  Al  Al22  1  0.562664  0.126142  0.249502  1
  Al  Al23  1  0.436845  0.874104  0.750440  1
  Al  Al24  1  0.876128  0.439511  0.250378  1
  Al  Al25  1  0.123246  0.560155  0.749664  1
  Al  Al26  1  0.561924  0.439373  0.249436  1
  Al  Al27  1  0.437605  0.559683  0.750496  1
  Al  Al28  1  0.002211  0.000351  0.249964  1
  Al  Al29  1  0.000866  0.000954  0.749933  1
  Ir  Ir30  1  0.999942  0.499988  0.000037  1
  Ir  Ir31  1  0.499743  0.499620  0.999653  1
  Ir  Ir32  1  0.499704  0.499555  0.500310  1
  Os  Os33  1  0.499750  0.000304  0.999417  1
  Os  Os34  1  0.499588  0.000217  0.500455  1
  Os  Os35  1  0.999898  0.499979  0.500065  1
  Os  Os36  1  0.999593  0.999814  0.999956  1
  Os  Os37  1  0.999486  0.999859  0.499930  1
