# generated using pymatgen
data_Yb2Dy3Si12Ir19
_symmetry_space_group_name_H-M   'P 1'
_cell_length_a   12.82042700
_cell_length_b   12.82014192
_cell_length_c   4.00216300
_cell_angle_alpha   90.00000000
_cell_angle_beta   90.00000000
_cell_angle_gamma   120.00073817
_symmetry_Int_Tables_number   1
_chemical_formula_structural   Yb2Dy3Si12Ir19
_chemical_formula_sum   'Yb2 Dy3 Si12 Ir19'
_cell_volume   569.66232354
_cell_formula_units_Z   1
loop_
 _symmetry_equiv_pos_site_id
 _symmetry_equiv_pos_as_xyz
  1  'x, y, z'
loop_
 _atom_site_type_symbol
 _atom_site_label
 _atom_site_symmetry_multiplicity
 _atom_site_fract_x
 _atom_site_fract_y
 _atom_site_fract_z
 _atom_site_occupancy
  Yb  Yb0  1  0.000241  0.815811  0.000000  1
  Yb  Yb1  1  0.184429  0.184189  0.000000  1
  Dy  Dy2  1  0.333492  0.666857  0.500000  1
  Dy  Dy3  1  0.666636  0.333143  0.500000  1
  Dy  Dy4  1  0.817239  0.000000  0.000000  1
  Si  Si5  1  0.999984  0.632647  0.500000  1
  Si  Si6  1  0.367337  0.367353  0.500000  1
  Si  Si7  1  0.632499  0.000000  0.500000  1
  Si  Si8  1  0.519658  0.687964  0.000000  1
  Si  Si9  1  0.311139  0.831602  0.000000  1
  Si  Si10  1  0.168581  0.479591  0.000000  1
  Si  Si11  1  0.479536  0.168398  0.000000  1
  Si  Si12  1  0.688990  0.520409  0.000000  1
  Si  Si13  1  0.831694  0.312036  0.000000  1
  Si  Si14  1  0.000826  0.182507  0.500000  1
  Si  Si15  1  0.818319  0.817493  0.500000  1
  Si  Si16  1  0.182044  0.000000  0.500000  1
  Ir  Ir17  1  0.511281  0.872790  0.000000  1
  Ir  Ir18  1  0.126588  0.637680  0.000000  1
  Ir  Ir19  1  0.361506  0.487994  0.000000  1
  Ir  Ir20  1  0.488908  0.362320  0.000000  1
  Ir  Ir21  1  0.873513  0.512006  0.000000  1
  Ir  Ir22  1  0.638491  0.127210  0.000000  1
  Ir  Ir23  1  0.998339  0.447014  0.500000  1
  Ir  Ir24  1  0.551325  0.552986  0.500000  1
  Ir  Ir25  1  0.448197  0.000000  0.500000  1
  Ir  Ir26  1  0.999196  0.282549  0.000000  1
  Ir  Ir27  1  0.716647  0.717451  0.000000  1
  Ir  Ir28  1  0.282630  0.000000  0.000000  1
  Ir  Ir29  1  0.623529  0.806433  0.500000  1
  Ir  Ir30  1  0.194611  0.816331  0.500000  1
  Ir  Ir31  1  0.183158  0.377897  0.500000  1
  Ir  Ir32  1  0.378279  0.183669  0.500000  1
  Ir  Ir33  1  0.805259  0.622103  0.500000  1
  Ir  Ir34  1  0.817094  0.193567  0.500000  1
  Ir  Ir35  1  0.998804  0.000000  0.500000  1
