# generated using pymatgen
data_Mg6B6Ir11
_symmetry_space_group_name_H-M   'P 1'
_cell_length_a   2.93781600
_cell_length_b   8.72243100
_cell_length_c   11.62154300
_cell_angle_alpha   90.00000000
_cell_angle_beta   90.00000000
_cell_angle_gamma   90.00000000
_symmetry_Int_Tables_number   1
_chemical_formula_structural   Mg6B6Ir11
_chemical_formula_sum   'Mg6 B6 Ir11'
_cell_volume   297.80084643
_cell_formula_units_Z   1
loop_
 _symmetry_equiv_pos_site_id
 _symmetry_equiv_pos_as_xyz
  1  'x, y, z'
loop_
 _atom_site_type_symbol
 _atom_site_label
 _atom_site_symmetry_multiplicity
 _atom_site_fract_x
 _atom_site_fract_y
 _atom_site_fract_z
 _atom_site_occupancy
  Mg  Mg0  1  0.500000  0.000000  0.500000  1
  Mg  Mg1  1  0.500000  0.500000  0.000000  1
  Mg  Mg2  1  0.500000  0.653509  0.500000  1
  Mg  Mg3  1  0.500000  0.346491  0.500000  1
  Mg  Mg4  1  0.500000  0.000000  0.203726  1
  Mg  Mg5  1  0.500000  0.000000  0.796274  1
  B  B6  1  0.500000  0.808686  0.000000  1
  B  B7  1  0.500000  0.191314  0.000000  1
  B  B8  1  0.500000  0.685936  0.269472  1
  B  B9  1  0.500000  0.314064  0.269472  1
  B  B10  1  0.500000  0.314064  0.730528  1
  B  B11  1  0.500000  0.685936  0.730528  1
  Ir  Ir12  1  0.000000  0.000000  0.000000  1
  Ir  Ir13  1  0.000000  0.500000  0.309214  1
  Ir  Ir14  1  0.000000  0.500000  0.690786  1
  Ir  Ir15  1  0.000000  0.719977  0.122937  1
  Ir  Ir16  1  0.000000  0.280023  0.122937  1
  Ir  Ir17  1  0.000000  0.280023  0.877063  1
  Ir  Ir18  1  0.000000  0.719977  0.877063  1
  Ir  Ir19  1  0.000000  0.824144  0.353227  1
  Ir  Ir20  1  0.000000  0.175856  0.353227  1
  Ir  Ir21  1  0.000000  0.175856  0.646773  1
  Ir  Ir22  1  0.000000  0.824144  0.646773  1
