# generated using pymatgen
data_Tb8MgCoNiHg
_symmetry_space_group_name_H-M   'P 1'
_cell_length_a   9.54586866
_cell_length_b   9.54586825
_cell_length_c   9.54287500
_cell_angle_alpha   60.01037556
_cell_angle_beta   60.01037700
_cell_angle_gamma   60.38710938
_symmetry_Int_Tables_number   1
_chemical_formula_structural   Tb8MgCoNiHg
_chemical_formula_sum   'Tb16 Mg2 Co2 Ni2 Hg2'
_cell_volume   616.76269760
_cell_formula_units_Z   2
loop_
 _symmetry_equiv_pos_site_id
 _symmetry_equiv_pos_as_xyz
  1  'x, y, z'
loop_
 _atom_site_type_symbol
 _atom_site_label
 _atom_site_symmetry_multiplicity
 _atom_site_fract_x
 _atom_site_fract_y
 _atom_site_fract_z
 _atom_site_occupancy
  Tb  Tb0  1  0.807428  0.186332  0.190256  1
  Tb  Tb1  1  0.186332  0.807428  0.815984  1
  Tb  Tb2  1  0.186332  0.807428  0.190256  1
  Tb  Tb3  1  0.807428  0.186332  0.815984  1
  Tb  Tb4  1  0.188110  0.188110  0.811890  1
  Tb  Tb5  1  0.807391  0.807391  0.192609  1
  Tb  Tb6  1  0.936493  0.562569  0.563372  1
  Tb  Tb7  1  0.562569  0.936493  0.937566  1
  Tb  Tb8  1  0.562570  0.936493  0.563372  1
  Tb  Tb9  1  0.936493  0.562569  0.937566  1
  Tb  Tb10  1  0.562214  0.562213  0.937787  1
  Tb  Tb11  1  0.936047  0.936047  0.563953  1
  Tb  Tb12  1  0.347693  0.347693  0.341556  1
  Tb  Tb13  1  0.347693  0.347693  0.963055  1
  Tb  Tb14  1  0.353607  0.955242  0.345574  1
  Tb  Tb15  1  0.955242  0.353607  0.345574  1
  Mg  Mg16  1  0.581492  0.272505  0.573001  1
  Mg  Mg17  1  0.272505  0.581492  0.573001  1
  Co  Co18  1  0.139717  0.575706  0.142289  1
  Co  Co19  1  0.575706  0.139717  0.142289  1
  Ni  Ni20  1  0.141612  0.141612  0.142624  1
  Ni  Ni21  1  0.141612  0.141612  0.574154  1
  Hg  Hg22  1  0.581855  0.581855  0.588000  1
  Hg  Hg23  1  0.581855  0.581855  0.248290  1
