# generated using pymatgen
data_Na2SiPt2
_symmetry_space_group_name_H-M   'P 1'
_cell_length_a   5.57135197
_cell_length_b   5.57135112
_cell_length_c   7.31119835
_cell_angle_alpha   82.22322456
_cell_angle_beta   82.22322392
_cell_angle_gamma   65.41233782
_symmetry_Int_Tables_number   1
_chemical_formula_structural   Na2SiPt2
_chemical_formula_sum   'Na4 Si2 Pt4'
_cell_volume   203.67601672
_cell_formula_units_Z   2
loop_
 _symmetry_equiv_pos_site_id
 _symmetry_equiv_pos_as_xyz
  1  'x, y, z'
loop_
 _atom_site_type_symbol
 _atom_site_label
 _atom_site_symmetry_multiplicity
 _atom_site_fract_x
 _atom_site_fract_y
 _atom_site_fract_z
 _atom_site_occupancy
  Na  Na0  1  0.765919  0.525967  0.859443  1
  Na  Na1  1  0.474033  0.234081  0.640557  1
  Na  Na2  1  0.234081  0.474033  0.140557  1
  Na  Na3  1  0.525967  0.765919  0.359443  1
  Si  Si4  1  0.050817  0.949183  0.750000  1
  Si  Si5  1  0.949183  0.050817  0.250000  1
  Pt  Pt6  1  0.006629  0.731089  0.508192  1
  Pt  Pt7  1  0.268911  0.993371  0.991808  1
  Pt  Pt8  1  0.993371  0.268911  0.491808  1
  Pt  Pt9  1  0.731089  0.006629  0.008192  1
