# generated using pymatgen
data_Gd2Dy2TcB12Ru
_symmetry_space_group_name_H-M   'P 1'
_cell_length_a   3.68733100
_cell_length_b   9.17315505
_cell_length_c   11.56907317
_cell_angle_alpha   89.85135093
_cell_angle_beta   90.00000000
_cell_angle_gamma   90.00000000
_symmetry_Int_Tables_number   1
_chemical_formula_structural   Gd2Dy2TcB12Ru
_chemical_formula_sum   'Gd4 Dy4 Tc2 B24 Ru2'
_cell_volume   391.31632370
_cell_formula_units_Z   2
loop_
 _symmetry_equiv_pos_site_id
 _symmetry_equiv_pos_as_xyz
  1  'x, y, z'
loop_
 _atom_site_type_symbol
 _atom_site_label
 _atom_site_symmetry_multiplicity
 _atom_site_fract_x
 _atom_site_fract_y
 _atom_site_fract_z
 _atom_site_occupancy
  Gd  Gd0  1  0.000000  0.325254  0.415589  1
  Gd  Gd1  1  0.000000  0.674746  0.584411  1
  Gd  Gd2  1  0.000000  0.821712  0.087312  1
  Gd  Gd3  1  0.000000  0.178288  0.912688  1
  Dy  Dy4  1  0.000000  0.942049  0.370323  1
  Dy  Dy5  1  0.000000  0.057951  0.629677  1
  Dy  Dy6  1  0.000000  0.443040  0.130394  1
  Dy  Dy7  1  0.000000  0.556960  0.869606  1
  Tc  Tc8  1  0.000000  0.638669  0.320029  1
  Tc  Tc9  1  0.000000  0.361331  0.679971  1
  B  B10  1  0.500000  0.553634  0.432384  1
  B  B11  1  0.500000  0.446366  0.567616  1
  B  B12  1  0.500000  0.054356  0.067757  1
  B  B13  1  0.500000  0.945644  0.932243  1
  B  B14  1  0.500000  0.748217  0.418320  1
  B  B15  1  0.500000  0.251783  0.581680  1
  B  B16  1  0.500000  0.248268  0.081837  1
  B  B17  1  0.500000  0.751732  0.918163  1
  B  B18  1  0.500000  0.790932  0.265686  1
  B  B19  1  0.500000  0.209068  0.734314  1
  B  B20  1  0.500000  0.290094  0.233985  1
  B  B21  1  0.500000  0.709906  0.766015  1
  B  B22  1  0.500000  0.631137  0.185682  1
  B  B23  1  0.500000  0.368863  0.814318  1
  B  B24  1  0.500000  0.130811  0.313709  1
  B  B25  1  0.500000  0.869189  0.686291  1
  B  B26  1  0.500000  0.983973  0.212011  1
  B  B27  1  0.500000  0.016027  0.787989  1
  B  B28  1  0.500000  0.483569  0.287719  1
  B  B29  1  0.500000  0.516431  0.712281  1
  B  B30  1  0.500000  0.602923  0.028357  1
  B  B31  1  0.500000  0.397077  0.971643  1
  B  B32  1  0.500000  0.102973  0.471302  1
  B  B33  1  0.500000  0.897027  0.528698  1
  Ru  Ru34  1  0.000000  0.138026  0.178911  1
  Ru  Ru35  1  0.000000  0.861974  0.821089  1
