# generated using pymatgen
data_ErLu3CoB14
_symmetry_space_group_name_H-M   'P 1'
_cell_length_a   7.15426511
_cell_length_b   7.15004111
_cell_length_c   7.40910300
_cell_angle_alpha   90.00000000
_cell_angle_beta   90.00000000
_cell_angle_gamma   89.79801896
_symmetry_Int_Tables_number   1
_chemical_formula_structural   ErLu3CoB14
_chemical_formula_sum   'Er2 Lu6 Co2 B28'
_cell_volume   378.99763685
_cell_formula_units_Z   2
loop_
 _symmetry_equiv_pos_site_id
 _symmetry_equiv_pos_as_xyz
  1  'x, y, z'
loop_
 _atom_site_type_symbol
 _atom_site_label
 _atom_site_symmetry_multiplicity
 _atom_site_fract_x
 _atom_site_fract_y
 _atom_site_fract_z
 _atom_site_occupancy
  Er  Er0  1  0.830501  0.693183  0.500000  1
  Er  Er1  1  0.169499  0.306817  0.500000  1
  Lu  Lu2  1  0.192861  0.330704  0.000000  1
  Lu  Lu3  1  0.669066  0.192688  0.000000  1
  Lu  Lu4  1  0.330934  0.807312  0.000000  1
  Lu  Lu5  1  0.692377  0.169075  0.500000  1
  Lu  Lu6  1  0.307623  0.830925  0.500000  1
  Lu  Lu7  1  0.807139  0.669296  0.000000  1
  Co  Co8  1  0.000000  0.000000  0.000000  1
  Co  Co9  1  0.500000  0.500000  0.500000  1
  B  B10  1  0.175156  0.038269  0.229723  1
  B  B11  1  0.960955  0.175053  0.229340  1
  B  B12  1  0.039045  0.824947  0.229340  1
  B  B13  1  0.674966  0.460872  0.268900  1
  B  B14  1  0.325034  0.539128  0.268900  1
  B  B15  1  0.824844  0.961731  0.229723  1
  B  B16  1  0.537983  0.675144  0.269098  1
  B  B17  1  0.462017  0.324856  0.269098  1
  B  B18  1  0.824844  0.961731  0.770277  1
  B  B19  1  0.039045  0.824947  0.770660  1
  B  B20  1  0.960955  0.175053  0.770660  1
  B  B21  1  0.325034  0.539128  0.731100  1
  B  B22  1  0.674966  0.460872  0.731100  1
  B  B23  1  0.175156  0.038269  0.770277  1
  B  B24  1  0.462017  0.324856  0.730902  1
  B  B25  1  0.537983  0.675144  0.730902  1
  B  B26  1  0.087716  0.587433  0.248611  1
  B  B27  1  0.412325  0.087671  0.249652  1
  B  B28  1  0.587675  0.912329  0.249652  1
  B  B29  1  0.912284  0.412567  0.248611  1
  B  B30  1  0.912284  0.412567  0.751389  1
  B  B31  1  0.587675  0.912329  0.750348  1
  B  B32  1  0.412325  0.087671  0.750348  1
  B  B33  1  0.087716  0.587433  0.751389  1
  B  B34  1  0.000000  0.000000  0.388020  1
  B  B35  1  0.500000  0.500000  0.111242  1
  B  B36  1  0.000000  0.000000  0.611980  1
  B  B37  1  0.500000  0.500000  0.888758  1
