# generated using pymatgen
data_Lu4Zr4IrPt3
_symmetry_space_group_name_H-M   'P 1'
_cell_length_a   4.66076300
_cell_length_b   6.96464859
_cell_length_c   8.19258430
_cell_angle_alpha   89.63618610
_cell_angle_beta   90.00000000
_cell_angle_gamma   90.00000000
_symmetry_Int_Tables_number   1
_chemical_formula_structural   Lu4Zr4IrPt3
_chemical_formula_sum   'Lu4 Zr4 Ir1 Pt3'
_cell_volume   265.93064803
_cell_formula_units_Z   1
loop_
 _symmetry_equiv_pos_site_id
 _symmetry_equiv_pos_as_xyz
  1  'x, y, z'
loop_
 _atom_site_type_symbol
 _atom_site_label
 _atom_site_symmetry_multiplicity
 _atom_site_fract_x
 _atom_site_fract_y
 _atom_site_fract_z
 _atom_site_occupancy
  Lu  Lu0  1  0.250000  0.981482  0.320012  1
  Lu  Lu1  1  0.250000  0.481183  0.175937  1
  Lu  Lu2  1  0.750000  0.020491  0.679637  1
  Lu  Lu3  1  0.750000  0.515596  0.824572  1
  Zr  Zr4  1  0.250000  0.348532  0.578387  1
  Zr  Zr5  1  0.250000  0.855490  0.920348  1
  Zr  Zr6  1  0.750000  0.650012  0.423910  1
  Zr  Zr7  1  0.750000  0.150542  0.073992  1
  Ir  Ir8  1  0.250000  0.234225  0.903368  1
  Pt  Pt9  1  0.250000  0.733133  0.598629  1
  Pt  Pt10  1  0.750000  0.764210  0.099950  1
  Pt  Pt11  1  0.750000  0.265105  0.401259  1
