# generated using pymatgen
data_YbHf(Al3Ir)3
_symmetry_space_group_name_H-M   'P 1'
_cell_length_a   7.51851495
_cell_length_b   7.50401664
_cell_length_c   9.37383100
_cell_angle_alpha   90.00000000
_cell_angle_beta   90.00000000
_cell_angle_gamma   119.63104126
_symmetry_Int_Tables_number   1
_chemical_formula_structural   YbHf(Al3Ir)3
_chemical_formula_sum   'Yb2 Hf2 Al18 Ir6'
_cell_volume   459.70188270
_cell_formula_units_Z   2
loop_
 _symmetry_equiv_pos_site_id
 _symmetry_equiv_pos_as_xyz
  1  'x, y, z'
loop_
 _atom_site_type_symbol
 _atom_site_label
 _atom_site_symmetry_multiplicity
 _atom_site_fract_x
 _atom_site_fract_y
 _atom_site_fract_z
 _atom_site_occupancy
  Yb  Yb0  1  0.670090  0.993727  0.250000  1
  Yb  Yb1  1  0.329910  0.006273  0.750000  1
  Hf  Hf2  1  0.995679  0.673800  0.250000  1
  Hf  Hf3  1  0.004321  0.326200  0.750000  1
  Al  Al4  1  0.128328  0.124674  0.250000  1
  Al  Al5  1  0.871672  0.875326  0.750000  1
  Al  Al6  1  0.999691  0.336455  0.074485  1
  Al  Al7  1  0.000309  0.663545  0.925515  1
  Al  Al8  1  0.000309  0.663545  0.574485  1
  Al  Al9  1  0.333713  0.999086  0.423858  1
  Al  Al10  1  0.999691  0.336455  0.425515  1
  Al  Al11  1  0.666287  0.000914  0.576142  1
  Al  Al12  1  0.666287  0.000914  0.923858  1
  Al  Al13  1  0.333713  0.999086  0.076142  1
  Al  Al14  1  0.331314  0.332984  0.555979  1
  Al  Al15  1  0.668686  0.667016  0.444021  1
  Al  Al16  1  0.668686  0.667016  0.055979  1
  Al  Al17  1  0.331314  0.332984  0.944021  1
  Al  Al18  1  0.334112  0.547982  0.250000  1
  Al  Al19  1  0.665888  0.452018  0.750000  1
  Al  Al20  1  0.554752  0.345148  0.250000  1
  Al  Al21  1  0.445248  0.654852  0.750000  1
  Ir  Ir22  1  0.673949  0.329664  0.999370  1
  Ir  Ir23  1  0.326051  0.670336  0.000630  1
  Ir  Ir24  1  0.326051  0.670336  0.499370  1
  Ir  Ir25  1  0.673949  0.329664  0.500630  1
  Ir  Ir26  1  0.000000  0.000000  0.000000  1
  Ir  Ir27  1  0.000000  0.000000  0.500000  1
