# generated using pymatgen
data_Ho10ZnSiSn6
_symmetry_space_group_name_H-M   'P 1'
_cell_length_a   9.13306000
_cell_length_b   9.13306002
_cell_length_c   6.55650000
_cell_angle_alpha   90.00000000
_cell_angle_beta   90.00000000
_cell_angle_gamma   119.99999992
_symmetry_Int_Tables_number   1
_chemical_formula_structural   Ho10ZnSiSn6
_chemical_formula_sum   'Ho10 Zn1 Si1 Sn6'
_cell_volume   473.62576548
_cell_formula_units_Z   1
loop_
 _symmetry_equiv_pos_site_id
 _symmetry_equiv_pos_as_xyz
  1  'x, y, z'
loop_
 _atom_site_type_symbol
 _atom_site_label
 _atom_site_symmetry_multiplicity
 _atom_site_fract_x
 _atom_site_fract_y
 _atom_site_fract_z
 _atom_site_occupancy
  Ho  Ho0  1  0.666667  0.333333  0.000000  1
  Ho  Ho1  1  0.333333  0.666667  0.000000  1
  Ho  Ho2  1  0.333333  0.666667  0.500000  1
  Ho  Ho3  1  0.666667  0.333333  0.500000  1
  Ho  Ho4  1  0.741427  0.741427  0.736565  1
  Ho  Ho5  1  0.258573  0.000000  0.736565  1
  Ho  Ho6  1  0.000000  0.258573  0.736565  1
  Ho  Ho7  1  0.258573  0.258573  0.263435  1
  Ho  Ho8  1  0.741427  0.000000  0.263435  1
  Ho  Ho9  1  0.000000  0.741427  0.263435  1
  Zn  Zn10  1  0.000000  0.000000  0.000000  1
  Si  Si11  1  0.000000  0.000000  0.500000  1
  Sn  Sn12  1  0.388337  0.388337  0.750505  1
  Sn  Sn13  1  0.611663  0.000000  0.750505  1
  Sn  Sn14  1  0.000000  0.611663  0.750505  1
  Sn  Sn15  1  0.611663  0.611663  0.249495  1
  Sn  Sn16  1  0.388337  0.000000  0.249495  1
  Sn  Sn17  1  0.000000  0.388337  0.249495  1
