# generated using pymatgen
data_AcNd(NiGe)2
_symmetry_space_group_name_H-M   'P 1'
_cell_length_a   4.16675100
_cell_length_b   7.27395136
_cell_length_c   8.64148688
_cell_angle_alpha   89.59002079
_cell_angle_beta   90.00000000
_cell_angle_gamma   90.00000000
_symmetry_Int_Tables_number   1
_chemical_formula_structural   AcNd(NiGe)2
_chemical_formula_sum   'Ac2 Nd2 Ni4 Ge4'
_cell_volume   261.90590937
_cell_formula_units_Z   2
loop_
 _symmetry_equiv_pos_site_id
 _symmetry_equiv_pos_as_xyz
  1  'x, y, z'
loop_
 _atom_site_type_symbol
 _atom_site_label
 _atom_site_symmetry_multiplicity
 _atom_site_fract_x
 _atom_site_fract_y
 _atom_site_fract_z
 _atom_site_occupancy
  Ac  Ac0  1  0.250000  0.748952  0.998099  1
  Ac  Ac1  1  0.750000  0.251048  0.001901  1
  Nd  Nd2  1  0.750000  0.247728  0.502524  1
  Nd  Nd3  1  0.250000  0.752272  0.497476  1
  Ni  Ni4  1  0.250000  0.088444  0.260401  1
  Ni  Ni5  1  0.750000  0.911556  0.739599  1
  Ni  Ni6  1  0.750000  0.587929  0.260285  1
  Ni  Ni7  1  0.250000  0.412071  0.739715  1
  Ge  Ge8  1  0.250000  0.419210  0.267378  1
  Ge  Ge9  1  0.750000  0.580790  0.732622  1
  Ge  Ge10  1  0.750000  0.918924  0.261266  1
  Ge  Ge11  1  0.250000  0.081076  0.738734  1
