# generated using pymatgen
data_Tb11Pr5Cd4Os3Pt
_symmetry_space_group_name_H-M   'P 1'
_cell_length_a   9.81284203
_cell_length_b   9.86357739
_cell_length_c   9.86357714
_cell_angle_alpha   59.57869503
_cell_angle_beta   59.42365334
_cell_angle_gamma   59.42365034
_symmetry_Int_Tables_number   1
_chemical_formula_structural   Tb11Pr5Cd4Os3Pt
_chemical_formula_sum   'Tb11 Pr5 Cd4 Os3 Pt1'
_cell_volume   667.01017156
_cell_formula_units_Z   1
loop_
 _symmetry_equiv_pos_site_id
 _symmetry_equiv_pos_as_xyz
  1  'x, y, z'
loop_
 _atom_site_type_symbol
 _atom_site_label
 _atom_site_symmetry_multiplicity
 _atom_site_fract_x
 _atom_site_fract_y
 _atom_site_fract_z
 _atom_site_occupancy
  Tb  Tb0  1  0.345991  0.348924  0.348924  1
  Tb  Tb1  1  0.343869  0.351658  0.959588  1
  Tb  Tb2  1  0.343869  0.959588  0.351658  1
  Tb  Tb3  1  0.964674  0.345492  0.345492  1
  Tb  Tb4  1  0.815199  0.188055  0.188055  1
  Tb  Tb5  1  0.184032  0.813116  0.813116  1
  Tb  Tb6  1  0.186617  0.810388  0.189622  1
  Tb  Tb7  1  0.816542  0.189282  0.805635  1
  Tb  Tb8  1  0.186617  0.189622  0.810388  1
  Tb  Tb9  1  0.816542  0.805635  0.189282  1
  Tb  Tb10  1  0.943201  0.554404  0.554404  1
  Pr  Pr11  1  0.551627  0.943822  0.943822  1
  Pr  Pr12  1  0.556557  0.937710  0.564398  1
  Pr  Pr13  1  0.942031  0.555184  0.942347  1
  Pr  Pr14  1  0.556557  0.564398  0.937710  1
  Pr  Pr15  1  0.942031  0.942347  0.555184  1
  Cd  Cd16  1  0.582093  0.577649  0.577649  1
  Cd  Cd17  1  0.578222  0.578942  0.262510  1
  Cd  Cd18  1  0.578222  0.262510  0.578942  1
  Cd  Cd19  1  0.259082  0.578648  0.578648  1
  Os  Os20  1  0.143644  0.138557  0.138557  1
  Os  Os21  1  0.142556  0.143945  0.578667  1
  Os  Os22  1  0.142556  0.578667  0.143945  1
  Pt  Pt23  1  0.577669  0.141456  0.141456  1
