# generated using pymatgen
data_HoNp9S10
_symmetry_space_group_name_H-M   'P 1'
_cell_length_a   6.77609110
_cell_length_b   7.85497290
_cell_length_c   8.74658100
_cell_angle_alpha   103.01393619
_cell_angle_beta   97.61097594
_cell_angle_gamma   106.76430153
_symmetry_Int_Tables_number   1
_chemical_formula_structural   HoNp9S10
_chemical_formula_sum   'Ho1 Np9 S10'
_cell_volume   424.47654432
_cell_formula_units_Z   1
loop_
 _symmetry_equiv_pos_site_id
 _symmetry_equiv_pos_as_xyz
  1  'x, y, z'
loop_
 _atom_site_type_symbol
 _atom_site_label
 _atom_site_symmetry_multiplicity
 _atom_site_fract_x
 _atom_site_fract_y
 _atom_site_fract_z
 _atom_site_occupancy
  Ho  Ho0  1  0.000000  0.500000  0.000000  1
  Np  Np1  1  0.800058  0.600262  0.599849  1
  Np  Np2  1  0.599192  0.200002  0.200165  1
  Np  Np3  1  0.400808  0.799998  0.799835  1
  Np  Np4  1  0.601170  0.700196  0.200686  1
  Np  Np5  1  0.199942  0.399738  0.400151  1
  Np  Np6  1  0.398830  0.299804  0.799314  1
  Np  Np7  1  0.000000  0.000000  0.000000  1
  Np  Np8  1  0.200324  0.900334  0.400323  1
  Np  Np9  1  0.799676  0.099666  0.599677  1
  S  S10  1  0.699650  0.650071  0.899540  1
  S  S11  1  0.501326  0.252510  0.499888  1
  S  S12  1  0.698705  0.149647  0.899939  1
  S  S13  1  0.301295  0.850353  0.100061  1
  S  S14  1  0.498674  0.747490  0.500112  1
  S  S15  1  0.099734  0.451267  0.699425  1
  S  S16  1  0.300350  0.349929  0.100460  1
  S  S17  1  0.900750  0.051487  0.299198  1
  S  S18  1  0.099250  0.948513  0.700802  1
  S  S19  1  0.900266  0.548733  0.300575  1
