# generated using pymatgen
data_CeEu2(Co3P2)3
_symmetry_space_group_name_H-M   'P 1'
_cell_length_a   3.74930000
_cell_length_b   10.64205100
_cell_length_c   12.31151600
_cell_angle_alpha   90.00000000
_cell_angle_beta   90.00000000
_cell_angle_gamma   90.00000000
_symmetry_Int_Tables_number   1
_chemical_formula_structural   CeEu2(Co3P2)3
_chemical_formula_sum   'Ce2 Eu4 Co18 P12'
_cell_volume   491.23246550
_cell_formula_units_Z   2
loop_
 _symmetry_equiv_pos_site_id
 _symmetry_equiv_pos_as_xyz
  1  'x, y, z'
loop_
 _atom_site_type_symbol
 _atom_site_label
 _atom_site_symmetry_multiplicity
 _atom_site_fract_x
 _atom_site_fract_y
 _atom_site_fract_z
 _atom_site_occupancy
  Ce  Ce0  1  0.000000  0.500000  0.526750  1
  Ce  Ce1  1  0.500000  0.000000  0.473250  1
  Eu  Eu2  1  0.500000  0.819290  0.205761  1
  Eu  Eu3  1  0.500000  0.180710  0.205761  1
  Eu  Eu4  1  0.000000  0.680710  0.794239  1
  Eu  Eu5  1  0.000000  0.319290  0.794239  1
  Co  Co6  1  0.500000  0.500000  0.157750  1
  Co  Co7  1  0.000000  0.000000  0.842250  1
  Co  Co8  1  0.500000  0.500000  0.696982  1
  Co  Co9  1  0.000000  0.000000  0.303018  1
  Co  Co10  1  0.000000  0.500000  0.989840  1
  Co  Co11  1  0.500000  0.000000  0.010160  1
  Co  Co12  1  0.500000  0.333530  0.996737  1
  Co  Co13  1  0.500000  0.666470  0.996737  1
  Co  Co14  1  0.000000  0.166470  0.003263  1
  Co  Co15  1  0.000000  0.833530  0.003263  1
  Co  Co16  1  0.500000  0.300509  0.431079  1
  Co  Co17  1  0.500000  0.699491  0.431079  1
  Co  Co18  1  0.000000  0.199491  0.568921  1
  Co  Co19  1  0.000000  0.800509  0.568921  1
  Co  Co20  1  0.500000  0.882023  0.709848  1
  Co  Co21  1  0.500000  0.117977  0.709848  1
  Co  Co22  1  0.000000  0.617977  0.290152  1
  Co  Co23  1  0.000000  0.382023  0.290152  1
  P  P24  1  0.500000  0.500000  0.886898  1
  P  P25  1  0.000000  0.000000  0.113102  1
  P  P26  1  0.500000  0.500000  0.341203  1
  P  P27  1  0.000000  0.000000  0.658797  1
  P  P28  1  0.500000  0.303991  0.614938  1
  P  P29  1  0.500000  0.696009  0.614938  1
  P  P30  1  0.000000  0.196009  0.385062  1
  P  P31  1  0.000000  0.803991  0.385062  1
  P  P32  1  0.500000  0.846172  0.894508  1
  P  P33  1  0.500000  0.153828  0.894508  1
  P  P34  1  0.000000  0.653828  0.105492  1
  P  P35  1  0.000000  0.346172  0.105492  1
