# generated using pymatgen
data_Ac3LaB4Br5
_symmetry_space_group_name_H-M   'P 1'
_cell_length_a   9.67511396
_cell_length_b   9.67511464
_cell_length_c   10.10311400
_cell_angle_alpha   74.27196171
_cell_angle_beta   74.27196059
_cell_angle_gamma   26.41856755
_symmetry_Int_Tables_number   1
_chemical_formula_structural   Ac3LaB4Br5
_chemical_formula_sum   'Ac3 La1 B4 Br5'
_cell_volume   404.13948616
_cell_formula_units_Z   1
loop_
 _symmetry_equiv_pos_site_id
 _symmetry_equiv_pos_as_xyz
  1  'x, y, z'
loop_
 _atom_site_type_symbol
 _atom_site_label
 _atom_site_symmetry_multiplicity
 _atom_site_fract_x
 _atom_site_fract_y
 _atom_site_fract_z
 _atom_site_occupancy
  Ac  Ac0  1  0.503917  0.503917  0.738819  1
  Ac  Ac1  1  0.495584  0.495584  0.261255  1
  Ac  Ac2  1  0.143059  0.143059  0.926729  1
  La  La3  1  0.861993  0.861993  0.071296  1
  B  B4  1  0.315177  0.683910  0.000112  1
  B  B5  1  0.683910  0.315177  0.000112  1
  B  B6  1  0.998886  0.998886  0.093714  1
  B  B7  1  0.999643  0.999643  0.906869  1
  Br  Br8  1  0.677777  0.677777  0.687500  1
  Br  Br9  1  0.324971  0.324971  0.305849  1
  Br  Br10  1  0.328321  0.328321  0.861509  1
  Br  Br11  1  0.675178  0.675178  0.139805  1
  Br  Br12  1  0.005885  0.005885  0.496630  1
