# generated using pymatgen
data_CaAc2(ZnSn)3
_symmetry_space_group_name_H-M   'P 1'
_cell_length_a   4.71172000
_cell_length_b   4.71172018
_cell_length_c   12.74720300
_cell_angle_alpha   90.00000000
_cell_angle_beta   90.00000000
_cell_angle_gamma   119.99998470
_symmetry_Int_Tables_number   1
_chemical_formula_structural   CaAc2(ZnSn)3
_chemical_formula_sum   'Ca1 Ac2 Zn3 Sn3'
_cell_volume   245.07813417
_cell_formula_units_Z   1
loop_
 _symmetry_equiv_pos_site_id
 _symmetry_equiv_pos_as_xyz
  1  'x, y, z'
loop_
 _atom_site_type_symbol
 _atom_site_label
 _atom_site_symmetry_multiplicity
 _atom_site_fract_x
 _atom_site_fract_y
 _atom_site_fract_z
 _atom_site_occupancy
  Ca  Ca0  1  0.000000  0.000000  0.161123  1
  Ac  Ac1  1  0.000000  0.000000  0.836046  1
  Ac  Ac2  1  0.000000  0.000000  0.481484  1
  Zn  Zn3  1  0.666667  0.333333  0.049002  1
  Zn  Zn4  1  0.333333  0.666667  0.619234  1
  Zn  Zn5  1  0.333333  0.666667  0.349223  1
  Sn  Sn6  1  0.666667  0.333333  0.669171  1
  Sn  Sn7  1  0.666667  0.333333  0.294424  1
  Sn  Sn8  1  0.333333  0.666667  0.996290  1
