# generated using pymatgen
data_Tb15YCd4OsPd3
_symmetry_space_group_name_H-M   'P 1'
_cell_length_a   9.76392969
_cell_length_b   9.76392933
_cell_length_c   9.76563969
_cell_angle_alpha   59.49440243
_cell_angle_beta   59.49440410
_cell_angle_gamma   59.50397491
_symmetry_Int_Tables_number   1
_chemical_formula_structural   Tb15YCd4OsPd3
_chemical_formula_sum   'Tb15 Y1 Cd4 Os1 Pd3'
_cell_volume   650.79475455
_cell_formula_units_Z   1
loop_
 _symmetry_equiv_pos_site_id
 _symmetry_equiv_pos_as_xyz
  1  'x, y, z'
loop_
 _atom_site_type_symbol
 _atom_site_label
 _atom_site_symmetry_multiplicity
 _atom_site_fract_x
 _atom_site_fract_y
 _atom_site_fract_z
 _atom_site_occupancy
  Tb  Tb0  1  0.353115  0.353115  0.352917  1
  Tb  Tb1  1  0.349989  0.349989  0.946421  1
  Tb  Tb2  1  0.349649  0.946487  0.349999  1
  Tb  Tb3  1  0.946487  0.349649  0.349999  1
  Tb  Tb4  1  0.815809  0.188690  0.188794  1
  Tb  Tb5  1  0.188034  0.809909  0.810050  1
  Tb  Tb6  1  0.188690  0.815809  0.188794  1
  Tb  Tb7  1  0.809909  0.188034  0.810050  1
  Tb  Tb8  1  0.188781  0.188781  0.815757  1
  Tb  Tb9  1  0.809976  0.809976  0.188247  1
  Tb  Tb10  1  0.934367  0.566285  0.566211  1
  Tb  Tb11  1  0.558535  0.937143  0.936888  1
  Tb  Tb12  1  0.566285  0.934367  0.566211  1
  Tb  Tb13  1  0.937143  0.558535  0.936888  1
  Tb  Tb14  1  0.566551  0.566551  0.933915  1
  Y  Y15  1  0.936762  0.936762  0.558870  1
  Cd  Cd16  1  0.580389  0.580389  0.580426  1
  Cd  Cd17  1  0.581226  0.581226  0.254010  1
  Cd  Cd18  1  0.581410  0.254029  0.581146  1
  Cd  Cd19  1  0.254029  0.581410  0.581146  1
  Os  Os20  1  0.143896  0.143896  0.143556  1
  Pd  Pd21  1  0.144557  0.144557  0.570044  1
  Pd  Pd22  1  0.144534  0.569876  0.144830  1
  Pd  Pd23  1  0.569876  0.144534  0.144830  1
