# generated using pymatgen
data_Er9Lu(BiAu2)2
_symmetry_space_group_name_H-M   'P 1'
_cell_length_a   8.64306499
_cell_length_b   8.64306503
_cell_length_c   8.64306503
_cell_angle_alpha   124.28575536
_cell_angle_beta   124.28575411
_cell_angle_gamma   82.72445387
_symmetry_Int_Tables_number   1
_chemical_formula_structural   Er9Lu(BiAu2)2
_chemical_formula_sum   'Er9 Lu1 Bi2 Au4'
_cell_volume   423.22744889
_cell_formula_units_Z   1
loop_
 _symmetry_equiv_pos_site_id
 _symmetry_equiv_pos_as_xyz
  1  'x, y, z'
loop_
 _atom_site_type_symbol
 _atom_site_label
 _atom_site_symmetry_multiplicity
 _atom_site_fract_x
 _atom_site_fract_y
 _atom_site_fract_z
 _atom_site_occupancy
  Er  Er0  1  0.000000  0.000000  0.000000  1
  Er  Er1  1  0.513816  0.014061  0.808596  1
  Er  Er2  1  0.205464  0.705219  0.191404  1
  Er  Er3  1  0.014061  0.205464  0.500245  1
  Er  Er4  1  0.705219  0.513816  0.499755  1
  Er  Er5  1  0.486184  0.985939  0.191404  1
  Er  Er6  1  0.794536  0.294781  0.808596  1
  Er  Er7  1  0.985939  0.794536  0.499755  1
  Er  Er8  1  0.294781  0.486184  0.500245  1
  Lu  Lu9  1  0.500000  0.500000  0.000000  1
  Bi  Bi10  1  0.250136  0.250136  0.000000  1
  Bi  Bi11  1  0.749864  0.749864  0.000000  1
  Au  Au12  1  0.139310  0.639069  0.778379  1
  Au  Au13  1  0.860690  0.360931  0.221621  1
  Au  Au14  1  0.639069  0.860690  0.499759  1
  Au  Au15  1  0.360931  0.139310  0.500241  1
