# generated using pymatgen
data_Ti7NbGa2(C2O)2
_symmetry_space_group_name_H-M   'P 1'
_cell_length_a   3.06676400
_cell_length_b   3.06676441
_cell_length_c   23.65098500
_cell_angle_alpha   90.00000000
_cell_angle_beta   90.00000000
_cell_angle_gamma   119.99999562
_symmetry_Int_Tables_number   1
_chemical_formula_structural   Ti7NbGa2(C2O)2
_chemical_formula_sum   'Ti7 Nb1 Ga2 C4 O2'
_cell_volume   192.63742042
_cell_formula_units_Z   1
loop_
 _symmetry_equiv_pos_site_id
 _symmetry_equiv_pos_as_xyz
  1  'x, y, z'
loop_
 _atom_site_type_symbol
 _atom_site_label
 _atom_site_symmetry_multiplicity
 _atom_site_fract_x
 _atom_site_fract_y
 _atom_site_fract_z
 _atom_site_occupancy
  Ti  Ti0  1  0.000000  0.000000  0.656440  1
  Ti  Ti1  1  0.000000  0.000000  0.844282  1
  Ti  Ti2  1  0.000000  0.000000  0.154880  1
  Ti  Ti3  1  0.333333  0.666667  0.443625  1
  Ti  Ti4  1  0.666667  0.333333  0.559630  1
  Ti  Ti5  1  0.666667  0.333333  0.941585  1
  Ti  Ti6  1  0.333333  0.666667  0.057603  1
  Nb  Nb7  1  0.000000  0.000000  0.342079  1
  Ga  Ga8  1  0.333333  0.666667  0.246313  1
  Ga  Ga9  1  0.666667  0.333333  0.750217  1
  C  C10  1  0.666667  0.333333  0.395577  1
  C  C11  1  0.333333  0.666667  0.608069  1
  C  C12  1  0.333333  0.666667  0.892699  1
  C  C13  1  0.666667  0.333333  0.106432  1
  O  O14  1  0.000000  0.000000  0.500694  1
  O  O15  1  0.000000  0.000000  0.999873  1
