# generated using pymatgen
data_SrLa6IrBr12
_symmetry_space_group_name_H-M   'P 1'
_cell_length_a   9.74228442
_cell_length_b   9.74228380
_cell_length_c   9.74228342
_cell_angle_alpha   106.74813638
_cell_angle_beta   106.74813570
_cell_angle_gamma   106.74812047
_symmetry_Int_Tables_number   1
_chemical_formula_structural   SrLa6IrBr12
_chemical_formula_sum   'Sr1 La6 Ir1 Br12'
_cell_volume   775.29623073
_cell_formula_units_Z   1
loop_
 _symmetry_equiv_pos_site_id
 _symmetry_equiv_pos_as_xyz
  1  'x, y, z'
loop_
 _atom_site_type_symbol
 _atom_site_label
 _atom_site_symmetry_multiplicity
 _atom_site_fract_x
 _atom_site_fract_y
 _atom_site_fract_z
 _atom_site_occupancy
  Sr  Sr0  1  0.500000  0.500000  0.500000  1
  La  La1  1  0.105125  0.315575  0.023985  1
  La  La2  1  0.315575  0.023986  0.105124  1
  La  La3  1  0.023986  0.105124  0.315576  1
  La  La4  1  0.976015  0.894876  0.684425  1
  La  La5  1  0.684425  0.976015  0.894876  1
  La  La6  1  0.894875  0.684425  0.976015  1
  Ir  Ir7  1  0.000000  0.000000  0.000000  1
  Br  Br8  1  0.219372  0.683528  0.073546  1
  Br  Br9  1  0.453625  0.374701  0.157703  1
  Br  Br10  1  0.683529  0.073546  0.219372  1
  Br  Br11  1  0.926455  0.780628  0.316472  1
  Br  Br12  1  0.157703  0.453625  0.374701  1
  Br  Br13  1  0.374701  0.157703  0.453625  1
  Br  Br14  1  0.625299  0.842297  0.546376  1
  Br  Br15  1  0.842298  0.546375  0.625299  1
  Br  Br16  1  0.073546  0.219372  0.683529  1
  Br  Br17  1  0.316472  0.926455  0.780628  1
  Br  Br18  1  0.546375  0.625299  0.842298  1
  Br  Br19  1  0.780628  0.316472  0.926454  1
