# generated using pymatgen
data_PmBeSi2Ni
_symmetry_space_group_name_H-M   'P 1'
_cell_length_a   5.65452719
_cell_length_b   5.65452855
_cell_length_c   5.65452814
_cell_angle_alpha   139.25098503
_cell_angle_beta   139.25098651
_cell_angle_gamma   58.99236425
_symmetry_Int_Tables_number   1
_chemical_formula_structural   PmBeSi2Ni
_chemical_formula_sum   'Pm1 Be1 Si2 Ni1'
_cell_volume   76.29699590
_cell_formula_units_Z   1
loop_
 _symmetry_equiv_pos_site_id
 _symmetry_equiv_pos_as_xyz
  1  'x, y, z'
loop_
 _atom_site_type_symbol
 _atom_site_label
 _atom_site_symmetry_multiplicity
 _atom_site_fract_x
 _atom_site_fract_y
 _atom_site_fract_z
 _atom_site_occupancy
  Pm  Pm0  1  0.000000  0.000000  0.000000  1
  Be  Be1  1  0.250000  0.750000  0.500000  1
  Si  Si2  1  0.374611  0.374611  0.000000  1
  Si  Si3  1  0.625388  0.625388  0.000000  1
  Ni  Ni4  1  0.750000  0.250000  0.500000  1
