# generated using pymatgen
data_Tm4ScTc5Ge8
_symmetry_space_group_name_H-M   'P 1'
_cell_length_a   6.91100500
_cell_length_b   6.98143095
_cell_length_c   13.11018558
_cell_angle_alpha   89.76178146
_cell_angle_beta   90.00000000
_cell_angle_gamma   90.00000000
_symmetry_Int_Tables_number   1
_chemical_formula_structural   Tm4ScTc5Ge8
_chemical_formula_sum   'Tm8 Sc2 Tc10 Ge16'
_cell_volume   632.54399903
_cell_formula_units_Z   2
loop_
 _symmetry_equiv_pos_site_id
 _symmetry_equiv_pos_as_xyz
  1  'x, y, z'
loop_
 _atom_site_type_symbol
 _atom_site_label
 _atom_site_symmetry_multiplicity
 _atom_site_fract_x
 _atom_site_fract_y
 _atom_site_fract_z
 _atom_site_occupancy
  Tm  Tm0  1  0.488907  0.676895  0.591456  1
  Tm  Tm1  1  0.988907  0.823105  0.908544  1
  Tm  Tm2  1  0.514507  0.330398  0.093830  1
  Tm  Tm3  1  0.014507  0.169602  0.406170  1
  Tm  Tm4  1  0.510230  0.336157  0.404769  1
  Tm  Tm5  1  0.010230  0.163843  0.095231  1
  Tm  Tm6  1  0.488438  0.670164  0.907200  1
  Tm  Tm7  1  0.988438  0.829836  0.592800  1
  Sc  Sc8  1  0.660667  0.161763  0.876854  1
  Sc  Sc9  1  0.160667  0.338237  0.623146  1
  Tc  Tc10  1  0.672770  0.146042  0.612642  1
  Tc  Tc11  1  0.172770  0.353958  0.887358  1
  Tc  Tc12  1  0.309959  0.853939  0.126634  1
  Tc  Tc13  1  0.809959  0.646061  0.373366  1
  Tc  Tc14  1  0.342227  0.852912  0.365860  1
  Tc  Tc15  1  0.842227  0.647088  0.134140  1
  Tc  Tc16  1  0.831651  0.502599  0.748414  1
  Tc  Tc17  1  0.331651  0.997401  0.751586  1
  Tc  Tc18  1  0.178957  0.491656  0.250054  1
  Tc  Tc19  1  0.678957  0.008344  0.249946  1
  Ge  Ge20  1  0.672522  0.949211  0.447823  1
  Ge  Ge21  1  0.172522  0.550789  0.052177  1
  Ge  Ge22  1  0.316694  0.048608  0.954037  1
  Ge  Ge23  1  0.816694  0.451392  0.545963  1
  Ge  Ge24  1  0.336460  0.042684  0.541053  1
  Ge  Ge25  1  0.836460  0.457316  0.958947  1
  Ge  Ge26  1  0.664273  0.939573  0.055932  1
  Ge  Ge27  1  0.164273  0.560427  0.444068  1
  Ge  Ge28  1  0.473296  0.366734  0.741743  1
  Ge  Ge29  1  0.973296  0.133266  0.758257  1
  Ge  Ge30  1  0.528338  0.646077  0.240221  1
  Ge  Ge31  1  0.028338  0.853923  0.259779  1
  Ge  Ge32  1  0.691786  0.858811  0.749714  1
  Ge  Ge33  1  0.191786  0.641189  0.750286  1
  Ge  Ge34  1  0.318315  0.143954  0.248572  1
  Ge  Ge35  1  0.818315  0.356046  0.251428  1
