# generated using pymatgen
data_Ba2ThNpF12
_symmetry_space_group_name_H-M   'P 1'
_cell_length_a   7.34003425
_cell_length_b   7.34003503
_cell_length_c   5.68127800
_cell_angle_alpha   90.00000000
_cell_angle_beta   90.00000000
_cell_angle_gamma   111.61671618
_symmetry_Int_Tables_number   1
_chemical_formula_structural   Ba2ThNpF12
_chemical_formula_sum   'Ba2 Th1 Np1 F12'
_cell_volume   284.55788897
_cell_formula_units_Z   1
loop_
 _symmetry_equiv_pos_site_id
 _symmetry_equiv_pos_as_xyz
  1  'x, y, z'
loop_
 _atom_site_type_symbol
 _atom_site_label
 _atom_site_symmetry_multiplicity
 _atom_site_fract_x
 _atom_site_fract_y
 _atom_site_fract_z
 _atom_site_occupancy
  Ba  Ba0  1  0.250000  0.750000  0.549508  1
  Ba  Ba1  1  0.750000  0.250000  0.450492  1
  Th  Th2  1  0.750000  0.750000  0.000000  1
  Np  Np3  1  0.250000  0.250000  0.000000  1
  F  F4  1  0.173869  0.438481  0.253515  1
  F  F5  1  0.326131  0.061519  0.253515  1
  F  F6  1  0.438481  0.173869  0.746485  1
  F  F7  1  0.061519  0.326131  0.746485  1
  F  F8  1  0.565853  0.428000  0.168412  1
  F  F9  1  0.934147  0.072000  0.168412  1
  F  F10  1  0.428000  0.565853  0.831588  1
  F  F11  1  0.072000  0.934147  0.831588  1
  F  F12  1  0.939432  0.670031  0.263943  1
  F  F13  1  0.560568  0.829969  0.263943  1
  F  F14  1  0.670031  0.939432  0.736057  1
  F  F15  1  0.829969  0.560568  0.736057  1
