# generated using pymatgen
data_TbEr2WO7
_symmetry_space_group_name_H-M   'P 1'
_cell_length_a   6.43467247
_cell_length_b   6.43467361
_cell_length_c   7.47601700
_cell_angle_alpha   90.00000000
_cell_angle_beta   90.00000000
_cell_angle_gamma   109.26012904
_symmetry_Int_Tables_number   1
_chemical_formula_structural   TbEr2WO7
_chemical_formula_sum   'Tb2 Er4 W2 O14'
_cell_volume   292.21962341
_cell_formula_units_Z   2
loop_
 _symmetry_equiv_pos_site_id
 _symmetry_equiv_pos_as_xyz
  1  'x, y, z'
loop_
 _atom_site_type_symbol
 _atom_site_label
 _atom_site_symmetry_multiplicity
 _atom_site_fract_x
 _atom_site_fract_y
 _atom_site_fract_z
 _atom_site_occupancy
  Tb  Tb0  1  0.500000  0.500000  0.500000  1
  Tb  Tb1  1  0.500000  0.500000  0.000000  1
  Er  Er2  1  0.532797  0.001915  0.750000  1
  Er  Er3  1  0.001915  0.532797  0.250000  1
  Er  Er4  1  0.467203  0.998085  0.250000  1
  Er  Er5  1  0.998085  0.467203  0.750000  1
  W  W6  1  0.000000  0.000000  0.500000  1
  W  W7  1  0.000000  0.000000  0.000000  1
  O  O8  1  0.675450  0.924693  0.470313  1
  O  O9  1  0.924693  0.675450  0.529687  1
  O  O10  1  0.675450  0.924693  0.029687  1
  O  O11  1  0.924693  0.675450  0.970313  1
  O  O12  1  0.324550  0.075307  0.529687  1
  O  O13  1  0.075307  0.324550  0.470313  1
  O  O14  1  0.324550  0.075307  0.970313  1
  O  O15  1  0.075307  0.324550  0.029687  1
  O  O16  1  0.924239  0.075761  0.750000  1
  O  O17  1  0.075761  0.924239  0.250000  1
  O  O18  1  0.366478  0.633522  0.750000  1
  O  O19  1  0.633522  0.366478  0.250000  1
  O  O20  1  0.638626  0.361374  0.750000  1
  O  O21  1  0.361374  0.638626  0.250000  1
