# generated using pymatgen
data_La3TbPtSe7
_symmetry_space_group_name_H-M   'P 1'
_cell_length_a   4.09299906
_cell_length_b   8.41262012
_cell_length_c   8.70767651
_cell_angle_alpha   90.03037868
_cell_angle_beta   89.99606999
_cell_angle_gamma   89.99726189
_symmetry_Int_Tables_number   1
_chemical_formula_structural   La3TbPtSe7
_chemical_formula_sum   'La3 Tb1 Pt1 Se7'
_cell_volume   299.83004304
_cell_formula_units_Z   1
loop_
 _symmetry_equiv_pos_site_id
 _symmetry_equiv_pos_as_xyz
  1  'x, y, z'
loop_
 _atom_site_type_symbol
 _atom_site_label
 _atom_site_symmetry_multiplicity
 _atom_site_fract_x
 _atom_site_fract_y
 _atom_site_fract_z
 _atom_site_occupancy
  La  La0  1  0.250692  0.625544  0.748876  1
  La  La1  1  0.749987  0.870083  0.273111  1
  La  La2  1  0.749708  0.379256  0.273998  1
  Tb  Tb3  1  0.250315  0.125379  0.699775  1
  Pt  Pt4  1  0.749355  0.125109  0.994688  1
  Se  Se5  1  0.249361  0.315479  0.993006  1
  Se  Se6  1  0.750293  0.624113  0.006688  1
  Se  Se7  1  0.750429  0.882338  0.636912  1
  Se  Se8  1  0.250000  0.624969  0.375665  1
  Se  Se9  1  0.249551  0.934828  0.992364  1
  Se  Se10  1  0.750362  0.368286  0.637326  1
  Se  Se11  1  0.249946  0.124614  0.367593  1
