# generated using pymatgen
data_Er2Lu4TiMn5O18
_symmetry_space_group_name_H-M   'P 1'
_cell_length_a   6.11983586
_cell_length_b   6.11217513
_cell_length_c   11.59548027
_cell_angle_alpha   90.25424403
_cell_angle_beta   89.52613259
_cell_angle_gamma   120.03885805
_symmetry_Int_Tables_number   1
_chemical_formula_structural   Er2Lu4TiMn5O18
_chemical_formula_sum   'Er2 Lu4 Ti1 Mn5 O18'
_cell_volume   375.46535635
_cell_formula_units_Z   1
loop_
 _symmetry_equiv_pos_site_id
 _symmetry_equiv_pos_as_xyz
  1  'x, y, z'
loop_
 _atom_site_type_symbol
 _atom_site_label
 _atom_site_symmetry_multiplicity
 _atom_site_fract_x
 _atom_site_fract_y
 _atom_site_fract_z
 _atom_site_occupancy
  Er  Er0  1  0.665758  0.335378  0.229273  1
  Er  Er1  1  0.334601  0.666770  0.735203  1
  Lu  Lu2  1  0.667753  0.333232  0.735487  1
  Lu  Lu3  1  0.330319  0.664521  0.228903  1
  Lu  Lu4  1  0.002458  0.000019  0.776968  1
  Lu  Lu5  1  0.999410  0.000052  0.273078  1
  Ti  Ti6  1  0.666021  0.000214  0.500800  1
  Mn  Mn7  1  0.667776  0.668285  0.000976  1
  Mn  Mn8  1  0.999639  0.331773  0.000949  1
  Mn  Mn9  1  0.999784  0.667028  0.500091  1
  Mn  Mn10  1  0.332876  0.332854  0.500087  1
  Mn  Mn11  1  0.332218  0.999982  0.001108  1
  O  O12  1  0.667178  0.333718  0.023841  1
  O  O13  1  0.357860  0.691614  0.522363  1
  O  O14  1  0.666727  0.308849  0.521536  1
  O  O15  1  0.333430  0.666275  0.023610  1
  O  O16  1  0.000649  0.000003  0.972738  1
  O  O17  1  0.974869  0.999743  0.474258  1
  O  O18  1  0.361810  0.003496  0.836496  1
  O  O19  1  0.354002  0.357763  0.331409  1
  O  O20  1  0.003483  0.645818  0.331528  1
  O  O21  1  0.997243  0.358659  0.837028  1
  O  O22  1  0.642013  0.637864  0.837021  1
  O  O23  1  0.634533  0.996732  0.334165  1
  O  O24  1  0.301165  0.996255  0.165367  1
  O  O25  1  0.310525  0.306265  0.669317  1
  O  O26  1  0.996123  0.689531  0.669187  1
  O  O27  1  0.002584  0.303829  0.165505  1
  O  O28  1  0.694939  0.699970  0.165579  1
  O  O29  1  0.702251  0.003507  0.670123  1
