# generated using pymatgen
data_ZnGaP7Ru12
_symmetry_space_group_name_H-M   'P 1'
_cell_length_a   9.53758300
_cell_length_b   9.53758210
_cell_length_c   3.74285700
_cell_angle_alpha   90.00000000
_cell_angle_beta   90.00000000
_cell_angle_gamma   119.99999270
_symmetry_Int_Tables_number   1
_chemical_formula_structural   ZnGaP7Ru12
_chemical_formula_sum   'Zn1 Ga1 P7 Ru12'
_cell_volume   294.85637254
_cell_formula_units_Z   1
loop_
 _symmetry_equiv_pos_site_id
 _symmetry_equiv_pos_as_xyz
  1  'x, y, z'
loop_
 _atom_site_type_symbol
 _atom_site_label
 _atom_site_symmetry_multiplicity
 _atom_site_fract_x
 _atom_site_fract_y
 _atom_site_fract_z
 _atom_site_occupancy
  Zn  Zn0  1  0.666667  0.333333  0.500000  1
  Ga  Ga1  1  0.333333  0.666667  0.000000  1
  P  P2  1  0.616010  0.689540  0.500000  1
  P  P3  1  0.000000  0.000000  0.000000  1
  P  P4  1  0.310460  0.926470  0.500000  1
  P  P5  1  0.073530  0.383990  0.500000  1
  P  P6  1  0.914529  0.612792  0.000000  1
  P  P7  1  0.387208  0.301737  0.000000  1
  P  P8  1  0.698263  0.085471  0.000000  1
  Ru  Ru9  1  0.530636  0.890996  0.500000  1
  Ru  Ru10  1  0.360361  0.469364  0.500000  1
  Ru  Ru11  1  0.862729  0.115170  0.500000  1
  Ru  Ru12  1  0.252441  0.137271  0.500000  1
  Ru  Ru13  1  0.884830  0.747559  0.500000  1
  Ru  Ru14  1  0.731277  0.856916  0.000000  1
  Ru  Ru15  1  0.143084  0.874360  0.000000  1
  Ru  Ru16  1  0.125640  0.268723  0.000000  1
  Ru  Ru17  1  0.466657  0.100281  0.000000  1
  Ru  Ru18  1  0.899719  0.366378  0.000000  1
  Ru  Ru19  1  0.633622  0.533343  0.000000  1
  Ru  Ru20  1  0.109004  0.639639  0.500000  1
