# generated using pymatgen
data_KBa19(Bi2P)4
_symmetry_space_group_name_H-M   'P 1'
_cell_length_a   9.25378796
_cell_length_b   10.56010458
_cell_length_c   14.33392600
_cell_angle_alpha   90.14314594
_cell_angle_beta   90.22279920
_cell_angle_gamma   90.20599257
_symmetry_Int_Tables_number   1
_chemical_formula_structural   KBa19(Bi2P)4
_chemical_formula_sum   'K1 Ba19 Bi8 P4'
_cell_volume   1400.70106936
_cell_formula_units_Z   1
loop_
 _symmetry_equiv_pos_site_id
 _symmetry_equiv_pos_as_xyz
  1  'x, y, z'
loop_
 _atom_site_type_symbol
 _atom_site_label
 _atom_site_symmetry_multiplicity
 _atom_site_fract_x
 _atom_site_fract_y
 _atom_site_fract_z
 _atom_site_occupancy
  K  K0  1  0.681072  0.532660  0.577018  1
  Ba  Ba1  1  0.054411  0.747035  0.498900  1
  Ba  Ba2  1  0.941002  0.258903  0.502103  1
  Ba  Ba3  1  0.549630  0.248627  0.001591  1
  Ba  Ba4  1  0.448682  0.750480  0.000411  1
  Ba  Ba5  1  0.858990  0.746110  0.806145  1
  Ba  Ba6  1  0.140824  0.251298  0.194764  1
  Ba  Ba7  1  0.363540  0.251626  0.694877  1
  Ba  Ba8  1  0.638938  0.749358  0.304249  1
  Ba  Ba9  1  0.331327  0.469382  0.427733  1
  Ba  Ba10  1  0.181511  0.468407  0.925172  1
  Ba  Ba11  1  0.313196  0.034311  0.422590  1
  Ba  Ba12  1  0.820170  0.529965  0.074822  1
  Ba  Ba13  1  0.677100  0.970761  0.573679  1
  Ba  Ba14  1  0.821356  0.968668  0.076516  1
  Ba  Ba15  1  0.178098  0.030447  0.922771  1
  Ba  Ba16  1  0.339642  0.747609  0.705557  1
  Ba  Ba17  1  0.664933  0.247674  0.292192  1
  Ba  Ba18  1  0.833502  0.254211  0.792108  1
  Ba  Ba19  1  0.167176  0.749089  0.208806  1
  Bi  Bi20  1  0.563046  0.508028  0.835892  1
  Bi  Bi21  1  0.439861  0.492735  0.173121  1
  Bi  Bi22  1  0.070339  0.493205  0.673186  1
  Bi  Bi23  1  0.437883  0.007341  0.170771  1
  Bi  Bi24  1  0.943687  0.506174  0.324595  1
  Bi  Bi25  1  0.563127  0.991907  0.827689  1
  Bi  Bi26  1  0.936085  0.992341  0.329740  1
  Bi  Bi27  1  0.056938  0.005586  0.670813  1
  P  P28  1  0.065106  0.749709  0.990938  1
  P  P29  1  0.934898  0.248632  0.008980  1
  P  P30  1  0.560991  0.240280  0.507175  1
  P  P31  1  0.422940  0.757438  0.485099  1
