# generated using pymatgen
data_Li2DyTcH6
_symmetry_space_group_name_H-M   'P 1'
_cell_length_a   4.99177176
_cell_length_b   4.99177155
_cell_length_c   4.99178300
_cell_angle_alpha   120.00021566
_cell_angle_beta   120.00029046
_cell_angle_gamma   59.99990008
_symmetry_Int_Tables_number   1
_chemical_formula_structural   Li2DyTcH6
_chemical_formula_sum   'Li2 Dy1 Tc1 H6'
_cell_volume   87.95248856
_cell_formula_units_Z   1
loop_
 _symmetry_equiv_pos_site_id
 _symmetry_equiv_pos_as_xyz
  1  'x, y, z'
loop_
 _atom_site_type_symbol
 _atom_site_label
 _atom_site_symmetry_multiplicity
 _atom_site_fract_x
 _atom_site_fract_y
 _atom_site_fract_z
 _atom_site_occupancy
  Li  Li0  1  0.500000  0.500000  0.499998  1
  Li  Li1  1  0.250000  0.250000  0.750000  1
  Dy  Dy2  1  0.750002  0.749996  0.249997  1
  Tc  Tc3  1  0.000002  0.000002  0.000002  1
  H  H4  1  0.247650  0.247651  0.247651  1
  H  H5  1  0.752349  0.247652  0.247651  1
  H  H6  1  0.247652  0.752349  0.247651  1
  H  H7  1  0.752349  0.247653  0.752348  1
  H  H8  1  0.247651  0.752349  0.752348  1
  H  H9  1  0.752349  0.752349  0.752349  1
