# generated using pymatgen
data_Ac3Nd2Sn10Ir3Rh
_symmetry_space_group_name_H-M   'P 1'
_cell_length_a   14.37137765
_cell_length_b   14.36693416
_cell_length_c   4.78042100
_cell_angle_alpha   90.00000000
_cell_angle_beta   90.00000000
_cell_angle_gamma   90.08859679
_symmetry_Int_Tables_number   1
_chemical_formula_structural   Ac3Nd2Sn10Ir3Rh
_chemical_formula_sum   'Ac6 Nd4 Sn20 Ir6 Rh2'
_cell_volume   987.02494696
_cell_formula_units_Z   2
loop_
 _symmetry_equiv_pos_site_id
 _symmetry_equiv_pos_as_xyz
  1  'x, y, z'
loop_
 _atom_site_type_symbol
 _atom_site_label
 _atom_site_symmetry_multiplicity
 _atom_site_fract_x
 _atom_site_fract_y
 _atom_site_fract_z
 _atom_site_occupancy
  Ac  Ac0  1  0.500000  0.500000  0.000000  1
  Ac  Ac1  1  0.000000  0.000000  0.000000  1
  Ac  Ac2  1  0.888616  0.386750  0.500000  1
  Ac  Ac3  1  0.111384  0.613250  0.500000  1
  Ac  Ac4  1  0.387462  0.112498  0.500000  1
  Ac  Ac5  1  0.612538  0.887502  0.500000  1
  Nd  Nd6  1  0.677267  0.176941  0.500000  1
  Nd  Nd7  1  0.322733  0.823059  0.500000  1
  Nd  Nd8  1  0.176010  0.322006  0.500000  1
  Nd  Nd9  1  0.823990  0.677994  0.500000  1
  Sn  Sn10  1  0.570981  0.070968  0.000000  1
  Sn  Sn11  1  0.429019  0.929032  0.000000  1
  Sn  Sn12  1  0.071600  0.429794  0.000000  1
  Sn  Sn13  1  0.928400  0.570206  0.000000  1
  Sn  Sn14  1  0.655413  0.697400  0.000000  1
  Sn  Sn15  1  0.344587  0.302600  0.000000  1
  Sn  Sn16  1  0.155428  0.801905  0.000000  1
  Sn  Sn17  1  0.844572  0.198095  0.000000  1
  Sn  Sn18  1  0.302731  0.654680  0.000000  1
  Sn  Sn19  1  0.697269  0.345320  0.000000  1
  Sn  Sn20  1  0.197910  0.155500  0.000000  1
  Sn  Sn21  1  0.802090  0.844500  0.000000  1
  Sn  Sn22  1  0.667552  0.506136  0.500000  1
  Sn  Sn23  1  0.332448  0.493864  0.500000  1
  Sn  Sn24  1  0.166034  0.993126  0.500000  1
  Sn  Sn25  1  0.833966  0.006874  0.500000  1
  Sn  Sn26  1  0.492853  0.666061  0.500000  1
  Sn  Sn27  1  0.507147  0.333939  0.500000  1
  Sn  Sn28  1  0.006499  0.165847  0.500000  1
  Sn  Sn29  1  0.993501  0.834153  0.500000  1
  Ir  Ir30  1  0.245955  0.971686  0.000000  1
  Ir  Ir31  1  0.754045  0.028314  0.000000  1
  Ir  Ir32  1  0.471714  0.746082  0.000000  1
  Ir  Ir33  1  0.528286  0.253918  0.000000  1
  Ir  Ir34  1  0.028861  0.245839  0.000000  1
  Ir  Ir35  1  0.971139  0.754161  0.000000  1
  Rh  Rh36  1  0.744422  0.528350  0.000000  1
  Rh  Rh37  1  0.255578  0.471650  0.000000  1
