# generated using pymatgen
data_Cd3Bi(Ru2O7)2
_symmetry_space_group_name_H-M   'P 1'
_cell_length_a   7.29106350
_cell_length_b   7.24815248
_cell_length_c   7.24815200
_cell_angle_alpha   60.00000218
_cell_angle_beta   60.19450029
_cell_angle_gamma   60.19450562
_symmetry_Int_Tables_number   1
_chemical_formula_structural   Cd3Bi(Ru2O7)2
_chemical_formula_sum   'Cd3 Bi1 Ru4 O14'
_cell_volume   271.64458599
_cell_formula_units_Z   1
loop_
 _symmetry_equiv_pos_site_id
 _symmetry_equiv_pos_as_xyz
  1  'x, y, z'
loop_
 _atom_site_type_symbol
 _atom_site_label
 _atom_site_symmetry_multiplicity
 _atom_site_fract_x
 _atom_site_fract_y
 _atom_site_fract_z
 _atom_site_occupancy
  Cd  Cd0  1  0.125000  0.125000  0.625000  1
  Cd  Cd1  1  0.125000  0.625000  0.125000  1
  Cd  Cd2  1  0.125000  0.125000  0.125000  1
  Bi  Bi3  1  0.625000  0.125000  0.125000  1
  Ru  Ru4  1  0.625000  0.625000  0.125000  1
  Ru  Ru5  1  0.625000  0.125000  0.625000  1
  Ru  Ru6  1  0.125000  0.625000  0.625000  1
  Ru  Ru7  1  0.625000  0.625000  0.625000  1
  O  O8  1  0.238071  0.253976  0.253976  1
  O  O9  1  0.011929  0.996024  0.996024  1
  O  O10  1  0.549557  0.954728  0.540988  1
  O  O11  1  0.312031  0.690670  0.306629  1
  O  O12  1  0.549557  0.540988  0.954728  1
  O  O13  1  0.937969  0.559330  0.559330  1
  O  O14  1  0.549557  0.954728  0.954728  1
  O  O15  1  0.937969  0.943371  0.559330  1
  O  O16  1  0.937969  0.559330  0.943371  1
  O  O17  1  0.700443  0.295272  0.295272  1
  O  O18  1  0.312031  0.690670  0.690670  1
  O  O19  1  0.700443  0.295272  0.709012  1
  O  O20  1  0.312031  0.306629  0.690670  1
  O  O21  1  0.700443  0.709012  0.295272  1
