# generated using pymatgen
data_Ho4ZnCd2Ni3
_symmetry_space_group_name_H-M   'P 1'
_cell_length_a   7.48643078
_cell_length_b   7.48643106
_cell_length_c   3.61607200
_cell_angle_alpha   90.00000000
_cell_angle_beta   90.00000000
_cell_angle_gamma   91.02404933
_symmetry_Int_Tables_number   1
_chemical_formula_structural   Ho4ZnCd2Ni3
_chemical_formula_sum   'Ho4 Zn1 Cd2 Ni3'
_cell_volume   202.63634422
_cell_formula_units_Z   1
loop_
 _symmetry_equiv_pos_site_id
 _symmetry_equiv_pos_as_xyz
  1  'x, y, z'
loop_
 _atom_site_type_symbol
 _atom_site_label
 _atom_site_symmetry_multiplicity
 _atom_site_fract_x
 _atom_site_fract_y
 _atom_site_fract_z
 _atom_site_occupancy
  Ho  Ho0  1  0.333226  0.804322  0.500000  1
  Ho  Ho1  1  0.822683  0.677317  0.500000  1
  Ho  Ho2  1  0.154701  0.345299  0.500000  1
  Ho  Ho3  1  0.695678  0.166774  0.500000  1
  Zn  Zn4  1  0.379001  0.120999  0.000000  1
  Cd  Cd5  1  0.009182  0.995698  0.000000  1
  Cd  Cd6  1  0.504302  0.490818  0.000000  1
  Ni  Ni7  1  0.873041  0.387728  0.000000  1
  Ni  Ni8  1  0.112272  0.626959  0.000000  1
  Ni  Ni9  1  0.615914  0.884086  0.000000  1
