# generated using pymatgen
data_BaLa(AgPb)2
_symmetry_space_group_name_H-M   'P 1'
_cell_length_a   5.06893600
_cell_length_b   5.06893657
_cell_length_c   8.37776300
_cell_angle_alpha   90.00000000
_cell_angle_beta   90.00000000
_cell_angle_gamma   119.99999630
_symmetry_Int_Tables_number   1
_chemical_formula_structural   BaLa(AgPb)2
_chemical_formula_sum   'Ba1 La1 Ag2 Pb2'
_cell_volume   186.41994801
_cell_formula_units_Z   1
loop_
 _symmetry_equiv_pos_site_id
 _symmetry_equiv_pos_as_xyz
  1  'x, y, z'
loop_
 _atom_site_type_symbol
 _atom_site_label
 _atom_site_symmetry_multiplicity
 _atom_site_fract_x
 _atom_site_fract_y
 _atom_site_fract_z
 _atom_site_occupancy
  Ba  Ba0  1  0.000000  0.000000  0.016874  1
  La  La1  1  0.000000  0.000000  0.518126  1
  Ag  Ag2  1  0.666667  0.333333  0.331003  1
  Ag  Ag3  1  0.333333  0.666667  0.739804  1
  Pb  Pb4  1  0.333333  0.666667  0.292906  1
  Pb  Pb5  1  0.666667  0.333333  0.715289  1
