# generated using pymatgen
data_Tm3In3HgRu2
_symmetry_space_group_name_H-M   'P 1'
_cell_length_a   7.98187300
_cell_length_b   7.98187207
_cell_length_c   3.58378500
_cell_angle_alpha   90.00000000
_cell_angle_beta   90.00000000
_cell_angle_gamma   119.99999972
_symmetry_Int_Tables_number   1
_chemical_formula_structural   Tm3In3HgRu2
_chemical_formula_sum   'Tm3 In3 Hg1 Ru2'
_cell_volume   197.73436631
_cell_formula_units_Z   1
loop_
 _symmetry_equiv_pos_site_id
 _symmetry_equiv_pos_as_xyz
  1  'x, y, z'
loop_
 _atom_site_type_symbol
 _atom_site_label
 _atom_site_symmetry_multiplicity
 _atom_site_fract_x
 _atom_site_fract_y
 _atom_site_fract_z
 _atom_site_occupancy
  Tm  Tm0  1  0.961996  0.374003  0.500000  1
  Tm  Tm1  1  0.625997  0.587994  0.500000  1
  Tm  Tm2  1  0.412006  0.038004  0.500000  1
  In  In3  1  0.266578  0.267688  0.000000  1
  In  In4  1  0.001110  0.733422  0.000000  1
  In  In5  1  0.732312  0.998890  0.000000  1
  Hg  Hg6  1  0.333333  0.666667  0.000000  1
  Ru  Ru7  1  0.000000  0.000000  0.500000  1
  Ru  Ru8  1  0.666667  0.333333  0.000000  1
