# generated using pymatgen
data_ErLu3(Si4Tc3)2
_symmetry_space_group_name_H-M   'P 1'
_cell_length_a   6.75716051
_cell_length_b   6.75780536
_cell_length_c   12.58939200
_cell_angle_alpha   90.09997805
_cell_angle_beta   89.72913723
_cell_angle_gamma   90.00882383
_symmetry_Int_Tables_number   1
_chemical_formula_structural   ErLu3(Si4Tc3)2
_chemical_formula_sum   'Er2 Lu6 Si16 Tc12'
_cell_volume   574.86934681
_cell_formula_units_Z   2
loop_
 _symmetry_equiv_pos_site_id
 _symmetry_equiv_pos_as_xyz
  1  'x, y, z'
loop_
 _atom_site_type_symbol
 _atom_site_label
 _atom_site_symmetry_multiplicity
 _atom_site_fract_x
 _atom_site_fract_y
 _atom_site_fract_z
 _atom_site_occupancy
  Er  Er0  1  0.504601  0.842063  0.718644  1
  Er  Er1  1  0.338335  0.999258  0.470056  1
  Lu  Lu2  1  0.002654  0.661068  0.029728  1
  Lu  Lu3  1  0.995222  0.343851  0.530878  1
  Lu  Lu4  1  0.657876  0.005391  0.968917  1
  Lu  Lu5  1  0.160668  0.498158  0.779632  1
  Lu  Lu6  1  0.842081  0.505828  0.281176  1
  Lu  Lu7  1  0.497404  0.161666  0.220160  1
  Si  Si8  1  0.020917  0.731470  0.437356  1
  Si  Si9  1  0.973600  0.281208  0.934750  1
  Si  Si10  1  0.734694  0.020400  0.560530  1
  Si  Si11  1  0.218099  0.470598  0.183061  1
  Si  Si12  1  0.769999  0.519584  0.689277  1
  Si  Si13  1  0.477754  0.231908  0.813397  1
  Si  Si14  1  0.526481  0.780621  0.314360  1
  Si  Si15  1  0.282157  0.969783  0.067030  1
  Si  Si16  1  0.805291  0.878675  0.185344  1
  Si  Si17  1  0.308532  0.614082  0.562815  1
  Si  Si18  1  0.694844  0.378709  0.064353  1
  Si  Si19  1  0.617869  0.308947  0.435259  1
  Si  Si20  1  0.381653  0.691779  0.937744  1
  Si  Si21  1  0.117550  0.193288  0.311904  1
  Si  Si22  1  0.189627  0.115831  0.687471  1
  Si  Si23  1  0.882423  0.806925  0.815586  1
  Tc  Tc24  1  0.322407  0.482395  0.373595  1
  Tc  Tc25  1  0.812372  0.028050  0.366178  1
  Tc  Tc26  1  0.979821  0.172682  0.124467  1
  Tc  Tc27  1  0.023911  0.808486  0.632522  1
  Tc  Tc28  1  0.476263  0.311501  0.619646  1
  Tc  Tc29  1  0.175357  0.980850  0.877180  1
  Tc  Tc30  1  0.668300  0.668305  0.499088  1
  Tc  Tc31  1  0.833553  0.169531  0.750338  1
  Tc  Tc32  1  0.166254  0.833511  0.249394  1
  Tc  Tc33  1  0.333323  0.333716  0.999968  1
  Tc  Tc34  1  0.520480  0.673563  0.124780  1
  Tc  Tc35  1  0.687632  0.526323  0.883413  1
