# generated using pymatgen
data_La(Yb5Bi4)3
_symmetry_space_group_name_H-M   'P 1'
_cell_length_a   9.66655980
_cell_length_b   9.66656053
_cell_length_c   9.66656000
_cell_angle_alpha   89.73834220
_cell_angle_beta   89.73834218
_cell_angle_gamma   90.26165743
_symmetry_Int_Tables_number   1
_chemical_formula_structural   La(Yb5Bi4)3
_chemical_formula_sum   'La1 Yb15 Bi12'
_cell_volume   903.23808156
_cell_formula_units_Z   1
loop_
 _symmetry_equiv_pos_site_id
 _symmetry_equiv_pos_as_xyz
  1  'x, y, z'
loop_
 _atom_site_type_symbol
 _atom_site_label
 _atom_site_symmetry_multiplicity
 _atom_site_fract_x
 _atom_site_fract_y
 _atom_site_fract_z
 _atom_site_occupancy
  La  La0  1  0.075485  0.575485  0.924515  1
  Yb  Yb1  1  0.821700  0.321700  0.178300  1
  Yb  Yb2  1  0.923276  0.930684  0.926409  1
  Yb  Yb3  1  0.824424  0.674571  0.325391  1
  Yb  Yb4  1  0.175082  0.825825  0.325587  1
  Yb  Yb5  1  0.174571  0.174609  0.175576  1
  Yb  Yb6  1  0.328154  0.828154  0.671846  1
  Yb  Yb7  1  0.073591  0.423276  0.569316  1
  Yb  Yb8  1  0.325825  0.174413  0.824918  1
  Yb  Yb9  1  0.674609  0.324424  0.825429  1
  Yb  Yb10  1  0.674413  0.675082  0.674175  1
  Yb  Yb11  1  0.574637  0.074637  0.425363  1
  Yb  Yb12  1  0.430684  0.573591  0.076724  1
  Yb  Yb13  1  0.923568  0.074019  0.573961  1
  Yb  Yb14  1  0.426039  0.423568  0.425981  1
  Yb  Yb15  1  0.574019  0.926039  0.076432  1
  Bi  Bi16  1  0.748608  0.374612  0.500996  1
  Bi  Bi17  1  0.874612  0.999004  0.251392  1
  Bi  Bi18  1  0.999974  0.750344  0.624473  1
  Bi  Bi19  1  0.249126  0.125306  0.500114  1
  Bi  Bi20  1  0.127684  0.500494  0.250640  1
  Bi  Bi21  1  0.000494  0.249360  0.872316  1
  Bi  Bi22  1  0.250344  0.875527  0.000026  1
  Bi  Bi23  1  0.375527  0.499974  0.749656  1
  Bi  Bi24  1  0.499004  0.248608  0.125388  1
  Bi  Bi25  1  0.749360  0.627684  0.999506  1
  Bi  Bi26  1  0.625306  0.999886  0.750874  1
  Bi  Bi27  1  0.499886  0.749126  0.374694  1
