# generated using pymatgen
data_Sc6Zn21Cu2Si
_symmetry_space_group_name_H-M   'P 1'
_cell_length_a   8.74747030
_cell_length_b   8.77938189
_cell_length_c   8.74747034
_cell_angle_alpha   59.87924848
_cell_angle_beta   59.99069481
_cell_angle_gamma   59.87923752
_symmetry_Int_Tables_number   1
_chemical_formula_structural   Sc6Zn21Cu2Si
_chemical_formula_sum   'Sc6 Zn21 Cu2 Si1'
_cell_volume   474.12008215
_cell_formula_units_Z   1
loop_
 _symmetry_equiv_pos_site_id
 _symmetry_equiv_pos_as_xyz
  1  'x, y, z'
loop_
 _atom_site_type_symbol
 _atom_site_label
 _atom_site_symmetry_multiplicity
 _atom_site_fract_x
 _atom_site_fract_y
 _atom_site_fract_z
 _atom_site_occupancy
  Sc  Sc0  1  0.713149  0.287785  0.286853  1
  Sc  Sc1  1  0.286851  0.712215  0.713147  1
  Sc  Sc2  1  0.285506  0.714499  0.285496  1
  Sc  Sc3  1  0.714494  0.285501  0.714504  1
  Sc  Sc4  1  0.286851  0.287787  0.713147  1
  Sc  Sc5  1  0.713149  0.712213  0.286853  1
  Zn  Zn6  1  0.121071  0.120853  0.121071  1
  Zn  Zn7  1  0.878929  0.879147  0.878929  1
  Zn  Zn8  1  0.128350  0.117955  0.635742  1
  Zn  Zn9  1  0.121071  0.637006  0.121071  1
  Zn  Zn10  1  0.871650  0.882045  0.364258  1
  Zn  Zn11  1  0.878929  0.362994  0.878929  1
  Zn  Zn12  1  0.635741  0.117955  0.128351  1
  Zn  Zn13  1  0.364259  0.882045  0.871649  1
  Zn  Zn14  1  0.500000  0.000000  0.000000  1
  Zn  Zn15  1  0.000000  0.500000  0.500000  1
  Zn  Zn16  1  0.000000  0.500000  0.000000  1
  Zn  Zn17  1  0.000000  0.000000  0.500000  1
  Zn  Zn18  1  0.500000  0.500000  0.000000  1
  Zn  Zn19  1  0.339224  0.331950  0.339224  1
  Zn  Zn20  1  0.660776  0.668050  0.660776  1
  Zn  Zn21  1  0.337616  0.336063  0.990260  1
  Zn  Zn22  1  0.339224  0.989602  0.339224  1
  Zn  Zn23  1  0.662384  0.663937  0.009740  1
  Zn  Zn24  1  0.660776  0.010398  0.660776  1
  Zn  Zn25  1  0.990259  0.336063  0.337617  1
  Zn  Zn26  1  0.009741  0.663937  0.662383  1
  Cu  Cu27  1  0.500000  0.000000  0.500000  1
  Cu  Cu28  1  0.000000  0.000000  0.000000  1
  Si  Si29  1  0.500000  0.500000  0.500000  1
