# generated using pymatgen
data_Ho3Sn3IrPdRu
_symmetry_space_group_name_H-M   'P 1'
_cell_length_a   7.66827200
_cell_length_b   7.66827069
_cell_length_c   3.78235200
_cell_angle_alpha   90.00000000
_cell_angle_beta   90.00000000
_cell_angle_gamma   119.99998839
_symmetry_Int_Tables_number   1
_chemical_formula_structural   Ho3Sn3IrPdRu
_chemical_formula_sum   'Ho3 Sn3 Ir1 Pd1 Ru1'
_cell_volume   192.61387590
_cell_formula_units_Z   1
loop_
 _symmetry_equiv_pos_site_id
 _symmetry_equiv_pos_as_xyz
  1  'x, y, z'
loop_
 _atom_site_type_symbol
 _atom_site_label
 _atom_site_symmetry_multiplicity
 _atom_site_fract_x
 _atom_site_fract_y
 _atom_site_fract_z
 _atom_site_occupancy
  Ho  Ho0  1  0.395953  0.410832  0.500000  1
  Ho  Ho1  1  0.589168  0.985122  0.500000  1
  Ho  Ho2  1  0.014878  0.604047  0.500000  1
  Sn  Sn3  1  0.739761  0.736833  0.000000  1
  Sn  Sn4  1  0.263167  0.002927  0.000000  1
  Sn  Sn5  1  0.997073  0.260239  0.000000  1
  Ir  Ir6  1  0.333333  0.666667  0.000000  1
  Pd  Pd7  1  0.666667  0.333333  0.000000  1
  Ru  Ru8  1  0.000000  0.000000  0.500000  1
