# generated using pymatgen
data_CaSm(GaRh)4
_symmetry_space_group_name_H-M   'P 1'
_cell_length_a   4.35605100
_cell_length_b   4.35605100
_cell_length_c   9.86446000
_cell_angle_alpha   90.00000000
_cell_angle_beta   90.00000000
_cell_angle_gamma   90.00000000
_symmetry_Int_Tables_number   1
_chemical_formula_structural   CaSm(GaRh)4
_chemical_formula_sum   'Ca1 Sm1 Ga4 Rh4'
_cell_volume   187.17990721
_cell_formula_units_Z   1
loop_
 _symmetry_equiv_pos_site_id
 _symmetry_equiv_pos_as_xyz
  1  'x, y, z'
loop_
 _atom_site_type_symbol
 _atom_site_label
 _atom_site_symmetry_multiplicity
 _atom_site_fract_x
 _atom_site_fract_y
 _atom_site_fract_z
 _atom_site_occupancy
  Ca  Ca0  1  0.500000  0.000000  0.760657  1
  Sm  Sm1  1  0.000000  0.500000  0.232969  1
  Ga  Ga2  1  0.500000  0.000000  0.124912  1
  Ga  Ga3  1  0.000000  0.000000  0.499430  1
  Ga  Ga4  1  0.500000  0.500000  0.499430  1
  Ga  Ga5  1  0.000000  0.500000  0.876371  1
  Rh  Rh6  1  0.000000  0.000000  0.002968  1
  Rh  Rh7  1  0.500000  0.500000  0.002968  1
  Rh  Rh8  1  0.500000  0.000000  0.375209  1
  Rh  Rh9  1  0.000000  0.500000  0.625088  1
