# generated using pymatgen
data_K8Li4ScAl3Bi8
_symmetry_space_group_name_H-M   'P 1'
_cell_length_a   10.79741205
_cell_length_b   10.79741237
_cell_length_c   6.92971700
_cell_angle_alpha   89.84409369
_cell_angle_beta   90.15591021
_cell_angle_gamma   100.60285761
_symmetry_Int_Tables_number   1
_chemical_formula_structural   K8Li4ScAl3Bi8
_chemical_formula_sum   'K8 Li4 Sc1 Al3 Bi8'
_cell_volume   794.09606913
_cell_formula_units_Z   1
loop_
 _symmetry_equiv_pos_site_id
 _symmetry_equiv_pos_as_xyz
  1  'x, y, z'
loop_
 _atom_site_type_symbol
 _atom_site_label
 _atom_site_symmetry_multiplicity
 _atom_site_fract_x
 _atom_site_fract_y
 _atom_site_fract_z
 _atom_site_occupancy
  K  K0  1  0.573599  0.920145  0.253848  1
  K  K1  1  0.669403  0.331517  0.224040  1
  K  K2  1  0.331517  0.669403  0.775960  1
  K  K3  1  0.078352  0.421427  0.252574  1
  K  K4  1  0.920145  0.573599  0.746152  1
  K  K5  1  0.421427  0.078352  0.747426  1
  K  K6  1  0.829910  0.174908  0.719030  1
  K  K7  1  0.174908  0.829910  0.280970  1
  Li  Li8  1  0.877840  0.877840  0.500000  1
  Li  Li9  1  0.123676  0.123676  0.500000  1
  Li  Li10  1  0.620023  0.620023  0.000000  1
  Li  Li11  1  0.378721  0.378721  0.000000  1
  Sc  Sc12  1  0.875262  0.875262  0.000000  1
  Al  Al13  1  0.128082  0.128082  0.000000  1
  Al  Al14  1  0.368172  0.368172  0.500000  1
  Al  Al15  1  0.628299  0.628299  0.500000  1
  Bi  Bi16  1  0.106149  0.901046  0.776631  1
  Bi  Bi17  1  0.596433  0.400146  0.717505  1
  Bi  Bi18  1  0.901046  0.106149  0.223369  1
  Bi  Bi19  1  0.400146  0.596433  0.282495  1
  Bi  Bi20  1  0.347610  0.151639  0.247065  1
  Bi  Bi21  1  0.151639  0.347610  0.752935  1
  Bi  Bi22  1  0.650500  0.847143  0.746851  1
  Bi  Bi23  1  0.847143  0.650500  0.253149  1
