# generated using pymatgen
data_PrNdB8(OsRh)4
_symmetry_space_group_name_H-M   'P 1'
_cell_length_a   4.02671500
_cell_length_b   7.60126404
_cell_length_c   7.60890804
_cell_angle_alpha   90.01234049
_cell_angle_beta   90.00000000
_cell_angle_gamma   90.00000000
_symmetry_Int_Tables_number   1
_chemical_formula_structural   PrNdB8(OsRh)4
_chemical_formula_sum   'Pr1 Nd1 B8 Os4 Rh4'
_cell_volume   232.89439510
_cell_formula_units_Z   1
loop_
 _symmetry_equiv_pos_site_id
 _symmetry_equiv_pos_as_xyz
  1  'x, y, z'
loop_
 _atom_site_type_symbol
 _atom_site_label
 _atom_site_symmetry_multiplicity
 _atom_site_fract_x
 _atom_site_fract_y
 _atom_site_fract_z
 _atom_site_occupancy
  Pr  Pr0  1  0.755117  0.750000  0.750000  1
  Nd  Nd1  1  0.255227  0.250000  0.250000  1
  B  B2  1  0.359921  0.914174  0.036724  1
  B  B3  1  0.359921  0.585826  0.463276  1
  B  B4  1  0.860195  0.536277  0.086086  1
  B  B5  1  0.860195  0.963723  0.413914  1
  B  B6  1  0.641867  0.086968  0.966419  1
  B  B7  1  0.641867  0.413032  0.533581  1
  B  B8  1  0.142261  0.465961  0.913319  1
  B  B9  1  0.142261  0.034039  0.586681  1
  Os  Os10  1  0.857774  0.602719  0.357980  1
  Os  Os11  1  0.857774  0.897281  0.142020  1
  Os  Os12  1  0.357591  0.858440  0.396614  1
  Os  Os13  1  0.357591  0.641560  0.103386  1
  Rh  Rh14  1  0.137720  0.401340  0.638775  1
  Rh  Rh15  1  0.137720  0.098660  0.861225  1
  Rh  Rh16  1  0.637500  0.139150  0.598005  1
  Rh  Rh17  1  0.637500  0.360850  0.901995  1
