# generated using pymatgen
data_CaEr2Zn11
_symmetry_space_group_name_H-M   'P 1'
_cell_length_a   4.38413298
_cell_length_b   8.17333227
_cell_length_c   8.17333087
_cell_angle_alpha   66.22858668
_cell_angle_beta   74.44296514
_cell_angle_gamma   74.44296984
_symmetry_Int_Tables_number   1
_chemical_formula_structural   CaEr2Zn11
_chemical_formula_sum   'Ca1 Er2 Zn11'
_cell_volume   253.91549086
_cell_formula_units_Z   1
loop_
 _symmetry_equiv_pos_site_id
 _symmetry_equiv_pos_as_xyz
  1  'x, y, z'
loop_
 _atom_site_type_symbol
 _atom_site_label
 _atom_site_symmetry_multiplicity
 _atom_site_fract_x
 _atom_site_fract_y
 _atom_site_fract_z
 _atom_site_occupancy
  Ca  Ca0  1  0.000000  0.000000  0.000000  1
  Er  Er1  1  0.700302  0.299698  0.299698  1
  Er  Er2  1  0.299698  0.700302  0.700302  1
  Zn  Zn3  1  0.664169  0.694689  0.976975  1
  Zn  Zn4  1  0.335831  0.305311  0.023025  1
  Zn  Zn5  1  0.664169  0.976975  0.694689  1
  Zn  Zn6  1  0.335831  0.023025  0.305311  1
  Zn  Zn7  1  0.500000  0.690310  0.309690  1
  Zn  Zn8  1  0.500000  0.309690  0.690310  1
  Zn  Zn9  1  0.863628  0.418910  0.853835  1
  Zn  Zn10  1  0.136372  0.581090  0.146165  1
  Zn  Zn11  1  0.863628  0.853835  0.418910  1
  Zn  Zn12  1  0.136372  0.146165  0.581090  1
  Zn  Zn13  1  0.000000  0.500000  0.500000  1
