# generated using pymatgen
data_TbHo(MgIn2)2
_symmetry_space_group_name_H-M   'P 1'
_cell_length_a   6.46672217
_cell_length_b   6.46672179
_cell_length_c   9.28696400
_cell_angle_alpha   90.00000000
_cell_angle_beta   90.00000000
_cell_angle_gamma   91.79747161
_symmetry_Int_Tables_number   1
_chemical_formula_structural   TbHo(MgIn2)2
_chemical_formula_sum   'Tb2 Ho2 Mg4 In8'
_cell_volume   388.17574320
_cell_formula_units_Z   2
loop_
 _symmetry_equiv_pos_site_id
 _symmetry_equiv_pos_as_xyz
  1  'x, y, z'
loop_
 _atom_site_type_symbol
 _atom_site_label
 _atom_site_symmetry_multiplicity
 _atom_site_fract_x
 _atom_site_fract_y
 _atom_site_fract_z
 _atom_site_occupancy
  Tb  Tb0  1  0.505160  0.505160  0.250000  1
  Tb  Tb1  1  0.494840  0.494840  0.750000  1
  Ho  Ho2  1  0.995285  0.995285  0.250000  1
  Ho  Ho3  1  0.004715  0.004715  0.750000  1
  Mg  Mg4  1  0.248579  0.751421  0.500000  1
  Mg  Mg5  1  0.248579  0.751421  0.000000  1
  Mg  Mg6  1  0.751421  0.248579  0.500000  1
  Mg  Mg7  1  0.751421  0.248579  0.000000  1
  In  In8  1  0.249266  0.249266  0.004271  1
  In  In9  1  0.750734  0.750734  0.995729  1
  In  In10  1  0.249266  0.249266  0.495729  1
  In  In11  1  0.750734  0.750734  0.504271  1
  In  In12  1  0.496631  0.004649  0.250000  1
  In  In13  1  0.995351  0.503369  0.750000  1
  In  In14  1  0.503369  0.995351  0.750000  1
  In  In15  1  0.004649  0.496631  0.250000  1
