# generated using pymatgen
data_Y20Si12Br
_symmetry_space_group_name_H-M   'P 1'
_cell_length_a   6.41226457
_cell_length_b   8.50562751
_cell_length_c   14.82195700
_cell_angle_alpha   89.99936261
_cell_angle_beta   89.99964361
_cell_angle_gamma   90.04406202
_symmetry_Int_Tables_number   1
_chemical_formula_structural   Y20Si12Br
_chemical_formula_sum   'Y20 Si12 Br1'
_cell_volume   808.39424552
_cell_formula_units_Z   1
loop_
 _symmetry_equiv_pos_site_id
 _symmetry_equiv_pos_as_xyz
  1  'x, y, z'
loop_
 _atom_site_type_symbol
 _atom_site_label
 _atom_site_symmetry_multiplicity
 _atom_site_fract_x
 _atom_site_fract_y
 _atom_site_fract_z
 _atom_site_occupancy
  Y  Y0  1  0.500020  0.999993  0.330227  1
  Y  Y1  1  0.500035  0.499990  0.834009  1
  Y  Y2  1  0.500034  0.499995  0.166044  1
  Y  Y3  1  0.500020  0.999994  0.669732  1
  Y  Y4  1  0.000009  0.499976  0.173067  1
  Y  Y5  1  0.000010  0.000019  0.659357  1
  Y  Y6  1  0.000008  0.000014  0.340537  1
  Y  Y7  1  0.000016  0.499979  0.826972  1
  Y  Y8  1  0.772885  0.260364  0.000080  1
  Y  Y9  1  0.741837  0.743181  0.499955  1
  Y  Y10  1  0.749892  0.376667  0.379880  1
  Y  Y11  1  0.771442  0.869985  0.869971  1
  Y  Y12  1  0.771465  0.870030  0.130043  1
  Y  Y13  1  0.749833  0.376580  0.620048  1
  Y  Y14  1  0.227144  0.739589  0.000080  1
  Y  Y15  1  0.258160  0.256828  0.499954  1
  Y  Y16  1  0.228508  0.129999  0.130097  1
  Y  Y17  1  0.250142  0.623422  0.620049  1
  Y  Y18  1  0.250091  0.623345  0.379870  1
  Y  Y19  1  0.228532  0.130047  0.869911  1
  Si  Si20  1  0.761311  0.608397  0.000204  1
  Si  Si21  1  0.737350  0.105418  0.499833  1
  Si  Si22  1  0.758545  0.196563  0.198346  1
  Si  Si23  1  0.748966  0.696061  0.694895  1
  Si  Si24  1  0.749068  0.695879  0.305006  1
  Si  Si25  1  0.758430  0.196713  0.801778  1
  Si  Si26  1  0.238750  0.391588  0.000196  1
  Si  Si27  1  0.262646  0.894590  0.499831  1
  Si  Si28  1  0.250984  0.304139  0.305014  1
  Si  Si29  1  0.241561  0.803264  0.801781  1
  Si  Si30  1  0.241443  0.803404  0.198342  1
  Si  Si31  1  0.251079  0.303948  0.694882  1
  Br  Br32  1  0.499785  0.000038  0.000008  1
