# generated using pymatgen
data_La5Er2ThBi10
_symmetry_space_group_name_H-M   'P 1'
_cell_length_a   9.91798513
_cell_length_b   9.93923993
_cell_length_c   6.64998800
_cell_angle_alpha   90.00000000
_cell_angle_beta   90.00000000
_cell_angle_gamma   120.07090899
_symmetry_Int_Tables_number   1
_chemical_formula_structural   La5Er2ThBi10
_chemical_formula_sum   'La5 Er2 Th1 Bi10'
_cell_volume   567.30598106
_cell_formula_units_Z   1
loop_
 _symmetry_equiv_pos_site_id
 _symmetry_equiv_pos_as_xyz
  1  'x, y, z'
loop_
 _atom_site_type_symbol
 _atom_site_label
 _atom_site_symmetry_multiplicity
 _atom_site_fract_x
 _atom_site_fract_y
 _atom_site_fract_z
 _atom_site_occupancy
  La  La0  1  0.379382  0.379977  0.250000  1
  La  La1  1  0.382970  0.001072  0.750000  1
  La  La2  1  0.617030  0.618101  0.750000  1
  La  La3  1  0.620618  0.000594  0.250000  1
  La  La4  1  0.000000  0.379260  0.750000  1
  Er  Er5  1  0.000000  0.000530  0.999437  1
  Er  Er6  1  0.000000  0.000530  0.500563  1
  Th  Th7  1  0.000000  0.618586  0.250000  1
  Bi  Bi8  1  0.000000  0.271089  0.250000  1
  Bi  Bi9  1  0.330551  0.667245  0.496956  1
  Bi  Bi10  1  0.669449  0.336693  0.003044  1
  Bi  Bi11  1  0.330551  0.667245  0.003044  1
  Bi  Bi12  1  0.269904  0.268830  0.750000  1
  Bi  Bi13  1  0.730096  0.998927  0.750000  1
  Bi  Bi14  1  0.000000  0.728555  0.750000  1
  Bi  Bi15  1  0.732487  0.729281  0.250000  1
  Bi  Bi16  1  0.267513  0.996793  0.250000  1
  Bi  Bi17  1  0.669449  0.336693  0.496956  1
