# generated using pymatgen
data_Yb3Sm(OsC2)2
_symmetry_space_group_name_H-M   'P 1'
_cell_length_a   5.17280900
_cell_length_b   6.44546689
_cell_length_c   10.28421390
_cell_angle_alpha   90.32708650
_cell_angle_beta   90.00000000
_cell_angle_gamma   90.00000000
_symmetry_Int_Tables_number   1
_chemical_formula_structural   Yb3Sm(OsC2)2
_chemical_formula_sum   'Yb6 Sm2 Os4 C8'
_cell_volume   342.88212769
_cell_formula_units_Z   2
loop_
 _symmetry_equiv_pos_site_id
 _symmetry_equiv_pos_as_xyz
  1  'x, y, z'
loop_
 _atom_site_type_symbol
 _atom_site_label
 _atom_site_symmetry_multiplicity
 _atom_site_fract_x
 _atom_site_fract_y
 _atom_site_fract_z
 _atom_site_occupancy
  Yb  Yb0  1  0.750000  0.804652  0.049745  1
  Yb  Yb1  1  0.250000  0.195348  0.950255  1
  Yb  Yb2  1  0.250000  0.534221  0.218935  1
  Yb  Yb3  1  0.750000  0.465779  0.781065  1
  Yb  Yb4  1  0.750000  0.970537  0.733494  1
  Yb  Yb5  1  0.250000  0.029463  0.266506  1
  Sm  Sm6  1  0.250000  0.695282  0.551692  1
  Sm  Sm7  1  0.750000  0.304718  0.448308  1
  Os  Os8  1  0.250000  0.730625  0.856370  1
  Os  Os9  1  0.750000  0.269375  0.143630  1
  Os  Os10  1  0.750000  0.771171  0.349676  1
  Os  Os11  1  0.250000  0.228829  0.650324  1
  C  C12  1  0.250000  0.469284  0.759185  1
  C  C13  1  0.750000  0.530716  0.240815  1
  C  C14  1  0.750000  0.032893  0.257016  1
  C  C15  1  0.250000  0.967107  0.742984  1
  C  C16  1  0.250000  0.797594  0.031830  1
  C  C17  1  0.750000  0.202406  0.968170  1
  C  C18  1  0.750000  0.697368  0.528376  1
  C  C19  1  0.250000  0.302632  0.471624  1
