# generated using pymatgen
data_La3SmPtSe7
_symmetry_space_group_name_H-M   'P 1'
_cell_length_a   4.09910207
_cell_length_b   8.44098447
_cell_length_c   8.73905138
_cell_angle_alpha   90.03565372
_cell_angle_beta   89.99547493
_cell_angle_gamma   89.99654105
_symmetry_Int_Tables_number   1
_chemical_formula_structural   La3SmPtSe7
_chemical_formula_sum   'La3 Sm1 Pt1 Se7'
_cell_volume   302.37511033
_cell_formula_units_Z   1
loop_
 _symmetry_equiv_pos_site_id
 _symmetry_equiv_pos_as_xyz
  1  'x, y, z'
loop_
 _atom_site_type_symbol
 _atom_site_label
 _atom_site_symmetry_multiplicity
 _atom_site_fract_x
 _atom_site_fract_y
 _atom_site_fract_z
 _atom_site_occupancy
  La  La0  1  0.250648  0.625566  0.749023  1
  La  La1  1  0.749901  0.869435  0.273346  1
  La  La2  1  0.749688  0.379940  0.274227  1
  Sm  Sm3  1  0.250332  0.125419  0.700455  1
  Pt  Pt4  1  0.749284  0.125139  0.997085  1
  Se  Se5  1  0.249321  0.315622  0.994693  1
  Se  Se6  1  0.750349  0.624016  0.006519  1
  Se  Se7  1  0.750592  0.878530  0.635464  1
  Se  Se8  1  0.249959  0.624990  0.374441  1
  Se  Se9  1  0.249458  0.934749  0.994138  1
  Se  Se10  1  0.750554  0.372076  0.635831  1
  Se  Se11  1  0.249915  0.124517  0.364777  1
