# generated using pymatgen
data_DyU(SiPt)2
_symmetry_space_group_name_H-M   'P 1'
_cell_length_a   4.33225400
_cell_length_b   7.07162600
_cell_length_c   7.40341900
_cell_angle_alpha   90.00000000
_cell_angle_beta   90.00000000
_cell_angle_gamma   90.00000000
_symmetry_Int_Tables_number   1
_chemical_formula_structural   DyU(SiPt)2
_chemical_formula_sum   'Dy2 U2 Si4 Pt4'
_cell_volume   226.81173694
_cell_formula_units_Z   2
loop_
 _symmetry_equiv_pos_site_id
 _symmetry_equiv_pos_as_xyz
  1  'x, y, z'
loop_
 _atom_site_type_symbol
 _atom_site_label
 _atom_site_symmetry_multiplicity
 _atom_site_fract_x
 _atom_site_fract_y
 _atom_site_fract_z
 _atom_site_occupancy
  Dy  Dy0  1  0.750000  0.003426  0.704336  1
  Dy  Dy1  1  0.250000  0.496574  0.204336  1
  U  U2  1  0.750000  0.503471  0.790631  1
  U  U3  1  0.250000  0.996529  0.290631  1
  Si  Si4  1  0.250000  0.806573  0.911790  1
  Si  Si5  1  0.250000  0.310373  0.589248  1
  Si  Si6  1  0.750000  0.189627  0.089248  1
  Si  Si7  1  0.750000  0.693427  0.411790  1
  Pt  Pt8  1  0.250000  0.711248  0.584582  1
  Pt  Pt9  1  0.250000  0.204409  0.919413  1
  Pt  Pt10  1  0.750000  0.788752  0.084582  1
  Pt  Pt11  1  0.750000  0.295591  0.419413  1
