# generated using pymatgen
data_Ho6VB14Mo
_symmetry_space_group_name_H-M   'P 1'
_cell_length_a   8.12690773
_cell_length_b   8.12690852
_cell_length_c   9.42687900
_cell_angle_alpha   90.00000000
_cell_angle_beta   90.00000000
_cell_angle_gamma   155.56109237
_symmetry_Int_Tables_number   1
_chemical_formula_structural   Ho6VB14Mo
_chemical_formula_sum   'Ho6 V1 B14 Mo1'
_cell_volume   257.58942796
_cell_formula_units_Z   1
loop_
 _symmetry_equiv_pos_site_id
 _symmetry_equiv_pos_as_xyz
  1  'x, y, z'
loop_
 _atom_site_type_symbol
 _atom_site_label
 _atom_site_symmetry_multiplicity
 _atom_site_fract_x
 _atom_site_fract_y
 _atom_site_fract_z
 _atom_site_occupancy
  Ho  Ho0  1  0.258087  0.741913  0.250000  1
  Ho  Ho1  1  0.744460  0.255540  0.750000  1
  Ho  Ho2  1  0.606180  0.393820  0.061510  1
  Ho  Ho3  1  0.393272  0.606728  0.941856  1
  Ho  Ho4  1  0.393272  0.606728  0.558144  1
  Ho  Ho5  1  0.606180  0.393820  0.438490  1
  V  V6  1  0.447402  0.552598  0.250000  1
  B  B7  1  0.979087  0.020913  0.094999  1
  B  B8  1  0.019374  0.980626  0.909195  1
  B  B9  1  0.019374  0.980626  0.590805  1
  B  B10  1  0.979087  0.020913  0.405001  1
  B  B11  1  0.772706  0.227294  0.032897  1
  B  B12  1  0.227425  0.772575  0.968112  1
  B  B13  1  0.227425  0.772575  0.531888  1
  B  B14  1  0.772706  0.227294  0.467103  1
  B  B15  1  0.867411  0.132589  0.150041  1
  B  B16  1  0.134728  0.865272  0.853409  1
  B  B17  1  0.134728  0.865272  0.646591  1
  B  B18  1  0.867411  0.132589  0.349959  1
  B  B19  1  0.041660  0.958340  0.250000  1
  B  B20  1  0.955044  0.044956  0.750000  1
  Mo  Mo21  1  0.552982  0.447018  0.750000  1
