# generated using pymatgen
data_Ba2Na(SnRh)4
_symmetry_space_group_name_H-M   'P 1'
_cell_length_a   7.02302306
_cell_length_b   7.02302435
_cell_length_c   12.33770800
_cell_angle_alpha   90.00000000
_cell_angle_beta   90.00000000
_cell_angle_gamma   110.66056392
_symmetry_Int_Tables_number   1
_chemical_formula_structural   Ba2Na(SnRh)4
_chemical_formula_sum   'Ba4 Na2 Sn8 Rh8'
_cell_volume   569.39467244
_cell_formula_units_Z   2
loop_
 _symmetry_equiv_pos_site_id
 _symmetry_equiv_pos_as_xyz
  1  'x, y, z'
loop_
 _atom_site_type_symbol
 _atom_site_label
 _atom_site_symmetry_multiplicity
 _atom_site_fract_x
 _atom_site_fract_y
 _atom_site_fract_z
 _atom_site_occupancy
  Ba  Ba0  1  0.212974  0.787026  0.500000  1
  Ba  Ba1  1  0.212974  0.787026  0.000000  1
  Ba  Ba2  1  0.787026  0.212974  0.500000  1
  Ba  Ba3  1  0.787026  0.212974  0.000000  1
  Na  Na4  1  0.018128  0.018128  0.250000  1
  Na  Na5  1  0.981872  0.981872  0.750000  1
  Sn  Sn6  1  0.526160  0.903075  0.250000  1
  Sn  Sn7  1  0.096925  0.473840  0.750000  1
  Sn  Sn8  1  0.473840  0.096925  0.750000  1
  Sn  Sn9  1  0.903075  0.526160  0.250000  1
  Sn  Sn10  1  0.324424  0.324424  0.423019  1
  Sn  Sn11  1  0.675576  0.675576  0.576981  1
  Sn  Sn12  1  0.324424  0.324424  0.076981  1
  Sn  Sn13  1  0.675576  0.675576  0.923019  1
  Rh  Rh14  1  0.520607  0.268268  0.250000  1
  Rh  Rh15  1  0.731732  0.479393  0.750000  1
  Rh  Rh16  1  0.479393  0.731732  0.750000  1
  Rh  Rh17  1  0.268268  0.520607  0.250000  1
  Rh  Rh18  1  0.653480  0.653480  0.367574  1
  Rh  Rh19  1  0.346520  0.346520  0.632426  1
  Rh  Rh20  1  0.653480  0.653480  0.132426  1
  Rh  Rh21  1  0.346520  0.346520  0.867574  1
