# generated using pymatgen
data_Pr3Y(Sn5Pt3)2
_symmetry_space_group_name_H-M   'P 1'
_cell_length_a   13.67470227
_cell_length_b   13.67470391
_cell_length_c   7.52045300
_cell_angle_alpha   89.75572750
_cell_angle_beta   90.24426834
_cell_angle_gamma   160.78769591
_symmetry_Int_Tables_number   1
_chemical_formula_structural   Pr3Y(Sn5Pt3)2
_chemical_formula_sum   'Pr3 Y1 Sn10 Pt6'
_cell_volume   462.76798506
_cell_formula_units_Z   1
loop_
 _symmetry_equiv_pos_site_id
 _symmetry_equiv_pos_as_xyz
  1  'x, y, z'
loop_
 _atom_site_type_symbol
 _atom_site_label
 _atom_site_symmetry_multiplicity
 _atom_site_fract_x
 _atom_site_fract_y
 _atom_site_fract_z
 _atom_site_occupancy
  Pr  Pr0  1  0.172823  0.827177  0.752024  1
  Pr  Pr1  1  0.826973  0.173027  0.252281  1
  Pr  Pr2  1  0.477424  0.522576  0.737729  1
  Y  Y3  1  0.523416  0.476584  0.240414  1
  Sn  Sn4  1  0.879903  0.120097  0.734571  1
  Sn  Sn5  1  0.120089  0.879911  0.234158  1
  Sn  Sn6  1  0.701884  0.298116  0.048871  1
  Sn  Sn7  1  0.297148  0.702852  0.549585  1
  Sn  Sn8  1  0.598608  0.401392  0.608067  1
  Sn  Sn9  1  0.401920  0.598080  0.107240  1
  Sn  Sn10  1  0.953245  0.046755  0.397755  1
  Sn  Sn11  1  0.047706  0.952294  0.897600  1
  Sn  Sn12  1  0.289219  0.710781  0.977122  1
  Sn  Sn13  1  0.710481  0.289519  0.477086  1
  Pt  Pt14  1  0.051598  0.948402  0.512546  1
  Pt  Pt15  1  0.950193  0.049807  0.025983  1
  Pt  Pt16  1  0.776428  0.223572  0.771566  1
  Pt  Pt17  1  0.223341  0.776659  0.271553  1
  Pt  Pt18  1  0.396313  0.603687  0.475486  1
  Pt  Pt19  1  0.601291  0.398709  0.984361  1
