# generated using pymatgen
data_Dy8LuSc3Ga20
_symmetry_space_group_name_H-M   'P 1'
_cell_length_a   6.02445579
_cell_length_b   9.51809300
_cell_length_c   11.38816502
_cell_angle_alpha   90.00000000
_cell_angle_beta   90.10095649
_cell_angle_gamma   90.00000000
_symmetry_Int_Tables_number   1
_chemical_formula_structural   Dy8LuSc3Ga20
_chemical_formula_sum   'Dy8 Lu1 Sc3 Ga20'
_cell_volume   653.01152023
_cell_formula_units_Z   1
loop_
 _symmetry_equiv_pos_site_id
 _symmetry_equiv_pos_as_xyz
  1  'x, y, z'
loop_
 _atom_site_type_symbol
 _atom_site_label
 _atom_site_symmetry_multiplicity
 _atom_site_fract_x
 _atom_site_fract_y
 _atom_site_fract_z
 _atom_site_occupancy
  Dy  Dy0  1  0.890437  0.509514  0.351753  1
  Dy  Dy1  1  0.609418  0.989200  0.852209  1
  Dy  Dy2  1  0.108303  0.009172  0.649252  1
  Dy  Dy3  1  0.391958  0.490666  0.148430  1
  Dy  Dy4  1  0.108303  0.490828  0.649252  1
  Dy  Dy5  1  0.391958  0.009334  0.148430  1
  Dy  Dy6  1  0.890437  0.990486  0.351753  1
  Dy  Dy7  1  0.609418  0.510800  0.852209  1
  Lu  Lu8  1  0.347790  0.250000  0.424927  1
  Sc  Sc9  1  0.850080  0.750000  0.074928  1
  Sc  Sc10  1  0.650279  0.750000  0.576079  1
  Sc  Sc11  1  0.151031  0.250000  0.925617  1
  Ga  Ga12  1  0.877570  0.049207  0.087934  1
  Ga  Ga13  1  0.621606  0.451466  0.590465  1
  Ga  Ga14  1  0.122920  0.551280  0.911596  1
  Ga  Ga15  1  0.377239  0.943360  0.411226  1
  Ga  Ga16  1  0.122920  0.948720  0.911596  1
  Ga  Ga17  1  0.377239  0.556640  0.411226  1
  Ga  Ga18  1  0.877570  0.450793  0.087934  1
  Ga  Ga19  1  0.621606  0.048534  0.590465  1
  Ga  Ga20  1  0.163586  0.750000  0.249083  1
  Ga  Ga21  1  0.336761  0.750000  0.749424  1
  Ga  Ga22  1  0.837123  0.250000  0.752295  1
  Ga  Ga23  1  0.671344  0.250000  0.248093  1
  Ga  Ga24  1  0.381958  0.750000  0.002594  1
  Ga  Ga25  1  0.113490  0.750000  0.503607  1
  Ga  Ga26  1  0.620325  0.250000  0.995864  1
  Ga  Ga27  1  0.871965  0.250000  0.498947  1
  Ga  Ga28  1  0.604517  0.750000  0.293669  1
  Ga  Ga29  1  0.899213  0.750000  0.796193  1
  Ga  Ga30  1  0.398926  0.250000  0.705777  1
  Ga  Ga31  1  0.102711  0.250000  0.197175  1
