# generated using pymatgen
data_TaTi6Tc12W5
_symmetry_space_group_name_H-M   'P 1'
_cell_length_a   4.40079500
_cell_length_b   6.25472600
_cell_length_c   13.31140500
_cell_angle_alpha   90.00000000
_cell_angle_beta   90.00004756
_cell_angle_gamma   90.00000000
_symmetry_Int_Tables_number   1
_chemical_formula_structural   TaTi6Tc12W5
_chemical_formula_sum   'Ta1 Ti6 Tc12 W5'
_cell_volume   366.40663124
_cell_formula_units_Z   1
loop_
 _symmetry_equiv_pos_site_id
 _symmetry_equiv_pos_as_xyz
  1  'x, y, z'
loop_
 _atom_site_type_symbol
 _atom_site_label
 _atom_site_symmetry_multiplicity
 _atom_site_fract_x
 _atom_site_fract_y
 _atom_site_fract_z
 _atom_site_occupancy
  Ta  Ta0  1  0.000000  0.500000  0.000000  1
  Ti  Ti1  1  0.000000  0.000000  0.000000  1
  Ti  Ti2  1  0.499887  0.500000  0.166922  1
  Ti  Ti3  1  0.999886  0.000000  0.332872  1
  Ti  Ti4  1  0.499999  0.500000  0.500000  1
  Ti  Ti5  1  0.000115  0.000000  0.667129  1
  Ti  Ti6  1  0.500112  0.500000  0.833078  1
  Tc  Tc7  1  0.499999  0.247021  0.000000  1
  Tc  Tc8  1  0.499999  0.752979  0.000000  1
  Tc  Tc9  1  0.999904  0.248547  0.168551  1
  Tc  Tc10  1  0.999904  0.751453  0.168551  1
  Tc  Tc11  1  0.499901  0.250180  0.333914  1
  Tc  Tc12  1  0.499901  0.749820  0.333914  1
  Tc  Tc13  1  0.000000  0.249773  0.500000  1
  Tc  Tc14  1  0.000000  0.750227  0.500000  1
  Tc  Tc15  1  0.500098  0.250180  0.666086  1
  Tc  Tc16  1  0.500098  0.749820  0.666086  1
  Tc  Tc17  1  0.000097  0.248547  0.831449  1
  Tc  Tc18  1  0.000097  0.751453  0.831449  1
  W  W19  1  0.499896  0.000000  0.166330  1
  W  W20  1  0.999893  0.500000  0.333502  1
  W  W21  1  0.499999  0.000000  0.500000  1
  W  W22  1  0.000108  0.500000  0.666497  1
  W  W23  1  0.500103  0.000000  0.833670  1
