# generated using pymatgen
data_BaGa4Ni9
_symmetry_space_group_name_H-M   'P 1'
_cell_length_a   8.25303023
_cell_length_b   8.25303057
_cell_length_c   8.25303031
_cell_angle_alpha   120.94700112
_cell_angle_beta   120.94700206
_cell_angle_gamma   88.36742552
_symmetry_Int_Tables_number   1
_chemical_formula_structural   BaGa4Ni9
_chemical_formula_sum   'Ba2 Ga8 Ni18'
_cell_volume   391.62702349
_cell_formula_units_Z   2
loop_
 _symmetry_equiv_pos_site_id
 _symmetry_equiv_pos_as_xyz
  1  'x, y, z'
loop_
 _atom_site_type_symbol
 _atom_site_label
 _atom_site_symmetry_multiplicity
 _atom_site_fract_x
 _atom_site_fract_y
 _atom_site_fract_z
 _atom_site_occupancy
  Ba  Ba0  1  0.750000  0.750000  0.000000  1
  Ba  Ba1  1  0.250000  0.250000  0.000000  1
  Ga  Ga2  1  0.058642  0.558642  0.858323  1
  Ga  Ga3  1  0.700320  0.200320  0.141677  1
  Ga  Ga4  1  0.558642  0.700320  0.500000  1
  Ga  Ga5  1  0.200320  0.058642  0.500000  1
  Ga  Ga6  1  0.941358  0.441358  0.141677  1
  Ga  Ga7  1  0.299680  0.799680  0.858323  1
  Ga  Ga8  1  0.441358  0.299680  0.500000  1
  Ga  Ga9  1  0.799680  0.941358  0.500000  1
  Ni  Ni10  1  0.066817  0.206855  0.273672  1
  Ni  Ni11  1  0.933183  0.793145  0.726328  1
  Ni  Ni12  1  0.566817  0.293145  0.859962  1
  Ni  Ni13  1  0.433183  0.706855  0.140038  1
  Ni  Ni14  1  0.793145  0.066817  0.859962  1
  Ni  Ni15  1  0.206855  0.933183  0.140038  1
  Ni  Ni16  1  0.706855  0.566817  0.273672  1
  Ni  Ni17  1  0.293145  0.433183  0.726328  1
  Ni  Ni18  1  0.436533  0.936533  0.727270  1
  Ni  Ni19  1  0.209263  0.709263  0.272730  1
  Ni  Ni20  1  0.936533  0.209263  0.500000  1
  Ni  Ni21  1  0.709263  0.436533  0.500000  1
  Ni  Ni22  1  0.563467  0.063467  0.272730  1
  Ni  Ni23  1  0.790737  0.290737  0.727270  1
  Ni  Ni24  1  0.063467  0.790737  0.500000  1
  Ni  Ni25  1  0.290737  0.563467  0.500000  1
  Ni  Ni26  1  0.000000  0.500000  0.500000  1
  Ni  Ni27  1  0.500000  0.000000  0.500000  1
