# generated using pymatgen
data_Hf3(ThGe2)2
_symmetry_space_group_name_H-M   'P 1'
_cell_length_a   7.47954200
_cell_length_b   7.38385433
_cell_length_c   7.50639143
_cell_angle_alpha   69.83425925
_cell_angle_beta   90.00000000
_cell_angle_gamma   90.00000000
_symmetry_Int_Tables_number   1
_chemical_formula_structural   Hf3(ThGe2)2
_chemical_formula_sum   'Hf6 Th4 Ge8'
_cell_volume   389.14892699
_cell_formula_units_Z   2
loop_
 _symmetry_equiv_pos_site_id
 _symmetry_equiv_pos_as_xyz
  1  'x, y, z'
loop_
 _atom_site_type_symbol
 _atom_site_label
 _atom_site_symmetry_multiplicity
 _atom_site_fract_x
 _atom_site_fract_y
 _atom_site_fract_z
 _atom_site_occupancy
  Hf  Hf0  1  0.666482  0.747275  0.249797  1
  Hf  Hf1  1  0.333518  0.252725  0.750203  1
  Hf  Hf2  1  0.166482  0.752725  0.750203  1
  Hf  Hf3  1  0.833518  0.247275  0.249797  1
  Hf  Hf4  1  0.000000  0.000000  0.000000  1
  Hf  Hf5  1  0.500000  0.500000  0.000000  1
  Th  Th6  1  0.671008  0.939826  0.688861  1
  Th  Th7  1  0.328992  0.060174  0.311139  1
  Th  Th8  1  0.171008  0.560174  0.311139  1
  Th  Th9  1  0.828992  0.439826  0.688861  1
  Ge  Ge10  1  0.957203  0.856250  0.410104  1
  Ge  Ge11  1  0.042797  0.143750  0.589896  1
  Ge  Ge12  1  0.457203  0.643750  0.589896  1
  Ge  Ge13  1  0.542797  0.356250  0.410104  1
  Ge  Ge14  1  0.865813  0.634740  0.000035  1
  Ge  Ge15  1  0.134187  0.365260  0.999965  1
  Ge  Ge16  1  0.365813  0.865260  0.999965  1
  Ge  Ge17  1  0.634187  0.134740  0.000035  1
