# generated using pymatgen
data_Y3HoSc4(CrB6)4
_symmetry_space_group_name_H-M   'P 1'
_cell_length_a   3.46618100
_cell_length_b   9.01354700
_cell_length_c   11.37346100
_cell_angle_alpha   89.99989373
_cell_angle_beta   90.00000000
_cell_angle_gamma   90.00000000
_symmetry_Int_Tables_number   1
_chemical_formula_structural   Y3HoSc4(CrB6)4
_chemical_formula_sum   'Y3 Ho1 Sc4 Cr4 B24'
_cell_volume   355.33632606
_cell_formula_units_Z   1
loop_
 _symmetry_equiv_pos_site_id
 _symmetry_equiv_pos_as_xyz
  1  'x, y, z'
loop_
 _atom_site_type_symbol
 _atom_site_label
 _atom_site_symmetry_multiplicity
 _atom_site_fract_x
 _atom_site_fract_y
 _atom_site_fract_z
 _atom_site_occupancy
  Y  Y0  1  0.000000  0.822953  0.085133  1
  Y  Y1  1  0.000000  0.177039  0.914864  1
  Y  Y2  1  0.000000  0.322983  0.414879  1
  Ho  Ho3  1  0.000000  0.677010  0.585166  1
  Sc  Sc4  1  0.000000  0.443184  0.130902  1
  Sc  Sc5  1  0.000000  0.556838  0.869055  1
  Sc  Sc6  1  0.000000  0.943135  0.369135  1
  Sc  Sc7  1  0.000000  0.056763  0.630895  1
  Cr  Cr8  1  0.000000  0.141650  0.182229  1
  Cr  Cr9  1  0.000000  0.858279  0.817687  1
  Cr  Cr10  1  0.000000  0.641668  0.317892  1
  Cr  Cr11  1  0.000000  0.358485  0.682181  1
  B  B12  1  0.500000  0.054836  0.067893  1
  B  B13  1  0.500000  0.945160  0.932107  1
  B  B14  1  0.500000  0.554982  0.432302  1
  B  B15  1  0.500000  0.445428  0.567904  1
  B  B16  1  0.500000  0.253129  0.082961  1
  B  B17  1  0.500000  0.746873  0.917035  1
  B  B18  1  0.500000  0.753034  0.417278  1
  B  B19  1  0.500000  0.246874  0.582965  1
  B  B20  1  0.500000  0.294575  0.235737  1
  B  B21  1  0.500000  0.705382  0.764040  1
  B  B22  1  0.500000  0.794571  0.264268  1
  B  B23  1  0.500000  0.205420  0.735733  1
  B  B24  1  0.500000  0.129546  0.316840  1
  B  B25  1  0.500000  0.870219  0.683026  1
  B  B26  1  0.500000  0.629545  0.183160  1
  B  B27  1  0.500000  0.370451  0.816836  1
  B  B28  1  0.500000  0.482801  0.286389  1
  B  B29  1  0.500000  0.517421  0.713449  1
  B  B30  1  0.500000  0.982791  0.213615  1
  B  B31  1  0.500000  0.017201  0.786386  1
  B  B32  1  0.500000  0.095991  0.474116  1
  B  B33  1  0.500000  0.903784  0.525943  1
  B  B34  1  0.500000  0.595996  0.025882  1
  B  B35  1  0.500000  0.404003  0.974119  1
