# generated using pymatgen
data_Gd6Dy4Si5Ge
_symmetry_space_group_name_H-M   'P 1'
_cell_length_a   8.49474900
_cell_length_b   8.49697849
_cell_length_c   6.40495000
_cell_angle_alpha   90.00000000
_cell_angle_beta   90.00000000
_cell_angle_gamma   119.99131683
_symmetry_Int_Tables_number   1
_chemical_formula_structural   Gd6Dy4Si5Ge
_chemical_formula_sum   'Gd6 Dy4 Si5 Ge1'
_cell_volume   400.40495040
_cell_formula_units_Z   1
loop_
 _symmetry_equiv_pos_site_id
 _symmetry_equiv_pos_as_xyz
  1  'x, y, z'
loop_
 _atom_site_type_symbol
 _atom_site_label
 _atom_site_symmetry_multiplicity
 _atom_site_fract_x
 _atom_site_fract_y
 _atom_site_fract_z
 _atom_site_occupancy
  Gd  Gd0  1  0.998638  0.753686  0.750000  1
  Gd  Gd1  1  0.000117  0.245398  0.250000  1
  Gd  Gd2  1  0.754718  0.754602  0.250000  1
  Gd  Gd3  1  0.757024  0.000000  0.750000  1
  Gd  Gd4  1  0.244952  0.246314  0.750000  1
  Gd  Gd5  1  0.244335  0.000000  0.250000  1
  Dy  Dy6  1  0.667517  0.334174  0.001252  1
  Dy  Dy7  1  0.333341  0.665826  0.498748  1
  Dy  Dy8  1  0.333341  0.665826  0.001252  1
  Dy  Dy9  1  0.667517  0.334174  0.498748  1
  Si  Si10  1  0.394493  0.394070  0.250000  1
  Si  Si11  1  0.000422  0.605930  0.250000  1
  Si  Si12  1  0.999252  0.394534  0.750000  1
  Si  Si13  1  0.604719  0.605466  0.750000  1
  Si  Si14  1  0.604680  0.000000  0.250000  1
  Ge  Ge15  1  0.394933  0.000000  0.750000  1
