# generated using pymatgen
data_Dy6TaCr(Co4P3)4
_symmetry_space_group_name_H-M   'P 1'
_cell_length_a   3.69756900
_cell_length_b   10.56951900
_cell_length_c   12.25481300
_cell_angle_alpha   90.00000000
_cell_angle_beta   90.00000000
_cell_angle_gamma   90.00000000
_symmetry_Int_Tables_number   1
_chemical_formula_structural   Dy6TaCr(Co4P3)4
_chemical_formula_sum   'Dy6 Ta1 Cr1 Co16 P12'
_cell_volume   478.93679043
_cell_formula_units_Z   1
loop_
 _symmetry_equiv_pos_site_id
 _symmetry_equiv_pos_as_xyz
  1  'x, y, z'
loop_
 _atom_site_type_symbol
 _atom_site_label
 _atom_site_symmetry_multiplicity
 _atom_site_fract_x
 _atom_site_fract_y
 _atom_site_fract_z
 _atom_site_occupancy
  Dy  Dy0  1  0.000000  0.500000  0.526565  1
  Dy  Dy1  1  0.500000  0.000000  0.477733  1
  Dy  Dy2  1  0.500000  0.820432  0.205680  1
  Dy  Dy3  1  0.500000  0.179568  0.205680  1
  Dy  Dy4  1  0.000000  0.682159  0.795807  1
  Dy  Dy5  1  0.000000  0.317841  0.795807  1
  Ta  Ta6  1  0.500000  0.500000  0.154260  1
  Cr  Cr7  1  0.000000  0.000000  0.841694  1
  Co  Co8  1  0.500000  0.500000  0.702225  1
  Co  Co9  1  0.000000  0.000000  0.297593  1
  Co  Co10  1  0.000000  0.500000  0.985486  1
  Co  Co11  1  0.500000  0.000000  0.012128  1
  Co  Co12  1  0.500000  0.329900  0.989784  1
  Co  Co13  1  0.500000  0.670100  0.989784  1
  Co  Co14  1  0.000000  0.164370  0.004782  1
  Co  Co15  1  0.000000  0.835630  0.004782  1
  Co  Co16  1  0.500000  0.295062  0.432816  1
  Co  Co17  1  0.500000  0.704938  0.432816  1
  Co  Co18  1  0.000000  0.203067  0.569773  1
  Co  Co19  1  0.000000  0.796933  0.569773  1
  Co  Co20  1  0.500000  0.879717  0.707914  1
  Co  Co21  1  0.500000  0.120283  0.707914  1
  Co  Co22  1  0.000000  0.622510  0.293689  1
  Co  Co23  1  0.000000  0.377490  0.293689  1
  P  P24  1  0.500000  0.500000  0.881190  1
  P  P25  1  0.000000  0.000000  0.117160  1
  P  P26  1  0.500000  0.500000  0.355799  1
  P  P27  1  0.000000  0.000000  0.655258  1
  P  P28  1  0.500000  0.310301  0.617035  1
  P  P29  1  0.500000  0.689699  0.617035  1
  P  P30  1  0.000000  0.187956  0.385530  1
  P  P31  1  0.000000  0.812044  0.385530  1
  P  P32  1  0.500000  0.849866  0.889681  1
  P  P33  1  0.500000  0.150134  0.889681  1
  P  P34  1  0.000000  0.660737  0.103964  1
  P  P35  1  0.000000  0.339263  0.103964  1
