# generated using pymatgen
data_KRe2(Sb6Pt)2
_symmetry_space_group_name_H-M   'P 1'
_cell_length_a   8.28612718
_cell_length_b   8.23967165
_cell_length_c   8.28612838
_cell_angle_alpha   109.45140542
_cell_angle_beta   109.49745931
_cell_angle_gamma   109.69323724
_symmetry_Int_Tables_number   1
_chemical_formula_structural   KRe2(Sb6Pt)2
_chemical_formula_sum   'K1 Re2 Sb12 Pt2'
_cell_volume   434.26934708
_cell_formula_units_Z   1
loop_
 _symmetry_equiv_pos_site_id
 _symmetry_equiv_pos_as_xyz
  1  'x, y, z'
loop_
 _atom_site_type_symbol
 _atom_site_label
 _atom_site_symmetry_multiplicity
 _atom_site_fract_x
 _atom_site_fract_y
 _atom_site_fract_z
 _atom_site_occupancy
  K  K0  1  0.000000  0.000000  0.000000  1
  Re  Re1  1  0.500000  0.500000  0.500000  1
  Re  Re2  1  0.000000  0.500000  0.000000  1
  Sb  Sb3  1  0.159222  0.496269  0.337047  1
  Sb  Sb4  1  0.501761  0.652793  0.839866  1
  Sb  Sb5  1  0.339074  0.841570  0.187257  1
  Sb  Sb6  1  0.812927  0.652793  0.151032  1
  Sb  Sb7  1  0.654315  0.841570  0.502497  1
  Sb  Sb8  1  0.187073  0.347207  0.848968  1
  Sb  Sb9  1  0.660926  0.158430  0.812743  1
  Sb  Sb10  1  0.345685  0.158430  0.497503  1
  Sb  Sb11  1  0.498239  0.347207  0.160134  1
  Sb  Sb12  1  0.840778  0.503731  0.662953  1
  Sb  Sb13  1  0.846443  0.193169  0.346724  1
  Sb  Sb14  1  0.153557  0.806831  0.653276  1
  Pt  Pt15  1  0.500000  0.000000  0.000000  1
  Pt  Pt16  1  0.000000  0.000000  0.500000  1
