# generated using pymatgen
data_MoW3Cl8
_symmetry_space_group_name_H-M   'P 1'
_cell_length_a   9.54242203
_cell_length_b   9.54242208
_cell_length_c   11.58971029
_cell_angle_alpha   89.93389369
_cell_angle_beta   90.06610718
_cell_angle_gamma   74.59432304
_symmetry_Int_Tables_number   1
_chemical_formula_structural   MoW3Cl8
_chemical_formula_sum   'Mo3 W9 Cl24'
_cell_volume   1017.41278997
_cell_formula_units_Z   3
loop_
 _symmetry_equiv_pos_site_id
 _symmetry_equiv_pos_as_xyz
  1  'x, y, z'
loop_
 _atom_site_type_symbol
 _atom_site_label
 _atom_site_symmetry_multiplicity
 _atom_site_fract_x
 _atom_site_fract_y
 _atom_site_fract_z
 _atom_site_occupancy
  Mo  Mo0  1  0.430876  0.569124  0.646027  1
  Mo  Mo1  1  0.930468  0.069532  0.854447  1
  Mo  Mo2  1  0.146123  0.853877  0.931257  1
  W  W3  1  0.122317  0.122422  0.000229  1
  W  W4  1  0.877578  0.877683  0.000229  1
  W  W5  1  0.855110  0.144890  0.068843  1
  W  W6  1  0.068779  0.931221  0.144980  1
  W  W7  1  0.568698  0.431302  0.354611  1
  W  W8  1  0.355196  0.644804  0.431028  1
  W  W9  1  0.377336  0.377367  0.499578  1
  W  W10  1  0.622633  0.622664  0.499578  1
  W  W11  1  0.645133  0.354867  0.568086  1
  Cl  Cl12  1  0.279442  0.280524  0.002646  1
  Cl  Cl13  1  0.719476  0.720558  0.002646  1
  Cl  Cl14  1  0.087180  0.679951  0.074231  1
  Cl  Cl15  1  0.320049  0.912820  0.074231  1
  Cl  Cl16  1  0.652609  0.347390  0.152277  1
  Cl  Cl17  1  0.042718  0.189461  0.204903  1
  Cl  Cl18  1  0.810539  0.957282  0.204903  1
  Cl  Cl19  1  0.309807  0.457803  0.294850  1
  Cl  Cl20  1  0.542197  0.690192  0.294850  1
  Cl  Cl21  1  0.152061  0.847939  0.347338  1
  Cl  Cl22  1  0.588273  0.178825  0.426152  1
  Cl  Cl23  1  0.821175  0.411727  0.426152  1
  Cl  Cl24  1  0.220169  0.218785  0.497969  1
  Cl  Cl25  1  0.781215  0.779831  0.497969  1
  Cl  Cl26  1  0.179522  0.587695  0.571857  1
  Cl  Cl27  1  0.412305  0.820478  0.571857  1
  Cl  Cl28  1  0.846911  0.153089  0.650127  1
  Cl  Cl29  1  0.457789  0.309044  0.702786  1
  Cl  Cl30  1  0.690955  0.542211  0.702786  1
  Cl  Cl31  1  0.188928  0.044148  0.797703  1
  Cl  Cl32  1  0.955852  0.811072  0.797703  1
  Cl  Cl33  1  0.349341  0.650658  0.849570  1
  Cl  Cl34  1  0.679249  0.088010  0.927800  1
  Cl  Cl35  1  0.911990  0.320751  0.927800  1
