# generated using pymatgen
data_Dy8Tc3OsC8
_symmetry_space_group_name_H-M   'P 1'
_cell_length_a   5.10327800
_cell_length_b   6.55268119
_cell_length_c   9.84678699
_cell_angle_alpha   89.82950348
_cell_angle_beta   90.00000000
_cell_angle_gamma   90.00000000
_symmetry_Int_Tables_number   1
_chemical_formula_structural   Dy8Tc3OsC8
_chemical_formula_sum   'Dy8 Tc3 Os1 C8'
_cell_volume   329.27661323
_cell_formula_units_Z   1
loop_
 _symmetry_equiv_pos_site_id
 _symmetry_equiv_pos_as_xyz
  1  'x, y, z'
loop_
 _atom_site_type_symbol
 _atom_site_label
 _atom_site_symmetry_multiplicity
 _atom_site_fract_x
 _atom_site_fract_y
 _atom_site_fract_z
 _atom_site_occupancy
  Dy  Dy0  1  0.250000  0.678222  0.555788  1
  Dy  Dy1  1  0.750000  0.320671  0.444270  1
  Dy  Dy2  1  0.750000  0.820920  0.056077  1
  Dy  Dy3  1  0.250000  0.178422  0.944106  1
  Dy  Dy4  1  0.250000  0.530271  0.215749  1
  Dy  Dy5  1  0.750000  0.468150  0.784984  1
  Dy  Dy6  1  0.750000  0.970092  0.713024  1
  Dy  Dy7  1  0.250000  0.030168  0.284948  1
  Tc  Tc8  1  0.250000  0.721464  0.864864  1
  Tc  Tc9  1  0.750000  0.279084  0.134444  1
  Tc  Tc10  1  0.750000  0.778328  0.365588  1
  Os  Os11  1  0.250000  0.221584  0.635285  1
  C  C12  1  0.250000  0.454688  0.758165  1
  C  C13  1  0.750000  0.545452  0.241597  1
  C  C14  1  0.750000  0.045534  0.258999  1
  C  C15  1  0.250000  0.956255  0.741279  1
  C  C16  1  0.250000  0.821842  0.048733  1
  C  C17  1  0.750000  0.178283  0.950384  1
  C  C18  1  0.750000  0.677961  0.550462  1
  C  C19  1  0.250000  0.322609  0.451256  1
