# generated using pymatgen
data_Dy20GaSi14Au
_symmetry_space_group_name_H-M   'P 1'
_cell_length_a   7.45151963
_cell_length_b   7.71193669
_cell_length_c   14.68694501
_cell_angle_alpha   89.83920547
_cell_angle_beta   90.24109865
_cell_angle_gamma   89.82218016
_symmetry_Int_Tables_number   1
_chemical_formula_structural   Dy20GaSi14Au
_chemical_formula_sum   'Dy20 Ga1 Si14 Au1'
_cell_volume   843.97991438
_cell_formula_units_Z   1
loop_
 _symmetry_equiv_pos_site_id
 _symmetry_equiv_pos_as_xyz
  1  'x, y, z'
loop_
 _atom_site_type_symbol
 _atom_site_label
 _atom_site_symmetry_multiplicity
 _atom_site_fract_x
 _atom_site_fract_y
 _atom_site_fract_z
 _atom_site_occupancy
  Dy  Dy0  1  0.650280  0.990486  0.252301  1
  Dy  Dy1  1  0.149835  0.508222  0.249474  1
  Dy  Dy2  1  0.847822  0.488441  0.749162  1
  Dy  Dy3  1  0.346625  0.011210  0.748239  1
  Dy  Dy4  1  0.973325  0.818784  0.099911  1
  Dy  Dy5  1  0.474448  0.680280  0.399326  1
  Dy  Dy6  1  0.525214  0.314538  0.900793  1
  Dy  Dy7  1  0.024293  0.182487  0.600082  1
  Dy  Dy8  1  0.029576  0.179735  0.900957  1
  Dy  Dy9  1  0.529507  0.321291  0.599627  1
  Dy  Dy10  1  0.472393  0.682982  0.101204  1
  Dy  Dy11  1  0.973761  0.816929  0.398298  1
  Dy  Dy12  1  0.677673  0.821781  0.877328  1
  Dy  Dy13  1  0.175889  0.678754  0.621765  1
  Dy  Dy14  1  0.817973  0.323101  0.123878  1
  Dy  Dy15  1  0.318679  0.172514  0.377215  1
  Dy  Dy16  1  0.321600  0.178846  0.123511  1
  Dy  Dy17  1  0.822535  0.321356  0.376613  1
  Dy  Dy18  1  0.182882  0.677775  0.877842  1
  Dy  Dy19  1  0.682081  0.825363  0.621473  1
  Ga  Ga20  1  0.848979  0.530456  0.959808  1
  Si  Si21  1  0.767646  0.628360  0.250196  1
  Si  Si22  1  0.266585  0.871276  0.248465  1
  Si  Si23  1  0.732398  0.125280  0.752404  1
  Si  Si24  1  0.232311  0.375188  0.749858  1
  Si  Si25  1  0.023949  0.104726  0.247777  1
  Si  Si26  1  0.522731  0.394642  0.251354  1
  Si  Si27  1  0.475543  0.607471  0.749733  1
  Si  Si28  1  0.973584  0.893260  0.752248  1
  Si  Si29  1  0.648878  0.029937  0.040352  1
  Si  Si30  1  0.149343  0.471444  0.458654  1
  Si  Si31  1  0.150892  0.470507  0.041313  1
  Si  Si32  1  0.658716  0.028173  0.457070  1
  Si  Si33  1  0.353716  0.969824  0.961771  1
  Si  Si34  1  0.852076  0.530793  0.538117  1
  Au  Au35  1  0.346261  0.973788  0.541881  1
