# generated using pymatgen
data_DyYCdNi2
_symmetry_space_group_name_H-M   'P 1'
_cell_length_a   7.35011741
_cell_length_b   7.35011864
_cell_length_c   3.68155300
_cell_angle_alpha   90.00000000
_cell_angle_beta   90.00000000
_cell_angle_gamma   149.12505557
_symmetry_Int_Tables_number   1
_chemical_formula_structural   DyYCdNi2
_chemical_formula_sum   'Dy1 Y1 Cd1 Ni2'
_cell_volume   102.06516242
_cell_formula_units_Z   1
loop_
 _symmetry_equiv_pos_site_id
 _symmetry_equiv_pos_as_xyz
  1  'x, y, z'
loop_
 _atom_site_type_symbol
 _atom_site_label
 _atom_site_symmetry_multiplicity
 _atom_site_fract_x
 _atom_site_fract_y
 _atom_site_fract_z
 _atom_site_occupancy
  Dy  Dy0  1  0.638284  0.361716  0.500000  1
  Y  Y1  1  0.363011  0.636989  0.500000  1
  Cd  Cd2  1  0.000324  0.999676  0.000000  1
  Ni  Ni3  1  0.799127  0.200873  0.000000  1
  Ni  Ni4  1  0.199254  0.800746  0.000000  1
