# generated using pymatgen
data_Nd3Al12(FePd)2
_symmetry_space_group_name_H-M   'P 1'
_cell_length_a   8.79690994
_cell_length_b   8.79690811
_cell_length_c   9.43692200
_cell_angle_alpha   90.03801088
_cell_angle_beta   89.96198913
_cell_angle_gamma   119.92046105
_symmetry_Int_Tables_number   1
_chemical_formula_structural   Nd3Al12(FePd)2
_chemical_formula_sum   'Nd6 Al24 Fe4 Pd4'
_cell_volume   632.94881986
_cell_formula_units_Z   2
loop_
 _symmetry_equiv_pos_site_id
 _symmetry_equiv_pos_as_xyz
  1  'x, y, z'
loop_
 _atom_site_type_symbol
 _atom_site_label
 _atom_site_symmetry_multiplicity
 _atom_site_fract_x
 _atom_site_fract_y
 _atom_site_fract_z
 _atom_site_occupancy
  Nd  Nd0  1  0.188646  0.380605  0.253102  1
  Nd  Nd1  1  0.811354  0.619395  0.746898  1
  Nd  Nd2  1  0.619395  0.811354  0.253102  1
  Nd  Nd3  1  0.380605  0.188646  0.746898  1
  Nd  Nd4  1  0.190706  0.809294  0.251126  1
  Nd  Nd5  1  0.809294  0.190706  0.748874  1
  Al  Al6  1  0.333385  0.666615  0.020425  1
  Al  Al7  1  0.666615  0.333385  0.979575  1
  Al  Al8  1  0.672059  0.327941  0.518252  1
  Al  Al9  1  0.327941  0.672059  0.481748  1
  Al  Al10  1  0.153159  0.321186  0.572723  1
  Al  Al11  1  0.846841  0.678814  0.427277  1
  Al  Al12  1  0.678814  0.846841  0.572723  1
  Al  Al13  1  0.841674  0.683667  0.077496  1
  Al  Al14  1  0.321186  0.153159  0.427277  1
  Al  Al15  1  0.158326  0.316333  0.922504  1
  Al  Al16  1  0.161650  0.838350  0.572107  1
  Al  Al17  1  0.316333  0.158326  0.077496  1
  Al  Al18  1  0.838350  0.161650  0.427893  1
  Al  Al19  1  0.683667  0.841674  0.922504  1
  Al  Al20  1  0.841172  0.158828  0.079149  1
  Al  Al21  1  0.158828  0.841172  0.920851  1
  Al  Al22  1  0.562654  0.124691  0.258713  1
  Al  Al23  1  0.437346  0.875309  0.741287  1
  Al  Al24  1  0.875309  0.437346  0.258713  1
  Al  Al25  1  0.124691  0.562654  0.741287  1
  Al  Al26  1  0.565212  0.434788  0.250172  1
  Al  Al27  1  0.434788  0.565212  0.749828  1
  Al  Al28  1  0.999528  0.000472  0.251180  1
  Al  Al29  1  0.000472  0.999528  0.748820  1
  Fe  Fe30  1  0.500000  0.000000  0.500000  1
  Fe  Fe31  1  0.000000  0.500000  0.500000  1
  Fe  Fe32  1  0.000000  0.000000  0.000000  1
  Fe  Fe33  1  0.000000  0.000000  0.500000  1
  Pd  Pd34  1  0.500000  0.000000  0.000000  1
  Pd  Pd35  1  0.000000  0.500000  0.000000  1
  Pd  Pd36  1  0.500000  0.500000  0.000000  1
  Pd  Pd37  1  0.500000  0.500000  0.500000  1
