# generated using pymatgen
data_Th2FeCo(As2Rh)2
_symmetry_space_group_name_H-M   'P 1'
_cell_length_a   4.23399800
_cell_length_b   4.23399800
_cell_length_c   9.62986600
_cell_angle_alpha   90.00000000
_cell_angle_beta   90.00000000
_cell_angle_gamma   90.00000000
_symmetry_Int_Tables_number   1
_chemical_formula_structural   Th2FeCo(As2Rh)2
_chemical_formula_sum   'Th2 Fe1 Co1 As4 Rh2'
_cell_volume   172.63209500
_cell_formula_units_Z   1
loop_
 _symmetry_equiv_pos_site_id
 _symmetry_equiv_pos_as_xyz
  1  'x, y, z'
loop_
 _atom_site_type_symbol
 _atom_site_label
 _atom_site_symmetry_multiplicity
 _atom_site_fract_x
 _atom_site_fract_y
 _atom_site_fract_z
 _atom_site_occupancy
  Th  Th0  1  0.000000  0.500000  0.259540  1
  Th  Th1  1  0.500000  0.000000  0.742526  1
  Fe  Fe2  1  0.000000  0.500000  0.608963  1
  Co  Co3  1  0.500000  0.000000  0.390384  1
  As  As4  1  0.000000  0.000000  0.500056  1
  As  As5  1  0.500000  0.500000  0.500056  1
  As  As6  1  0.000000  0.500000  0.847524  1
  As  As7  1  0.500000  0.000000  0.150176  1
  Rh  Rh8  1  0.000000  0.000000  0.000387  1
  Rh  Rh9  1  0.500000  0.500000  0.000387  1
