# generated using pymatgen
data_Rb4P21Cl
_symmetry_space_group_name_H-M   'P 1'
_cell_length_a   13.07609500
_cell_length_b   13.07609461
_cell_length_c   9.94946600
_cell_angle_alpha   90.00000000
_cell_angle_beta   90.00000000
_cell_angle_gamma   115.42298248
_symmetry_Int_Tables_number   1
_chemical_formula_structural   Rb4P21Cl
_chemical_formula_sum   'Rb8 P42 Cl2'
_cell_volume   1536.46301516
_cell_formula_units_Z   2
loop_
 _symmetry_equiv_pos_site_id
 _symmetry_equiv_pos_as_xyz
  1  'x, y, z'
loop_
 _atom_site_type_symbol
 _atom_site_label
 _atom_site_symmetry_multiplicity
 _atom_site_fract_x
 _atom_site_fract_y
 _atom_site_fract_z
 _atom_site_occupancy
  Rb  Rb0  1  0.244866  0.072887  0.250000  1
  Rb  Rb1  1  0.755134  0.927113  0.750000  1
  Rb  Rb2  1  0.072887  0.244866  0.250000  1
  Rb  Rb3  1  0.927113  0.755134  0.750000  1
  Rb  Rb4  1  0.390259  0.609741  0.500000  1
  Rb  Rb5  1  0.609741  0.390259  0.000000  1
  Rb  Rb6  1  0.609741  0.390259  0.500000  1
  Rb  Rb7  1  0.390259  0.609741  0.000000  1
  P  P8  1  0.950712  0.950712  0.250000  1
  P  P9  1  0.049288  0.049288  0.750000  1
  P  P10  1  0.658131  0.200263  0.250000  1
  P  P11  1  0.341869  0.799737  0.750000  1
  P  P12  1  0.200263  0.658131  0.250000  1
  P  P13  1  0.799737  0.341869  0.750000  1
  P  P14  1  0.316033  0.013925  0.922567  1
  P  P15  1  0.683967  0.986075  0.422567  1
  P  P16  1  0.013925  0.316033  0.577433  1
  P  P17  1  0.986075  0.683967  0.077433  1
  P  P18  1  0.058318  0.501096  0.915697  1
  P  P19  1  0.941682  0.498904  0.415697  1
  P  P20  1  0.501096  0.058318  0.584303  1
  P  P21  1  0.498904  0.941682  0.084303  1
  P  P22  1  0.941682  0.498904  0.084303  1
  P  P23  1  0.058318  0.501096  0.584303  1
  P  P24  1  0.498904  0.941682  0.415697  1
  P  P25  1  0.501096  0.058318  0.915697  1
  P  P26  1  0.150987  0.150987  0.911928  1
  P  P27  1  0.849013  0.849013  0.411928  1
  P  P28  1  0.150987  0.150987  0.588072  1
  P  P29  1  0.849013  0.849013  0.088072  1
  P  P30  1  0.944743  0.505423  0.750000  1
  P  P31  1  0.055257  0.494577  0.250000  1
  P  P32  1  0.505423  0.944743  0.750000  1
  P  P33  1  0.494577  0.055257  0.250000  1
  P  P34  1  0.892313  0.239840  0.750000  1
  P  P35  1  0.107687  0.760160  0.250000  1
  P  P36  1  0.239840  0.892313  0.750000  1
  P  P37  1  0.760160  0.107687  0.250000  1
  P  P38  1  0.181415  0.329556  0.864214  1
  P  P39  1  0.818585  0.670444  0.364214  1
  P  P40  1  0.329556  0.181415  0.635786  1
  P  P41  1  0.670444  0.818585  0.135786  1
  P  P42  1  0.818585  0.670444  0.135786  1
  P  P43  1  0.181415  0.329556  0.635786  1
  P  P44  1  0.670444  0.818585  0.364214  1
  P  P45  1  0.329556  0.181415  0.864214  1
  P  P46  1  0.013925  0.316033  0.922567  1
  P  P47  1  0.986075  0.683967  0.422567  1
  P  P48  1  0.316033  0.013925  0.577433  1
  P  P49  1  0.683967  0.986075  0.077433  1
  Cl  Cl50  1  0.394958  0.394958  0.250000  1
  Cl  Cl51  1  0.605042  0.605042  0.750000  1
