# generated using pymatgen
data_Tb6MnFe2(Co5P4)3
_symmetry_space_group_name_H-M   'P 1'
_cell_length_a   3.69714000
_cell_length_b   10.54914400
_cell_length_c   12.16253400
_cell_angle_alpha   90.00000000
_cell_angle_beta   90.00000000
_cell_angle_gamma   90.00000000
_symmetry_Int_Tables_number   1
_chemical_formula_structural   Tb6MnFe2(Co5P4)3
_chemical_formula_sum   'Tb6 Mn1 Fe2 Co15 P12'
_cell_volume   474.35904315
_cell_formula_units_Z   1
loop_
 _symmetry_equiv_pos_site_id
 _symmetry_equiv_pos_as_xyz
  1  'x, y, z'
loop_
 _atom_site_type_symbol
 _atom_site_label
 _atom_site_symmetry_multiplicity
 _atom_site_fract_x
 _atom_site_fract_y
 _atom_site_fract_z
 _atom_site_occupancy
  Tb  Tb0  1  0.000000  0.500000  0.522477  1
  Tb  Tb1  1  0.500000  0.000000  0.478667  1
  Tb  Tb2  1  0.500000  0.817864  0.205048  1
  Tb  Tb3  1  0.500000  0.182136  0.205048  1
  Tb  Tb4  1  0.000000  0.681059  0.796000  1
  Tb  Tb5  1  0.000000  0.318941  0.796000  1
  Mn  Mn6  1  0.500000  0.500000  0.156240  1
  Fe  Fe7  1  0.000000  0.000000  0.843506  1
  Fe  Fe8  1  0.000000  0.500000  0.988616  1
  Co  Co9  1  0.500000  0.500000  0.701394  1
  Co  Co10  1  0.000000  0.000000  0.297672  1
  Co  Co11  1  0.500000  0.000000  0.013265  1
  Co  Co12  1  0.500000  0.331463  0.994513  1
  Co  Co13  1  0.500000  0.668537  0.994513  1
  Co  Co14  1  0.000000  0.166220  0.005643  1
  Co  Co15  1  0.000000  0.833780  0.005643  1
  Co  Co16  1  0.500000  0.296821  0.429762  1
  Co  Co17  1  0.500000  0.703179  0.429762  1
  Co  Co18  1  0.000000  0.203701  0.569276  1
  Co  Co19  1  0.000000  0.796299  0.569276  1
  Co  Co20  1  0.500000  0.879191  0.709154  1
  Co  Co21  1  0.500000  0.120809  0.709154  1
  Co  Co22  1  0.000000  0.620064  0.289833  1
  Co  Co23  1  0.000000  0.379936  0.289833  1
  P  P24  1  0.500000  0.500000  0.884539  1
  P  P25  1  0.000000  0.000000  0.116908  1
  P  P26  1  0.500000  0.500000  0.342616  1
  P  P27  1  0.000000  0.000000  0.658225  1
  P  P28  1  0.500000  0.309863  0.616134  1
  P  P29  1  0.500000  0.690137  0.616134  1
  P  P30  1  0.000000  0.189655  0.384126  1
  P  P31  1  0.000000  0.810345  0.384126  1
  P  P32  1  0.500000  0.847766  0.892770  1
  P  P33  1  0.500000  0.152234  0.892770  1
  P  P34  1  0.000000  0.652666  0.105678  1
  P  P35  1  0.000000  0.347334  0.105678  1
