# generated using pymatgen
data_Y11Ho9(CoHg3)2
_symmetry_space_group_name_H-M   'P 1'
_cell_length_a   9.63409700
_cell_length_b   9.63409784
_cell_length_c   9.55137100
_cell_angle_alpha   90.00000000
_cell_angle_beta   90.00000000
_cell_angle_gamma   119.99999369
_symmetry_Int_Tables_number   1
_chemical_formula_structural   Y11Ho9(CoHg3)2
_chemical_formula_sum   'Y11 Ho9 Co2 Hg6'
_cell_volume   767.74755292
_cell_formula_units_Z   1
loop_
 _symmetry_equiv_pos_site_id
 _symmetry_equiv_pos_as_xyz
  1  'x, y, z'
loop_
 _atom_site_type_symbol
 _atom_site_label
 _atom_site_symmetry_multiplicity
 _atom_site_fract_x
 _atom_site_fract_y
 _atom_site_fract_z
 _atom_site_occupancy
  Y  Y0  1  0.000000  0.000000  0.499949  1
  Y  Y1  1  0.000000  0.000000  0.999814  1
  Y  Y2  1  0.542251  0.457749  0.250333  1
  Y  Y3  1  0.542251  0.084502  0.250333  1
  Y  Y4  1  0.915498  0.457749  0.250333  1
  Y  Y5  1  0.458052  0.541948  0.749561  1
  Y  Y6  1  0.458052  0.916103  0.749561  1
  Y  Y7  1  0.083897  0.541948  0.749561  1
  Y  Y8  1  0.210864  0.789136  0.064499  1
  Y  Y9  1  0.210864  0.421731  0.064499  1
  Y  Y10  1  0.578269  0.789136  0.064499  1
  Ho  Ho11  1  0.211493  0.788507  0.435363  1
  Ho  Ho12  1  0.211493  0.422989  0.435363  1
  Ho  Ho13  1  0.577011  0.788507  0.435363  1
  Ho  Ho14  1  0.788522  0.211478  0.564827  1
  Ho  Ho15  1  0.788522  0.577042  0.564827  1
  Ho  Ho16  1  0.422958  0.211478  0.564827  1
  Ho  Ho17  1  0.788429  0.211571  0.935051  1
  Ho  Ho18  1  0.788429  0.576855  0.935051  1
  Ho  Ho19  1  0.423145  0.211571  0.935051  1
  Co  Co20  1  0.333333  0.666667  0.251577  1
  Co  Co21  1  0.666667  0.333333  0.749852  1
  Hg  Hg22  1  0.880588  0.119412  0.250021  1
  Hg  Hg23  1  0.880588  0.761176  0.250021  1
  Hg  Hg24  1  0.238824  0.119412  0.250021  1
  Hg  Hg25  1  0.119358  0.880642  0.749948  1
  Hg  Hg26  1  0.119358  0.238715  0.749948  1
  Hg  Hg27  1  0.761285  0.880642  0.749948  1
