# generated using pymatgen
data_Cs2Li4Gd4S9
_symmetry_space_group_name_H-M   'P 1'
_cell_length_a   4.10378450
_cell_length_b   7.49887854
_cell_length_c   15.78974959
_cell_angle_alpha   94.40730057
_cell_angle_beta   97.46675349
_cell_angle_gamma   105.88019006
_symmetry_Int_Tables_number   1
_chemical_formula_structural   Cs2Li4Gd4S9
_chemical_formula_sum   'Cs2 Li4 Gd4 S9'
_cell_volume   460.17293848
_cell_formula_units_Z   1
loop_
 _symmetry_equiv_pos_site_id
 _symmetry_equiv_pos_as_xyz
  1  'x, y, z'
loop_
 _atom_site_type_symbol
 _atom_site_label
 _atom_site_symmetry_multiplicity
 _atom_site_fract_x
 _atom_site_fract_y
 _atom_site_fract_z
 _atom_site_occupancy
  Cs  Cs0  1  0.253832  0.281409  0.226255  1
  Cs  Cs1  1  0.746168  0.718591  0.773745  1
  Li  Li2  1  0.974841  0.719908  0.229778  1
  Li  Li3  1  0.891470  0.327704  0.455240  1
  Li  Li4  1  0.108530  0.672296  0.544760  1
  Li  Li5  1  0.025160  0.280093  0.770222  1
  Gd  Gd6  1  0.399061  0.747086  0.051035  1
  Gd  Gd7  1  0.628568  0.861669  0.395465  1
  Gd  Gd8  1  0.371433  0.138332  0.604535  1
  Gd  Gd9  1  0.600939  0.252913  0.948965  1
  S  S10  1  0.000000  0.000000  0.000000  1
  S  S11  1  0.806918  0.519965  0.093871  1
  S  S12  1  0.554209  0.886661  0.221757  1
  S  S13  1  0.993604  0.606879  0.380331  1
  S  S14  1  0.279711  0.132220  0.427200  1
  S  S15  1  0.720289  0.867779  0.572800  1
  S  S16  1  0.006397  0.393122  0.619669  1
  S  S17  1  0.445791  0.113339  0.778243  1
  S  S18  1  0.193082  0.480034  0.906129  1
