# generated using pymatgen
data_Tm5Lu11(CoAg)4
_symmetry_space_group_name_H-M   'P 1'
_cell_length_a   9.22410329
_cell_length_b   9.22386804
_cell_length_c   9.22460502
_cell_angle_alpha   59.99501613
_cell_angle_beta   59.99720798
_cell_angle_gamma   60.00071433
_symmetry_Int_Tables_number   1
_chemical_formula_structural   Tm5Lu11(CoAg)4
_chemical_formula_sum   'Tm5 Lu11 Co4 Ag4'
_cell_volume   554.94103516
_cell_formula_units_Z   1
loop_
 _symmetry_equiv_pos_site_id
 _symmetry_equiv_pos_as_xyz
  1  'x, y, z'
loop_
 _atom_site_type_symbol
 _atom_site_label
 _atom_site_symmetry_multiplicity
 _atom_site_fract_x
 _atom_site_fract_y
 _atom_site_fract_z
 _atom_site_occupancy
  Tm  Tm0  1  0.562155  0.937841  0.937856  1
  Tm  Tm1  1  0.562284  0.937720  0.562161  1
  Tm  Tm2  1  0.937837  0.562170  0.937714  1
  Tm  Tm3  1  0.562280  0.562170  0.937706  1
  Tm  Tm4  1  0.937851  0.937699  0.562179  1
  Lu  Lu5  1  0.347534  0.347816  0.347723  1
  Lu  Lu6  1  0.347636  0.347688  0.957077  1
  Lu  Lu7  1  0.347661  0.957038  0.347657  1
  Lu  Lu8  1  0.956917  0.347822  0.347742  1
  Lu  Lu9  1  0.811753  0.188220  0.188205  1
  Lu  Lu10  1  0.188234  0.811719  0.811828  1
  Lu  Lu11  1  0.188163  0.811606  0.188409  1
  Lu  Lu12  1  0.811747  0.188424  0.811677  1
  Lu  Lu13  1  0.188164  0.188407  0.811664  1
  Lu  Lu14  1  0.811796  0.811637  0.188422  1
  Lu  Lu15  1  0.937840  0.562173  0.562136  1
  Co  Co16  1  0.141326  0.141273  0.141265  1
  Co  Co17  1  0.141263  0.141379  0.576076  1
  Co  Co18  1  0.141279  0.576075  0.141380  1
  Co  Co19  1  0.576139  0.141274  0.141269  1
  Ag  Ag20  1  0.581949  0.581729  0.581733  1
  Ag  Ag21  1  0.581808  0.581744  0.254643  1
  Ag  Ag22  1  0.581796  0.254650  0.581752  1
  Ag  Ag23  1  0.254587  0.581727  0.581726  1
