# generated using pymatgen
data_ErNbCoB6
_symmetry_space_group_name_H-M   'P 1'
_cell_length_a   3.34926700
_cell_length_b   8.90717000
_cell_length_c   11.24540100
_cell_angle_alpha   90.00000000
_cell_angle_beta   90.00000000
_cell_angle_gamma   90.00000000
_symmetry_Int_Tables_number   1
_chemical_formula_structural   ErNbCoB6
_chemical_formula_sum   'Er4 Nb4 Co4 B24'
_cell_volume   335.47831900
_cell_formula_units_Z   4
loop_
 _symmetry_equiv_pos_site_id
 _symmetry_equiv_pos_as_xyz
  1  'x, y, z'
loop_
 _atom_site_type_symbol
 _atom_site_label
 _atom_site_symmetry_multiplicity
 _atom_site_fract_x
 _atom_site_fract_y
 _atom_site_fract_z
 _atom_site_occupancy
  Er  Er0  1  0.000000  0.821900  0.086930  1
  Er  Er1  1  0.000000  0.178100  0.913070  1
  Er  Er2  1  0.000000  0.321900  0.413070  1
  Er  Er3  1  0.000000  0.678100  0.586930  1
  Nb  Nb4  1  0.000000  0.445164  0.128562  1
  Nb  Nb5  1  0.000000  0.554836  0.871438  1
  Nb  Nb6  1  0.000000  0.945164  0.371438  1
  Nb  Nb7  1  0.000000  0.054836  0.628562  1
  Co  Co8  1  0.000000  0.142892  0.181202  1
  Co  Co9  1  0.000000  0.857108  0.818798  1
  Co  Co10  1  0.000000  0.642892  0.318798  1
  Co  Co11  1  0.000000  0.357108  0.681202  1
  B  B12  1  0.500000  0.054356  0.066580  1
  B  B13  1  0.500000  0.945644  0.933420  1
  B  B14  1  0.500000  0.554356  0.433420  1
  B  B15  1  0.500000  0.445644  0.566580  1
  B  B16  1  0.500000  0.251691  0.082439  1
  B  B17  1  0.500000  0.748309  0.917561  1
  B  B18  1  0.500000  0.751691  0.417561  1
  B  B19  1  0.500000  0.248309  0.582439  1
  B  B20  1  0.500000  0.297112  0.236506  1
  B  B21  1  0.500000  0.702888  0.763494  1
  B  B22  1  0.500000  0.797112  0.263494  1
  B  B23  1  0.500000  0.202888  0.736506  1
  B  B24  1  0.500000  0.130278  0.317517  1
  B  B25  1  0.500000  0.869722  0.682483  1
  B  B26  1  0.500000  0.630278  0.182483  1
  B  B27  1  0.500000  0.369722  0.817517  1
  B  B28  1  0.500000  0.482544  0.287021  1
  B  B29  1  0.500000  0.517456  0.712979  1
  B  B30  1  0.500000  0.982544  0.212979  1
  B  B31  1  0.500000  0.017456  0.787021  1
  B  B32  1  0.500000  0.100269  0.473627  1
  B  B33  1  0.500000  0.899731  0.526373  1
  B  B34  1  0.500000  0.600269  0.026373  1
  B  B35  1  0.500000  0.399731  0.973627  1
