# generated using pymatgen
data_PaTaCrB6
_symmetry_space_group_name_H-M   'P 1'
_cell_length_a   3.49280200
_cell_length_b   8.90826200
_cell_length_c   11.25268100
_cell_angle_alpha   90.00000000
_cell_angle_beta   90.00000000
_cell_angle_gamma   90.00000000
_symmetry_Int_Tables_number   1
_chemical_formula_structural   PaTaCrB6
_chemical_formula_sum   'Pa4 Ta4 Cr4 B24'
_cell_volume   350.12486623
_cell_formula_units_Z   4
loop_
 _symmetry_equiv_pos_site_id
 _symmetry_equiv_pos_as_xyz
  1  'x, y, z'
loop_
 _atom_site_type_symbol
 _atom_site_label
 _atom_site_symmetry_multiplicity
 _atom_site_fract_x
 _atom_site_fract_y
 _atom_site_fract_z
 _atom_site_occupancy
  Pa  Pa0  1  0.000000  0.823130  0.085931  1
  Pa  Pa1  1  0.000000  0.176870  0.914069  1
  Pa  Pa2  1  0.000000  0.323130  0.414069  1
  Pa  Pa3  1  0.000000  0.676870  0.585931  1
  Ta  Ta4  1  0.000000  0.444685  0.127938  1
  Ta  Ta5  1  0.000000  0.555315  0.872062  1
  Ta  Ta6  1  0.000000  0.944685  0.372062  1
  Ta  Ta7  1  0.000000  0.055315  0.627938  1
  Cr  Cr8  1  0.000000  0.143462  0.183504  1
  Cr  Cr9  1  0.000000  0.856538  0.816496  1
  Cr  Cr10  1  0.000000  0.643462  0.316496  1
  Cr  Cr11  1  0.000000  0.356538  0.683504  1
  B  B12  1  0.500000  0.054840  0.068164  1
  B  B13  1  0.500000  0.945160  0.931836  1
  B  B14  1  0.500000  0.554840  0.431836  1
  B  B15  1  0.500000  0.445160  0.568164  1
  B  B16  1  0.500000  0.253788  0.082373  1
  B  B17  1  0.500000  0.746212  0.917627  1
  B  B18  1  0.500000  0.753788  0.417627  1
  B  B19  1  0.500000  0.246212  0.582373  1
  B  B20  1  0.500000  0.296053  0.235465  1
  B  B21  1  0.500000  0.703947  0.764535  1
  B  B22  1  0.500000  0.796053  0.264535  1
  B  B23  1  0.500000  0.203947  0.735465  1
  B  B24  1  0.500000  0.129678  0.317469  1
  B  B25  1  0.500000  0.870322  0.682531  1
  B  B26  1  0.500000  0.629678  0.182531  1
  B  B27  1  0.500000  0.370322  0.817469  1
  B  B28  1  0.500000  0.482275  0.285589  1
  B  B29  1  0.500000  0.517725  0.714411  1
  B  B30  1  0.500000  0.982275  0.214411  1
  B  B31  1  0.500000  0.017725  0.785589  1
  B  B32  1  0.500000  0.100013  0.473438  1
  B  B33  1  0.500000  0.899987  0.526562  1
  B  B34  1  0.500000  0.600013  0.026562  1
  B  B35  1  0.500000  0.399987  0.973438  1
