# generated using pymatgen
data_CaNd3Ti8O20
_symmetry_space_group_name_H-M   'P 1'
_cell_length_a   5.85955400
_cell_length_b   7.74575105
_cell_length_c   8.76595006
_cell_angle_alpha   89.98692913
_cell_angle_beta   90.00000000
_cell_angle_gamma   90.00000000
_symmetry_Int_Tables_number   1
_chemical_formula_structural   CaNd3Ti8O20
_chemical_formula_sum   'Ca1 Nd3 Ti8 O20'
_cell_volume   397.85706656
_cell_formula_units_Z   1
loop_
 _symmetry_equiv_pos_site_id
 _symmetry_equiv_pos_as_xyz
  1  'x, y, z'
loop_
 _atom_site_type_symbol
 _atom_site_label
 _atom_site_symmetry_multiplicity
 _atom_site_fract_x
 _atom_site_fract_y
 _atom_site_fract_z
 _atom_site_occupancy
  Ca  Ca0  1  0.000000  0.353920  0.670094  1
  Nd  Nd1  1  0.000000  0.636829  0.332638  1
  Nd  Nd2  1  0.000000  0.858641  0.828133  1
  Nd  Nd3  1  0.000000  0.141639  0.171262  1
  Ti  Ti4  1  0.500000  0.115624  0.856184  1
  Ti  Ti5  1  0.500000  0.882725  0.142893  1
  Ti  Ti6  1  0.500000  0.615548  0.641873  1
  Ti  Ti7  1  0.500000  0.386663  0.359493  1
  Ti  Ti8  1  0.247478  0.499906  0.996490  1
  Ti  Ti9  1  0.749746  0.002021  0.500940  1
  Ti  Ti10  1  0.752522  0.499906  0.996490  1
  Ti  Ti11  1  0.250254  0.002021  0.500940  1
  O  O12  1  0.255179  0.897971  0.289876  1
  O  O13  1  0.256797  0.097077  0.710821  1
  O  O14  1  0.744881  0.399063  0.209900  1
  O  O15  1  0.741933  0.606931  0.792243  1
  O  O16  1  0.743203  0.097077  0.710821  1
  O  O17  1  0.744821  0.897971  0.289876  1
  O  O18  1  0.258067  0.606931  0.792243  1
  O  O19  1  0.255119  0.399063  0.209900  1
  O  O20  1  0.500000  0.337056  0.922392  1
  O  O21  1  0.500000  0.662236  0.077490  1
  O  O22  1  0.500000  0.835501  0.574797  1
  O  O23  1  0.500000  0.164457  0.422795  1
  O  O24  1  0.281394  0.999880  0.000744  1
  O  O25  1  0.717627  0.502283  0.498888  1
  O  O26  1  0.718606  0.999880  0.000744  1
  O  O27  1  0.282373  0.502283  0.498888  1
  O  O28  1  0.000000  0.161306  0.444958  1
  O  O29  1  0.000000  0.837659  0.552895  1
  O  O30  1  0.000000  0.663326  0.054185  1
  O  O31  1  0.000000  0.336603  0.948113  1
