# generated using pymatgen
data_Mn2ZnPdPt4
_symmetry_space_group_name_H-M   'P 1'
_cell_length_a   5.48630519
_cell_length_b   5.48630558
_cell_length_c   4.01987700
_cell_angle_alpha   90.00000000
_cell_angle_beta   90.00000000
_cell_angle_gamma   94.31229732
_symmetry_Int_Tables_number   1
_chemical_formula_structural   Mn2ZnPdPt4
_chemical_formula_sum   'Mn2 Zn1 Pd1 Pt4'
_cell_volume   120.65393698
_cell_formula_units_Z   1
loop_
 _symmetry_equiv_pos_site_id
 _symmetry_equiv_pos_as_xyz
  1  'x, y, z'
loop_
 _atom_site_type_symbol
 _atom_site_label
 _atom_site_symmetry_multiplicity
 _atom_site_fract_x
 _atom_site_fract_y
 _atom_site_fract_z
 _atom_site_occupancy
  Mn  Mn0  1  0.268970  0.731383  0.500000  1
  Mn  Mn1  1  0.731383  0.268970  0.500000  1
  Zn  Zn2  1  0.998681  0.998681  0.000000  1
  Pd  Pd3  1  0.771919  0.771919  0.500000  1
  Pt  Pt4  1  0.500744  0.500744  0.000000  1
  Pt  Pt5  1  0.499982  0.000747  0.000000  1
  Pt  Pt6  1  0.000747  0.499982  0.000000  1
  Pt  Pt7  1  0.227574  0.227574  0.500000  1
