# generated using pymatgen
data_La2NdAgO6
_symmetry_space_group_name_H-M   'P 1'
_cell_length_a   3.92230767
_cell_length_b   5.77318277
_cell_length_c   7.16462500
_cell_angle_alpha   91.47197075
_cell_angle_beta   103.15155103
_cell_angle_gamma   90.64992524
_symmetry_Int_Tables_number   1
_chemical_formula_structural   La2NdAgO6
_chemical_formula_sum   'La2 Nd1 Ag1 O6'
_cell_volume   157.90522831
_cell_formula_units_Z   1
loop_
 _symmetry_equiv_pos_site_id
 _symmetry_equiv_pos_as_xyz
  1  'x, y, z'
loop_
 _atom_site_type_symbol
 _atom_site_label
 _atom_site_symmetry_multiplicity
 _atom_site_fract_x
 _atom_site_fract_y
 _atom_site_fract_z
 _atom_site_occupancy
  La  La0  1  0.998204  0.998037  0.496341  1
  La  La1  1  0.611348  0.520960  0.770297  1
  Nd  Nd2  1  0.387592  0.476678  0.232769  1
  Ag  Ag3  1  0.999065  0.000493  0.001286  1
  O  O4  1  0.856396  0.713924  0.134783  1
  O  O5  1  0.872859  0.225874  0.197410  1
  O  O6  1  0.489935  0.744346  0.485458  1
  O  O7  1  0.508399  0.255283  0.509431  1
  O  O8  1  0.126814  0.780470  0.802538  1
  O  O9  1  0.149391  0.283935  0.869684  1
