# generated using pymatgen
data_LiMg3Al2(B2Rh5)2
_symmetry_space_group_name_H-M   'P 1'
_cell_length_a   2.91201300
_cell_length_b   9.41396058
_cell_length_c   9.41396058
_cell_angle_alpha   89.54387038
_cell_angle_beta   90.00000000
_cell_angle_gamma   90.00000000
_symmetry_Int_Tables_number   1
_chemical_formula_structural   LiMg3Al2(B2Rh5)2
_chemical_formula_sum   'Li1 Mg3 Al2 B4 Rh10'
_cell_volume   258.06214207
_cell_formula_units_Z   1
loop_
 _symmetry_equiv_pos_site_id
 _symmetry_equiv_pos_as_xyz
  1  'x, y, z'
loop_
 _atom_site_type_symbol
 _atom_site_label
 _atom_site_symmetry_multiplicity
 _atom_site_fract_x
 _atom_site_fract_y
 _atom_site_fract_z
 _atom_site_occupancy
  Li  Li0  1  0.000000  0.824017  0.175985  1
  Mg  Mg1  1  0.000000  0.324161  0.323010  1
  Mg  Mg2  1  0.000000  0.676991  0.675840  1
  Mg  Mg3  1  0.000000  0.174826  0.825176  1
  Al  Al4  1  0.000000  0.500380  0.000616  1
  Al  Al5  1  0.000000  0.999384  0.499622  1
  B  B6  1  0.000000  0.122452  0.125815  1
  B  B7  1  0.000000  0.629872  0.370131  1
  B  B8  1  0.000000  0.375053  0.624950  1
  B  B9  1  0.000000  0.874185  0.877548  1
  Rh  Rh10  1  0.499999  0.998921  0.001079  1
  Rh  Rh11  1  0.499999  0.284968  0.070336  1
  Rh  Rh12  1  0.499999  0.570910  0.214000  1
  Rh  Rh13  1  0.499999  0.071938  0.286293  1
  Rh  Rh14  1  0.499999  0.786002  0.429091  1
  Rh  Rh15  1  0.499999  0.500259  0.499743  1
  Rh  Rh16  1  0.499999  0.214171  0.571853  1
  Rh  Rh17  1  0.499999  0.929665  0.715032  1
  Rh  Rh18  1  0.499999  0.428148  0.785831  1
  Rh  Rh19  1  0.499999  0.713707  0.928063  1
