# generated using pymatgen
data_SrSc(Re2Si)4
_symmetry_space_group_name_H-M   'P 1'
_cell_length_a   7.40107197
_cell_length_b   7.40107184
_cell_length_c   4.17217300
_cell_angle_alpha   90.00000000
_cell_angle_beta   90.00000000
_cell_angle_gamma   87.79548644
_symmetry_Int_Tables_number   1
_chemical_formula_structural   SrSc(Re2Si)4
_chemical_formula_sum   'Sr1 Sc1 Re8 Si4'
_cell_volume   228.36524579
_cell_formula_units_Z   1
loop_
 _symmetry_equiv_pos_site_id
 _symmetry_equiv_pos_as_xyz
  1  'x, y, z'
loop_
 _atom_site_type_symbol
 _atom_site_label
 _atom_site_symmetry_multiplicity
 _atom_site_fract_x
 _atom_site_fract_y
 _atom_site_fract_z
 _atom_site_occupancy
  Sr  Sr0  1  0.500000  0.500000  0.000000  1
  Sc  Sc1  1  0.000000  0.000000  0.500000  1
  Re  Re2  1  0.662535  0.914168  0.000000  1
  Re  Re3  1  0.149026  0.604820  0.500000  1
  Re  Re4  1  0.085832  0.337465  0.000000  1
  Re  Re5  1  0.914168  0.662535  0.000000  1
  Re  Re6  1  0.395180  0.850974  0.500000  1
  Re  Re7  1  0.604820  0.149026  0.500000  1
  Re  Re8  1  0.337465  0.085832  0.000000  1
  Re  Re9  1  0.850974  0.395180  0.500000  1
  Si  Si10  1  0.200262  0.799738  0.000000  1
  Si  Si11  1  0.799738  0.200262  0.000000  1
  Si  Si12  1  0.714660  0.714660  0.500000  1
  Si  Si13  1  0.285340  0.285340  0.500000  1
