# generated using pymatgen
data_Na2Cr3Co7Ni2As7
_symmetry_space_group_name_H-M   'P 1'
_cell_length_a   9.48326822
_cell_length_b   9.45336097
_cell_length_c   3.68475600
_cell_angle_alpha   90.00000000
_cell_angle_beta   90.00000000
_cell_angle_gamma   120.04570359
_symmetry_Int_Tables_number   1
_chemical_formula_structural   Na2Cr3Co7Ni2As7
_chemical_formula_sum   'Na2 Cr3 Co7 Ni2 As7'
_cell_volume   285.94561956
_cell_formula_units_Z   1
loop_
 _symmetry_equiv_pos_site_id
 _symmetry_equiv_pos_as_xyz
  1  'x, y, z'
loop_
 _atom_site_type_symbol
 _atom_site_label
 _atom_site_symmetry_multiplicity
 _atom_site_fract_x
 _atom_site_fract_y
 _atom_site_fract_z
 _atom_site_occupancy
  Na  Na0  1  0.333597  0.665981  0.000000  1
  Na  Na1  1  0.667193  0.333307  0.500000  1
  Cr  Cr2  1  0.226024  0.124261  0.500000  1
  Cr  Cr3  1  0.873415  0.101893  0.500000  1
  Cr  Cr4  1  0.898188  0.771549  0.500000  1
  Co  Co5  1  0.118534  0.275714  0.000000  1
  Co  Co6  1  0.722240  0.840915  0.000000  1
  Co  Co7  1  0.158641  0.881217  0.000000  1
  Co  Co8  1  0.425411  0.371873  0.000000  1
  Co  Co9  1  0.048801  0.434933  0.500000  1
  Co  Co10  1  0.565460  0.613564  0.500000  1
  Co  Co11  1  0.388471  0.955285  0.500000  1
  Ni  Ni12  1  0.628999  0.056714  0.000000  1
  Ni  Ni13  1  0.944227  0.573097  0.000000  1
  As  As14  1  0.290088  0.415676  0.500000  1
  As  As15  1  0.582507  0.871050  0.500000  1
  As  As16  1  0.131098  0.713140  0.500000  1
  As  As17  1  0.415166  0.119426  0.000000  1
  As  As18  1  0.885709  0.300062  0.000000  1
  As  As19  1  0.697318  0.581910  0.000000  1
  As  As20  1  0.998913  0.998433  0.000000  1
