# generated using pymatgen
data_Sm7Dy(SiI6)2
_symmetry_space_group_name_H-M   'P 1'
_cell_length_a   4.28088000
_cell_length_b   14.26232464
_cell_length_c   15.06151937
_cell_angle_alpha   89.81672201
_cell_angle_beta   90.00000000
_cell_angle_gamma   90.00000000
_symmetry_Int_Tables_number   1
_chemical_formula_structural   Sm7Dy(SiI6)2
_chemical_formula_sum   'Sm7 Dy1 Si2 I12'
_cell_volume   919.58088339
_cell_formula_units_Z   1
loop_
 _symmetry_equiv_pos_site_id
 _symmetry_equiv_pos_as_xyz
  1  'x, y, z'
loop_
 _atom_site_type_symbol
 _atom_site_label
 _atom_site_symmetry_multiplicity
 _atom_site_fract_x
 _atom_site_fract_y
 _atom_site_fract_z
 _atom_site_occupancy
  Sm  Sm0  1  0.500000  0.115317  0.346349  1
  Sm  Sm1  1  0.500000  0.885266  0.653079  1
  Sm  Sm2  1  0.500000  0.613680  0.152918  1
  Sm  Sm3  1  0.500000  0.384974  0.847858  1
  Sm  Sm4  1  0.000000  0.112653  0.575259  1
  Sm  Sm5  1  0.000000  0.887571  0.424188  1
  Sm  Sm6  1  0.000000  0.611208  0.925303  1
  Dy  Dy7  1  0.000000  0.389273  0.074186  1
  Si  Si8  1  0.500000  0.000216  0.499597  1
  Si  Si9  1  0.500000  0.498134  0.001166  1
  I  I10  1  0.500000  0.250116  0.160568  1
  I  I11  1  0.500000  0.754636  0.838010  1
  I  I12  1  0.500000  0.744107  0.337695  1
  I  I13  1  0.500000  0.255155  0.662931  1
  I  I14  1  0.000000  0.259626  0.414321  1
  I  I15  1  0.000000  0.740775  0.585411  1
  I  I16  1  0.000000  0.758517  0.085132  1
  I  I17  1  0.000000  0.241715  0.918747  1
  I  I18  1  0.000000  0.999486  0.239317  1
  I  I19  1  0.000000  0.001411  0.759932  1
  I  I20  1  0.000000  0.494862  0.257317  1
  I  I21  1  0.000000  0.501301  0.740717  1
