# generated using pymatgen
data_Tb2Nd4CoBr10
_symmetry_space_group_name_H-M   'P 1'
_cell_length_a   7.50311918
_cell_length_b   9.35946433
_cell_length_c   9.51521036
_cell_angle_alpha   108.68473829
_cell_angle_beta   96.39189363
_cell_angle_gamma   105.38924215
_symmetry_Int_Tables_number   1
_chemical_formula_structural   Tb2Nd4CoBr10
_chemical_formula_sum   'Tb2 Nd4 Co1 Br10'
_cell_volume   596.02512036
_cell_formula_units_Z   1
loop_
 _symmetry_equiv_pos_site_id
 _symmetry_equiv_pos_as_xyz
  1  'x, y, z'
loop_
 _atom_site_type_symbol
 _atom_site_label
 _atom_site_symmetry_multiplicity
 _atom_site_fract_x
 _atom_site_fract_y
 _atom_site_fract_z
 _atom_site_occupancy
  Tb  Tb0  1  0.356287  0.132253  0.675164  1
  Tb  Tb1  1  0.643713  0.867747  0.324836  1
  Nd  Nd2  1  0.029314  0.712142  0.409083  1
  Nd  Nd3  1  0.970686  0.287858  0.590917  1
  Nd  Nd4  1  0.873251  0.953310  0.747323  1
  Nd  Nd5  1  0.126749  0.046690  0.252677  1
  Co  Co6  1  0.000000  0.000000  0.500000  1
  Br  Br7  1  0.451870  0.826026  0.580325  1
  Br  Br8  1  0.548130  0.173974  0.419675  1
  Br  Br9  1  0.914067  0.630772  0.672925  1
  Br  Br10  1  0.085933  0.369228  0.327075  1
  Br  Br11  1  0.258083  0.086373  0.949231  1
  Br  Br12  1  0.741917  0.913627  0.050769  1
  Br  Br13  1  0.358899  0.448032  0.770931  1
  Br  Br14  1  0.641101  0.551968  0.229069  1
  Br  Br15  1  0.775337  0.254827  0.845083  1
  Br  Br16  1  0.224663  0.745173  0.154917  1
