# generated using pymatgen
data_Sc5U(ZnRh2)6
_symmetry_space_group_name_H-M   'P 1'
_cell_length_a   4.47984600
_cell_length_b   6.26216700
_cell_length_c   13.32746800
_cell_angle_alpha   90.00000000
_cell_angle_beta   90.00259868
_cell_angle_gamma   90.00000000
_symmetry_Int_Tables_number   1
_chemical_formula_structural   Sc5U(ZnRh2)6
_chemical_formula_sum   'Sc5 U1 Zn6 Rh12'
_cell_volume   373.88270691
_cell_formula_units_Z   1
loop_
 _symmetry_equiv_pos_site_id
 _symmetry_equiv_pos_as_xyz
  1  'x, y, z'
loop_
 _atom_site_type_symbol
 _atom_site_label
 _atom_site_symmetry_multiplicity
 _atom_site_fract_x
 _atom_site_fract_y
 _atom_site_fract_z
 _atom_site_occupancy
  Sc  Sc0  1  0.499778  0.500000  0.173331  1
  Sc  Sc1  1  0.999791  0.000000  0.337146  1
  Sc  Sc2  1  0.500000  0.500000  0.500000  1
  Sc  Sc3  1  0.000207  0.000000  0.662854  1
  Sc  Sc4  1  0.500220  0.500000  0.826670  1
  U  U5  1  0.000006  0.000000  0.000000  1
  Zn  Zn6  1  0.000000  0.500000  0.000002  1
  Zn  Zn7  1  0.499816  0.000000  0.174131  1
  Zn  Zn8  1  0.999804  0.500000  0.334916  1
  Zn  Zn9  1  0.499999  0.000000  0.499999  1
  Zn  Zn10  1  0.000195  0.500000  0.665083  1
  Zn  Zn11  1  0.500185  0.000000  0.825870  1
  Rh  Rh12  1  0.500001  0.251238  0.000002  1
  Rh  Rh13  1  0.500001  0.748762  0.000002  1
  Rh  Rh14  1  0.999788  0.244229  0.161084  1
  Rh  Rh15  1  0.999788  0.755770  0.161084  1
  Rh  Rh16  1  0.499794  0.250021  0.333398  1
  Rh  Rh17  1  0.499794  0.749979  0.333398  1
  Rh  Rh18  1  0.999998  0.250465  0.500000  1
  Rh  Rh19  1  0.999998  0.749534  0.500000  1
  Rh  Rh20  1  0.500206  0.250017  0.666602  1
  Rh  Rh21  1  0.500206  0.749983  0.666602  1
  Rh  Rh22  1  0.000213  0.244237  0.838913  1
  Rh  Rh23  1  0.000213  0.755762  0.838913  1
