# generated using pymatgen
data_Nd2DyHo(SbAu)4
_symmetry_space_group_name_H-M   'P 1'
_cell_length_a   4.61421300
_cell_length_b   4.61421266
_cell_length_c   16.56979400
_cell_angle_alpha   90.00000000
_cell_angle_beta   90.00000000
_cell_angle_gamma   120.00000958
_symmetry_Int_Tables_number   1
_chemical_formula_structural   Nd2DyHo(SbAu)4
_chemical_formula_sum   'Nd2 Dy1 Ho1 Sb4 Au4'
_cell_volume   305.52232071
_cell_formula_units_Z   1
loop_
 _symmetry_equiv_pos_site_id
 _symmetry_equiv_pos_as_xyz
  1  'x, y, z'
loop_
 _atom_site_type_symbol
 _atom_site_label
 _atom_site_symmetry_multiplicity
 _atom_site_fract_x
 _atom_site_fract_y
 _atom_site_fract_z
 _atom_site_occupancy
  Nd  Nd0  1  0.000000  0.000000  0.500036  1
  Nd  Nd1  1  0.000000  0.000000  0.999962  1
  Dy  Dy2  1  0.000000  0.000000  0.250000  1
  Ho  Ho3  1  0.000000  0.000000  0.749997  1
  Sb  Sb4  1  0.333333  0.666667  0.388005  1
  Sb  Sb5  1  0.666667  0.333333  0.612001  1
  Sb  Sb6  1  0.666667  0.333333  0.888000  1
  Sb  Sb7  1  0.333333  0.666667  0.111996  1
  Au  Au8  1  0.666667  0.333333  0.337171  1
  Au  Au9  1  0.333333  0.666667  0.663017  1
  Au  Au10  1  0.333333  0.666667  0.836984  1
  Au  Au11  1  0.666667  0.333333  0.162829  1
