# generated using pymatgen
data_Er2Sc4AlNi2
_symmetry_space_group_name_H-M   'P 1'
_cell_length_a   7.92030317
_cell_length_b   7.92030411
_cell_length_c   7.92030396
_cell_angle_alpha   111.67405946
_cell_angle_beta   110.41449553
_cell_angle_gamma   106.37153282
_symmetry_Int_Tables_number   1
_chemical_formula_structural   Er2Sc4AlNi2
_chemical_formula_sum   'Er4 Sc8 Al2 Ni4'
_cell_volume   381.59282831
_cell_formula_units_Z   2
loop_
 _symmetry_equiv_pos_site_id
 _symmetry_equiv_pos_as_xyz
  1  'x, y, z'
loop_
 _atom_site_type_symbol
 _atom_site_label
 _atom_site_symmetry_multiplicity
 _atom_site_fract_x
 _atom_site_fract_y
 _atom_site_fract_z
 _atom_site_occupancy
  Er  Er0  1  0.188147  0.209182  0.397328  1
  Er  Er1  1  0.811853  0.209182  0.021035  1
  Er  Er2  1  0.188147  0.790818  0.978965  1
  Er  Er3  1  0.811853  0.790818  0.602672  1
  Sc  Sc4  1  0.031279  0.730673  0.300606  1
  Sc  Sc5  1  0.968721  0.269327  0.699394  1
  Sc  Sc6  1  0.569935  0.269327  0.300606  1
  Sc  Sc7  1  0.430065  0.730673  0.699394  1
  Sc  Sc8  1  0.674638  0.873107  0.198469  1
  Sc  Sc9  1  0.325362  0.523831  0.198469  1
  Sc  Sc10  1  0.325362  0.126893  0.801531  1
  Sc  Sc11  1  0.674638  0.476169  0.801531  1
  Al  Al12  1  0.000000  0.500000  0.500000  1
  Al  Al13  1  0.500000  0.000000  0.500000  1
  Ni  Ni14  1  0.646412  0.500000  0.146412  1
  Ni  Ni15  1  0.353588  0.500000  0.853588  1
  Ni  Ni16  1  0.863929  0.863929  0.000000  1
  Ni  Ni17  1  0.136071  0.136071  0.000000  1
