# generated using pymatgen
data_TbHo5Tm10(InIr)4
_symmetry_space_group_name_H-M   'P 1'
_cell_length_a   9.58574026
_cell_length_b   9.57373112
_cell_length_c   9.59306900
_cell_angle_alpha   59.93316353
_cell_angle_beta   59.97470924
_cell_angle_gamma   59.92818975
_symmetry_Int_Tables_number   1
_chemical_formula_structural   TbHo5Tm10(InIr)4
_chemical_formula_sum   'Tb1 Ho5 Tm10 In4 Ir4'
_cell_volume   621.74269233
_cell_formula_units_Z   1
loop_
 _symmetry_equiv_pos_site_id
 _symmetry_equiv_pos_as_xyz
  1  'x, y, z'
loop_
 _atom_site_type_symbol
 _atom_site_label
 _atom_site_symmetry_multiplicity
 _atom_site_fract_x
 _atom_site_fract_y
 _atom_site_fract_z
 _atom_site_occupancy
  Tb  Tb0  1  0.437979  0.439000  0.061510  1
  Ho  Ho1  1  0.438317  0.059839  0.060155  1
  Ho  Ho2  1  0.059617  0.060433  0.439975  1
  Ho  Ho3  1  0.649218  0.048580  0.651102  1
  Ho  Ho4  1  0.810669  0.808577  0.190377  1
  Ho  Ho5  1  0.438317  0.059839  0.441688  1
  Tm  Tm6  1  0.651048  0.650738  0.044823  1
  Tm  Tm7  1  0.191639  0.810190  0.189925  1
  Tm  Tm8  1  0.058783  0.439667  0.059757  1
  Tm  Tm9  1  0.191639  0.810190  0.808246  1
  Tm  Tm10  1  0.058783  0.439667  0.441793  1
  Tm  Tm11  1  0.811791  0.191285  0.189156  1
  Tm  Tm12  1  0.651048  0.650738  0.653392  1
  Tm  Tm13  1  0.811791  0.191285  0.807767  1
  Tm  Tm14  1  0.190247  0.190786  0.809483  1
  Tm  Tm15  1  0.047552  0.649345  0.651553  1
  In  In16  1  0.415928  0.418052  0.417102  1
  In  In17  1  0.415928  0.418052  0.748919  1
  In  In18  1  0.416663  0.748028  0.417655  1
  In  In19  1  0.750357  0.417877  0.415883  1
  Ir  Ir20  1  0.422461  0.858703  0.859418  1
  Ir  Ir21  1  0.860138  0.857823  0.858513  1
  Ir  Ir22  1  0.859949  0.423481  0.858284  1
  Ir  Ir23  1  0.860138  0.857823  0.423524  1
