# generated using pymatgen
data_DyYLu2(Al3Ir)6
_symmetry_space_group_name_H-M   'P 1'
_cell_length_a   7.53113909
_cell_length_b   7.53185151
_cell_length_c   9.43909100
_cell_angle_alpha   90.00000000
_cell_angle_beta   90.00000000
_cell_angle_gamma   119.48334113
_symmetry_Int_Tables_number   1
_chemical_formula_structural   DyYLu2(Al3Ir)6
_chemical_formula_sum   'Dy1 Y1 Lu2 Al18 Ir6'
_cell_volume   466.08033960
_cell_formula_units_Z   1
loop_
 _symmetry_equiv_pos_site_id
 _symmetry_equiv_pos_as_xyz
  1  'x, y, z'
loop_
 _atom_site_type_symbol
 _atom_site_label
 _atom_site_symmetry_multiplicity
 _atom_site_fract_x
 _atom_site_fract_y
 _atom_site_fract_z
 _atom_site_occupancy
  Dy  Dy0  1  0.994721  0.671829  0.250000  1
  Y  Y1  1  0.672100  0.994639  0.250000  1
  Lu  Lu2  1  0.005429  0.327394  0.750000  1
  Lu  Lu3  1  0.327504  0.005711  0.750000  1
  Al  Al4  1  0.130390  0.130336  0.250000  1
  Al  Al5  1  0.870868  0.871275  0.750000  1
  Al  Al6  1  0.001329  0.335527  0.073214  1
  Al  Al7  1  0.999742  0.664422  0.923420  1
  Al  Al8  1  0.999742  0.664422  0.576580  1
  Al  Al9  1  0.335254  0.001086  0.426755  1
  Al  Al10  1  0.001329  0.335527  0.426786  1
  Al  Al11  1  0.664424  0.999854  0.576140  1
  Al  Al12  1  0.664424  0.999854  0.923860  1
  Al  Al13  1  0.335254  0.001086  0.073245  1
  Al  Al14  1  0.332619  0.332682  0.553088  1
  Al  Al15  1  0.666774  0.666532  0.450262  1
  Al  Al16  1  0.666774  0.666532  0.049738  1
  Al  Al17  1  0.332619  0.332682  0.946912  1
  Al  Al18  1  0.340214  0.548733  0.250000  1
  Al  Al19  1  0.659498  0.449710  0.750000  1
  Al  Al20  1  0.548631  0.339705  0.250000  1
  Al  Al21  1  0.449805  0.659984  0.750000  1
  Ir  Ir22  1  0.671990  0.327672  0.999085  1
  Ir  Ir23  1  0.327360  0.671867  0.999142  1
  Ir  Ir24  1  0.327360  0.671867  0.500858  1
  Ir  Ir25  1  0.671990  0.327672  0.500915  1
  Ir  Ir26  1  0.000927  0.000700  0.998857  1
  Ir  Ir27  1  0.000927  0.000700  0.501143  1
