# generated using pymatgen
data_Ho2Tm6In3Pt
_symmetry_space_group_name_H-M   'P 1'
_cell_length_a   10.39233500
_cell_length_b   10.39233515
_cell_length_c   6.92913600
_cell_angle_alpha   90.00000000
_cell_angle_beta   90.00000000
_cell_angle_gamma   120.00000270
_symmetry_Int_Tables_number   1
_chemical_formula_structural   Ho2Tm6In3Pt
_chemical_formula_sum   'Ho4 Tm12 In6 Pt2'
_cell_volume   648.09099541
_cell_formula_units_Z   2
loop_
 _symmetry_equiv_pos_site_id
 _symmetry_equiv_pos_as_xyz
  1  'x, y, z'
loop_
 _atom_site_type_symbol
 _atom_site_label
 _atom_site_symmetry_multiplicity
 _atom_site_fract_x
 _atom_site_fract_y
 _atom_site_fract_z
 _atom_site_occupancy
  Ho  Ho0  1  0.666667  0.333333  0.883001  1
  Ho  Ho1  1  0.333333  0.666667  0.383001  1
  Ho  Ho2  1  0.000000  0.000000  0.489401  1
  Ho  Ho3  1  0.000000  0.000000  0.989401  1
  Tm  Tm4  1  0.531270  0.062539  0.508434  1
  Tm  Tm5  1  0.937461  0.468730  0.508434  1
  Tm  Tm6  1  0.531270  0.468730  0.508434  1
  Tm  Tm7  1  0.468730  0.937461  0.008434  1
  Tm  Tm8  1  0.062539  0.531270  0.008434  1
  Tm  Tm9  1  0.468730  0.531270  0.008434  1
  Tm  Tm10  1  0.175552  0.351103  0.715464  1
  Tm  Tm11  1  0.648897  0.824448  0.715464  1
  Tm  Tm12  1  0.175552  0.824448  0.715464  1
  Tm  Tm13  1  0.824448  0.648897  0.215464  1
  Tm  Tm14  1  0.351103  0.175552  0.215464  1
  Tm  Tm15  1  0.824448  0.175552  0.215464  1
  In  In16  1  0.837530  0.675061  0.750697  1
  In  In17  1  0.324939  0.162470  0.750697  1
  In  In18  1  0.837530  0.162470  0.750697  1
  In  In19  1  0.162470  0.324939  0.250697  1
  In  In20  1  0.675061  0.837530  0.250697  1
  In  In21  1  0.162470  0.837530  0.250697  1
  Pt  Pt22  1  0.666667  0.333333  0.282839  1
  Pt  Pt23  1  0.333333  0.666667  0.782839  1
