# generated using pymatgen
data_Co8BiO16
_symmetry_space_group_name_H-M   'P 1'
_cell_length_a   5.68001326
_cell_length_b   6.68386475
_cell_length_c   6.92608413
_cell_angle_alpha   91.47867876
_cell_angle_beta   78.25157877
_cell_angle_gamma   77.69078259
_symmetry_Int_Tables_number   1
_chemical_formula_structural   Co8BiO16
_chemical_formula_sum   'Co8 Bi1 O16'
_cell_volume   250.85907542
_cell_formula_units_Z   1
loop_
 _symmetry_equiv_pos_site_id
 _symmetry_equiv_pos_as_xyz
  1  'x, y, z'
loop_
 _atom_site_type_symbol
 _atom_site_label
 _atom_site_symmetry_multiplicity
 _atom_site_fract_x
 _atom_site_fract_y
 _atom_site_fract_z
 _atom_site_occupancy
  Co  Co0  1  0.582065  0.509607  0.178813  1
  Co  Co1  1  0.084442  0.505221  0.179169  1
  Co  Co2  1  0.170610  0.813060  0.521963  1
  Co  Co3  1  0.670592  0.812200  0.527705  1
  Co  Co4  1  0.341557  0.184947  0.464741  1
  Co  Co5  1  0.839292  0.180113  0.481967  1
  Co  Co6  1  0.426140  0.490095  0.816557  1
  Co  Co7  1  0.927167  0.496381  0.816788  1
  Bi  Bi8  1  0.973943  0.039766  0.046026  1
  O  O9  1  0.829625  0.650455  0.063123  1
  O  O10  1  0.323665  0.649075  0.061393  1
  O  O11  1  0.984514  0.674901  0.401496  1
  O  O12  1  0.486018  0.679543  0.398783  1
  O  O13  1  0.853803  0.967587  0.654121  1
  O  O14  1  0.348338  0.974759  0.639766  1
  O  O15  1  0.349500  0.357287  0.267781  1
  O  O16  1  0.853993  0.338832  0.257260  1
  O  O17  1  0.159132  0.654919  0.739455  1
  O  O18  1  0.656488  0.645609  0.735143  1
  O  O19  1  0.153024  0.026505  0.338338  1
  O  O20  1  0.672866  0.024650  0.340615  1
  O  O21  1  0.028274  0.319107  0.598217  1
  O  O22  1  0.522873  0.316208  0.598803  1
  O  O23  1  0.177673  0.345129  0.935314  1
  O  O24  1  0.691503  0.344049  0.936661  1
