# generated using pymatgen
data_Ca4LaTbU2O12
_symmetry_space_group_name_H-M   'P 1'
_cell_length_a   6.87339487
_cell_length_b   6.86465836
_cell_length_c   6.83340498
_cell_angle_alpha   91.62626368
_cell_angle_beta   91.59932424
_cell_angle_gamma   91.04497533
_symmetry_Int_Tables_number   1
_chemical_formula_structural   Ca4LaTbU2O12
_chemical_formula_sum   'Ca4 La1 Tb1 U2 O12'
_cell_volume   322.11016647
_cell_formula_units_Z   1
loop_
 _symmetry_equiv_pos_site_id
 _symmetry_equiv_pos_as_xyz
  1  'x, y, z'
loop_
 _atom_site_type_symbol
 _atom_site_label
 _atom_site_symmetry_multiplicity
 _atom_site_fract_x
 _atom_site_fract_y
 _atom_site_fract_z
 _atom_site_occupancy
  Ca  Ca0  1  0.552171  0.252134  0.057509  1
  Ca  Ca1  1  0.251590  0.061150  0.558446  1
  Ca  Ca2  1  0.064004  0.554065  0.249425  1
  Ca  Ca3  1  0.443839  0.749340  0.941569  1
  La  La4  1  0.747888  0.939069  0.442328  1
  Tb  Tb5  1  0.938351  0.443616  0.750831  1
  U  U6  1  0.004339  0.000555  0.998415  1
  U  U7  1  0.493499  0.497082  0.501815  1
  O  O8  1  0.295550  0.061075  0.924218  1
  O  O9  1  0.065346  0.920319  0.298413  1
  O  O10  1  0.927870  0.301797  0.057052  1
  O  O11  1  0.707467  0.938921  0.076639  1
  O  O12  1  0.936450  0.095752  0.696562  1
  O  O13  1  0.070586  0.695698  0.925735  1
  O  O14  1  0.193867  0.410079  0.547831  1
  O  O15  1  0.411544  0.542511  0.205494  1
  O  O16  1  0.460809  0.797427  0.593127  1
  O  O17  1  0.599512  0.456204  0.797043  1
  O  O18  1  0.802838  0.584687  0.470464  1
  O  O19  1  0.532480  0.198520  0.407083  1
