# generated using pymatgen
data_Li8Sm8HgPb7
_symmetry_space_group_name_H-M   'P 1'
_cell_length_a   9.62380300
_cell_length_b   9.62380422
_cell_length_c   7.54459000
_cell_angle_alpha   90.00000000
_cell_angle_beta   90.00000000
_cell_angle_gamma   119.99999924
_symmetry_Int_Tables_number   1
_chemical_formula_structural   Li8Sm8HgPb7
_chemical_formula_sum   'Li8 Sm8 Hg1 Pb7'
_cell_volume   605.14546431
_cell_formula_units_Z   1
loop_
 _symmetry_equiv_pos_site_id
 _symmetry_equiv_pos_as_xyz
  1  'x, y, z'
loop_
 _atom_site_type_symbol
 _atom_site_label
 _atom_site_symmetry_multiplicity
 _atom_site_fract_x
 _atom_site_fract_y
 _atom_site_fract_z
 _atom_site_occupancy
  Li  Li0  1  0.833844  0.166156  0.712318  1
  Li  Li1  1  0.833844  0.667690  0.712318  1
  Li  Li2  1  0.332310  0.166156  0.712318  1
  Li  Li3  1  0.167715  0.832285  0.210934  1
  Li  Li4  1  0.167715  0.335429  0.210934  1
  Li  Li5  1  0.664571  0.832285  0.210934  1
  Li  Li6  1  0.666667  0.333333  0.323891  1
  Li  Li7  1  0.333333  0.666667  0.818545  1
  Sm  Sm8  1  0.487587  0.512413  0.503849  1
  Sm  Sm9  1  0.487587  0.975174  0.503849  1
  Sm  Sm10  1  0.024826  0.512413  0.503849  1
  Sm  Sm11  1  0.513955  0.486045  0.006751  1
  Sm  Sm12  1  0.513955  0.027910  0.006751  1
  Sm  Sm13  1  0.972090  0.486045  0.006751  1
  Sm  Sm14  1  0.000000  0.000000  0.498581  1
  Sm  Sm15  1  0.000000  0.000000  0.998077  1
  Hg  Hg16  1  0.333333  0.666667  0.227851  1
  Pb  Pb17  1  0.833230  0.166770  0.275833  1
  Pb  Pb18  1  0.833230  0.666457  0.275833  1
  Pb  Pb19  1  0.333543  0.166770  0.275833  1
  Pb  Pb20  1  0.168004  0.831996  0.776887  1
  Pb  Pb21  1  0.168004  0.336008  0.776887  1
  Pb  Pb22  1  0.663992  0.831996  0.776887  1
  Pb  Pb23  1  0.666667  0.333333  0.731354  1
