# generated using pymatgen
data_Ho4Al18RePd4Ru
_symmetry_space_group_name_H-M   'P 1'
_cell_length_a   7.60138844
_cell_length_b   7.60138710
_cell_length_c   9.49867959
_cell_angle_alpha   89.82860377
_cell_angle_beta   89.82860270
_cell_angle_gamma   119.10926643
_symmetry_Int_Tables_number   1
_chemical_formula_structural   Ho4Al18RePd4Ru
_chemical_formula_sum   'Ho4 Al18 Re1 Pd4 Ru1'
_cell_volume   479.51321300
_cell_formula_units_Z   1
loop_
 _symmetry_equiv_pos_site_id
 _symmetry_equiv_pos_as_xyz
  1  'x, y, z'
loop_
 _atom_site_type_symbol
 _atom_site_label
 _atom_site_symmetry_multiplicity
 _atom_site_fract_x
 _atom_site_fract_y
 _atom_site_fract_z
 _atom_site_occupancy
  Ho  Ho0  1  0.993807  0.673751  0.248670  1
  Ho  Ho1  1  0.006193  0.326249  0.751330  1
  Ho  Ho2  1  0.673751  0.993807  0.248670  1
  Ho  Ho3  1  0.326249  0.006193  0.751330  1
  Al  Al4  1  0.127169  0.127169  0.251121  1
  Al  Al5  1  0.872831  0.872831  0.748879  1
  Al  Al6  1  0.001067  0.332095  0.077336  1
  Al  Al7  1  0.998933  0.667905  0.922664  1
  Al  Al8  1  0.000380  0.668986  0.576536  1
  Al  Al9  1  0.331014  0.999620  0.423464  1
  Al  Al10  1  0.999620  0.331014  0.423464  1
  Al  Al11  1  0.668986  0.000380  0.576536  1
  Al  Al12  1  0.667905  0.998933  0.922664  1
  Al  Al13  1  0.332095  0.001067  0.077336  1
  Al  Al14  1  0.327858  0.327858  0.552899  1
  Al  Al15  1  0.672142  0.672143  0.447101  1
  Al  Al16  1  0.670115  0.670116  0.053969  1
  Al  Al17  1  0.329885  0.329885  0.946031  1
  Al  Al18  1  0.342980  0.549732  0.250746  1
  Al  Al19  1  0.657020  0.450268  0.749254  1
  Al  Al20  1  0.549732  0.342980  0.250746  1
  Al  Al21  1  0.450268  0.657020  0.749254  1
  Re  Re22  1  0.000000  0.000000  0.000000  1
  Pd  Pd23  1  0.671963  0.328037  0.000000  1
  Pd  Pd24  1  0.328037  0.671963  0.000000  1
  Pd  Pd25  1  0.327870  0.672130  0.500000  1
  Pd  Pd26  1  0.672130  0.327870  0.500000  1
  Ru  Ru27  1  0.000000  0.000000  0.500000  1
