# generated using pymatgen
data_Nd12Ga3PI12
_symmetry_space_group_name_H-M   'P 1'
_cell_length_a   10.91654533
_cell_length_b   10.81012999
_cell_length_c   10.81013009
_cell_angle_alpha   109.27094972
_cell_angle_beta   109.67075249
_cell_angle_gamma   109.67075818
_symmetry_Int_Tables_number   1
_chemical_formula_structural   Nd12Ga3PI12
_chemical_formula_sum   'Nd12 Ga3 P1 I12'
_cell_volume   979.60227160
_cell_formula_units_Z   1
loop_
 _symmetry_equiv_pos_site_id
 _symmetry_equiv_pos_as_xyz
  1  'x, y, z'
loop_
 _atom_site_type_symbol
 _atom_site_label
 _atom_site_symmetry_multiplicity
 _atom_site_fract_x
 _atom_site_fract_y
 _atom_site_fract_z
 _atom_site_occupancy
  Nd  Nd0  1  0.464818  0.487113  0.228296  1
  Nd  Nd1  1  0.750000  0.235326  0.264674  1
  Nd  Nd2  1  0.750000  0.013580  0.486420  1
  Nd  Nd3  1  0.236420  0.472839  0.486420  1
  Nd  Nd4  1  0.263478  0.741183  0.228296  1
  Nd  Nd5  1  0.035182  0.271704  0.012887  1
  Nd  Nd6  1  0.014674  0.029347  0.264674  1
  Nd  Nd7  1  0.477705  0.741183  0.012887  1
  Nd  Nd8  1  0.485326  0.235326  0.470653  1
  Nd  Nd9  1  0.022295  0.487113  0.758817  1
  Nd  Nd10  1  0.263580  0.013580  0.027161  1
  Nd  Nd11  1  0.236522  0.271704  0.758817  1
  Ga  Ga12  1  0.250000  0.249873  0.250127  1
  Ga  Ga13  1  0.500127  0.000254  0.250127  1
  Ga  Ga14  1  0.999873  0.249873  0.499746  1
  P  P15  1  0.250000  0.500000  0.000000  1
  I  I16  1  0.250000  0.757233  0.742767  1
  I  I17  1  0.515679  0.508349  0.759162  1
  I  I18  1  0.984321  0.740838  0.991651  1
  I  I19  1  0.743483  0.250812  0.759162  1
  I  I20  1  0.992767  0.985534  0.742767  1
  I  I21  1  0.250000  0.992139  0.507861  1
  I  I22  1  0.757861  0.515719  0.507861  1
  I  I23  1  0.507330  0.250812  0.991651  1
  I  I24  1  0.756517  0.740838  0.249188  1
  I  I25  1  0.742139  0.992139  0.984281  1
  I  I26  1  0.992670  0.508349  0.249188  1
  I  I27  1  0.507233  0.757233  0.514466  1
