# generated using pymatgen
data_La12Ga7GeIr8
_symmetry_space_group_name_H-M   'P 1'
_cell_length_a   5.83721255
_cell_length_b   8.29182019
_cell_length_c   13.72780900
_cell_angle_alpha   90.00000000
_cell_angle_beta   90.00000000
_cell_angle_gamma   89.91658271
_symmetry_Int_Tables_number   1
_chemical_formula_structural   La12Ga7GeIr8
_chemical_formula_sum   'La12 Ga7 Ge1 Ir8'
_cell_volume   664.44058383
_cell_formula_units_Z   1
loop_
 _symmetry_equiv_pos_site_id
 _symmetry_equiv_pos_as_xyz
  1  'x, y, z'
loop_
 _atom_site_type_symbol
 _atom_site_label
 _atom_site_symmetry_multiplicity
 _atom_site_fract_x
 _atom_site_fract_y
 _atom_site_fract_z
 _atom_site_occupancy
  La  La0  1  0.152217  0.897049  0.596829  1
  La  La1  1  0.847949  0.103948  0.096136  1
  La  La2  1  0.152797  0.604146  0.404195  1
  La  La3  1  0.848551  0.394541  0.903101  1
  La  La4  1  0.847949  0.103948  0.403864  1
  La  La5  1  0.152217  0.897049  0.903171  1
  La  La6  1  0.848551  0.394541  0.596899  1
  La  La7  1  0.152797  0.604146  0.095805  1
  La  La8  1  0.365485  0.253407  0.750000  1
  La  La9  1  0.631924  0.747879  0.250000  1
  La  La10  1  0.366784  0.246869  0.250000  1
  La  La11  1  0.634490  0.749791  0.750000  1
  Ga  Ga12  1  0.859458  0.101665  0.750000  1
  Ga  Ga13  1  0.138542  0.896909  0.250000  1
  Ga  Ga14  1  0.859543  0.398299  0.250000  1
  Ga  Ga15  1  0.370118  0.250793  0.500524  1
  Ga  Ga16  1  0.630195  0.749501  0.999702  1
  Ga  Ga17  1  0.630195  0.749501  0.500298  1
  Ga  Ga18  1  0.370118  0.250793  0.999476  1
  Ge  Ge19  1  0.138114  0.604289  0.750000  1
  Ir  Ir20  1  0.637665  0.031109  0.591633  1
  Ir  Ir21  1  0.362504  0.968699  0.091592  1
  Ir  Ir22  1  0.636952  0.467675  0.409098  1
  Ir  Ir23  1  0.363883  0.532986  0.906643  1
  Ir  Ir24  1  0.362504  0.968699  0.408408  1
  Ir  Ir25  1  0.637665  0.031109  0.908367  1
  Ir  Ir26  1  0.363883  0.532986  0.593357  1
  Ir  Ir27  1  0.636952  0.467675  0.090902  1
