# generated using pymatgen
data_Zr3Ti(P3Ir4)2
_symmetry_space_group_name_H-M   'P 1'
_cell_length_a   12.69008552
_cell_length_b   12.69639955
_cell_length_c   3.92048700
_cell_angle_alpha   90.00000000
_cell_angle_beta   90.00000000
_cell_angle_gamma   120.01646217
_symmetry_Int_Tables_number   1
_chemical_formula_structural   Zr3Ti(P3Ir4)2
_chemical_formula_sum   'Zr6 Ti2 P12 Ir16'
_cell_volume   546.94507205
_cell_formula_units_Z   2
loop_
 _symmetry_equiv_pos_site_id
 _symmetry_equiv_pos_as_xyz
  1  'x, y, z'
loop_
 _atom_site_type_symbol
 _atom_site_label
 _atom_site_symmetry_multiplicity
 _atom_site_fract_x
 _atom_site_fract_y
 _atom_site_fract_z
 _atom_site_occupancy
  Zr  Zr0  1  0.000000  0.549658  0.000000  1
  Zr  Zr1  1  0.665275  0.332719  0.000000  1
  Zr  Zr2  1  0.334725  0.667445  0.000000  1
  Zr  Zr3  1  0.818577  0.819251  0.500000  1
  Zr  Zr4  1  0.181423  0.000673  0.500000  1
  Zr  Zr5  1  0.000000  0.178415  0.500000  1
  Ti  Ti6  1  0.451225  0.451000  0.000000  1
  Ti  Ti7  1  0.548775  0.999775  0.000000  1
  P  P8  1  0.639769  0.641597  0.000000  1
  P  P9  1  0.360231  0.001828  0.000000  1
  P  P10  1  0.000000  0.349380  0.000000  1
  P  P11  1  0.483271  0.316554  0.500000  1
  P  P12  1  0.681590  0.164922  0.500000  1
  P  P13  1  0.829498  0.515910  0.500000  1
  P  P14  1  0.516729  0.833284  0.500000  1
  P  P15  1  0.170502  0.686414  0.500000  1
  P  P16  1  0.824873  0.998994  0.000000  1
  P  P17  1  0.000000  0.827136  0.000000  1
  P  P18  1  0.318410  0.483333  0.500000  1
  P  P19  1  0.175127  0.174121  0.000000  1
  Ir  Ir20  1  0.190678  0.367230  0.000000  1
  Ir  Ir21  1  0.180330  0.813950  0.000000  1
  Ir  Ir22  1  0.819670  0.633619  0.000000  1
  Ir  Ir23  1  0.809322  0.176551  0.000000  1
  Ir  Ir24  1  0.368011  0.189576  0.000000  1
  Ir  Ir25  1  0.141397  0.494200  0.500000  1
  Ir  Ir26  1  0.357041  0.863813  0.500000  1
  Ir  Ir27  1  0.507548  0.644948  0.500000  1
  Ir  Ir28  1  0.642959  0.506773  0.500000  1
  Ir  Ir29  1  0.858603  0.352803  0.500000  1
  Ir  Ir30  1  0.492452  0.137400  0.500000  1
  Ir  Ir31  1  0.000000  0.001003  0.000000  1
  Ir  Ir32  1  0.715480  0.999374  0.500000  1
  Ir  Ir33  1  0.000000  0.720888  0.500000  1
  Ir  Ir34  1  0.631989  0.821566  0.000000  1
  Ir  Ir35  1  0.284520  0.283894  0.500000  1
