# generated using pymatgen
data_Hf18TiRe7Ir2
_symmetry_space_group_name_H-M   'P 1'
_cell_length_a   8.69510900
_cell_length_b   8.69510987
_cell_length_c   8.51295700
_cell_angle_alpha   90.00000000
_cell_angle_beta   90.00000000
_cell_angle_gamma   120.00000049
_symmetry_Int_Tables_number   1
_chemical_formula_structural   Hf18TiRe7Ir2
_chemical_formula_sum   'Hf18 Ti1 Re7 Ir2'
_cell_volume   557.39256830
_cell_formula_units_Z   1
loop_
 _symmetry_equiv_pos_site_id
 _symmetry_equiv_pos_as_xyz
  1  'x, y, z'
loop_
 _atom_site_type_symbol
 _atom_site_label
 _atom_site_symmetry_multiplicity
 _atom_site_fract_x
 _atom_site_fract_y
 _atom_site_fract_z
 _atom_site_occupancy
  Hf  Hf0  1  0.195939  0.804061  0.446265  1
  Hf  Hf1  1  0.195939  0.391875  0.446265  1
  Hf  Hf2  1  0.608125  0.804061  0.446265  1
  Hf  Hf3  1  0.804061  0.195939  0.553735  1
  Hf  Hf4  1  0.804061  0.608125  0.553735  1
  Hf  Hf5  1  0.391875  0.195939  0.553735  1
  Hf  Hf6  1  0.804092  0.195908  0.944494  1
  Hf  Hf7  1  0.804092  0.608186  0.944494  1
  Hf  Hf8  1  0.391814  0.195908  0.944494  1
  Hf  Hf9  1  0.195908  0.804092  0.055506  1
  Hf  Hf10  1  0.195908  0.391814  0.055506  1
  Hf  Hf11  1  0.608186  0.804092  0.055506  1
  Hf  Hf12  1  0.541710  0.458290  0.249030  1
  Hf  Hf13  1  0.541710  0.083421  0.249030  1
  Hf  Hf14  1  0.916579  0.458290  0.249030  1
  Hf  Hf15  1  0.458290  0.541710  0.750970  1
  Hf  Hf16  1  0.458290  0.916579  0.750970  1
  Hf  Hf17  1  0.083421  0.541710  0.750970  1
  Ti  Ti18  1  0.000000  0.000000  0.500000  1
  Re  Re19  1  0.888675  0.111325  0.250906  1
  Re  Re20  1  0.888675  0.777350  0.250906  1
  Re  Re21  1  0.222650  0.111325  0.250906  1
  Re  Re22  1  0.111325  0.888675  0.749094  1
  Re  Re23  1  0.111325  0.222650  0.749094  1
  Re  Re24  1  0.777350  0.888675  0.749094  1
  Re  Re25  1  0.000000  0.000000  0.000000  1
  Ir  Ir26  1  0.333333  0.666667  0.249866  1
  Ir  Ir27  1  0.666667  0.333333  0.750134  1
