# generated using pymatgen
data_Cs2PdS16
_symmetry_space_group_name_H-M   'P 1'
_cell_length_a   12.09501000
_cell_length_b   12.09501000
_cell_length_c   7.38898100
_cell_angle_alpha   90.00000000
_cell_angle_beta   90.00000000
_cell_angle_gamma   90.00000000
_symmetry_Int_Tables_number   1
_chemical_formula_structural   Cs2PdS16
_chemical_formula_sum   'Cs4 Pd2 S32'
_cell_volume   1080.92861363
_cell_formula_units_Z   2
loop_
 _symmetry_equiv_pos_site_id
 _symmetry_equiv_pos_as_xyz
  1  'x, y, z'
loop_
 _atom_site_type_symbol
 _atom_site_label
 _atom_site_symmetry_multiplicity
 _atom_site_fract_x
 _atom_site_fract_y
 _atom_site_fract_z
 _atom_site_occupancy
  Cs  Cs0  1  0.500000  0.000000  0.000000  1
  Cs  Cs1  1  0.000000  0.500000  0.000000  1
  Cs  Cs2  1  0.500000  0.500000  0.500000  1
  Cs  Cs3  1  0.000000  0.000000  0.500000  1
  Pd  Pd4  1  0.000000  0.000000  0.000000  1
  Pd  Pd5  1  0.500000  0.500000  0.000000  1
  S  S6  1  0.180374  0.425365  0.570676  1
  S  S7  1  0.819626  0.574635  0.570676  1
  S  S8  1  0.574635  0.180374  0.429324  1
  S  S9  1  0.425365  0.819626  0.429324  1
  S  S10  1  0.319626  0.925365  0.570676  1
  S  S11  1  0.074635  0.319626  0.429324  1
  S  S12  1  0.811392  0.954125  0.957509  1
  S  S13  1  0.045875  0.811392  0.042491  1
  S  S14  1  0.954125  0.188608  0.042491  1
  S  S15  1  0.188608  0.045875  0.957509  1
  S  S16  1  0.545875  0.688608  0.042491  1
  S  S17  1  0.454125  0.311392  0.042491  1
  S  S18  1  0.688608  0.454125  0.957509  1
  S  S19  1  0.311392  0.545875  0.957509  1
  S  S20  1  0.790169  0.209138  0.107591  1
  S  S21  1  0.790862  0.790169  0.892409  1
  S  S22  1  0.209138  0.209831  0.892409  1
  S  S23  1  0.209831  0.790862  0.107591  1
  S  S24  1  0.290862  0.709831  0.892409  1
  S  S25  1  0.709138  0.290169  0.892409  1
  S  S26  1  0.709831  0.709138  0.107591  1
  S  S27  1  0.290169  0.290862  0.107591  1
  S  S28  1  0.924957  0.318159  0.566646  1
  S  S29  1  0.681841  0.924957  0.433354  1
  S  S30  1  0.318159  0.075043  0.433354  1
  S  S31  1  0.075043  0.681841  0.566646  1
  S  S32  1  0.181841  0.575043  0.433354  1
  S  S33  1  0.818159  0.424957  0.433354  1
  S  S34  1  0.575043  0.818159  0.566646  1
  S  S35  1  0.424957  0.181841  0.566646  1
  S  S36  1  0.680374  0.074635  0.570676  1
  S  S37  1  0.925365  0.680374  0.429324  1
