# generated using pymatgen
data_Tc6GeSb13
_symmetry_space_group_name_H-M   'P 1'
_cell_length_a   8.21590699
_cell_length_b   8.21590777
_cell_length_c   8.19883300
_cell_angle_alpha   109.42913152
_cell_angle_beta   109.42913344
_cell_angle_gamma   109.51327658
_symmetry_Int_Tables_number   1
_chemical_formula_structural   Tc6GeSb13
_chemical_formula_sum   'Tc6 Ge1 Sb13'
_cell_volume   426.25210385
_cell_formula_units_Z   1
loop_
 _symmetry_equiv_pos_site_id
 _symmetry_equiv_pos_as_xyz
  1  'x, y, z'
loop_
 _atom_site_type_symbol
 _atom_site_label
 _atom_site_symmetry_multiplicity
 _atom_site_fract_x
 _atom_site_fract_y
 _atom_site_fract_z
 _atom_site_occupancy
  Tc  Tc0  1  0.341830  0.000000  0.340999  1
  Tc  Tc1  1  0.000000  0.341830  0.340999  1
  Tc  Tc2  1  0.000000  0.659238  0.656307  1
  Tc  Tc3  1  0.340762  0.340762  0.997069  1
  Tc  Tc4  1  0.658170  0.658170  0.999169  1
  Tc  Tc5  1  0.659238  0.000000  0.656307  1
  Ge  Ge6  1  0.000000  0.000000  0.680805  1
  Sb  Sb7  1  0.750293  0.501215  0.250110  1
  Sb  Sb8  1  0.501215  0.750293  0.250110  1
  Sb  Sb9  1  0.498785  0.249078  0.748895  1
  Sb  Sb10  1  0.750922  0.249707  0.499817  1
  Sb  Sb11  1  0.249707  0.750922  0.499817  1
  Sb  Sb12  1  0.249078  0.498785  0.748895  1
  Sb  Sb13  1  0.000000  0.000000  0.342671  1
  Sb  Sb14  1  0.674437  0.000000  0.001209  1
  Sb  Sb15  1  0.000000  0.674437  0.001209  1
  Sb  Sb16  1  0.325563  0.325563  0.326772  1
  Sb  Sb17  1  0.000000  0.320798  0.993213  1
  Sb  Sb18  1  0.679202  0.679202  0.672416  1
  Sb  Sb19  1  0.320798  0.000000  0.993213  1
