# generated using pymatgen
data_MgSc4In(GaPt)2
_symmetry_space_group_name_H-M   'P 1'
_cell_length_a   7.57191273
_cell_length_b   7.54753172
_cell_length_c   3.46687800
_cell_angle_alpha   90.00000000
_cell_angle_beta   90.00000000
_cell_angle_gamma   89.94981929
_symmetry_Int_Tables_number   1
_chemical_formula_structural   MgSc4In(GaPt)2
_chemical_formula_sum   'Mg1 Sc4 In1 Ga2 Pt2'
_cell_volume   198.12940678
_cell_formula_units_Z   1
loop_
 _symmetry_equiv_pos_site_id
 _symmetry_equiv_pos_as_xyz
  1  'x, y, z'
loop_
 _atom_site_type_symbol
 _atom_site_label
 _atom_site_symmetry_multiplicity
 _atom_site_fract_x
 _atom_site_fract_y
 _atom_site_fract_z
 _atom_site_occupancy
  Mg  Mg0  1  0.000455  0.996530  0.000000  1
  Sc  Sc1  1  0.182129  0.360804  0.500000  1
  Sc  Sc2  1  0.344811  0.806522  0.500000  1
  Sc  Sc3  1  0.823975  0.675566  0.500000  1
  Sc  Sc4  1  0.664130  0.161551  0.500000  1
  In  In5  1  0.507947  0.496356  0.000000  1
  Ga  Ga6  1  0.880262  0.364304  0.000000  1
  Ga  Ga7  1  0.357151  0.119411  0.000000  1
  Pt  Pt8  1  0.626288  0.884390  0.000000  1
  Pt  Pt9  1  0.112852  0.634565  0.000000  1
