# generated using pymatgen
data_Hf3Ga3CuPdRu
_symmetry_space_group_name_H-M   'P 1'
_cell_length_a   7.32466400
_cell_length_b   7.32466341
_cell_length_c   6.54868000
_cell_angle_alpha   90.00000000
_cell_angle_beta   90.00000000
_cell_angle_gamma   119.99999361
_symmetry_Int_Tables_number   1
_chemical_formula_structural   Hf3Ga3CuPdRu
_chemical_formula_sum   'Hf6 Ga6 Cu2 Pd2 Ru2'
_cell_volume   304.27047250
_cell_formula_units_Z   2
loop_
 _symmetry_equiv_pos_site_id
 _symmetry_equiv_pos_as_xyz
  1  'x, y, z'
loop_
 _atom_site_type_symbol
 _atom_site_label
 _atom_site_symmetry_multiplicity
 _atom_site_fract_x
 _atom_site_fract_y
 _atom_site_fract_z
 _atom_site_occupancy
  Hf  Hf0  1  0.728598  0.047282  0.000000  1
  Hf  Hf1  1  0.318685  0.271402  0.000000  1
  Hf  Hf2  1  0.952718  0.681315  0.000000  1
  Hf  Hf3  1  0.320490  0.271667  0.500000  1
  Hf  Hf4  1  0.728333  0.048824  0.500000  1
  Hf  Hf5  1  0.951176  0.679510  0.500000  1
  Ga  Ga6  1  0.599326  0.661232  0.749845  1
  Ga  Ga7  1  0.061906  0.400674  0.749845  1
  Ga  Ga8  1  0.338768  0.938094  0.749845  1
  Ga  Ga9  1  0.599326  0.661232  0.250155  1
  Ga  Ga10  1  0.061906  0.400674  0.250155  1
  Ga  Ga11  1  0.338768  0.938094  0.250155  1
  Cu  Cu12  1  0.333333  0.666667  0.000000  1
  Cu  Cu13  1  0.333333  0.666667  0.500000  1
  Pd  Pd14  1  0.666667  0.333333  0.752843  1
  Pd  Pd15  1  0.666667  0.333333  0.247157  1
  Ru  Ru16  1  0.000000  0.000000  0.250600  1
  Ru  Ru17  1  0.000000  0.000000  0.749400  1
