# generated using pymatgen
data_Nd5Te2I2ClO10
_symmetry_space_group_name_H-M   'P 1'
_cell_length_a   5.73664000
_cell_length_b   7.04794623
_cell_length_c   11.06158629
_cell_angle_alpha   92.04420089
_cell_angle_beta   90.00000000
_cell_angle_gamma   114.01479071
_symmetry_Int_Tables_number   1
_chemical_formula_structural   Nd5Te2I2ClO10
_chemical_formula_sum   'Nd5 Te2 I2 Cl1 O10'
_cell_volume   408.21262070
_cell_formula_units_Z   1
loop_
 _symmetry_equiv_pos_site_id
 _symmetry_equiv_pos_as_xyz
  1  'x, y, z'
loop_
 _atom_site_type_symbol
 _atom_site_label
 _atom_site_symmetry_multiplicity
 _atom_site_fract_x
 _atom_site_fract_y
 _atom_site_fract_z
 _atom_site_occupancy
  Nd  Nd0  1  0.999851  0.999702  0.997460  1
  Nd  Nd1  1  0.293251  0.586503  0.094358  1
  Nd  Nd2  1  0.606329  0.212659  0.209359  1
  Nd  Nd3  1  0.391553  0.783106  0.785218  1
  Nd  Nd4  1  0.707444  0.414888  0.901448  1
  Te  Te5  1  0.920217  0.840435  0.301762  1
  Te  Te6  1  0.076227  0.152455  0.694117  1
  I  I7  1  0.179022  0.358046  0.366734  1
  I  I8  1  0.489984  0.979969  0.501051  1
  Cl  Cl9  1  0.834425  0.668850  0.676707  1
  O  O10  1  0.398724  0.293825  0.051705  1
  O  O11  1  0.895101  0.293825  0.051705  1
  O  O12  1  0.196385  0.909536  0.188085  1
  O  O13  1  0.713150  0.909536  0.188085  1
  O  O14  1  0.781372  0.562744  0.246598  1
  O  O15  1  0.218150  0.436301  0.735282  1
  O  O16  1  0.289472  0.093906  0.809761  1
  O  O17  1  0.804436  0.093906  0.809761  1
  O  O18  1  0.106360  0.704906  0.945401  1
  O  O19  1  0.598545  0.704906  0.945401  1
