# generated using pymatgen
data_Sm2Dy2ScSn4
_symmetry_space_group_name_H-M   'P 1'
_cell_length_a   7.93323400
_cell_length_b   8.12264800
_cell_length_c   15.39585200
_cell_angle_alpha   90.00000000
_cell_angle_beta   90.00000000
_cell_angle_gamma   90.00000000
_symmetry_Int_Tables_number   1
_chemical_formula_structural   Sm2Dy2ScSn4
_chemical_formula_sum   'Sm8 Dy8 Sc4 Sn16'
_cell_volume   992.09126375
_cell_formula_units_Z   4
loop_
 _symmetry_equiv_pos_site_id
 _symmetry_equiv_pos_as_xyz
  1  'x, y, z'
loop_
 _atom_site_type_symbol
 _atom_site_label
 _atom_site_symmetry_multiplicity
 _atom_site_fract_x
 _atom_site_fract_y
 _atom_site_fract_z
 _atom_site_occupancy
  Sm  Sm0  1  0.515170  0.322747  0.903757  1
  Sm  Sm1  1  0.015170  0.177253  0.596243  1
  Sm  Sm2  1  0.484830  0.677253  0.403757  1
  Sm  Sm3  1  0.984830  0.822747  0.096243  1
  Sm  Sm4  1  0.484830  0.677253  0.096243  1
  Sm  Sm5  1  0.984830  0.822747  0.403757  1
  Sm  Sm6  1  0.515170  0.322747  0.596243  1
  Sm  Sm7  1  0.015170  0.177253  0.903757  1
  Dy  Dy8  1  0.358025  0.837337  0.875929  1
  Dy  Dy9  1  0.858025  0.662663  0.624071  1
  Dy  Dy10  1  0.641975  0.162663  0.375929  1
  Dy  Dy11  1  0.141975  0.337337  0.124071  1
  Dy  Dy12  1  0.641975  0.162663  0.124071  1
  Dy  Dy13  1  0.141975  0.337337  0.375929  1
  Dy  Dy14  1  0.358025  0.837337  0.624071  1
  Dy  Dy15  1  0.858025  0.662663  0.875929  1
  Sc  Sc16  1  0.191439  0.502913  0.750000  1
  Sc  Sc17  1  0.691439  0.997087  0.750000  1
  Sc  Sc18  1  0.808561  0.497087  0.250000  1
  Sc  Sc19  1  0.308561  0.002913  0.250000  1
  Sn  Sn20  1  0.304509  0.039034  0.043463  1
  Sn  Sn21  1  0.804509  0.460966  0.456537  1
  Sn  Sn22  1  0.695491  0.960966  0.543463  1
  Sn  Sn23  1  0.195491  0.539034  0.956537  1
  Sn  Sn24  1  0.695491  0.960966  0.956537  1
  Sn  Sn25  1  0.195491  0.539034  0.543463  1
  Sn  Sn26  1  0.304509  0.039034  0.456537  1
  Sn  Sn27  1  0.804509  0.460966  0.043463  1
  Sn  Sn28  1  0.552476  0.620214  0.750000  1
  Sn  Sn29  1  0.052476  0.879786  0.750000  1
  Sn  Sn30  1  0.447524  0.379786  0.250000  1
  Sn  Sn31  1  0.947524  0.120214  0.250000  1
  Sn  Sn32  1  0.324968  0.150246  0.750000  1
  Sn  Sn33  1  0.824968  0.349754  0.750000  1
  Sn  Sn34  1  0.675032  0.849754  0.250000  1
  Sn  Sn35  1  0.175032  0.650246  0.250000  1
