# generated using pymatgen
data_Ti8Al15Fe6Pt
_symmetry_space_group_name_H-M   'P 1'
_cell_length_a   8.49051487
_cell_length_b   8.47699464
_cell_length_c   8.48897743
_cell_angle_alpha   120.23058706
_cell_angle_beta   119.77301029
_cell_angle_gamma   89.92894255
_symmetry_Int_Tables_number   1
_chemical_formula_structural   Ti8Al15Fe6Pt
_chemical_formula_sum   'Ti8 Al15 Fe6 Pt1'
_cell_volume   432.26920205
_cell_formula_units_Z   1
loop_
 _symmetry_equiv_pos_site_id
 _symmetry_equiv_pos_as_xyz
  1  'x, y, z'
loop_
 _atom_site_type_symbol
 _atom_site_label
 _atom_site_symmetry_multiplicity
 _atom_site_fract_x
 _atom_site_fract_y
 _atom_site_fract_z
 _atom_site_occupancy
  Ti  Ti0  1  0.790637  0.281604  0.065790  1
  Ti  Ti1  1  0.219972  0.283763  0.490765  1
  Ti  Ti2  1  0.218595  0.710130  0.500248  1
  Ti  Ti3  1  0.215498  0.723837  0.933861  1
  Ti  Ti4  1  0.785793  0.721664  0.510132  1
  Ti  Ti5  1  0.775787  0.283306  0.500625  1
  Ti  Ti6  1  0.391566  0.125782  0.749726  1
  Ti  Ti7  1  0.381517  0.640087  0.260899  1
  Al  Al8  1  0.996647  0.496550  0.500102  1
  Al  Al9  1  0.159572  0.341667  0.180797  1
  Al  Al10  1  0.163033  0.973445  0.823331  1
  Al  Al11  1  0.159034  0.354990  0.817176  1
  Al  Al12  1  0.533067  0.344866  0.188612  1
  Al  Al13  1  0.842018  0.656500  0.815981  1
  Al  Al14  1  0.837496  0.031681  0.179085  1
  Al  Al15  1  0.837497  0.645654  0.179111  1
  Al  Al16  1  0.471085  0.656128  0.815360  1
  Al  Al17  1  0.382457  0.121039  0.260608  1
  Al  Al18  1  0.858277  0.123894  0.743919  1
  Al  Al19  1  0.611690  0.874263  0.251926  1
  Al  Al20  1  0.618786  0.361690  0.741458  1
  Al  Al21  1  0.617012  0.877003  0.738922  1
  Al  Al22  1  0.140672  0.875767  0.255492  1
  Fe  Fe23  1  0.497614  0.999993  0.996680  1
  Fe  Fe24  1  0.498130  0.496401  0.998871  1
  Fe  Fe25  1  0.497908  0.499401  0.497959  1
  Fe  Fe26  1  0.001655  0.500246  0.002562  1
  Fe  Fe27  1  0.000185  0.000076  0.999460  1
  Fe  Fe28  1  0.498425  0.999154  0.501097  1
  Pt  Pt29  1  0.998373  0.999419  0.499445  1
