# generated using pymatgen
data_Be2Nb3GeOs3
_symmetry_space_group_name_H-M   'P 1'
_cell_length_a   6.87206300
_cell_length_b   6.87206263
_cell_length_c   3.12950300
_cell_angle_alpha   90.00000000
_cell_angle_beta   90.00000000
_cell_angle_gamma   119.99999695
_symmetry_Int_Tables_number   1
_chemical_formula_structural   Be2Nb3GeOs3
_chemical_formula_sum   'Be2 Nb3 Ge1 Os3'
_cell_volume   127.99124354
_cell_formula_units_Z   1
loop_
 _symmetry_equiv_pos_site_id
 _symmetry_equiv_pos_as_xyz
  1  'x, y, z'
loop_
 _atom_site_type_symbol
 _atom_site_label
 _atom_site_symmetry_multiplicity
 _atom_site_fract_x
 _atom_site_fract_y
 _atom_site_fract_z
 _atom_site_occupancy
  Be  Be0  1  0.666667  0.333333  0.000000  1
  Be  Be1  1  0.000000  0.000000  0.500000  1
  Nb  Nb2  1  0.410622  0.386983  0.500000  1
  Nb  Nb3  1  0.613017  0.023638  0.500000  1
  Nb  Nb4  1  0.976362  0.589378  0.500000  1
  Ge  Ge5  1  0.333333  0.666667  0.000000  1
  Os  Os6  1  0.750810  0.747617  0.000000  1
  Os  Os7  1  0.252383  0.003194  0.000000  1
  Os  Os8  1  0.996806  0.249190  0.000000  1
