# generated using pymatgen
data_YSc2Ni8Ir
_symmetry_space_group_name_H-M   'P 1'
_cell_length_a   8.62636584
_cell_length_b   8.62636523
_cell_length_c   8.62636596
_cell_angle_alpha   32.74156700
_cell_angle_beta   32.74157054
_cell_angle_gamma   32.74157288
_symmetry_Int_Tables_number   1
_chemical_formula_structural   YSc2Ni8Ir
_chemical_formula_sum   'Y1 Sc2 Ni8 Ir1'
_cell_volume   167.03414158
_cell_formula_units_Z   1
loop_
 _symmetry_equiv_pos_site_id
 _symmetry_equiv_pos_as_xyz
  1  'x, y, z'
loop_
 _atom_site_type_symbol
 _atom_site_label
 _atom_site_symmetry_multiplicity
 _atom_site_fract_x
 _atom_site_fract_y
 _atom_site_fract_z
 _atom_site_occupancy
  Y  Y0  1  0.000000  0.000000  0.000000  1
  Sc  Sc1  1  0.859276  0.859276  0.859276  1
  Sc  Sc2  1  0.140724  0.140724  0.140724  1
  Ni  Ni3  1  0.415639  0.415639  0.921957  1
  Ni  Ni4  1  0.921957  0.415639  0.415639  1
  Ni  Ni5  1  0.584361  0.078043  0.584361  1
  Ni  Ni6  1  0.584361  0.584361  0.078043  1
  Ni  Ni7  1  0.333589  0.333589  0.333589  1
  Ni  Ni8  1  0.415639  0.921957  0.415639  1
  Ni  Ni9  1  0.666411  0.666411  0.666411  1
  Ni  Ni10  1  0.078043  0.584361  0.584361  1
  Ir  Ir11  1  0.500000  0.500000  0.500000  1
