# generated using pymatgen
data_Sc6Al6NiAu5
_symmetry_space_group_name_H-M   'P 1'
_cell_length_a   7.08727800
_cell_length_b   7.08727768
_cell_length_c   7.57221000
_cell_angle_alpha   90.00000000
_cell_angle_beta   90.00000000
_cell_angle_gamma   119.99999216
_symmetry_Int_Tables_number   1
_chemical_formula_structural   Sc6Al6NiAu5
_chemical_formula_sum   'Sc6 Al6 Ni1 Au5'
_cell_volume   329.39138245
_cell_formula_units_Z   1
loop_
 _symmetry_equiv_pos_site_id
 _symmetry_equiv_pos_as_xyz
  1  'x, y, z'
loop_
 _atom_site_type_symbol
 _atom_site_label
 _atom_site_symmetry_multiplicity
 _atom_site_fract_x
 _atom_site_fract_y
 _atom_site_fract_z
 _atom_site_occupancy
  Sc  Sc0  1  0.592246  0.984327  0.750000  1
  Sc  Sc1  1  0.015673  0.607918  0.750000  1
  Sc  Sc2  1  0.392082  0.407754  0.750000  1
  Sc  Sc3  1  0.985492  0.578310  0.250000  1
  Sc  Sc4  1  0.592818  0.014508  0.250000  1
  Sc  Sc5  1  0.421690  0.407182  0.250000  1
  Al  Al6  1  0.757041  0.755433  0.984633  1
  Al  Al7  1  0.244567  0.001608  0.984633  1
  Al  Al8  1  0.998392  0.242959  0.984633  1
  Al  Al9  1  0.757041  0.755433  0.515367  1
  Al  Al10  1  0.244567  0.001608  0.515367  1
  Al  Al11  1  0.998392  0.242959  0.515367  1
  Ni  Ni12  1  0.000000  0.000000  0.750000  1
  Au  Au13  1  0.000000  0.000000  0.250000  1
  Au  Au14  1  0.666667  0.333333  0.980139  1
  Au  Au15  1  0.666667  0.333333  0.519861  1
  Au  Au16  1  0.333333  0.666667  0.482555  1
  Au  Au17  1  0.333333  0.666667  0.017445  1
