# generated using pymatgen
data_NdYLu2(WO6)2
_symmetry_space_group_name_H-M   'P 1'
_cell_length_a   5.42258000
_cell_length_b   7.71827793
_cell_length_c   11.41298844
_cell_angle_alpha   75.70024585
_cell_angle_beta   90.00000000
_cell_angle_gamma   90.00000000
_symmetry_Int_Tables_number   1
_chemical_formula_structural   NdYLu2(WO6)2
_chemical_formula_sum   'Nd2 Y2 Lu4 W4 O24'
_cell_volume   462.86789748
_cell_formula_units_Z   2
loop_
 _symmetry_equiv_pos_site_id
 _symmetry_equiv_pos_as_xyz
  1  'x, y, z'
loop_
 _atom_site_type_symbol
 _atom_site_label
 _atom_site_symmetry_multiplicity
 _atom_site_fract_x
 _atom_site_fract_y
 _atom_site_fract_z
 _atom_site_occupancy
  Nd  Nd0  1  0.315052  0.500000  0.750000  1
  Nd  Nd1  1  0.684948  0.500000  0.250000  1
  Y  Y2  1  0.254800  0.000000  0.750000  1
  Y  Y3  1  0.745200  0.000000  0.250000  1
  Lu  Lu4  1  0.183195  0.794809  0.078497  1
  Lu  Lu5  1  0.183195  0.205191  0.421503  1
  Lu  Lu6  1  0.816805  0.205191  0.921503  1
  Lu  Lu7  1  0.816805  0.794809  0.578497  1
  W  W8  1  0.744720  0.728039  0.885038  1
  W  W9  1  0.255280  0.728039  0.385038  1
  W  W10  1  0.744720  0.271961  0.614962  1
  W  W11  1  0.255280  0.271961  0.114962  1
  O  O12  1  0.542456  0.160683  0.066892  1
  O  O13  1  0.049696  0.056335  0.102212  1
  O  O14  1  0.014628  0.720622  0.768721  1
  O  O15  1  0.457544  0.160683  0.566892  1
  O  O16  1  0.345171  0.491208  0.387352  1
  O  O17  1  0.950304  0.056335  0.602212  1
  O  O18  1  0.548136  0.796197  0.724819  1
  O  O19  1  0.451864  0.796197  0.224819  1
  O  O20  1  0.141961  0.641335  0.547284  1
  O  O21  1  0.049696  0.943665  0.397788  1
  O  O22  1  0.457544  0.839317  0.933108  1
  O  O23  1  0.451864  0.203803  0.275181  1
  O  O24  1  0.858039  0.358665  0.452716  1
  O  O25  1  0.654829  0.491208  0.887352  1
  O  O26  1  0.345171  0.508792  0.112648  1
  O  O27  1  0.950304  0.943665  0.897788  1
  O  O28  1  0.542456  0.839317  0.433108  1
  O  O29  1  0.985372  0.279378  0.231279  1
  O  O30  1  0.548136  0.203803  0.775181  1
  O  O31  1  0.858039  0.641335  0.047284  1
  O  O32  1  0.014628  0.279378  0.731279  1
  O  O33  1  0.141961  0.358665  0.952716  1
  O  O34  1  0.985372  0.720622  0.268721  1
  O  O35  1  0.654829  0.508792  0.612648  1
