# generated using pymatgen
data_LiHf5AlAs5Ru6
_symmetry_space_group_name_H-M   'P 1'
_cell_length_a   7.65089356
_cell_length_b   7.65406695
_cell_length_c   7.65089350
_cell_angle_alpha   127.83622981
_cell_angle_beta   121.02049717
_cell_angle_gamma   82.59095879
_symmetry_Int_Tables_number   1
_chemical_formula_structural   LiHf5AlAs5Ru6
_chemical_formula_sum   'Li1 Hf5 Al1 As5 Ru6'
_cell_volume   291.41575572
_cell_formula_units_Z   1
loop_
 _symmetry_equiv_pos_site_id
 _symmetry_equiv_pos_as_xyz
  1  'x, y, z'
loop_
 _atom_site_type_symbol
 _atom_site_label
 _atom_site_symmetry_multiplicity
 _atom_site_fract_x
 _atom_site_fract_y
 _atom_site_fract_z
 _atom_site_occupancy
  Li  Li0  1  0.475746  0.714782  0.739035  1
  Hf  Hf1  1  0.522958  0.255553  0.232596  1
  Hf  Hf2  1  0.748054  0.834866  0.586813  1
  Hf  Hf3  1  0.248718  0.834163  0.085443  1
  Hf  Hf4  1  0.056085  0.257430  0.701344  1
  Hf  Hf5  1  0.948606  0.650917  0.202311  1
  Al  Al6  1  0.287876  0.291836  0.503961  1
  As  As7  1  0.721724  0.219364  0.997640  1
  As  As8  1  0.330913  0.587614  0.260502  1
  As  As9  1  0.667139  0.912742  0.245428  1
  As  As10  1  0.167316  0.912742  0.745603  1
  As  As11  1  0.827110  0.587614  0.756700  1
  Ru  Ru12  1  0.500250  0.495219  0.001824  1
  Ru  Ru13  1  0.993395  0.495219  0.494969  1
  Ru  Ru14  1  0.088845  0.245755  0.088712  1
  Ru  Ru15  1  0.910674  0.009014  0.161467  1
  Ru  Ru16  1  0.347548  0.009014  0.598340  1
  Ru  Ru17  1  0.657043  0.245755  0.656910  1
