# generated using pymatgen
data_Tb3Tm2Sn3
_symmetry_space_group_name_H-M   'P 1'
_cell_length_a   8.96370609
_cell_length_b   8.96370522
_cell_length_c   6.51284100
_cell_angle_alpha   90.00000000
_cell_angle_beta   90.00000000
_cell_angle_gamma   119.98660754
_symmetry_Int_Tables_number   1
_chemical_formula_structural   Tb3Tm2Sn3
_chemical_formula_sum   'Tb6 Tm4 Sn6'
_cell_volume   453.24693328
_cell_formula_units_Z   2
loop_
 _symmetry_equiv_pos_site_id
 _symmetry_equiv_pos_as_xyz
  1  'x, y, z'
loop_
 _atom_site_type_symbol
 _atom_site_label
 _atom_site_symmetry_multiplicity
 _atom_site_fract_x
 _atom_site_fract_y
 _atom_site_fract_z
 _atom_site_occupancy
  Tb  Tb0  1  0.238940  0.999991  0.250000  1
  Tb  Tb1  1  0.761060  0.000009  0.750001  1
  Tb  Tb2  1  0.999989  0.238940  0.250000  1
  Tb  Tb3  1  0.761054  0.761053  0.250000  1
  Tb  Tb4  1  0.238947  0.238947  0.750001  1
  Tb  Tb5  1  0.000010  0.761059  0.750001  1
  Tm  Tm6  1  0.333334  0.666666  0.000000  1
  Tm  Tm7  1  0.666665  0.333333  0.500001  1
  Tm  Tm8  1  0.666665  0.333333  0.000000  1
  Tm  Tm9  1  0.333334  0.666666  0.500001  1
  Sn  Sn10  1  0.603221  0.000038  0.250000  1
  Sn  Sn11  1  0.396779  0.999962  0.750001  1
  Sn  Sn12  1  0.000039  0.603222  0.250000  1
  Sn  Sn13  1  0.396787  0.396788  0.250000  1
  Sn  Sn14  1  0.603213  0.603212  0.750001  1
  Sn  Sn15  1  0.999961  0.396778  0.750001  1
