# generated using pymatgen
data_Ho4Sc4OsPt3
_symmetry_space_group_name_H-M   'P 1'
_cell_length_a   4.48179000
_cell_length_b   7.04651463
_cell_length_c   8.48490901
_cell_angle_alpha   88.25566142
_cell_angle_beta   90.00000000
_cell_angle_gamma   90.00000000
_symmetry_Int_Tables_number   1
_chemical_formula_structural   Ho4Sc4OsPt3
_chemical_formula_sum   'Ho4 Sc4 Os1 Pt3'
_cell_volume   267.83772900
_cell_formula_units_Z   1
loop_
 _symmetry_equiv_pos_site_id
 _symmetry_equiv_pos_as_xyz
  1  'x, y, z'
loop_
 _atom_site_type_symbol
 _atom_site_label
 _atom_site_symmetry_multiplicity
 _atom_site_fract_x
 _atom_site_fract_y
 _atom_site_fract_z
 _atom_site_occupancy
  Ho  Ho0  1  0.250000  0.020683  0.669409  1
  Ho  Ho1  1  0.250000  0.522814  0.823716  1
  Ho  Ho2  1  0.750000  0.988837  0.331222  1
  Ho  Ho3  1  0.750000  0.467088  0.182726  1
  Sc  Sc4  1  0.250000  0.136972  0.070263  1
  Sc  Sc5  1  0.250000  0.642922  0.427199  1
  Sc  Sc6  1  0.750000  0.860444  0.932269  1
  Sc  Sc7  1  0.750000  0.356030  0.565037  1
  Os  Os8  1  0.250000  0.261927  0.388937  1
  Pt  Pt9  1  0.250000  0.753813  0.101415  1
  Pt  Pt10  1  0.750000  0.741398  0.613159  1
  Pt  Pt11  1  0.750000  0.247071  0.894648  1
