# generated using pymatgen
data_Pr2Y2SiI5
_symmetry_space_group_name_H-M   'P 1'
_cell_length_a   9.94633096
_cell_length_b   9.94633033
_cell_length_c   9.10552774
_cell_angle_alpha   77.81143117
_cell_angle_beta   77.81143329
_cell_angle_gamma   24.94371087
_symmetry_Int_Tables_number   1
_chemical_formula_structural   Pr2Y2SiI5
_chemical_formula_sum   'Pr2 Y2 Si1 I5'
_cell_volume   370.90692907
_cell_formula_units_Z   1
loop_
 _symmetry_equiv_pos_site_id
 _symmetry_equiv_pos_as_xyz
  1  'x, y, z'
loop_
 _atom_site_type_symbol
 _atom_site_label
 _atom_site_symmetry_multiplicity
 _atom_site_fract_x
 _atom_site_fract_y
 _atom_site_fract_z
 _atom_site_occupancy
  Pr  Pr0  1  0.500869  0.500869  0.214546  1
  Pr  Pr1  1  0.499131  0.499131  0.785454  1
  Y  Y2  1  0.856464  0.856464  0.073125  1
  Y  Y3  1  0.143536  0.143536  0.926875  1
  Si  Si4  1  0.000000  0.000000  0.000000  1
  I  I5  1  0.675397  0.675397  0.155732  1
  I  I6  1  0.324603  0.324603  0.844268  1
  I  I7  1  0.669440  0.669440  0.674934  1
  I  I8  1  0.330560  0.330560  0.325066  1
  I  I9  1  0.000000  0.000000  0.500000  1
