# generated using pymatgen
data_Tb3DyY3RhI12
_symmetry_space_group_name_H-M   'P 1'
_cell_length_a   9.82594050
_cell_length_b   9.81958196
_cell_length_c   9.82228400
_cell_angle_alpha   106.86095350
_cell_angle_beta   106.89648679
_cell_angle_gamma   106.87014839
_symmetry_Int_Tables_number   1
_chemical_formula_structural   Tb3DyY3RhI12
_chemical_formula_sum   'Tb3 Dy1 Y3 Rh1 I12'
_cell_volume   791.92696023
_cell_formula_units_Z   1
loop_
 _symmetry_equiv_pos_site_id
 _symmetry_equiv_pos_as_xyz
  1  'x, y, z'
loop_
 _atom_site_type_symbol
 _atom_site_label
 _atom_site_symmetry_multiplicity
 _atom_site_fract_x
 _atom_site_fract_y
 _atom_site_fract_z
 _atom_site_occupancy
  Tb  Tb0  1  0.094202  0.021874  0.295785  1
  Tb  Tb1  1  0.021839  0.295851  0.094312  1
  Tb  Tb2  1  0.295720  0.094242  0.021993  1
  Dy  Dy3  1  0.705923  0.905983  0.977977  1
  Y  Y4  1  0.499641  0.499680  0.499694  1
  Y  Y5  1  0.905397  0.977857  0.704568  1
  Y  Y6  1  0.977895  0.704539  0.905582  1
  Rh  Rh7  1  0.000056  0.000364  0.000434  1
  I  I8  1  0.537575  0.837277  0.614363  1
  I  I9  1  0.837681  0.614369  0.537663  1
  I  I10  1  0.614178  0.537712  0.837299  1
  I  I11  1  0.463289  0.162798  0.386329  1
  I  I12  1  0.162710  0.386348  0.463254  1
  I  I13  1  0.386407  0.463192  0.162764  1
  I  I14  1  0.674915  0.223105  0.069895  1
  I  I15  1  0.223306  0.069933  0.675122  1
  I  I16  1  0.069919  0.675059  0.223235  1
  I  I17  1  0.324690  0.775284  0.929579  1
  I  I18  1  0.775031  0.929578  0.324906  1
  I  I19  1  0.929624  0.324955  0.775245  1
