# generated using pymatgen
data_Tm20IrRuRh10
_symmetry_space_group_name_H-M   'P 1'
_cell_length_a   10.71648727
_cell_length_b   10.71831647
_cell_length_c   6.31429260
_cell_angle_alpha   90.00993125
_cell_angle_beta   89.99032548
_cell_angle_gamma   90.11230197
_symmetry_Int_Tables_number   1
_chemical_formula_structural   Tm20IrRuRh10
_chemical_formula_sum   'Tm20 Ir1 Ru1 Rh10'
_cell_volume   725.27529506
_cell_formula_units_Z   1
loop_
 _symmetry_equiv_pos_site_id
 _symmetry_equiv_pos_as_xyz
  1  'x, y, z'
loop_
 _atom_site_type_symbol
 _atom_site_label
 _atom_site_symmetry_multiplicity
 _atom_site_fract_x
 _atom_site_fract_y
 _atom_site_fract_z
 _atom_site_occupancy
  Tm  Tm0  1  0.290905  0.087752  0.377421  1
  Tm  Tm1  1  0.290905  0.910457  0.876812  1
  Tm  Tm2  1  0.709373  0.087958  0.876456  1
  Tm  Tm3  1  0.709053  0.912143  0.377201  1
  Tm  Tm4  1  0.586485  0.790115  0.876193  1
  Tm  Tm5  1  0.587912  0.209220  0.377638  1
  Tm  Tm6  1  0.411949  0.790315  0.378595  1
  Tm  Tm7  1  0.411671  0.209263  0.876490  1
  Tm  Tm8  1  0.207485  0.414682  0.620830  1
  Tm  Tm9  1  0.208216  0.587326  0.124066  1
  Tm  Tm10  1  0.792283  0.412908  0.125338  1
  Tm  Tm11  1  0.793094  0.587039  0.620666  1
  Tm  Tm12  1  0.913154  0.707561  0.125483  1
  Tm  Tm13  1  0.913325  0.293001  0.620598  1
  Tm  Tm14  1  0.088215  0.706731  0.620301  1
  Tm  Tm15  1  0.087060  0.292553  0.125625  1
  Tm  Tm16  1  0.999821  0.999862  0.501217  1
  Tm  Tm17  1  0.000102  0.000180  0.000692  1
  Tm  Tm18  1  0.500192  0.499959  0.001388  1
  Tm  Tm19  1  0.500022  0.499862  0.500715  1
  Ir  Ir20  1  0.346862  0.654072  0.750302  1
  Ru  Ru21  1  0.999500  0.499745  0.373251  1
  Rh  Rh22  1  0.845390  0.152870  0.249712  1
  Rh  Rh23  1  0.845815  0.846994  0.750365  1
  Rh  Rh24  1  0.154111  0.153137  0.749802  1
  Rh  Rh25  1  0.153891  0.847760  0.249748  1
  Rh  Rh26  1  0.653133  0.345752  0.750092  1
  Rh  Rh27  1  0.653312  0.654875  0.250326  1
  Rh  Rh28  1  0.346809  0.345021  0.249253  1
  Rh  Rh29  1  0.500229  0.000484  0.124260  1
  Rh  Rh30  1  0.500317  0.000669  0.623838  1
  Rh  Rh31  1  0.999407  0.499734  0.875326  1
