# generated using pymatgen
data_Th5ZrMn2(Ni4As3)4
_symmetry_space_group_name_H-M   'P 1'
_cell_length_a   12.71744981
_cell_length_b   12.68497250
_cell_length_c   4.03140700
_cell_angle_alpha   90.00000000
_cell_angle_beta   90.00000000
_cell_angle_gamma   119.91556126
_symmetry_Int_Tables_number   1
_chemical_formula_structural   Th5ZrMn2(Ni4As3)4
_chemical_formula_sum   'Th5 Zr1 Mn2 Ni16 As12'
_cell_volume   563.69701548
_cell_formula_units_Z   1
loop_
 _symmetry_equiv_pos_site_id
 _symmetry_equiv_pos_as_xyz
  1  'x, y, z'
loop_
 _atom_site_type_symbol
 _atom_site_label
 _atom_site_symmetry_multiplicity
 _atom_site_fract_x
 _atom_site_fract_y
 _atom_site_fract_z
 _atom_site_occupancy
  Th  Th0  1  0.193762  0.193518  0.500000  1
  Th  Th1  1  0.806238  0.999756  0.500000  1
  Th  Th2  1  0.000000  0.813291  0.500000  1
  Th  Th3  1  0.337493  0.668818  0.000000  1
  Th  Th4  1  0.662507  0.331324  0.000000  1
  Zr  Zr5  1  0.000000  0.427475  0.000000  1
  Mn  Mn6  1  0.571512  0.572990  0.000000  1
  Mn  Mn7  1  0.428488  0.001478  0.000000  1
  Ni  Ni8  1  0.724852  0.722351  0.500000  1
  Ni  Ni9  1  0.275148  0.997499  0.500000  1
  Ni  Ni10  1  0.000000  0.273269  0.500000  1
  Ni  Ni11  1  0.190642  0.377592  0.000000  1
  Ni  Ni12  1  0.619560  0.807475  0.000000  1
  Ni  Ni13  1  0.196497  0.815429  0.000000  1
  Ni  Ni14  1  0.803503  0.618933  0.000000  1
  Ni  Ni15  1  0.809358  0.186950  0.000000  1
  Ni  Ni16  1  0.380440  0.187916  0.000000  1
  Ni  Ni17  1  0.367923  0.487305  0.500000  1
  Ni  Ni18  1  0.514784  0.877673  0.500000  1
  Ni  Ni19  1  0.121458  0.636291  0.500000  1
  Ni  Ni20  1  0.878542  0.514833  0.500000  1
  Ni  Ni21  1  0.632077  0.119381  0.500000  1
  Ni  Ni22  1  0.485216  0.362888  0.500000  1
  Ni  Ni23  1  0.000000  0.999729  0.000000  1
  As  As24  1  0.817835  0.819997  0.000000  1
  As  As25  1  0.182165  0.002162  0.000000  1
  As  As26  1  0.000000  0.180632  0.000000  1
  As  As27  1  0.172817  0.475247  0.500000  1
  As  As28  1  0.528630  0.693745  0.500000  1
  As  As29  1  0.307864  0.832501  0.500000  1
  As  As30  1  0.692136  0.524637  0.500000  1
  As  As31  1  0.827183  0.302430  0.500000  1
  As  As32  1  0.471370  0.165115  0.500000  1
  As  As33  1  0.379242  0.376760  0.000000  1
  As  As34  1  0.620758  0.997518  0.000000  1
  As  As35  1  0.000000  0.635090  0.000000  1
