# generated using pymatgen
data_Yb11Pr7(SmSn8)2
_symmetry_space_group_name_H-M   'P 1'
_cell_length_a   7.97700383
_cell_length_b   8.50889643
_cell_length_c   16.06826374
_cell_angle_alpha   89.92085530
_cell_angle_beta   90.02014485
_cell_angle_gamma   90.12045850
_symmetry_Int_Tables_number   1
_chemical_formula_structural   Yb11Pr7(SmSn8)2
_chemical_formula_sum   'Yb11 Pr7 Sm2 Sn16'
_cell_volume   1090.63790861
_cell_formula_units_Z   1
loop_
 _symmetry_equiv_pos_site_id
 _symmetry_equiv_pos_as_xyz
  1  'x, y, z'
loop_
 _atom_site_type_symbol
 _atom_site_label
 _atom_site_symmetry_multiplicity
 _atom_site_fract_x
 _atom_site_fract_y
 _atom_site_fract_z
 _atom_site_occupancy
  Yb  Yb0  1  0.328774  0.828188  0.877527  1
  Yb  Yb1  1  0.829005  0.670570  0.623075  1
  Yb  Yb2  1  0.671285  0.170985  0.376547  1
  Yb  Yb3  1  0.173071  0.329122  0.123914  1
  Yb  Yb4  1  0.669566  0.171586  0.123620  1
  Yb  Yb5  1  0.170919  0.329320  0.376574  1
  Yb  Yb6  1  0.328014  0.828807  0.622897  1
  Yb  Yb7  1  0.157467  0.501921  0.749319  1
  Yb  Yb8  1  0.655222  0.996428  0.748756  1
  Yb  Yb9  1  0.843965  0.495311  0.250270  1
  Yb  Yb10  1  0.343306  0.005957  0.250518  1
  Pr  Pr11  1  0.991095  0.185004  0.595740  1
  Pr  Pr12  1  0.509022  0.686095  0.403921  1
  Pr  Pr13  1  0.011475  0.814917  0.097458  1
  Pr  Pr14  1  0.509214  0.685516  0.096517  1
  Pr  Pr15  1  0.008968  0.814445  0.403420  1
  Pr  Pr16  1  0.490111  0.314658  0.593608  1
  Pr  Pr17  1  0.990869  0.183867  0.903785  1
  Sm  Sm18  1  0.830017  0.672793  0.876195  1
  Sm  Sm19  1  0.489366  0.311453  0.904580  1
  Sn  Sn20  1  0.331272  0.038309  0.039018  1
  Sn  Sn21  1  0.831629  0.464327  0.460125  1
  Sn  Sn22  1  0.668806  0.963595  0.539412  1
  Sn  Sn23  1  0.169161  0.533389  0.958891  1
  Sn  Sn24  1  0.669931  0.964145  0.960020  1
  Sn  Sn25  1  0.167205  0.535534  0.539388  1
  Sn  Sn26  1  0.330728  0.036418  0.460415  1
  Sn  Sn27  1  0.830130  0.464207  0.038473  1
  Sn  Sn28  1  0.529463  0.604721  0.752316  1
  Sn  Sn29  1  0.028253  0.895560  0.749987  1
  Sn  Sn30  1  0.471614  0.397063  0.250852  1
  Sn  Sn31  1  0.971264  0.104441  0.250055  1
  Sn  Sn32  1  0.285393  0.142030  0.750975  1
  Sn  Sn33  1  0.780833  0.358917  0.751986  1
  Sn  Sn34  1  0.716358  0.859050  0.249818  1
  Sn  Sn35  1  0.217229  0.641347  0.250030  1
