# generated using pymatgen
data_Nd4AlZn(GaI)2
_symmetry_space_group_name_H-M   'P 1'
_cell_length_a   4.31645800
_cell_length_b   4.31645862
_cell_length_c   16.94544100
_cell_angle_alpha   90.00000000
_cell_angle_beta   90.00000000
_cell_angle_gamma   119.99999524
_symmetry_Int_Tables_number   1
_chemical_formula_structural   Nd4AlZn(GaI)2
_chemical_formula_sum   'Nd4 Al1 Zn1 Ga2 I2'
_cell_volume   273.42525749
_cell_formula_units_Z   1
loop_
 _symmetry_equiv_pos_site_id
 _symmetry_equiv_pos_as_xyz
  1  'x, y, z'
loop_
 _atom_site_type_symbol
 _atom_site_label
 _atom_site_symmetry_multiplicity
 _atom_site_fract_x
 _atom_site_fract_y
 _atom_site_fract_z
 _atom_site_occupancy
  Nd  Nd0  1  0.000000  0.000000  0.115159  1
  Nd  Nd1  1  0.000000  0.000000  0.886133  1
  Nd  Nd2  1  0.000000  0.000000  0.620441  1
  Nd  Nd3  1  0.000000  0.000000  0.380177  1
  Al  Al4  1  0.333333  0.666667  0.508149  1
  Zn  Zn5  1  0.333333  0.666667  0.985471  1
  Ga  Ga6  1  0.666667  0.333333  0.490236  1
  Ga  Ga7  1  0.666667  0.333333  0.013970  1
  I  I8  1  0.333333  0.666667  0.248396  1
  I  I9  1  0.666667  0.333333  0.751867  1
