# generated using pymatgen
data_U6P5S
_symmetry_space_group_name_H-M   'P 1'
_cell_length_a   3.91477556
_cell_length_b   9.66731343
_cell_length_c   7.82212371
_cell_angle_alpha   89.97139635
_cell_angle_beta   59.97199458
_cell_angle_gamma   89.99503703
_symmetry_Int_Tables_number   1
_chemical_formula_structural   U6P5S
_chemical_formula_sum   'U6 P5 S1'
_cell_volume   256.29804282
_cell_formula_units_Z   1
loop_
 _symmetry_equiv_pos_site_id
 _symmetry_equiv_pos_as_xyz
  1  'x, y, z'
loop_
 _atom_site_type_symbol
 _atom_site_label
 _atom_site_symmetry_multiplicity
 _atom_site_fract_x
 _atom_site_fract_y
 _atom_site_fract_z
 _atom_site_occupancy
  U  U0  1  0.938052  0.898289  0.656020  1
  U  U1  1  0.272486  0.231690  0.322247  1
  U  U2  1  0.605475  0.564922  0.989049  1
  U  U3  1  0.272752  0.231819  0.822005  1
  U  U4  1  0.605382  0.564952  0.489017  1
  U  U5  1  0.937576  0.898192  0.156234  1
  P  P6  1  0.271354  0.732099  0.322569  1
  P  P7  1  0.939262  0.397862  0.655504  1
  P  P8  1  0.605189  0.064993  0.489186  1
  P  P9  1  0.939419  0.398133  0.155408  1
  P  P10  1  0.271459  0.731783  0.822730  1
  S  S11  1  0.605104  0.064997  0.989125  1
