# generated using pymatgen
data_NdTh(Ga4Co)2
_symmetry_space_group_name_H-M   'P 1'
_cell_length_a   8.12189629
_cell_length_b   8.12189673
_cell_length_c   6.54246900
_cell_angle_alpha   90.00000000
_cell_angle_beta   90.00000000
_cell_angle_gamma   149.96980811
_symmetry_Int_Tables_number   1
_chemical_formula_structural   NdTh(Ga4Co)2
_chemical_formula_sum   'Nd1 Th1 Ga8 Co2'
_cell_volume   215.98456719
_cell_formula_units_Z   1
loop_
 _symmetry_equiv_pos_site_id
 _symmetry_equiv_pos_as_xyz
  1  'x, y, z'
loop_
 _atom_site_type_symbol
 _atom_site_label
 _atom_site_symmetry_multiplicity
 _atom_site_fract_x
 _atom_site_fract_y
 _atom_site_fract_z
 _atom_site_occupancy
  Nd  Nd0  1  0.384401  0.615599  0.750000  1
  Th  Th1  1  0.617943  0.382057  0.250000  1
  Ga  Ga2  1  0.999655  0.000345  0.001462  1
  Ga  Ga3  1  0.999655  0.000345  0.498538  1
  Ga  Ga4  1  0.811189  0.188811  0.052112  1
  Ga  Ga5  1  0.190564  0.809436  0.943342  1
  Ga  Ga6  1  0.190564  0.809436  0.556658  1
  Ga  Ga7  1  0.811189  0.188811  0.447888  1
  Ga  Ga8  1  0.422869  0.577131  0.250000  1
  Ga  Ga9  1  0.575623  0.424377  0.750000  1
  Co  Co10  1  0.723416  0.276584  0.750000  1
  Co  Co11  1  0.272930  0.727070  0.250000  1
