# generated using pymatgen
data_LuBi3Ir2(RhO7)2
_symmetry_space_group_name_H-M   'P 1'
_cell_length_a   7.28247877
_cell_length_b   7.28247951
_cell_length_c   7.30321611
_cell_angle_alpha   60.29796562
_cell_angle_beta   60.29796119
_cell_angle_gamma   60.31382080
_symmetry_Int_Tables_number   1
_chemical_formula_structural   LuBi3Ir2(RhO7)2
_chemical_formula_sum   'Lu1 Bi3 Ir2 Rh2 O14'
_cell_volume   275.75769847
_cell_formula_units_Z   1
loop_
 _symmetry_equiv_pos_site_id
 _symmetry_equiv_pos_as_xyz
  1  'x, y, z'
loop_
 _atom_site_type_symbol
 _atom_site_label
 _atom_site_symmetry_multiplicity
 _atom_site_fract_x
 _atom_site_fract_y
 _atom_site_fract_z
 _atom_site_occupancy
  Lu  Lu0  1  0.125000  0.125000  0.125000  1
  Bi  Bi1  1  0.125000  0.625000  0.125000  1
  Bi  Bi2  1  0.625000  0.125000  0.125000  1
  Bi  Bi3  1  0.125000  0.125000  0.625000  1
  Ir  Ir4  1  0.125000  0.625000  0.625000  1
  Ir  Ir5  1  0.625000  0.125000  0.625000  1
  Rh  Rh6  1  0.625000  0.625000  0.625000  1
  Rh  Rh7  1  0.625000  0.625000  0.125000  1
  O  O8  1  0.243442  0.243442  0.247017  1
  O  O9  1  0.286118  0.721523  0.291183  1
  O  O10  1  0.959419  0.959419  0.532160  1
  O  O11  1  0.540932  0.960562  0.544419  1
  O  O12  1  0.709700  0.709700  0.290032  1
  O  O13  1  0.960562  0.540932  0.544419  1
  O  O14  1  0.709068  0.289438  0.705581  1
  O  O15  1  0.290581  0.290581  0.717840  1
  O  O16  1  0.721523  0.286118  0.291183  1
  O  O17  1  0.289438  0.709068  0.705581  1
  O  O18  1  0.963882  0.528477  0.958817  1
  O  O19  1  0.540300  0.540300  0.959968  1
  O  O20  1  0.006558  0.006558  0.002983  1
  O  O21  1  0.528477  0.963882  0.958817  1
