# generated using pymatgen
data_TaNi4Pt
_symmetry_space_group_name_H-M   'P 1'
_cell_length_a   4.71695177
_cell_length_b   4.71695164
_cell_length_c   4.71695300
_cell_angle_alpha   59.99999744
_cell_angle_beta   59.99999842
_cell_angle_gamma   60.00000607
_symmetry_Int_Tables_number   1
_chemical_formula_structural   TaNi4Pt
_chemical_formula_sum   'Ta1 Ni4 Pt1'
_cell_volume   74.21119360
_cell_formula_units_Z   1
loop_
 _symmetry_equiv_pos_site_id
 _symmetry_equiv_pos_as_xyz
  1  'x, y, z'
loop_
 _atom_site_type_symbol
 _atom_site_label
 _atom_site_symmetry_multiplicity
 _atom_site_fract_x
 _atom_site_fract_y
 _atom_site_fract_z
 _atom_site_occupancy
  Ta  Ta0  1  0.000000  0.000000  0.000000  1
  Ni  Ni1  1  0.624877  0.125370  0.624877  1
  Ni  Ni2  1  0.624877  0.624877  0.624877  1
  Ni  Ni3  1  0.125370  0.624877  0.624877  1
  Ni  Ni4  1  0.624877  0.624877  0.125370  1
  Pt  Pt5  1  0.250000  0.250000  0.250000  1
