# generated using pymatgen
data_Tb6Co17Si12Tc
_symmetry_space_group_name_H-M   'P 1'
_cell_length_a   3.80566000
_cell_length_b   10.67136500
_cell_length_c   12.42779600
_cell_angle_alpha   90.00000000
_cell_angle_beta   90.00000000
_cell_angle_gamma   90.00000000
_symmetry_Int_Tables_number   1
_chemical_formula_structural   Tb6Co17Si12Tc
_chemical_formula_sum   'Tb6 Co17 Si12 Tc1'
_cell_volume   504.71251755
_cell_formula_units_Z   1
loop_
 _symmetry_equiv_pos_site_id
 _symmetry_equiv_pos_as_xyz
  1  'x, y, z'
loop_
 _atom_site_type_symbol
 _atom_site_label
 _atom_site_symmetry_multiplicity
 _atom_site_fract_x
 _atom_site_fract_y
 _atom_site_fract_z
 _atom_site_occupancy
  Tb  Tb0  1  0.000000  0.500000  0.525871  1
  Tb  Tb1  1  0.500000  0.000000  0.474307  1
  Tb  Tb2  1  0.500000  0.817789  0.206300  1
  Tb  Tb3  1  0.500000  0.182211  0.206300  1
  Tb  Tb4  1  0.000000  0.682556  0.796082  1
  Tb  Tb5  1  0.000000  0.317444  0.796082  1
  Co  Co6  1  0.000000  0.000000  0.847118  1
  Co  Co7  1  0.500000  0.500000  0.697387  1
  Co  Co8  1  0.000000  0.000000  0.302237  1
  Co  Co9  1  0.000000  0.500000  0.981897  1
  Co  Co10  1  0.500000  0.000000  0.017801  1
  Co  Co11  1  0.500000  0.327921  0.992624  1
  Co  Co12  1  0.500000  0.672079  0.992624  1
  Co  Co13  1  0.000000  0.167258  0.003967  1
  Co  Co14  1  0.000000  0.832742  0.003967  1
  Co  Co15  1  0.500000  0.300954  0.431276  1
  Co  Co16  1  0.500000  0.699046  0.431276  1
  Co  Co17  1  0.000000  0.197886  0.571518  1
  Co  Co18  1  0.000000  0.802114  0.571518  1
  Co  Co19  1  0.500000  0.883437  0.708139  1
  Co  Co20  1  0.500000  0.116563  0.708139  1
  Co  Co21  1  0.000000  0.618926  0.292611  1
  Co  Co22  1  0.000000  0.381074  0.292611  1
  Si  Si23  1  0.500000  0.500000  0.884605  1
  Si  Si24  1  0.000000  0.000000  0.115473  1
  Si  Si25  1  0.500000  0.500000  0.340572  1
  Si  Si26  1  0.000000  0.000000  0.661906  1
  Si  Si27  1  0.500000  0.302923  0.614709  1
  Si  Si28  1  0.500000  0.697077  0.614709  1
  Si  Si29  1  0.000000  0.196668  0.387597  1
  Si  Si30  1  0.000000  0.803332  0.387597  1
  Si  Si31  1  0.500000  0.854904  0.892357  1
  Si  Si32  1  0.500000  0.145096  0.892357  1
  Si  Si33  1  0.000000  0.651467  0.104327  1
  Si  Si34  1  0.000000  0.348533  0.104327  1
  Tc  Tc35  1  0.500000  0.500000  0.147815  1
