# generated using pymatgen
data_Nd2Si5PPd20Au
_symmetry_space_group_name_H-M   'P 1'
_cell_length_a   8.71080046
_cell_length_b   8.71080038
_cell_length_c   8.71380000
_cell_angle_alpha   59.98860813
_cell_angle_beta   59.98860844
_cell_angle_gamma   60.02278060
_symmetry_Int_Tables_number   1
_chemical_formula_structural   Nd2Si5PPd20Au
_chemical_formula_sum   'Nd2 Si5 P1 Pd20 Au1'
_cell_volume   467.52905393
_cell_formula_units_Z   1
loop_
 _symmetry_equiv_pos_site_id
 _symmetry_equiv_pos_as_xyz
  1  'x, y, z'
loop_
 _atom_site_type_symbol
 _atom_site_label
 _atom_site_symmetry_multiplicity
 _atom_site_fract_x
 _atom_site_fract_y
 _atom_site_fract_z
 _atom_site_occupancy
  Nd  Nd0  1  0.249678  0.249678  0.250322  1
  Nd  Nd1  1  0.749678  0.749678  0.750322  1
  Si  Si2  1  0.734260  0.264221  0.265740  1
  Si  Si3  1  0.264221  0.734260  0.735779  1
  Si  Si4  1  0.264221  0.734260  0.265740  1
  Si  Si5  1  0.734260  0.264221  0.735779  1
  Si  Si6  1  0.265589  0.265589  0.734411  1
  P  P7  1  0.733349  0.733349  0.266651  1
  Pd  Pd8  1  0.385498  0.385498  0.385022  1
  Pd  Pd9  1  0.614702  0.614702  0.613123  1
  Pd  Pd10  1  0.385498  0.385498  0.843983  1
  Pd  Pd11  1  0.386877  0.842528  0.385298  1
  Pd  Pd12  1  0.614702  0.614702  0.157472  1
  Pd  Pd13  1  0.614978  0.156017  0.614502  1
  Pd  Pd14  1  0.842528  0.386877  0.385298  1
  Pd  Pd15  1  0.156017  0.614978  0.614502  1
  Pd  Pd16  1  0.345065  0.999920  0.000080  1
  Pd  Pd17  1  0.656720  0.997673  0.002327  1
  Pd  Pd18  1  0.999920  0.345065  0.654935  1
  Pd  Pd19  1  0.997673  0.656720  0.343280  1
  Pd  Pd20  1  0.999920  0.345065  0.000080  1
  Pd  Pd21  1  0.656720  0.997673  0.343280  1
  Pd  Pd22  1  0.997673  0.656720  0.002327  1
  Pd  Pd23  1  0.345065  0.999920  0.654935  1
  Pd  Pd24  1  0.000645  0.000645  0.344330  1
  Pd  Pd25  1  0.000645  0.000645  0.654381  1
  Pd  Pd26  1  0.655670  0.345619  0.999355  1
  Pd  Pd27  1  0.345619  0.655670  0.999355  1
  Au  Au28  1  0.002605  0.002605  0.997395  1
