# generated using pymatgen
data_Yb3LuMgRu
_symmetry_space_group_name_H-M   'P 1'
_cell_length_a   9.86402505
_cell_length_b   9.86402529
_cell_length_c   9.86402600
_cell_angle_alpha   59.99999762
_cell_angle_beta   59.99999681
_cell_angle_gamma   60.00000256
_symmetry_Int_Tables_number   1
_chemical_formula_structural   Yb3LuMgRu
_chemical_formula_sum   'Yb12 Lu4 Mg4 Ru4'
_cell_volume   678.65264192
_cell_formula_units_Z   4
loop_
 _symmetry_equiv_pos_site_id
 _symmetry_equiv_pos_as_xyz
  1  'x, y, z'
loop_
 _atom_site_type_symbol
 _atom_site_label
 _atom_site_symmetry_multiplicity
 _atom_site_fract_x
 _atom_site_fract_y
 _atom_site_fract_z
 _atom_site_occupancy
  Yb  Yb0  1  0.954739  0.545261  0.545261  1
  Yb  Yb1  1  0.545261  0.954739  0.954739  1
  Yb  Yb2  1  0.545261  0.954739  0.545261  1
  Yb  Yb3  1  0.954739  0.545261  0.954739  1
  Yb  Yb4  1  0.545261  0.545261  0.954739  1
  Yb  Yb5  1  0.954739  0.954739  0.545261  1
  Yb  Yb6  1  0.807271  0.192729  0.192729  1
  Yb  Yb7  1  0.192729  0.807271  0.807271  1
  Yb  Yb8  1  0.192729  0.807271  0.192729  1
  Yb  Yb9  1  0.807271  0.192729  0.807271  1
  Yb  Yb10  1  0.192729  0.192729  0.807271  1
  Yb  Yb11  1  0.807271  0.807271  0.192729  1
  Lu  Lu12  1  0.336683  0.336683  0.336683  1
  Lu  Lu13  1  0.336683  0.336683  0.989949  1
  Lu  Lu14  1  0.336683  0.989949  0.336683  1
  Lu  Lu15  1  0.989949  0.336683  0.336683  1
  Mg  Mg16  1  0.577664  0.577664  0.577664  1
  Mg  Mg17  1  0.577664  0.577664  0.267009  1
  Mg  Mg18  1  0.577664  0.267009  0.577664  1
  Mg  Mg19  1  0.267009  0.577664  0.577664  1
  Ru  Ru20  1  0.139860  0.139860  0.139860  1
  Ru  Ru21  1  0.139860  0.139860  0.580419  1
  Ru  Ru22  1  0.139860  0.580419  0.139860  1
  Ru  Ru23  1  0.580419  0.139860  0.139860  1
