# generated using pymatgen
data_Sr5TaReN7
_symmetry_space_group_name_H-M   'P 1'
_cell_length_a   6.49722155
_cell_length_b   9.40155257
_cell_length_c   9.46165473
_cell_angle_alpha   114.72422031
_cell_angle_beta   97.27150122
_cell_angle_gamma   89.56188044
_symmetry_Int_Tables_number   1
_chemical_formula_structural   Sr5TaReN7
_chemical_formula_sum   'Sr10 Ta2 Re2 N14'
_cell_volume   520.09466695
_cell_formula_units_Z   2
loop_
 _symmetry_equiv_pos_site_id
 _symmetry_equiv_pos_as_xyz
  1  'x, y, z'
loop_
 _atom_site_type_symbol
 _atom_site_label
 _atom_site_symmetry_multiplicity
 _atom_site_fract_x
 _atom_site_fract_y
 _atom_site_fract_z
 _atom_site_occupancy
  Sr  Sr0  1  0.849902  0.595982  0.336186  1
  Sr  Sr1  1  0.263928  0.986064  0.557632  1
  Sr  Sr2  1  0.702340  0.415272  0.850664  1
  Sr  Sr3  1  0.297660  0.584728  0.149336  1
  Sr  Sr4  1  0.400194  0.789102  0.911658  1
  Sr  Sr5  1  0.599806  0.210898  0.088342  1
  Sr  Sr6  1  0.150098  0.404018  0.663814  1
  Sr  Sr7  1  0.886292  0.846534  0.755717  1
  Sr  Sr8  1  0.113708  0.153466  0.244283  1
  Sr  Sr9  1  0.736072  0.013936  0.442368  1
  Ta  Ta10  1  0.584942  0.350568  0.474666  1
  Ta  Ta11  1  0.415058  0.649432  0.525334  1
  Re  Re12  1  0.123195  0.218322  0.916844  1
  Re  Re13  1  0.876805  0.781678  0.083156  1
  N  N14  1  0.535973  0.551822  0.674834  1
  N  N15  1  0.464027  0.448178  0.325166  1
  N  N16  1  0.137932  0.716468  0.562016  1
  N  N17  1  0.862068  0.283532  0.437984  1
  N  N18  1  0.409969  0.181929  0.468527  1
  N  N19  1  0.590031  0.818071  0.531473  1
  N  N20  1  0.958598  0.143864  0.724700  1
  N  N21  1  0.041402  0.856136  0.275300  1
  N  N22  1  0.227858  0.056645  0.961540  1
  N  N23  1  0.772142  0.943355  0.038460  1
  N  N24  1  0.351201  0.329072  0.907622  1
  N  N25  1  0.970610  0.345513  0.072319  1
  N  N26  1  0.029390  0.654487  0.927681  1
  N  N27  1  0.648799  0.670928  0.092378  1
