# generated using pymatgen
data_Nd2B4IrOs3
_symmetry_space_group_name_H-M   'P 1'
_cell_length_a   6.87024832
_cell_length_b   6.05600370
_cell_length_c   5.62605254
_cell_angle_alpha   71.93805529
_cell_angle_beta   56.93421930
_cell_angle_gamma   51.27498744
_symmetry_Int_Tables_number   1
_chemical_formula_structural   Nd2B4IrOs3
_chemical_formula_sum   'Nd2 B4 Ir1 Os3'
_cell_volume   152.86721199
_cell_formula_units_Z   1
loop_
 _symmetry_equiv_pos_site_id
 _symmetry_equiv_pos_as_xyz
  1  'x, y, z'
loop_
 _atom_site_type_symbol
 _atom_site_label
 _atom_site_symmetry_multiplicity
 _atom_site_fract_x
 _atom_site_fract_y
 _atom_site_fract_z
 _atom_site_occupancy
  Nd  Nd0  1  0.001663  0.001663  0.998337  1
  Nd  Nd1  1  0.250202  0.250202  0.249798  1
  B  B2  1  0.314432  0.680628  0.313321  1
  B  B3  1  0.680628  0.314432  0.691619  1
  B  B4  1  0.570214  0.931767  0.568754  1
  B  B5  1  0.931767  0.570214  0.929265  1
  Ir  Ir6  1  0.635537  0.635537  0.364463  1
  Os  Os7  1  0.364971  0.364971  0.635029  1
  Os  Os8  1  0.614399  0.614399  0.885601  1
  Os  Os9  1  0.886186  0.886186  0.613814  1
