# generated using pymatgen
data_Nd(YS2)2
_symmetry_space_group_name_H-M   'P 1'
_cell_length_a   3.89248200
_cell_length_b   13.15659200
_cell_length_c   13.04112800
_cell_angle_alpha   90.00000000
_cell_angle_beta   90.00000000
_cell_angle_gamma   90.00000000
_symmetry_Int_Tables_number   1
_chemical_formula_structural   Nd(YS2)2
_chemical_formula_sum   'Nd4 Y8 S16'
_cell_volume   667.85960685
_cell_formula_units_Z   4
loop_
 _symmetry_equiv_pos_site_id
 _symmetry_equiv_pos_as_xyz
  1  'x, y, z'
loop_
 _atom_site_type_symbol
 _atom_site_label
 _atom_site_symmetry_multiplicity
 _atom_site_fract_x
 _atom_site_fract_y
 _atom_site_fract_z
 _atom_site_occupancy
  Nd  Nd0  1  0.250000  0.371731  0.590063  1
  Nd  Nd1  1  0.250000  0.871731  0.909937  1
  Nd  Nd2  1  0.750000  0.628269  0.409937  1
  Nd  Nd3  1  0.750000  0.128269  0.090063  1
  Y  Y4  1  0.250000  0.113015  0.428737  1
  Y  Y5  1  0.250000  0.613015  0.071263  1
  Y  Y6  1  0.750000  0.886985  0.571263  1
  Y  Y7  1  0.750000  0.386985  0.928737  1
  Y  Y8  1  0.250000  0.147983  0.794271  1
  Y  Y9  1  0.250000  0.647983  0.705729  1
  Y  Y10  1  0.750000  0.852017  0.205729  1
  Y  Y11  1  0.750000  0.352017  0.294271  1
  S  S12  1  0.250000  0.214071  0.237211  1
  S  S13  1  0.250000  0.714071  0.262789  1
  S  S14  1  0.750000  0.785929  0.762789  1
  S  S15  1  0.750000  0.285929  0.737211  1
  S  S16  1  0.250000  0.249881  0.979186  1
  S  S17  1  0.250000  0.749881  0.520814  1
  S  S18  1  0.750000  0.750119  0.020814  1
  S  S19  1  0.750000  0.250119  0.479186  1
  S  S20  1  0.250000  0.467576  0.384477  1
  S  S21  1  0.250000  0.967576  0.115523  1
  S  S22  1  0.750000  0.532424  0.615523  1
  S  S23  1  0.750000  0.032424  0.884477  1
  S  S24  1  0.250000  0.024790  0.623227  1
  S  S25  1  0.250000  0.524790  0.876773  1
  S  S26  1  0.750000  0.975210  0.376773  1
  S  S27  1  0.750000  0.475210  0.123227  1
