# generated using pymatgen
data_Hf5Nb5Ga6C
_symmetry_space_group_name_H-M   'P 1'
_cell_length_a   7.92689414
_cell_length_b   7.93166556
_cell_length_c   5.43294909
_cell_angle_alpha   89.94940557
_cell_angle_beta   90.10124982
_cell_angle_gamma   119.98009818
_symmetry_Int_Tables_number   1
_chemical_formula_structural   Hf5Nb5Ga6C
_chemical_formula_sum   'Hf5 Nb5 Ga6 C1'
_cell_volume   295.88306015
_cell_formula_units_Z   1
loop_
 _symmetry_equiv_pos_site_id
 _symmetry_equiv_pos_as_xyz
  1  'x, y, z'
loop_
 _atom_site_type_symbol
 _atom_site_label
 _atom_site_symmetry_multiplicity
 _atom_site_fract_x
 _atom_site_fract_y
 _atom_site_fract_z
 _atom_site_occupancy
  Hf  Hf0  1  0.001099  0.761276  0.254059  1
  Hf  Hf1  1  0.239822  0.238724  0.254059  1
  Hf  Hf2  1  0.762895  0.000000  0.260235  1
  Hf  Hf3  1  0.000429  0.239626  0.744567  1
  Hf  Hf4  1  0.760803  0.760374  0.744567  1
  Nb  Nb5  1  0.237908  0.000000  0.739884  1
  Nb  Nb6  1  0.333040  0.666907  0.000839  1
  Nb  Nb7  1  0.666135  0.333093  0.000839  1
  Nb  Nb8  1  0.664835  0.332467  0.500051  1
  Nb  Nb9  1  0.332367  0.667533  0.500051  1
  Ga  Ga10  1  0.999926  0.402051  0.247127  1
  Ga  Ga11  1  0.597875  0.597949  0.247127  1
  Ga  Ga12  1  0.402063  0.000000  0.245102  1
  Ga  Ga13  1  0.001791  0.601661  0.753313  1
  Ga  Ga14  1  0.400130  0.398339  0.753313  1
  Ga  Ga15  1  0.595149  0.000000  0.752751  1
  C  C16  1  0.003732  0.000000  0.502118  1
