# generated using pymatgen
data_Ca5AgPd2
_symmetry_space_group_name_H-M   'P 1'
_cell_length_a   9.12191267
_cell_length_b   9.12191224
_cell_length_c   9.12191229
_cell_angle_alpha   128.95022422
_cell_angle_beta   128.95022021
_cell_angle_gamma   75.09068316
_symmetry_Int_Tables_number   1
_chemical_formula_structural   Ca5AgPd2
_chemical_formula_sum   'Ca10 Ag2 Pd4'
_cell_volume   446.97137159
_cell_formula_units_Z   2
loop_
 _symmetry_equiv_pos_site_id
 _symmetry_equiv_pos_as_xyz
  1  'x, y, z'
loop_
 _atom_site_type_symbol
 _atom_site_label
 _atom_site_symmetry_multiplicity
 _atom_site_fract_x
 _atom_site_fract_y
 _atom_site_fract_z
 _atom_site_occupancy
  Ca  Ca0  1  0.470875  0.970875  0.167035  1
  Ca  Ca1  1  0.196162  0.696162  0.167035  1
  Ca  Ca2  1  0.529125  0.029125  0.832965  1
  Ca  Ca3  1  0.029125  0.196162  0.500000  1
  Ca  Ca4  1  0.696162  0.529125  0.500000  1
  Ca  Ca5  1  0.970875  0.803838  0.500000  1
  Ca  Ca6  1  0.000000  0.000000  0.000000  1
  Ca  Ca7  1  0.500000  0.500000  0.000000  1
  Ca  Ca8  1  0.803838  0.303838  0.832965  1
  Ca  Ca9  1  0.303838  0.470875  0.500000  1
  Ag  Ag10  1  0.750000  0.750000  0.000000  1
  Ag  Ag11  1  0.250000  0.250000  0.000000  1
  Pd  Pd12  1  0.129852  0.629852  0.759702  1
  Pd  Pd13  1  0.629852  0.870148  0.500000  1
  Pd  Pd14  1  0.370148  0.129852  0.500000  1
  Pd  Pd15  1  0.870148  0.370148  0.240298  1
