# generated using pymatgen
data_Er4Co2OsRu5
_symmetry_space_group_name_H-M   'P 1'
_cell_length_a   5.15684306
_cell_length_b   5.14593022
_cell_length_c   8.78418700
_cell_angle_alpha   90.00000000
_cell_angle_beta   90.00000000
_cell_angle_gamma   119.20049427
_symmetry_Int_Tables_number   1
_chemical_formula_structural   Er4Co2OsRu5
_chemical_formula_sum   'Er4 Co2 Os1 Ru5'
_cell_volume   203.48048468
_cell_formula_units_Z   1
loop_
 _symmetry_equiv_pos_site_id
 _symmetry_equiv_pos_as_xyz
  1  'x, y, z'
loop_
 _atom_site_type_symbol
 _atom_site_label
 _atom_site_symmetry_multiplicity
 _atom_site_fract_x
 _atom_site_fract_y
 _atom_site_fract_z
 _atom_site_occupancy
  Er  Er0  1  0.333153  0.664049  0.433538  1
  Er  Er1  1  0.667629  0.331076  0.566090  1
  Er  Er2  1  0.667629  0.331076  0.933910  1
  Er  Er3  1  0.333153  0.664049  0.066462  1
  Co  Co4  1  0.166841  0.342188  0.750000  1
  Co  Co5  1  0.335360  0.166961  0.250000  1
  Os  Os6  1  0.168283  0.832605  0.750000  1
  Ru  Ru7  1  0.832447  0.662094  0.250000  1
  Ru  Ru8  1  0.654022  0.831045  0.750000  1
  Ru  Ru9  1  0.007343  0.000420  0.000493  1
  Ru  Ru10  1  0.826799  0.174014  0.250000  1
  Ru  Ru11  1  0.007343  0.000420  0.499507  1
