# generated using pymatgen
data_Y3Ho3(RuI3)2
_symmetry_space_group_name_H-M   'P 1'
_cell_length_a   8.86476551
_cell_length_b   4.23068100
_cell_length_c   12.28862045
_cell_angle_alpha   90.00000000
_cell_angle_beta   94.05607590
_cell_angle_gamma   90.00000000
_symmetry_Int_Tables_number   1
_chemical_formula_structural   Y3Ho3(RuI3)2
_chemical_formula_sum   'Y3 Ho3 Ru2 I6'
_cell_volume   459.71801334
_cell_formula_units_Z   1
loop_
 _symmetry_equiv_pos_site_id
 _symmetry_equiv_pos_as_xyz
  1  'x, y, z'
loop_
 _atom_site_type_symbol
 _atom_site_label
 _atom_site_symmetry_multiplicity
 _atom_site_fract_x
 _atom_site_fract_y
 _atom_site_fract_z
 _atom_site_occupancy
  Y  Y0  1  0.736302  0.250000  0.896017  1
  Y  Y1  1  0.100126  0.250000  0.316248  1
  Y  Y2  1  0.900672  0.750001  0.683915  1
  Ho  Ho3  1  0.130067  0.250000  0.875624  1
  Ho  Ho4  1  0.869432  0.750001  0.124780  1
  Ho  Ho5  1  0.260221  0.750001  0.103566  1
  Ru  Ru6  1  0.054204  0.250000  0.092640  1
  Ru  Ru7  1  0.947001  0.750001  0.908054  1
  I  I8  1  0.426547  0.750001  0.866501  1
  I  I9  1  0.573724  0.250000  0.133207  1
  I  I10  1  0.143013  0.250000  0.608304  1
  I  I11  1  0.857672  0.750001  0.391879  1
  I  I12  1  0.354791  0.750001  0.365019  1
  I  I13  1  0.646230  0.250000  0.634248  1
