# generated using pymatgen
data_TbHo9(Pb3S)2
_symmetry_space_group_name_H-M   'P 1'
_cell_length_a   9.11083409
_cell_length_b   9.11083547
_cell_length_c   6.68141100
_cell_angle_alpha   90.00000000
_cell_angle_beta   90.00000000
_cell_angle_gamma   119.98351576
_symmetry_Int_Tables_number   1
_chemical_formula_structural   TbHo9(Pb3S)2
_chemical_formula_sum   'Tb1 Ho9 Pb6 S2'
_cell_volume   480.38260931
_cell_formula_units_Z   1
loop_
 _symmetry_equiv_pos_site_id
 _symmetry_equiv_pos_as_xyz
  1  'x, y, z'
loop_
 _atom_site_type_symbol
 _atom_site_label
 _atom_site_symmetry_multiplicity
 _atom_site_fract_x
 _atom_site_fract_y
 _atom_site_fract_z
 _atom_site_occupancy
  Tb  Tb0  1  0.756234  0.756234  0.750000  1
  Ho  Ho1  1  0.243205  0.000066  0.750000  1
  Ho  Ho2  1  0.000066  0.243205  0.750000  1
  Ho  Ho3  1  0.243193  0.243193  0.250000  1
  Ho  Ho4  1  0.756825  0.000047  0.250000  1
  Ho  Ho5  1  0.000047  0.756825  0.250000  1
  Ho  Ho6  1  0.666643  0.333225  0.000036  1
  Ho  Ho7  1  0.333225  0.666643  0.000036  1
  Ho  Ho8  1  0.333225  0.666643  0.499964  1
  Ho  Ho9  1  0.666643  0.333225  0.499964  1
  Pb  Pb10  1  0.396456  0.396456  0.750000  1
  Pb  Pb11  1  0.602969  0.000282  0.750000  1
  Pb  Pb12  1  0.000282  0.602969  0.750000  1
  Pb  Pb13  1  0.603145  0.603145  0.250000  1
  Pb  Pb14  1  0.396830  0.999990  0.250000  1
  Pb  Pb15  1  0.999990  0.396830  0.250000  1
  S  S16  1  0.000511  0.000511  0.000477  1
  S  S17  1  0.000511  0.000511  0.499523  1
