# generated using pymatgen
data_Hf2Ti3Tc2
_symmetry_space_group_name_H-M   'P 1'
_cell_length_a   7.16498904
_cell_length_b   7.16498941
_cell_length_c   7.16498892
_cell_angle_alpha   37.37637809
_cell_angle_beta   37.37637374
_cell_angle_gamma   37.37638073
_symmetry_Int_Tables_number   1
_chemical_formula_structural   Hf2Ti3Tc2
_chemical_formula_sum   'Hf2 Ti3 Tc2'
_cell_volume   121.53555605
_cell_formula_units_Z   1
loop_
 _symmetry_equiv_pos_site_id
 _symmetry_equiv_pos_as_xyz
  1  'x, y, z'
loop_
 _atom_site_type_symbol
 _atom_site_label
 _atom_site_symmetry_multiplicity
 _atom_site_fract_x
 _atom_site_fract_y
 _atom_site_fract_z
 _atom_site_occupancy
  Hf  Hf0  1  0.193189  0.193189  0.193189  1
  Hf  Hf1  1  0.766327  0.766327  0.766327  1
  Ti  Ti2  1  0.343566  0.343566  0.343566  1
  Ti  Ti3  1  0.612193  0.612193  0.612193  1
  Ti  Ti4  1  0.926971  0.926971  0.926971  1
  Tc  Tc5  1  0.050214  0.050214  0.050214  1
  Tc  Tc6  1  0.482540  0.482540  0.482540  1
