# generated using pymatgen
data_Yb4GaIr7
_symmetry_space_group_name_H-M   'P 1'
_cell_length_a   5.40566000
_cell_length_b   5.40566010
_cell_length_c   8.41270100
_cell_angle_alpha   90.00000000
_cell_angle_beta   90.00000000
_cell_angle_gamma   119.99999939
_symmetry_Int_Tables_number   1
_chemical_formula_structural   Yb4GaIr7
_chemical_formula_sum   'Yb4 Ga1 Ir7'
_cell_volume   212.89406228
_cell_formula_units_Z   1
loop_
 _symmetry_equiv_pos_site_id
 _symmetry_equiv_pos_as_xyz
  1  'x, y, z'
loop_
 _atom_site_type_symbol
 _atom_site_label
 _atom_site_symmetry_multiplicity
 _atom_site_fract_x
 _atom_site_fract_y
 _atom_site_fract_z
 _atom_site_occupancy
  Yb  Yb0  1  0.333334  0.666667  0.072634  1
  Yb  Yb1  1  0.333334  0.666667  0.432376  1
  Yb  Yb2  1  0.666666  0.333334  0.567623  1
  Yb  Yb3  1  0.666666  0.333334  0.927366  1
  Ga  Ga4  1  0.000000  0.000000  0.000000  1
  Ir  Ir5  1  0.343637  0.171818  0.248232  1
  Ir  Ir6  1  0.828183  0.171818  0.248232  1
  Ir  Ir7  1  0.828181  0.656362  0.248232  1
  Ir  Ir8  1  0.000000  0.000000  0.500000  1
  Ir  Ir9  1  0.171818  0.343637  0.751767  1
  Ir  Ir10  1  0.171818  0.828181  0.751767  1
  Ir  Ir11  1  0.656362  0.828181  0.751767  1
