# generated using pymatgen
data_Er4Al5GaOs2
_symmetry_space_group_name_H-M   'P 1'
_cell_length_a   5.44321600
_cell_length_b   5.45083021
_cell_length_c   8.77570000
_cell_angle_alpha   90.00000000
_cell_angle_beta   90.00000000
_cell_angle_gamma   119.95378985
_symmetry_Int_Tables_number   1
_chemical_formula_structural   Er4Al5GaOs2
_chemical_formula_sum   'Er4 Al5 Ga1 Os2'
_cell_volume   225.59665783
_cell_formula_units_Z   1
loop_
 _symmetry_equiv_pos_site_id
 _symmetry_equiv_pos_as_xyz
  1  'x, y, z'
loop_
 _atom_site_type_symbol
 _atom_site_label
 _atom_site_symmetry_multiplicity
 _atom_site_fract_x
 _atom_site_fract_y
 _atom_site_fract_z
 _atom_site_occupancy
  Er  Er0  1  0.667388  0.334776  0.052862  1
  Er  Er1  1  0.667388  0.334776  0.447138  1
  Er  Er2  1  0.333407  0.666815  0.554333  1
  Er  Er3  1  0.333407  0.666815  0.945667  1
  Al  Al4  1  0.164152  0.328304  0.250000  1
  Al  Al5  1  0.163338  0.838373  0.250000  1
  Al  Al6  1  0.675036  0.838373  0.250000  1
  Al  Al7  1  0.322754  0.155911  0.750000  1
  Al  Al8  1  0.833156  0.155911  0.750000  1
  Ga  Ga9  1  0.831625  0.663249  0.750000  1
  Os  Os10  1  0.004174  0.008349  0.000790  1
  Os  Os11  1  0.004174  0.008349  0.499210  1
