# generated using pymatgen
data_RbAsRh2Pb
_symmetry_space_group_name_H-M   'P 1'
_cell_length_a   8.23979332
_cell_length_b   8.23979345
_cell_length_c   8.23979245
_cell_angle_alpha   150.92202457
_cell_angle_beta   150.92202443
_cell_angle_gamma   41.58962815
_symmetry_Int_Tables_number   1
_chemical_formula_structural   RbAsRh2Pb
_chemical_formula_sum   'Rb1 As1 Rh2 Pb1'
_cell_volume   131.83658639
_cell_formula_units_Z   1
loop_
 _symmetry_equiv_pos_site_id
 _symmetry_equiv_pos_as_xyz
  1  'x, y, z'
loop_
 _atom_site_type_symbol
 _atom_site_label
 _atom_site_symmetry_multiplicity
 _atom_site_fract_x
 _atom_site_fract_y
 _atom_site_fract_z
 _atom_site_occupancy
  Rb  Rb0  1  0.019662  0.019662  0.000000  1
  As  As1  1  0.655279  0.655279  0.000000  1
  Rh  Rh2  1  0.735894  0.235894  0.500000  1
  Rh  Rh3  1  0.235894  0.735894  0.500000  1
  Pb  Pb4  1  0.353271  0.353271  0.000000  1
