# generated using pymatgen
data_YThCo2(Ni3B)2
_symmetry_space_group_name_H-M   'P 1'
_cell_length_a   4.99588701
_cell_length_b   4.99588771
_cell_length_c   6.99676700
_cell_angle_alpha   90.00000000
_cell_angle_beta   90.00000000
_cell_angle_gamma   119.70095476
_symmetry_Int_Tables_number   1
_chemical_formula_structural   YThCo2(Ni3B)2
_chemical_formula_sum   'Y1 Th1 Co2 Ni6 B2'
_cell_volume   151.68901856
_cell_formula_units_Z   1
loop_
 _symmetry_equiv_pos_site_id
 _symmetry_equiv_pos_as_xyz
  1  'x, y, z'
loop_
 _atom_site_type_symbol
 _atom_site_label
 _atom_site_symmetry_multiplicity
 _atom_site_fract_x
 _atom_site_fract_y
 _atom_site_fract_z
 _atom_site_occupancy
  Y  Y0  1  0.000000  0.000000  0.498183  1
  Th  Th1  1  0.000000  0.000000  0.007550  1
  Co  Co2  1  0.500000  0.000000  0.295672  1
  Co  Co3  1  0.000000  0.500000  0.295672  1
  Ni  Ni4  1  0.330560  0.669440  0.000169  1
  Ni  Ni5  1  0.669440  0.330560  0.000169  1
  Ni  Ni6  1  0.500000  0.500000  0.291928  1
  Ni  Ni7  1  0.500000  0.000000  0.705405  1
  Ni  Ni8  1  0.500000  0.500000  0.706556  1
  Ni  Ni9  1  0.000000  0.500000  0.705405  1
  B  B10  1  0.668741  0.331259  0.496645  1
  B  B11  1  0.331259  0.668741  0.496645  1
