# generated using pymatgen
data_NdPa5Mn4(Co7P6)2
_symmetry_space_group_name_H-M   'P 1'
_cell_length_a   3.76722900
_cell_length_b   10.50006900
_cell_length_c   12.24440300
_cell_angle_alpha   90.00000000
_cell_angle_beta   90.00000000
_cell_angle_gamma   90.00000000
_symmetry_Int_Tables_number   1
_chemical_formula_structural   NdPa5Mn4(Co7P6)2
_chemical_formula_sum   'Nd1 Pa5 Mn4 Co14 P12'
_cell_volume   484.34161852
_cell_formula_units_Z   1
loop_
 _symmetry_equiv_pos_site_id
 _symmetry_equiv_pos_as_xyz
  1  'x, y, z'
loop_
 _atom_site_type_symbol
 _atom_site_label
 _atom_site_symmetry_multiplicity
 _atom_site_fract_x
 _atom_site_fract_y
 _atom_site_fract_z
 _atom_site_occupancy
  Nd  Nd0  1  0.500000  0.000000  0.482012  1
  Pa  Pa1  1  0.000000  0.500000  0.521093  1
  Pa  Pa2  1  0.500000  0.821147  0.205742  1
  Pa  Pa3  1  0.500000  0.178853  0.205742  1
  Pa  Pa4  1  0.000000  0.680351  0.794178  1
  Pa  Pa5  1  0.000000  0.319649  0.794178  1
  Mn  Mn6  1  0.500000  0.500000  0.152551  1
  Mn  Mn7  1  0.000000  0.000000  0.847647  1
  Mn  Mn8  1  0.000000  0.500000  0.985168  1
  Mn  Mn9  1  0.500000  0.000000  0.014446  1
  Co  Co10  1  0.500000  0.500000  0.700438  1
  Co  Co11  1  0.000000  0.000000  0.291887  1
  Co  Co12  1  0.500000  0.331741  0.993747  1
  Co  Co13  1  0.500000  0.668259  0.993747  1
  Co  Co14  1  0.000000  0.169362  0.005663  1
  Co  Co15  1  0.000000  0.830638  0.005663  1
  Co  Co16  1  0.500000  0.305730  0.427490  1
  Co  Co17  1  0.500000  0.694270  0.427490  1
  Co  Co18  1  0.000000  0.204775  0.573581  1
  Co  Co19  1  0.000000  0.795225  0.573581  1
  Co  Co20  1  0.500000  0.875564  0.716084  1
  Co  Co21  1  0.500000  0.124436  0.716084  1
  Co  Co22  1  0.000000  0.622725  0.286521  1
  Co  Co23  1  0.000000  0.377275  0.286521  1
  P  P24  1  0.500000  0.500000  0.883870  1
  P  P25  1  0.000000  0.000000  0.112851  1
  P  P26  1  0.500000  0.500000  0.337031  1
  P  P27  1  0.000000  0.000000  0.663225  1
  P  P28  1  0.500000  0.309276  0.613198  1
  P  P29  1  0.500000  0.690724  0.613198  1
  P  P30  1  0.000000  0.191751  0.386866  1
  P  P31  1  0.000000  0.808249  0.386866  1
  P  P32  1  0.500000  0.848166  0.895996  1
  P  P33  1  0.500000  0.151834  0.895996  1
  P  P34  1  0.000000  0.651810  0.104821  1
  P  P35  1  0.000000  0.348190  0.104821  1
