# generated using pymatgen
data_TbFeCo4P3
_symmetry_space_group_name_H-M   'P 1'
_cell_length_a   3.66632900
_cell_length_b   10.27240000
_cell_length_c   11.77980900
_cell_angle_alpha   90.00000000
_cell_angle_beta   90.00000000
_cell_angle_gamma   90.00000000
_symmetry_Int_Tables_number   1
_chemical_formula_structural   TbFeCo4P3
_chemical_formula_sum   'Tb4 Fe4 Co16 P12'
_cell_volume   443.65114323
_cell_formula_units_Z   4
loop_
 _symmetry_equiv_pos_site_id
 _symmetry_equiv_pos_as_xyz
  1  'x, y, z'
loop_
 _atom_site_type_symbol
 _atom_site_label
 _atom_site_symmetry_multiplicity
 _atom_site_fract_x
 _atom_site_fract_y
 _atom_site_fract_z
 _atom_site_occupancy
  Tb  Tb0  1  0.250000  0.581565  0.703163  1
  Tb  Tb1  1  0.250000  0.918435  0.203163  1
  Tb  Tb2  1  0.750000  0.418435  0.296837  1
  Tb  Tb3  1  0.750000  0.081565  0.796837  1
  Fe  Fe4  1  0.250000  0.709555  0.987384  1
  Fe  Fe5  1  0.250000  0.790445  0.487384  1
  Fe  Fe6  1  0.750000  0.290445  0.012616  1
  Fe  Fe7  1  0.750000  0.209555  0.512616  1
  Co  Co8  1  0.250000  0.405591  0.487544  1
  Co  Co9  1  0.250000  0.094409  0.987544  1
  Co  Co10  1  0.750000  0.594409  0.512456  1
  Co  Co11  1  0.750000  0.905591  0.012456  1
  Co  Co12  1  0.250000  0.220997  0.176483  1
  Co  Co13  1  0.250000  0.279003  0.676483  1
  Co  Co14  1  0.750000  0.779003  0.823517  1
  Co  Co15  1  0.750000  0.720997  0.323517  1
  Co  Co16  1  0.250000  0.882326  0.698194  1
  Co  Co17  1  0.250000  0.617674  0.198194  1
  Co  Co18  1  0.750000  0.117674  0.301806  1
  Co  Co19  1  0.750000  0.382326  0.801806  1
  Co  Co20  1  0.250000  0.466935  0.933015  1
  Co  Co21  1  0.250000  0.033065  0.433015  1
  Co  Co22  1  0.750000  0.533065  0.066985  1
  Co  Co23  1  0.750000  0.966935  0.566985  1
  P  P24  1  0.250000  0.418664  0.112569  1
  P  P25  1  0.250000  0.081336  0.612569  1
  P  P26  1  0.750000  0.581336  0.887431  1
  P  P27  1  0.750000  0.918664  0.387431  1
  P  P28  1  0.250000  0.270366  0.868374  1
  P  P29  1  0.250000  0.229634  0.368374  1
  P  P30  1  0.750000  0.729634  0.131626  1
  P  P31  1  0.750000  0.770366  0.631626  1
  P  P32  1  0.250000  0.602685  0.392805  1
  P  P33  1  0.250000  0.897315  0.892805  1
  P  P34  1  0.750000  0.397315  0.607195  1
  P  P35  1  0.750000  0.102685  0.107195  1
