# generated using pymatgen
data_Ac8ZnSi7I6
_symmetry_space_group_name_H-M   'P 1'
_cell_length_a   12.97704146
_cell_length_b   12.97704099
_cell_length_c   13.00702728
_cell_angle_alpha   82.50038178
_cell_angle_beta   82.50038682
_cell_angle_gamma   19.52291825
_symmetry_Int_Tables_number   1
_chemical_formula_structural   Ac8ZnSi7I6
_chemical_formula_sum   'Ac8 Zn1 Si7 I6'
_cell_volume   725.55855426
_cell_formula_units_Z   1
loop_
 _symmetry_equiv_pos_site_id
 _symmetry_equiv_pos_as_xyz
  1  'x, y, z'
loop_
 _atom_site_type_symbol
 _atom_site_label
 _atom_site_symmetry_multiplicity
 _atom_site_fract_x
 _atom_site_fract_y
 _atom_site_fract_z
 _atom_site_occupancy
  Ac  Ac0  1  0.495981  0.495981  0.163137  1
  Ac  Ac1  1  0.922941  0.922941  0.448948  1
  Ac  Ac2  1  0.356256  0.356256  0.025772  1
  Ac  Ac3  1  0.075370  0.075370  0.558266  1
  Ac  Ac4  1  0.644645  0.644645  0.975585  1
  Ac  Ac5  1  0.638579  0.638579  0.288572  1
  Ac  Ac6  1  0.361532  0.361532  0.709105  1
  Ac  Ac7  1  0.503236  0.503236  0.833374  1
  Zn  Zn8  1  0.523365  0.523365  0.410919  1
  Si  Si9  1  0.042576  0.042576  0.317289  1
  Si  Si10  1  0.048556  0.048556  0.990268  1
  Si  Si11  1  0.477523  0.477523  0.590863  1
  Si  Si12  1  0.906756  0.906756  0.857699  1
  Si  Si13  1  0.951153  0.951153  0.009086  1
  Si  Si14  1  0.959436  0.959436  0.674764  1
  Si  Si15  1  0.092877  0.092877  0.141277  1
  I  I16  1  0.244005  0.244005  0.871676  1
  I  I17  1  0.756628  0.756628  0.128777  1
  I  I18  1  0.798062  0.798062  0.574137  1
  I  I19  1  0.368525  0.368525  0.287395  1
  I  I20  1  0.199444  0.199444  0.427049  1
  I  I21  1  0.632553  0.632553  0.716041  1
