# generated using pymatgen
data_Pu3U3(Co3Sb4)2
_symmetry_space_group_name_H-M   'P 1'
_cell_length_a   8.16678985
_cell_length_b   8.12028080
_cell_length_c   8.11790700
_cell_angle_alpha   109.06713209
_cell_angle_beta   110.04311706
_cell_angle_gamma   109.06562897
_symmetry_Int_Tables_number   1
_chemical_formula_structural   Pu3U3(Co3Sb4)2
_chemical_formula_sum   'Pu3 U3 Co6 Sb8'
_cell_volume   415.60512331
_cell_formula_units_Z   1
loop_
 _symmetry_equiv_pos_site_id
 _symmetry_equiv_pos_as_xyz
  1  'x, y, z'
loop_
 _atom_site_type_symbol
 _atom_site_label
 _atom_site_symmetry_multiplicity
 _atom_site_fract_x
 _atom_site_fract_y
 _atom_site_fract_z
 _atom_site_occupancy
  Pu  Pu0  1  0.872930  0.250313  0.125304  1
  Pu  Pu1  1  0.623989  0.751692  0.376055  1
  Pu  Pu2  1  0.247195  0.127946  0.876751  1
  U  U3  1  0.751610  0.363805  0.611562  1
  U  U4  1  0.121316  0.868989  0.243535  1
  U  U5  1  0.377176  0.622122  0.747582  1
  Co  Co6  1  0.378714  0.255300  0.619847  1
  Co  Co7  1  0.121111  0.740272  0.876358  1
  Co  Co8  1  0.257531  0.634492  0.390341  1
  Co  Co9  1  0.750997  0.859802  0.116023  1
  Co  Co10  1  0.643933  0.374909  0.303218  1
  Co  Co11  1  0.853879  0.163173  0.726747  1
  Sb  Sb12  1  0.659256  0.493539  0.000549  1
  Sb  Sb13  1  0.496710  0.001359  0.662959  1
  Sb  Sb14  1  0.004653  0.668511  0.503188  1
  Sb  Sb15  1  0.838399  0.838306  0.834514  1
  Sb  Sb16  1  0.496052  0.990848  0.152325  1
  Sb  Sb17  1  0.166784  0.501879  0.006198  1
  Sb  Sb18  1  0.003284  0.154112  0.491331  1
  Sb  Sb19  1  0.334480  0.338628  0.335612  1
