# generated using pymatgen
data_SmDyEr4(RuI3)2
_symmetry_space_group_name_H-M   'P 1'
_cell_length_a   4.21583200
_cell_length_b   8.91207539
_cell_length_c   12.34026270
_cell_angle_alpha   94.21452748
_cell_angle_beta   90.00000000
_cell_angle_gamma   90.00000000
_symmetry_Int_Tables_number   1
_chemical_formula_structural   SmDyEr4(RuI3)2
_chemical_formula_sum   'Sm1 Dy1 Er4 Ru2 I6'
_cell_volume   462.39228125
_cell_formula_units_Z   1
loop_
 _symmetry_equiv_pos_site_id
 _symmetry_equiv_pos_as_xyz
  1  'x, y, z'
loop_
 _atom_site_type_symbol
 _atom_site_label
 _atom_site_symmetry_multiplicity
 _atom_site_fract_x
 _atom_site_fract_y
 _atom_site_fract_z
 _atom_site_occupancy
  Sm  Sm0  1  0.750000  0.269035  0.603009  1
  Dy  Dy1  1  0.250000  0.739354  0.397227  1
  Er  Er2  1  0.750000  0.873756  0.625169  1
  Er  Er3  1  0.250000  0.126040  0.372971  1
  Er  Er4  1  0.750000  0.896192  0.187129  1
  Er  Er5  1  0.250000  0.099163  0.813797  1
  Ru  Ru6  1  0.750000  0.944901  0.406989  1
  Ru  Ru7  1  0.250000  0.055001  0.592351  1
  I  I8  1  0.750000  0.424216  0.364206  1
  I  I9  1  0.250000  0.581412  0.633793  1
  I  I10  1  0.750000  0.861549  0.890165  1
  I  I11  1  0.250000  0.133563  0.109258  1
  I  I12  1  0.750000  0.350804  0.867788  1
  I  I13  1  0.250000  0.645012  0.136149  1
