# generated using pymatgen
data_Na2Ho3Ge5P7Ir19
_symmetry_space_group_name_H-M   'P 1'
_cell_length_a   12.89643700
_cell_length_b   12.90281328
_cell_length_c   3.96226000
_cell_angle_alpha   90.00000000
_cell_angle_beta   90.00000000
_cell_angle_gamma   120.09841710
_symmetry_Int_Tables_number   1
_chemical_formula_structural   Na2Ho3Ge5P7Ir19
_chemical_formula_sum   'Na2 Ho3 Ge5 P7 Ir19'
_cell_volume   570.42191662
_cell_formula_units_Z   1
loop_
 _symmetry_equiv_pos_site_id
 _symmetry_equiv_pos_as_xyz
  1  'x, y, z'
loop_
 _atom_site_type_symbol
 _atom_site_label
 _atom_site_symmetry_multiplicity
 _atom_site_fract_x
 _atom_site_fract_y
 _atom_site_fract_z
 _atom_site_occupancy
  Na  Na0  1  0.177781  0.181289  0.000000  1
  Na  Na1  1  0.821004  0.998607  0.000000  1
  Ho  Ho2  1  0.334397  0.668900  0.500000  1
  Ho  Ho3  1  0.668455  0.333007  0.500000  1
  Ho  Ho4  1  0.999836  0.825284  0.000000  1
  Ge  Ge5  1  0.319788  0.839946  0.000000  1
  Ge  Ge6  1  0.164024  0.483078  0.000000  1
  Ge  Ge7  1  0.356267  0.355247  0.500000  1
  Ge  Ge8  1  0.644787  0.998763  0.500000  1
  Ge  Ge9  1  0.998807  0.641258  0.500000  1
  P  P10  1  0.520823  0.687598  0.000000  1
  P  P11  1  0.823904  0.304195  0.000000  1
  P  P12  1  0.483845  0.176903  0.000000  1
  P  P13  1  0.693571  0.515529  0.000000  1
  P  P14  1  0.819536  0.819034  0.500000  1
  P  P15  1  0.181115  0.008947  0.500000  1
  P  P16  1  0.000444  0.177502  0.500000  1
  Ir  Ir17  1  0.190372  0.831202  0.500000  1
  Ir  Ir18  1  0.176547  0.371229  0.500000  1
  Ir  Ir19  1  0.620789  0.791853  0.500000  1
  Ir  Ir20  1  0.818712  0.205559  0.500000  1
  Ir  Ir21  1  0.390777  0.182319  0.500000  1
  Ir  Ir22  1  0.794928  0.615772  0.500000  1
  Ir  Ir23  1  0.128223  0.649242  0.000000  1
  Ir  Ir24  1  0.365266  0.497012  0.000000  1
  Ir  Ir25  1  0.519223  0.867726  0.000000  1
  Ir  Ir26  1  0.631169  0.130127  0.000000  1
  Ir  Ir27  1  0.499740  0.366541  0.000000  1
  Ir  Ir28  1  0.866826  0.498625  0.000000  1
  Ir  Ir29  1  0.547950  0.544792  0.500000  1
  Ir  Ir30  1  0.447696  0.989327  0.500000  1
  Ir  Ir31  1  0.004326  0.453399  0.500000  1
  Ir  Ir32  1  0.716500  0.710166  0.000000  1
  Ir  Ir33  1  0.283567  0.010528  0.000000  1
  Ir  Ir34  1  0.991787  0.275156  0.000000  1
  Ir  Ir35  1  0.997213  0.994346  0.500000  1
