# generated using pymatgen
data_Ho5Sc5Tl4(InRh)4
_symmetry_space_group_name_H-M   'P 1'
_cell_length_a   3.53893900
_cell_length_b   7.86952205
_cell_length_c   17.92376737
_cell_angle_alpha   89.94067537
_cell_angle_beta   90.00000000
_cell_angle_gamma   90.00000000
_symmetry_Int_Tables_number   1
_chemical_formula_structural   Ho5Sc5Tl4(InRh)4
_chemical_formula_sum   'Ho5 Sc5 Tl4 In4 Rh4'
_cell_volume   499.17232493
_cell_formula_units_Z   1
loop_
 _symmetry_equiv_pos_site_id
 _symmetry_equiv_pos_as_xyz
  1  'x, y, z'
loop_
 _atom_site_type_symbol
 _atom_site_label
 _atom_site_symmetry_multiplicity
 _atom_site_fract_x
 _atom_site_fract_y
 _atom_site_fract_z
 _atom_site_occupancy
  Ho  Ho0  1  0.000000  0.000000  0.000000  1
  Ho  Ho1  1  0.000000  0.747493  0.779863  1
  Ho  Ho2  1  0.000000  0.252507  0.220137  1
  Ho  Ho3  1  0.000000  0.248611  0.717865  1
  Ho  Ho4  1  0.000000  0.751389  0.282135  1
  Sc  Sc5  1  0.000000  0.500000  0.500000  1
  Sc  Sc6  1  0.000000  0.879456  0.587249  1
  Sc  Sc7  1  0.000000  0.120544  0.412751  1
  Sc  Sc8  1  0.000000  0.378400  0.910909  1
  Sc  Sc9  1  0.000000  0.621600  0.089091  1
  Tl  Tl10  1  0.500000  0.798629  0.440007  1
  Tl  Tl11  1  0.500000  0.201371  0.559993  1
  Tl  Tl12  1  0.500000  0.306493  0.062078  1
  Tl  Tl13  1  0.500000  0.693507  0.937922  1
  In  In14  1  0.500000  0.924836  0.150493  1
  In  In15  1  0.500000  0.075164  0.849507  1
  In  In16  1  0.500000  0.425282  0.354180  1
  In  In17  1  0.500000  0.574718  0.645820  1
  Rh  Rh18  1  0.500000  0.959270  0.691552  1
  Rh  Rh19  1  0.500000  0.040730  0.308448  1
  Rh  Rh20  1  0.500000  0.459665  0.806229  1
  Rh  Rh21  1  0.500000  0.540335  0.193771  1
