# generated using pymatgen
data_Ho5Fe11Co7ReP12
_symmetry_space_group_name_H-M   'P 1'
_cell_length_a   11.95903585
_cell_length_b   11.95903687
_cell_length_c   3.69654800
_cell_angle_alpha   90.00000000
_cell_angle_beta   90.00000000
_cell_angle_gamma   119.80433616
_symmetry_Int_Tables_number   1
_chemical_formula_structural   Ho5Fe11Co7ReP12
_chemical_formula_sum   'Ho5 Fe11 Co7 Re1 P12'
_cell_volume   458.74596125
_cell_formula_units_Z   1
loop_
 _symmetry_equiv_pos_site_id
 _symmetry_equiv_pos_as_xyz
  1  'x, y, z'
loop_
 _atom_site_type_symbol
 _atom_site_label
 _atom_site_symmetry_multiplicity
 _atom_site_fract_x
 _atom_site_fract_y
 _atom_site_fract_z
 _atom_site_occupancy
  Ho  Ho0  1  0.666114  0.334944  0.000000  1
  Ho  Ho1  1  0.334944  0.666114  0.000000  1
  Ho  Ho2  1  0.816211  0.816211  0.500000  1
  Ho  Ho3  1  0.185094  0.999140  0.500000  1
  Ho  Ho4  1  0.999140  0.185094  0.500000  1
  Fe  Fe5  1  0.877403  0.359196  0.500000  1
  Fe  Fe6  1  0.644282  0.519740  0.500000  1
  Fe  Fe7  1  0.482252  0.123867  0.500000  1
  Fe  Fe8  1  0.359196  0.877403  0.500000  1
  Fe  Fe9  1  0.519740  0.644282  0.500000  1
  Fe  Fe10  1  0.123867  0.482252  0.500000  1
  Fe  Fe11  1  0.555308  0.999622  0.000000  1
  Fe  Fe12  1  0.999622  0.555308  0.000000  1
  Fe  Fe13  1  0.280415  0.280415  0.500000  1
  Fe  Fe14  1  0.715320  0.001857  0.500000  1
  Fe  Fe15  1  0.001857  0.715320  0.500000  1
  Co  Co16  1  0.800392  0.179930  0.000000  1
  Co  Co17  1  0.822871  0.623827  0.000000  1
  Co  Co18  1  0.374621  0.193950  0.000000  1
  Co  Co19  1  0.179930  0.800392  0.000000  1
  Co  Co20  1  0.623827  0.822871  0.000000  1
  Co  Co21  1  0.193950  0.374621  0.000000  1
  Co  Co22  1  0.997593  0.997593  0.000000  1
  Re  Re23  1  0.442048  0.442048  0.000000  1
  P  P24  1  0.684772  0.166400  0.500000  1
  P  P25  1  0.836680  0.520558  0.500000  1
  P  P26  1  0.479671  0.314348  0.500000  1
  P  P27  1  0.166400  0.684772  0.500000  1
  P  P28  1  0.520558  0.836680  0.500000  1
  P  P29  1  0.314348  0.479671  0.500000  1
  P  P30  1  0.179432  0.179432  0.000000  1
  P  P31  1  0.816397  0.000999  0.000000  1
  P  P32  1  0.000999  0.816397  0.000000  1
  P  P33  1  0.634987  0.634987  0.000000  1
  P  P34  1  0.370962  0.998793  0.000000  1
  P  P35  1  0.998793  0.370962  0.000000  1
