# generated using pymatgen
data_La2Nd6Cd2OsPd
_symmetry_space_group_name_H-M   'P 1'
_cell_length_a   10.03145022
_cell_length_b   10.03145143
_cell_length_c   10.13502700
_cell_angle_alpha   59.65786709
_cell_angle_beta   59.65786305
_cell_angle_gamma   59.54987921
_symmetry_Int_Tables_number   1
_chemical_formula_structural   La2Nd6Cd2OsPd
_chemical_formula_sum   'La4 Nd12 Cd4 Os2 Pd2'
_cell_volume   714.97065088
_cell_formula_units_Z   2
loop_
 _symmetry_equiv_pos_site_id
 _symmetry_equiv_pos_as_xyz
  1  'x, y, z'
loop_
 _atom_site_type_symbol
 _atom_site_label
 _atom_site_symmetry_multiplicity
 _atom_site_fract_x
 _atom_site_fract_y
 _atom_site_fract_z
 _atom_site_occupancy
  La  La0  1  0.347818  0.347818  0.356898  1
  La  La1  1  0.347818  0.347818  0.947469  1
  La  La2  1  0.343834  0.956884  0.349641  1
  La  La3  1  0.956884  0.343834  0.349641  1
  Nd  Nd4  1  0.816002  0.188562  0.191520  1
  Nd  Nd5  1  0.188562  0.816002  0.803917  1
  Nd  Nd6  1  0.188562  0.816002  0.191520  1
  Nd  Nd7  1  0.816002  0.188562  0.803917  1
  Nd  Nd8  1  0.188111  0.188111  0.811889  1
  Nd  Nd9  1  0.806331  0.806331  0.193669  1
  Nd  Nd10  1  0.936254  0.557246  0.567028  1
  Nd  Nd11  1  0.557246  0.936254  0.939472  1
  Nd  Nd12  1  0.557246  0.936254  0.567028  1
  Nd  Nd13  1  0.936254  0.557246  0.939472  1
  Nd  Nd14  1  0.563232  0.563232  0.936768  1
  Nd  Nd15  1  0.937314  0.937314  0.562686  1
  Cd  Cd16  1  0.579702  0.579702  0.580743  1
  Cd  Cd17  1  0.579702  0.579702  0.259852  1
  Cd  Cd18  1  0.580701  0.257871  0.580713  1
  Cd  Cd19  1  0.257871  0.580701  0.580713  1
  Os  Os20  1  0.146003  0.146003  0.135779  1
  Os  Os21  1  0.146003  0.146003  0.572216  1
  Pd  Pd22  1  0.147630  0.574918  0.138725  1
  Pd  Pd23  1  0.574918  0.147630  0.138725  1
