# generated using pymatgen
data_DyHf6(ZrSn2)3
_symmetry_space_group_name_H-M   'P 1'
_cell_length_a   8.58949485
_cell_length_b   8.58949603
_cell_length_c   5.81130800
_cell_angle_alpha   90.00000000
_cell_angle_beta   90.00000000
_cell_angle_gamma   120.99507399
_symmetry_Int_Tables_number   1
_chemical_formula_structural   DyHf6(ZrSn2)3
_chemical_formula_sum   'Dy1 Hf6 Zr3 Sn6'
_cell_volume   367.53375260
_cell_formula_units_Z   1
loop_
 _symmetry_equiv_pos_site_id
 _symmetry_equiv_pos_as_xyz
  1  'x, y, z'
loop_
 _atom_site_type_symbol
 _atom_site_label
 _atom_site_symmetry_multiplicity
 _atom_site_fract_x
 _atom_site_fract_y
 _atom_site_fract_z
 _atom_site_occupancy
  Dy  Dy0  1  0.231662  0.231662  0.250000  1
  Hf  Hf1  1  0.748752  0.999135  0.250000  1
  Hf  Hf2  1  0.999135  0.748752  0.250000  1
  Hf  Hf3  1  0.666133  0.334955  0.999503  1
  Hf  Hf4  1  0.334955  0.666133  0.999503  1
  Hf  Hf5  1  0.334955  0.666133  0.500497  1
  Hf  Hf6  1  0.666133  0.334955  0.500497  1
  Zr  Zr7  1  0.762821  0.762821  0.750000  1
  Zr  Zr8  1  0.251567  0.999147  0.750000  1
  Zr  Zr9  1  0.999147  0.251567  0.750000  1
  Sn  Sn10  1  0.393874  0.393874  0.750000  1
  Sn  Sn11  1  0.608885  0.000479  0.750000  1
  Sn  Sn12  1  0.000479  0.608885  0.750000  1
  Sn  Sn13  1  0.609926  0.609926  0.250000  1
  Sn  Sn14  1  0.395182  0.996393  0.250000  1
  Sn  Sn15  1  0.996393  0.395182  0.250000  1
