# generated using pymatgen
data_Gd4Ga12Pt
_symmetry_space_group_name_H-M   'P 1'
_cell_length_a   7.49952735
_cell_length_b   7.49952795
_cell_length_c   7.49952800
_cell_angle_alpha   109.47122348
_cell_angle_beta   109.47122509
_cell_angle_gamma   109.47121458
_symmetry_Int_Tables_number   1
_chemical_formula_structural   Gd4Ga12Pt
_chemical_formula_sum   'Gd4 Ga12 Pt1'
_cell_volume   324.69818023
_cell_formula_units_Z   1
loop_
 _symmetry_equiv_pos_site_id
 _symmetry_equiv_pos_as_xyz
  1  'x, y, z'
loop_
 _atom_site_type_symbol
 _atom_site_label
 _atom_site_symmetry_multiplicity
 _atom_site_fract_x
 _atom_site_fract_y
 _atom_site_fract_z
 _atom_site_occupancy
  Gd  Gd0  1  0.000000  0.000000  0.500000  1
  Gd  Gd1  1  0.000000  0.500000  0.000000  1
  Gd  Gd2  1  0.500000  0.000000  0.000000  1
  Gd  Gd3  1  0.500000  0.500000  0.500000  1
  Ga  Ga4  1  0.750000  0.250000  0.500000  1
  Ga  Ga5  1  0.750000  0.500000  0.250000  1
  Ga  Ga6  1  0.500000  0.250000  0.750000  1
  Ga  Ga7  1  0.250000  0.500000  0.750000  1
  Ga  Ga8  1  0.250000  0.750000  0.500000  1
  Ga  Ga9  1  0.500000  0.750000  0.250000  1
  Ga  Ga10  1  0.702135  0.702135  0.000000  1
  Ga  Ga11  1  0.297865  0.000000  0.297865  1
  Ga  Ga12  1  0.000000  0.297865  0.297865  1
  Ga  Ga13  1  0.297865  0.297865  0.000000  1
  Ga  Ga14  1  0.702135  0.000000  0.702135  1
  Ga  Ga15  1  0.000000  0.702135  0.702135  1
  Pt  Pt16  1  0.000000  0.000000  0.000000  1
