# generated using pymatgen
data_BaP4(RhO7)2
_symmetry_space_group_name_H-M   'P 1'
_cell_length_a   6.27040754
_cell_length_b   6.31391047
_cell_length_c   7.91773659
_cell_angle_alpha   97.27602720
_cell_angle_beta   101.05181573
_cell_angle_gamma   105.72480549
_symmetry_Int_Tables_number   1
_chemical_formula_structural   BaP4(RhO7)2
_chemical_formula_sum   'Ba1 P4 Rh2 O14'
_cell_volume   290.80139218
_cell_formula_units_Z   1
loop_
 _symmetry_equiv_pos_site_id
 _symmetry_equiv_pos_as_xyz
  1  'x, y, z'
loop_
 _atom_site_type_symbol
 _atom_site_label
 _atom_site_symmetry_multiplicity
 _atom_site_fract_x
 _atom_site_fract_y
 _atom_site_fract_z
 _atom_site_occupancy
  Ba  Ba0  1  0.000000  0.000000  0.000000  1
  P  P1  1  0.819423  0.541184  0.198046  1
  P  P2  1  0.180577  0.458816  0.801954  1
  P  P3  1  0.519976  0.753200  0.666498  1
  P  P4  1  0.480024  0.246800  0.333502  1
  Rh  Rh5  1  0.627537  0.310873  0.773484  1
  Rh  Rh6  1  0.372463  0.689127  0.226516  1
  O  O7  1  0.934996  0.309830  0.720667  1
  O  O8  1  0.065004  0.690170  0.279333  1
  O  O9  1  0.689427  0.643314  0.764905  1
  O  O10  1  0.310573  0.356686  0.235095  1
  O  O11  1  0.678346  0.703658  0.162484  1
  O  O12  1  0.321654  0.296342  0.837516  1
  O  O13  1  0.571214  0.977802  0.791899  1
  O  O14  1  0.428786  0.022198  0.208101  1
  O  O15  1  0.543553  0.771526  0.482378  1
  O  O16  1  0.456447  0.228474  0.517622  1
  O  O17  1  0.263312  0.598138  0.655927  1
  O  O18  1  0.736688  0.401862  0.344073  1
  O  O19  1  0.207082  0.637891  0.962737  1
  O  O20  1  0.792918  0.362109  0.037263  1
