# generated using pymatgen
data_YbFe2Sb12OsPt
_symmetry_space_group_name_H-M   'P 1'
_cell_length_a   8.08351936
_cell_length_b   8.03764725
_cell_length_c   8.08751114
_cell_angle_alpha   109.35130102
_cell_angle_beta   109.68518552
_cell_angle_gamma   109.34715910
_symmetry_Int_Tables_number   1
_chemical_formula_structural   YbFe2Sb12OsPt
_chemical_formula_sum   'Yb1 Fe2 Sb12 Os1 Pt1'
_cell_volume   404.64992637
_cell_formula_units_Z   1
loop_
 _symmetry_equiv_pos_site_id
 _symmetry_equiv_pos_as_xyz
  1  'x, y, z'
loop_
 _atom_site_type_symbol
 _atom_site_label
 _atom_site_symmetry_multiplicity
 _atom_site_fract_x
 _atom_site_fract_y
 _atom_site_fract_z
 _atom_site_occupancy
  Yb  Yb0  1  0.000000  0.000000  0.000000  1
  Fe  Fe1  1  0.500000  0.000000  0.000000  1
  Fe  Fe2  1  0.000000  0.000000  0.500000  1
  Sb  Sb3  1  0.853509  0.670189  0.503968  1
  Sb  Sb4  1  0.146491  0.329811  0.496032  1
  Sb  Sb5  1  0.166666  0.671535  0.825445  1
  Sb  Sb6  1  0.833334  0.328465  0.174555  1
  Sb  Sb7  1  0.658183  0.501954  0.850367  1
  Sb  Sb8  1  0.341817  0.498046  0.149633  1
  Sb  Sb9  1  0.670648  0.832636  0.163380  1
  Sb  Sb10  1  0.329352  0.167364  0.836620  1
  Sb  Sb11  1  0.504602  0.854224  0.671060  1
  Sb  Sb12  1  0.495398  0.145776  0.328940  1
  Sb  Sb13  1  0.174570  0.845732  0.340241  1
  Sb  Sb14  1  0.825430  0.154268  0.659759  1
  Os  Os15  1  0.000000  0.500000  0.000000  1
  Pt  Pt16  1  0.500000  0.500000  0.500000  1
