# generated using pymatgen
data_Ta2Nb10IrOs3
_symmetry_space_group_name_H-M   'P 1'
_cell_length_a   5.18584601
_cell_length_b   5.18728301
_cell_length_c   10.33917503
_cell_angle_alpha   90.00592498
_cell_angle_beta   90.00722048
_cell_angle_gamma   89.99877360
_symmetry_Int_Tables_number   1
_chemical_formula_structural   Ta2Nb10IrOs3
_chemical_formula_sum   'Ta2 Nb10 Ir1 Os3'
_cell_volume   278.12846648
_cell_formula_units_Z   1
loop_
 _symmetry_equiv_pos_site_id
 _symmetry_equiv_pos_as_xyz
  1  'x, y, z'
loop_
 _atom_site_type_symbol
 _atom_site_label
 _atom_site_symmetry_multiplicity
 _atom_site_fract_x
 _atom_site_fract_y
 _atom_site_fract_z
 _atom_site_occupancy
  Ta  Ta0  1  0.749803  0.500356  0.000453  1
  Ta  Ta1  1  0.999685  0.749589  0.248448  1
  Nb  Nb2  1  0.499999  0.999347  0.375355  1
  Nb  Nb3  1  0.500806  0.999989  0.874170  1
  Nb  Nb4  1  0.749157  0.500299  0.499727  1
  Nb  Nb5  1  0.999647  0.749672  0.751475  1
  Nb  Nb6  1  0.500768  0.999239  0.125830  1
  Nb  Nb7  1  0.500061  0.999883  0.624473  1
  Nb  Nb8  1  0.249543  0.500475  0.000461  1
  Nb  Nb9  1  0.251463  0.500407  0.499737  1
  Nb  Nb10  1  0.999581  0.250781  0.248652  1
  Nb  Nb11  1  0.999592  0.249968  0.751473  1
  Ir  Ir12  1  0.000096  0.999210  0.498869  1
  Os  Os13  1  0.500589  0.501457  0.249628  1
  Os  Os14  1  0.500581  0.499814  0.750571  1
  Os  Os15  1  0.998627  0.999514  0.000677  1
