# generated using pymatgen
data_Ca3La17(Ga3Sb)3
_symmetry_space_group_name_H-M   'P 1'
_cell_length_a   8.33484100
_cell_length_b   8.33484100
_cell_length_c   14.26166900
_cell_angle_alpha   90.00000000
_cell_angle_beta   90.00000000
_cell_angle_gamma   90.00000000
_symmetry_Int_Tables_number   1
_chemical_formula_structural   Ca3La17(Ga3Sb)3
_chemical_formula_sum   'Ca3 La17 Ga9 Sb3'
_cell_volume   990.75207702
_cell_formula_units_Z   1
loop_
 _symmetry_equiv_pos_site_id
 _symmetry_equiv_pos_as_xyz
  1  'x, y, z'
loop_
 _atom_site_type_symbol
 _atom_site_label
 _atom_site_symmetry_multiplicity
 _atom_site_fract_x
 _atom_site_fract_y
 _atom_site_fract_z
 _atom_site_occupancy
  Ca  Ca0  1  0.500000  0.500000  0.756534  1
  Ca  Ca1  1  0.000000  0.000000  0.756811  1
  Ca  Ca2  1  0.500000  0.500000  0.249361  1
  La  La3  1  0.666939  0.166742  0.102708  1
  La  La4  1  0.167386  0.667011  0.607339  1
  La  La5  1  0.333061  0.833258  0.102708  1
  La  La6  1  0.832614  0.332989  0.607339  1
  La  La7  1  0.833258  0.666939  0.102708  1
  La  La8  1  0.332989  0.167386  0.607339  1
  La  La9  1  0.166742  0.333061  0.102708  1
  La  La10  1  0.667011  0.832614  0.607339  1
  La  La11  1  0.836385  0.325960  0.899905  1
  La  La12  1  0.328203  0.834440  0.393647  1
  La  La13  1  0.163615  0.674040  0.899905  1
  La  La14  1  0.671797  0.165560  0.393647  1
  La  La15  1  0.674040  0.836385  0.899905  1
  La  La16  1  0.165560  0.328203  0.393647  1
  La  La17  1  0.325960  0.163615  0.899905  1
  La  La18  1  0.834440  0.671797  0.393647  1
  La  La19  1  0.000000  0.000000  0.212417  1
  Ga  Ga20  1  0.621649  0.122973  0.751931  1
  Ga  Ga21  1  0.123155  0.623509  0.250857  1
  Ga  Ga22  1  0.876845  0.376491  0.250857  1
  Ga  Ga23  1  0.378351  0.877027  0.751931  1
  Ga  Ga24  1  0.877027  0.621649  0.751931  1
  Ga  Ga25  1  0.376491  0.123155  0.250857  1
  Ga  Ga26  1  0.122973  0.378351  0.751931  1
  Ga  Ga27  1  0.623509  0.876845  0.250857  1
  Ga  Ga28  1  0.000000  0.000000  0.994059  1
  Sb  Sb29  1  0.500000  0.500000  0.500255  1
  Sb  Sb30  1  0.500000  0.500000  0.000261  1
  Sb  Sb31  1  0.000000  0.000000  0.504758  1
