# generated using pymatgen
data_Dy6Zn22CdGe
_symmetry_space_group_name_H-M   'P 1'
_cell_length_a   9.09354973
_cell_length_b   9.09354938
_cell_length_c   9.09355000
_cell_angle_alpha   59.99999776
_cell_angle_beta   59.99999902
_cell_angle_gamma   60.00000228
_symmetry_Int_Tables_number   1
_chemical_formula_structural   Dy6Zn22CdGe
_chemical_formula_sum   'Dy6 Zn22 Cd1 Ge1'
_cell_volume   531.72286235
_cell_formula_units_Z   1
loop_
 _symmetry_equiv_pos_site_id
 _symmetry_equiv_pos_as_xyz
  1  'x, y, z'
loop_
 _atom_site_type_symbol
 _atom_site_label
 _atom_site_symmetry_multiplicity
 _atom_site_fract_x
 _atom_site_fract_y
 _atom_site_fract_z
 _atom_site_occupancy
  Dy  Dy0  1  0.717716  0.282284  0.282284  1
  Dy  Dy1  1  0.717716  0.282284  0.717716  1
  Dy  Dy2  1  0.717716  0.717716  0.282284  1
  Dy  Dy3  1  0.282284  0.717716  0.717716  1
  Dy  Dy4  1  0.282284  0.717716  0.282284  1
  Dy  Dy5  1  0.282284  0.282284  0.717716  1
  Zn  Zn6  1  0.612025  0.129325  0.129325  1
  Zn  Zn7  1  0.129325  0.612025  0.129325  1
  Zn  Zn8  1  0.129325  0.129325  0.612025  1
  Zn  Zn9  1  0.129325  0.129325  0.129325  1
  Zn  Zn10  1  0.387975  0.870675  0.870675  1
  Zn  Zn11  1  0.870675  0.387975  0.870675  1
  Zn  Zn12  1  0.870675  0.870675  0.387975  1
  Zn  Zn13  1  0.870675  0.870675  0.870675  1
  Zn  Zn14  1  0.500000  0.000000  0.000000  1
  Zn  Zn15  1  0.500000  0.000000  0.500000  1
  Zn  Zn16  1  0.500000  0.500000  0.000000  1
  Zn  Zn17  1  0.000000  0.500000  0.500000  1
  Zn  Zn18  1  0.000000  0.500000  0.000000  1
  Zn  Zn19  1  0.000000  0.000000  0.500000  1
  Zn  Zn20  1  0.006430  0.331190  0.331190  1
  Zn  Zn21  1  0.331190  0.006430  0.331190  1
  Zn  Zn22  1  0.331190  0.331190  0.006430  1
  Zn  Zn23  1  0.331190  0.331190  0.331190  1
  Zn  Zn24  1  0.993570  0.668810  0.668810  1
  Zn  Zn25  1  0.668810  0.993570  0.668810  1
  Zn  Zn26  1  0.668810  0.668810  0.993570  1
  Zn  Zn27  1  0.668810  0.668810  0.668810  1
  Cd  Cd28  1  0.000000  0.000000  0.000000  1
  Ge  Ge29  1  0.500000  0.500000  0.500000  1
