# generated using pymatgen
data_Tb16Sc4Si11P
_symmetry_space_group_name_H-M   'P 1'
_cell_length_a   11.05651520
_cell_length_b   11.05651526
_cell_length_c   6.17155700
_cell_angle_alpha   89.67197754
_cell_angle_beta   89.67197754
_cell_angle_gamma   89.94902781
_symmetry_Int_Tables_number   1
_chemical_formula_structural   Tb16Sc4Si11P
_chemical_formula_sum   'Tb16 Sc4 Si11 P1'
_cell_volume   754.42641644
_cell_formula_units_Z   1
loop_
 _symmetry_equiv_pos_site_id
 _symmetry_equiv_pos_as_xyz
  1  'x, y, z'
loop_
 _atom_site_type_symbol
 _atom_site_label
 _atom_site_symmetry_multiplicity
 _atom_site_fract_x
 _atom_site_fract_y
 _atom_site_fract_z
 _atom_site_occupancy
  Tb  Tb0  1  0.285371  0.086096  0.348392  1
  Tb  Tb1  1  0.284496  0.913487  0.849188  1
  Tb  Tb2  1  0.715340  0.084981  0.847010  1
  Tb  Tb3  1  0.714794  0.912678  0.348037  1
  Tb  Tb4  1  0.584478  0.783343  0.848238  1
  Tb  Tb5  1  0.585805  0.214606  0.347010  1
  Tb  Tb6  1  0.411444  0.784273  0.356993  1
  Tb  Tb7  1  0.414466  0.215132  0.847399  1
  Tb  Tb8  1  0.216657  0.415522  0.651762  1
  Tb  Tb9  1  0.215727  0.588556  0.143007  1
  Tb  Tb10  1  0.785394  0.414195  0.152990  1
  Tb  Tb11  1  0.784868  0.585534  0.652601  1
  Tb  Tb12  1  0.913904  0.714629  0.151608  1
  Tb  Tb13  1  0.915019  0.284660  0.652990  1
  Tb  Tb14  1  0.086513  0.715504  0.650812  1
  Tb  Tb15  1  0.087322  0.285206  0.151963  1
  Sc  Sc16  1  0.000743  0.998989  0.499402  1
  Sc  Sc17  1  0.001011  0.999257  0.000598  1
  Sc  Sc18  1  0.498943  0.502657  0.998302  1
  Sc  Sc19  1  0.497343  0.501057  0.501698  1
  Si  Si20  1  0.847693  0.152307  0.250000  1
  Si  Si21  1  0.846907  0.847097  0.751085  1
  Si  Si22  1  0.152903  0.153093  0.748915  1
  Si  Si23  1  0.153746  0.846254  0.250000  1
  Si  Si24  1  0.651979  0.348021  0.750000  1
  Si  Si25  1  0.650489  0.652228  0.252008  1
  Si  Si26  1  0.347772  0.349511  0.247992  1
  Si  Si27  1  0.499461  0.997858  0.089689  1
  Si  Si28  1  0.499739  0.998881  0.592128  1
  Si  Si29  1  0.001119  0.500261  0.907872  1
  Si  Si30  1  0.002142  0.500539  0.410311  1
  P  P31  1  0.346413  0.653587  0.750000  1
