# generated using pymatgen
data_CuNiBi3Ru3O14
_symmetry_space_group_name_H-M   'P 1'
_cell_length_a   7.15248965
_cell_length_b   7.15248931
_cell_length_c   7.15249103
_cell_angle_alpha   61.75240570
_cell_angle_beta   61.75241752
_cell_angle_gamma   61.75242540
_symmetry_Int_Tables_number   1
_chemical_formula_structural   CuNiBi3Ru3O14
_chemical_formula_sum   'Cu1 Ni1 Bi3 Ru3 O14'
_cell_volume   268.89576943
_cell_formula_units_Z   1
loop_
 _symmetry_equiv_pos_site_id
 _symmetry_equiv_pos_as_xyz
  1  'x, y, z'
loop_
 _atom_site_type_symbol
 _atom_site_label
 _atom_site_symmetry_multiplicity
 _atom_site_fract_x
 _atom_site_fract_y
 _atom_site_fract_z
 _atom_site_occupancy
  Cu  Cu0  1  0.500000  0.500000  0.500000  1
  Ni  Ni1  1  0.000000  0.000000  0.000000  1
  Bi  Bi2  1  0.000000  0.500000  0.500000  1
  Bi  Bi3  1  0.500000  0.500000  0.000000  1
  Bi  Bi4  1  0.500000  0.000000  0.500000  1
  Ru  Ru5  1  0.500000  0.000000  0.000000  1
  Ru  Ru6  1  0.000000  0.000000  0.500000  1
  Ru  Ru7  1  0.000000  0.500000  0.000000  1
  O  O8  1  0.927254  0.317113  0.317113  1
  O  O9  1  0.346972  0.908468  0.908468  1
  O  O10  1  0.317113  0.317113  0.927254  1
  O  O11  1  0.908468  0.908468  0.346972  1
  O  O12  1  0.908468  0.346972  0.908468  1
  O  O13  1  0.317113  0.927254  0.317113  1
  O  O14  1  0.072746  0.682887  0.682887  1
  O  O15  1  0.653028  0.091532  0.091532  1
  O  O16  1  0.682887  0.682887  0.072746  1
  O  O17  1  0.091532  0.091532  0.653028  1
  O  O18  1  0.091532  0.653028  0.091532  1
  O  O19  1  0.682887  0.072746  0.682887  1
  O  O20  1  0.392019  0.392019  0.392019  1
  O  O21  1  0.607981  0.607981  0.607981  1
