# generated using pymatgen
data_Dy11Y9(Bi2Pt)4
_symmetry_space_group_name_H-M   'P 1'
_cell_length_a   8.08951401
_cell_length_b   9.03334700
_cell_length_c   12.47745101
_cell_angle_alpha   90.00000000
_cell_angle_beta   90.00541026
_cell_angle_gamma   90.00000000
_symmetry_Int_Tables_number   1
_chemical_formula_structural   Dy11Y9(Bi2Pt)4
_chemical_formula_sum   'Dy11 Y9 Bi8 Pt4'
_cell_volume   911.79455886
_cell_formula_units_Z   1
loop_
 _symmetry_equiv_pos_site_id
 _symmetry_equiv_pos_as_xyz
  1  'x, y, z'
loop_
 _atom_site_type_symbol
 _atom_site_label
 _atom_site_symmetry_multiplicity
 _atom_site_fract_x
 _atom_site_fract_y
 _atom_site_fract_z
 _atom_site_occupancy
  Dy  Dy0  1  0.049984  0.250000  0.500046  1
  Dy  Dy1  1  0.449999  0.250000  0.000016  1
  Dy  Dy2  1  0.549992  0.750000  0.999995  1
  Dy  Dy3  1  0.678987  0.045660  0.566666  1
  Dy  Dy4  1  0.321063  0.954354  0.433308  1
  Dy  Dy5  1  0.179082  0.954334  0.933332  1
  Dy  Dy6  1  0.321063  0.545646  0.433308  1
  Dy  Dy7  1  0.820946  0.045682  0.066669  1
  Dy  Dy8  1  0.678987  0.454340  0.566666  1
  Dy  Dy9  1  0.820946  0.454318  0.066669  1
  Dy  Dy10  1  0.179082  0.545666  0.933332  1
  Y  Y11  1  0.838301  0.750000  0.789911  1
  Y  Y12  1  0.161712  0.250000  0.210162  1
  Y  Y13  1  0.338346  0.250000  0.710132  1
  Y  Y14  1  0.661571  0.750000  0.289862  1
  Y  Y15  1  0.370956  0.750000  0.697761  1
  Y  Y16  1  0.629071  0.250000  0.302167  1
  Y  Y17  1  0.870858  0.250000  0.802164  1
  Y  Y18  1  0.129071  0.750000  0.197836  1
  Y  Y19  1  0.950773  0.750000  0.500008  1
  Bi  Bi20  1  0.568752  0.491069  0.827379  1
  Bi  Bi21  1  0.431261  0.508903  0.172626  1
  Bi  Bi22  1  0.068731  0.508902  0.672711  1
  Bi  Bi23  1  0.431261  0.991097  0.172626  1
  Bi  Bi24  1  0.931236  0.491034  0.327314  1
  Bi  Bi25  1  0.568752  0.008931  0.827379  1
  Bi  Bi26  1  0.931236  0.008966  0.327314  1
  Bi  Bi27  1  0.068731  0.991098  0.672711  1
  Pt  Pt28  1  0.574647  0.750000  0.511472  1
  Pt  Pt29  1  0.424563  0.250000  0.488462  1
  Pt  Pt30  1  0.075478  0.250000  0.988436  1
  Pt  Pt31  1  0.924560  0.750000  0.011560  1
