# generated using pymatgen
data_Tb2YbDy(B4Os)4
_symmetry_space_group_name_H-M   'P 1'
_cell_length_a   5.98089455
_cell_length_b   11.55817427
_cell_length_c   3.56431200
_cell_angle_alpha   90.00000000
_cell_angle_beta   90.00000000
_cell_angle_gamma   89.98875862
_symmetry_Int_Tables_number   1
_chemical_formula_structural   Tb2YbDy(B4Os)4
_chemical_formula_sum   'Tb2 Yb1 Dy1 B16 Os4'
_cell_volume   246.39454482
_cell_formula_units_Z   1
loop_
 _symmetry_equiv_pos_site_id
 _symmetry_equiv_pos_as_xyz
  1  'x, y, z'
loop_
 _atom_site_type_symbol
 _atom_site_label
 _atom_site_symmetry_multiplicity
 _atom_site_fract_x
 _atom_site_fract_y
 _atom_site_fract_z
 _atom_site_occupancy
  Tb  Tb0  1  0.127771  0.150257  0.000000  1
  Tb  Tb1  1  0.871684  0.848529  0.000000  1
  Yb  Yb2  1  0.370562  0.649015  0.000000  1
  Dy  Dy3  1  0.627708  0.351080  0.000000  1
  B  B4  1  0.788102  0.186248  0.500000  1
  B  B5  1  0.213026  0.813557  0.500000  1
  B  B6  1  0.288815  0.315393  0.500000  1
  B  B7  1  0.711119  0.684648  0.500000  1
  B  B8  1  0.862939  0.030385  0.500000  1
  B  B9  1  0.136927  0.969837  0.500000  1
  B  B10  1  0.363465  0.470365  0.500000  1
  B  B11  1  0.636152  0.530306  0.500000  1
  B  B12  1  0.887912  0.454172  0.500000  1
  B  B13  1  0.114148  0.547071  0.500000  1
  B  B14  1  0.387757  0.046848  0.500000  1
  B  B15  1  0.611512  0.952999  0.500000  1
  B  B16  1  0.974406  0.309415  0.500000  1
  B  B17  1  0.025528  0.690391  0.500000  1
  B  B18  1  0.475445  0.191715  0.500000  1
  B  B19  1  0.525059  0.808167  0.500000  1
  Os  Os20  1  0.640478  0.093144  0.000000  1
  Os  Os21  1  0.359001  0.907715  0.000000  1
  Os  Os22  1  0.140625  0.407264  0.000000  1
  Os  Os23  1  0.859858  0.591479  0.000000  1
