# generated using pymatgen
data_Y2Er2FeTc7
_symmetry_space_group_name_H-M   'P 1'
_cell_length_a   5.40490644
_cell_length_b   5.40490605
_cell_length_c   8.81338267
_cell_angle_alpha   90.03899056
_cell_angle_beta   89.96101069
_cell_angle_gamma   121.66342117
_symmetry_Int_Tables_number   1
_chemical_formula_structural   Y2Er2FeTc7
_chemical_formula_sum   'Y2 Er2 Fe1 Tc7'
_cell_volume   219.14072616
_cell_formula_units_Z   1
loop_
 _symmetry_equiv_pos_site_id
 _symmetry_equiv_pos_as_xyz
  1  'x, y, z'
loop_
 _atom_site_type_symbol
 _atom_site_label
 _atom_site_symmetry_multiplicity
 _atom_site_fract_x
 _atom_site_fract_y
 _atom_site_fract_z
 _atom_site_occupancy
  Y  Y0  1  0.334609  0.665391  0.436021  1
  Y  Y1  1  0.666474  0.333526  0.562021  1
  Er  Er2  1  0.666327  0.333673  0.938641  1
  Er  Er3  1  0.334773  0.665227  0.062873  1
  Fe  Fe4  1  0.828122  0.171878  0.248732  1
  Tc  Tc5  1  0.002715  0.997285  0.492067  1
  Tc  Tc6  1  0.002640  0.997360  0.008080  1
  Tc  Tc7  1  0.823742  0.658203  0.248571  1
  Tc  Tc8  1  0.341797  0.176258  0.248571  1
  Tc  Tc9  1  0.169325  0.830675  0.751533  1
  Tc  Tc10  1  0.169981  0.340504  0.751445  1
  Tc  Tc11  1  0.659496  0.830019  0.751445  1
