# generated using pymatgen
data_TbDy3Sc4(CrB6)4
_symmetry_space_group_name_H-M   'P 1'
_cell_length_a   3.46987600
_cell_length_b   9.01365501
_cell_length_c   11.37427701
_cell_angle_alpha   89.99511599
_cell_angle_beta   90.00000000
_cell_angle_gamma   90.00000000
_symmetry_Int_Tables_number   1
_chemical_formula_structural   TbDy3Sc4(CrB6)4
_chemical_formula_sum   'Tb1 Dy3 Sc4 Cr4 B24'
_cell_volume   355.74490277
_cell_formula_units_Z   1
loop_
 _symmetry_equiv_pos_site_id
 _symmetry_equiv_pos_as_xyz
  1  'x, y, z'
loop_
 _atom_site_type_symbol
 _atom_site_label
 _atom_site_symmetry_multiplicity
 _atom_site_fract_x
 _atom_site_fract_y
 _atom_site_fract_z
 _atom_site_occupancy
  Tb  Tb0  1  0.000000  0.822847  0.085299  1
  Dy  Dy1  1  0.000000  0.177114  0.914707  1
  Dy  Dy2  1  0.000000  0.322713  0.414528  1
  Dy  Dy3  1  0.000000  0.677349  0.585400  1
  Sc  Sc4  1  0.000000  0.443092  0.130839  1
  Sc  Sc5  1  0.000000  0.556880  0.869194  1
  Sc  Sc6  1  0.000000  0.943396  0.369204  1
  Sc  Sc7  1  0.000000  0.056515  0.630812  1
  Cr  Cr8  1  0.000000  0.141760  0.182057  1
  Cr  Cr9  1  0.000000  0.858348  0.817867  1
  Cr  Cr10  1  0.000000  0.641607  0.318047  1
  Cr  Cr11  1  0.000000  0.358393  0.682021  1
  B  B12  1  0.500000  0.055093  0.067845  1
  B  B13  1  0.500000  0.945226  0.931978  1
  B  B14  1  0.500000  0.554807  0.432251  1
  B  B15  1  0.500000  0.445224  0.567729  1
  B  B16  1  0.500000  0.253204  0.082690  1
  B  B17  1  0.500000  0.746754  0.917066  1
  B  B18  1  0.500000  0.753243  0.417393  1
  B  B19  1  0.500000  0.246661  0.582604  1
  B  B20  1  0.500000  0.294602  0.235524  1
  B  B21  1  0.500000  0.705343  0.764436  1
  B  B22  1  0.500000  0.794620  0.264642  1
  B  B23  1  0.500000  0.205211  0.735567  1
  B  B24  1  0.500000  0.129620  0.316542  1
  B  B25  1  0.500000  0.870415  0.683450  1
  B  B26  1  0.500000  0.629420  0.183526  1
  B  B27  1  0.500000  0.370431  0.816682  1
  B  B28  1  0.500000  0.482579  0.286474  1
  B  B29  1  0.500000  0.517487  0.713571  1
  B  B30  1  0.500000  0.982873  0.213653  1
  B  B31  1  0.500000  0.017361  0.786445  1
  B  B32  1  0.500000  0.096075  0.473963  1
  B  B33  1  0.500000  0.903946  0.526093  1
  B  B34  1  0.500000  0.595831  0.026011  1
  B  B35  1  0.500000  0.403955  0.973889  1
