# generated using pymatgen
data_Dy4Tm6Sn5Bi3
_symmetry_space_group_name_H-M   'P 1'
_cell_length_a   8.12038600
_cell_length_b   8.12729765
_cell_length_c   15.37951529
_cell_angle_alpha   90.23152975
_cell_angle_beta   90.00000000
_cell_angle_gamma   90.00000000
_symmetry_Int_Tables_number   1
_chemical_formula_structural   Dy4Tm6Sn5Bi3
_chemical_formula_sum   'Dy8 Tm12 Sn10 Bi6'
_cell_volume   1014.99041530
_cell_formula_units_Z   2
loop_
 _symmetry_equiv_pos_site_id
 _symmetry_equiv_pos_as_xyz
  1  'x, y, z'
loop_
 _atom_site_type_symbol
 _atom_site_label
 _atom_site_symmetry_multiplicity
 _atom_site_fract_x
 _atom_site_fract_y
 _atom_site_fract_z
 _atom_site_occupancy
  Dy  Dy0  1  0.540144  0.329477  0.896600  1
  Dy  Dy1  1  0.040144  0.170523  0.603400  1
  Dy  Dy2  1  0.463974  0.680640  0.395138  1
  Dy  Dy3  1  0.963974  0.819360  0.104862  1
  Dy  Dy4  1  0.473056  0.670416  0.103519  1
  Dy  Dy5  1  0.973056  0.829584  0.396481  1
  Dy  Dy6  1  0.530417  0.320343  0.603112  1
  Dy  Dy7  1  0.030417  0.179657  0.896888  1
  Tm  Tm8  1  0.369205  0.841214  0.873329  1
  Tm  Tm9  1  0.869205  0.658786  0.626671  1
  Tm  Tm10  1  0.625346  0.159003  0.373535  1
  Tm  Tm11  1  0.125346  0.340997  0.126465  1
  Tm  Tm12  1  0.632617  0.164507  0.125768  1
  Tm  Tm13  1  0.132617  0.335493  0.374232  1
  Tm  Tm14  1  0.366397  0.844269  0.625520  1
  Tm  Tm15  1  0.866397  0.655731  0.874480  1
  Tm  Tm16  1  0.200016  0.500988  0.749838  1
  Tm  Tm17  1  0.700016  0.999012  0.750162  1
  Tm  Tm18  1  0.800162  0.498894  0.247129  1
  Tm  Tm19  1  0.300162  0.001106  0.252871  1
  Sn  Sn20  1  0.287361  0.034382  0.457864  1
  Sn  Sn21  1  0.787361  0.465618  0.042136  1
  Sn  Sn22  1  0.563031  0.624292  0.748649  1
  Sn  Sn23  1  0.063031  0.875708  0.751351  1
  Sn  Sn24  1  0.434229  0.377009  0.249683  1
  Sn  Sn25  1  0.934229  0.122991  0.250317  1
  Sn  Sn26  1  0.340250  0.150448  0.751606  1
  Sn  Sn27  1  0.840250  0.349552  0.748394  1
  Sn  Sn28  1  0.661776  0.852061  0.249691  1
  Sn  Sn29  1  0.161776  0.647939  0.250309  1
  Bi  Bi30  1  0.283258  0.032147  0.043105  1
  Bi  Bi31  1  0.783258  0.467853  0.456895  1
  Bi  Bi32  1  0.714024  0.965621  0.541788  1
  Bi  Bi33  1  0.214024  0.534379  0.958212  1
  Bi  Bi34  1  0.714737  0.966381  0.957718  1
  Bi  Bi35  1  0.214737  0.533619  0.542282  1
