# generated using pymatgen
data_Tm3ScZn2Ir3
_symmetry_space_group_name_H-M   'P 1'
_cell_length_a   7.12698100
_cell_length_b   7.14091911
_cell_length_c   3.99724800
_cell_angle_alpha   90.00000000
_cell_angle_beta   90.00000000
_cell_angle_gamma   119.93544916
_symmetry_Int_Tables_number   1
_chemical_formula_structural   Tm3ScZn2Ir3
_chemical_formula_sum   'Tm3 Sc1 Zn2 Ir3'
_cell_volume   176.29238891
_cell_formula_units_Z   1
loop_
 _symmetry_equiv_pos_site_id
 _symmetry_equiv_pos_as_xyz
  1  'x, y, z'
loop_
 _atom_site_type_symbol
 _atom_site_label
 _atom_site_symmetry_multiplicity
 _atom_site_fract_x
 _atom_site_fract_y
 _atom_site_fract_z
 _atom_site_occupancy
  Tm  Tm0  1  0.390380  0.000000  0.499999  1
  Tm  Tm1  1  0.012311  0.428878  0.499999  1
  Tm  Tm2  1  0.583431  0.571121  0.499999  1
  Sc  Sc3  1  0.760070  0.000000  0.000000  1
  Zn  Zn4  1  0.247749  0.251416  0.000000  1
  Zn  Zn5  1  0.996332  0.748584  0.000000  1
  Ir  Ir6  1  0.668980  0.327002  0.000000  1
  Ir  Ir7  1  0.341978  0.672998  0.000000  1
  Ir  Ir8  1  0.998768  0.000000  0.499999  1
