# generated using pymatgen
data_Lu3Zn3RhAu2
_symmetry_space_group_name_H-M   'P 1'
_cell_length_a   7.38303900
_cell_length_b   7.38304056
_cell_length_c   3.73535400
_cell_angle_alpha   90.00000000
_cell_angle_beta   90.00000000
_cell_angle_gamma   119.99998732
_symmetry_Int_Tables_number   1
_chemical_formula_structural   Lu3Zn3RhAu2
_chemical_formula_sum   'Lu3 Zn3 Rh1 Au2'
_cell_volume   176.33270522
_cell_formula_units_Z   1
loop_
 _symmetry_equiv_pos_site_id
 _symmetry_equiv_pos_as_xyz
  1  'x, y, z'
loop_
 _atom_site_type_symbol
 _atom_site_label
 _atom_site_symmetry_multiplicity
 _atom_site_fract_x
 _atom_site_fract_y
 _atom_site_fract_z
 _atom_site_occupancy
  Lu  Lu0  1  0.608053  0.590224  0.000000  1
  Lu  Lu1  1  0.409776  0.017828  0.000000  1
  Lu  Lu2  1  0.982172  0.391947  0.000000  1
  Zn  Zn3  1  0.270916  0.265546  0.500000  1
  Zn  Zn4  1  0.734454  0.005370  0.500000  1
  Zn  Zn5  1  0.994630  0.729084  0.500000  1
  Rh  Rh6  1  0.666667  0.333333  0.500000  1
  Au  Au7  1  0.000000  0.000000  0.000000  1
  Au  Au8  1  0.333333  0.666667  0.500000  1
