# generated using pymatgen
data_CaYb5DyHoSb6
_symmetry_space_group_name_H-M   'P 1'
_cell_length_a   8.18961645
_cell_length_b   8.02505103
_cell_length_c   8.18425226
_cell_angle_alpha   70.93618675
_cell_angle_beta   70.12281993
_cell_angle_gamma   109.08510362
_symmetry_Int_Tables_number   1
_chemical_formula_structural   CaYb5DyHoSb6
_chemical_formula_sum   'Ca1 Yb5 Dy1 Ho1 Sb6'
_cell_volume   416.01317403
_cell_formula_units_Z   1
loop_
 _symmetry_equiv_pos_site_id
 _symmetry_equiv_pos_as_xyz
  1  'x, y, z'
loop_
 _atom_site_type_symbol
 _atom_site_label
 _atom_site_symmetry_multiplicity
 _atom_site_fract_x
 _atom_site_fract_y
 _atom_site_fract_z
 _atom_site_occupancy
  Ca  Ca0  1  0.852074  0.998795  0.001361  1
  Yb  Yb1  1  0.501240  0.498949  0.146284  1
  Yb  Yb2  1  0.645506  0.146219  0.353401  1
  Yb  Yb3  1  0.357890  0.001339  0.995814  1
  Yb  Yb4  1  0.495654  0.496825  0.647042  1
  Yb  Yb5  1  0.146842  0.643986  0.857548  1
  Dy  Dy6  1  0.000107  0.857113  0.499851  1
  Ho  Ho7  1  0.000646  0.358931  0.498780  1
  Sb  Sb8  1  0.634170  0.879195  0.742211  1
  Sb  Sb9  1  0.877177  0.623287  0.257756  1
  Sb  Sb10  1  0.242429  0.122416  0.622957  1
  Sb  Sb11  1  0.758131  0.381565  0.864507  1
  Sb  Sb12  1  0.364812  0.745973  0.377799  1
  Sb  Sb13  1  0.123323  0.245406  0.134687  1
