# generated using pymatgen
data_Tb2Ti3P7IrRh8
_symmetry_space_group_name_H-M   'P 1'
_cell_length_a   3.84144100
_cell_length_b   9.67222719
_cell_length_c   9.68262506
_cell_angle_alpha   119.93074104
_cell_angle_beta   89.99851528
_cell_angle_gamma   90.00061187
_symmetry_Int_Tables_number   1
_chemical_formula_structural   Tb2Ti3P7IrRh8
_chemical_formula_sum   'Tb2 Ti3 P7 Ir1 Rh8'
_cell_volume   311.77915359
_cell_formula_units_Z   1
loop_
 _symmetry_equiv_pos_site_id
 _symmetry_equiv_pos_as_xyz
  1  'x, y, z'
loop_
 _atom_site_type_symbol
 _atom_site_label
 _atom_site_symmetry_multiplicity
 _atom_site_fract_x
 _atom_site_fract_y
 _atom_site_fract_z
 _atom_site_occupancy
  Tb  Tb0  1  0.261690  0.666608  0.333414  1
  Tb  Tb1  1  0.761764  0.333582  0.666872  1
  Ti  Ti2  1  0.762085  0.100266  0.878880  1
  Ti  Ti3  1  0.762089  0.121131  0.221280  1
  Ti  Ti4  1  0.762082  0.778678  0.900099  1
  P  P5  1  0.262524  0.000178  0.999400  1
  P  P6  1  0.761804  0.876505  0.589221  1
  P  P7  1  0.761814  0.410718  0.287556  1
  P  P8  1  0.761766  0.712357  0.123931  1
  P  P9  1  0.261858  0.116636  0.416880  1
  P  P10  1  0.261867  0.583294  0.698804  1
  P  P11  1  0.261848  0.300470  0.884008  1
  Ir  Ir12  1  0.261776  0.883996  0.159360  1
  Rh  Rh13  1  0.261899  0.840477  0.724603  1
  Rh  Rh14  1  0.261853  0.275361  0.115812  1
  Rh  Rh15  1  0.761920  0.610014  0.558460  1
  Rh  Rh16  1  0.761870  0.441952  0.052024  1
  Rh  Rh17  1  0.761819  0.948352  0.390584  1
  Rh  Rh18  1  0.261951  0.365218  0.436316  1
  Rh  Rh19  1  0.261911  0.562926  0.927677  1
  Rh  Rh20  1  0.261809  0.071280  0.634822  1
