# generated using pymatgen
data_NaTh(Si7Rh3)2
_symmetry_space_group_name_H-M   'P 1'
_cell_length_a   8.02883220
_cell_length_b   8.02883190
_cell_length_c   8.02883261
_cell_angle_alpha   57.07095281
_cell_angle_beta   57.07094322
_cell_angle_gamma   57.07094926
_symmetry_Int_Tables_number   1
_chemical_formula_structural   NaTh(Si7Rh3)2
_chemical_formula_sum   'Na1 Th1 Si14 Rh6'
_cell_volume   341.25949252
_cell_formula_units_Z   1
loop_
 _symmetry_equiv_pos_site_id
 _symmetry_equiv_pos_as_xyz
  1  'x, y, z'
loop_
 _atom_site_type_symbol
 _atom_site_label
 _atom_site_symmetry_multiplicity
 _atom_site_fract_x
 _atom_site_fract_y
 _atom_site_fract_z
 _atom_site_occupancy
  Na  Na0  1  0.000000  0.000000  0.000000  1
  Th  Th1  1  0.500000  0.500000  0.500000  1
  Si  Si2  1  0.749638  0.749638  0.749638  1
  Si  Si3  1  0.250362  0.250362  0.250362  1
  Si  Si4  1  0.855253  0.062721  0.676002  1
  Si  Si5  1  0.676002  0.855253  0.062721  1
  Si  Si6  1  0.062721  0.676002  0.855253  1
  Si  Si7  1  0.653113  0.830150  0.431566  1
  Si  Si8  1  0.431566  0.653113  0.830150  1
  Si  Si9  1  0.830150  0.431566  0.653113  1
  Si  Si10  1  0.169850  0.568434  0.346887  1
  Si  Si11  1  0.568434  0.346887  0.169850  1
  Si  Si12  1  0.346887  0.169850  0.568434  1
  Si  Si13  1  0.937279  0.323998  0.144747  1
  Si  Si14  1  0.323998  0.144747  0.937279  1
  Si  Si15  1  0.144747  0.937279  0.323998  1
  Rh  Rh16  1  0.071990  0.433692  0.747858  1
  Rh  Rh17  1  0.252142  0.928010  0.566308  1
  Rh  Rh18  1  0.566308  0.252142  0.928010  1
  Rh  Rh19  1  0.928010  0.566308  0.252142  1
  Rh  Rh20  1  0.433692  0.747858  0.071990  1
  Rh  Rh21  1  0.747858  0.071990  0.433692  1
