# generated using pymatgen
data_NdLuFe5Co3B8
_symmetry_space_group_name_H-M   'P 1'
_cell_length_a   6.96558066
_cell_length_b   6.97936449
_cell_length_c   3.81817794
_cell_angle_alpha   90.06947903
_cell_angle_beta   89.95898330
_cell_angle_gamma   89.89007969
_symmetry_Int_Tables_number   1
_chemical_formula_structural   NdLuFe5Co3B8
_chemical_formula_sum   'Nd1 Lu1 Fe5 Co3 B8'
_cell_volume   185.62144081
_cell_formula_units_Z   1
loop_
 _symmetry_equiv_pos_site_id
 _symmetry_equiv_pos_as_xyz
  1  'x, y, z'
loop_
 _atom_site_type_symbol
 _atom_site_label
 _atom_site_symmetry_multiplicity
 _atom_site_fract_x
 _atom_site_fract_y
 _atom_site_fract_z
 _atom_site_occupancy
  Nd  Nd0  1  0.501571  0.501176  0.500769  1
  Lu  Lu1  1  0.000051  0.998828  0.000861  1
  Fe  Fe2  1  0.113810  0.635136  0.390513  1
  Fe  Fe3  1  0.365516  0.113976  0.607316  1
  Fe  Fe4  1  0.635423  0.887124  0.607467  1
  Fe  Fe5  1  0.617048  0.130807  0.107757  1
  Fe  Fe6  1  0.383276  0.870402  0.106913  1
  Co  Co7  1  0.132278  0.380888  0.890812  1
  Co  Co8  1  0.865080  0.616016  0.890893  1
  Co  Co9  1  0.886235  0.358690  0.390745  1
  B  B10  1  0.667557  0.807316  0.105564  1
  B  B11  1  0.331072  0.190687  0.105612  1
  B  B12  1  0.292646  0.836808  0.605939  1
  B  B13  1  0.703437  0.162192  0.608346  1
  B  B14  1  0.841907  0.714008  0.394747  1
  B  B15  1  0.164144  0.295351  0.393704  1
  B  B16  1  0.195847  0.668972  0.895020  1
  B  B17  1  0.803103  0.331621  0.897021  1
