# generated using pymatgen
data_U3Al12CoSi2
_symmetry_space_group_name_H-M   'P 1'
_cell_length_a   9.37317800
_cell_length_b   9.37317691
_cell_length_c   4.04721600
_cell_angle_alpha   90.00000000
_cell_angle_beta   90.00000000
_cell_angle_gamma   120.00000386
_symmetry_Int_Tables_number   1
_chemical_formula_structural   U3Al12CoSi2
_chemical_formula_sum   'U3 Al12 Co1 Si2'
_cell_volume   307.93615060
_cell_formula_units_Z   1
loop_
 _symmetry_equiv_pos_site_id
 _symmetry_equiv_pos_as_xyz
  1  'x, y, z'
loop_
 _atom_site_type_symbol
 _atom_site_label
 _atom_site_symmetry_multiplicity
 _atom_site_fract_x
 _atom_site_fract_y
 _atom_site_fract_z
 _atom_site_occupancy
  U  U0  1  0.000000  0.408070  0.000000  1
  U  U1  1  0.591930  0.591930  0.000000  1
  U  U2  1  0.408070  0.000000  0.000000  1
  Al  Al3  1  0.000000  0.749279  0.000000  1
  Al  Al4  1  0.250721  0.250721  0.000000  1
  Al  Al5  1  0.749279  0.000000  0.000000  1
  Al  Al6  1  0.000000  0.166716  0.500000  1
  Al  Al7  1  0.833284  0.833284  0.500000  1
  Al  Al8  1  0.166716  0.000000  0.500000  1
  Al  Al9  1  0.293217  0.469988  0.500000  1
  Al  Al10  1  0.176771  0.706783  0.500000  1
  Al  Al11  1  0.530012  0.823229  0.500000  1
  Al  Al12  1  0.823229  0.530012  0.500000  1
  Al  Al13  1  0.706783  0.176771  0.500000  1
  Al  Al14  1  0.469988  0.293217  0.500000  1
  Co  Co15  1  0.000000  0.000000  0.000000  1
  Si  Si16  1  0.666667  0.333333  0.000000  1
  Si  Si17  1  0.333333  0.666667  0.000000  1
