# generated using pymatgen
data_EuY3MgCo19P12
_symmetry_space_group_name_H-M   'P 1'
_cell_length_a   3.67377800
_cell_length_b   10.33834490
_cell_length_c   11.86597528
_cell_angle_alpha   90.21222593
_cell_angle_beta   90.00000000
_cell_angle_gamma   90.00000000
_symmetry_Int_Tables_number   1
_chemical_formula_structural   EuY3MgCo19P12
_chemical_formula_sum   'Eu1 Y3 Mg1 Co19 P12'
_cell_volume   450.67595303
_cell_formula_units_Z   1
loop_
 _symmetry_equiv_pos_site_id
 _symmetry_equiv_pos_as_xyz
  1  'x, y, z'
loop_
 _atom_site_type_symbol
 _atom_site_label
 _atom_site_symmetry_multiplicity
 _atom_site_fract_x
 _atom_site_fract_y
 _atom_site_fract_z
 _atom_site_occupancy
  Eu  Eu0  1  0.250000  0.917260  0.202331  1
  Y  Y1  1  0.750000  0.081439  0.799897  1
  Y  Y2  1  0.750000  0.421186  0.295864  1
  Y  Y3  1  0.250000  0.582609  0.705762  1
  Mg  Mg4  1  0.750000  0.204147  0.510307  1
  Co  Co5  1  0.250000  0.790080  0.489415  1
  Co  Co6  1  0.750000  0.285301  0.006105  1
  Co  Co7  1  0.250000  0.713674  0.991791  1
  Co  Co8  1  0.250000  0.094546  0.985047  1
  Co  Co9  1  0.750000  0.906063  0.007977  1
  Co  Co10  1  0.750000  0.597593  0.513973  1
  Co  Co11  1  0.250000  0.410586  0.488010  1
  Co  Co12  1  0.250000  0.278829  0.678737  1
  Co  Co13  1  0.750000  0.719961  0.325458  1
  Co  Co14  1  0.750000  0.776288  0.824567  1
  Co  Co15  1  0.250000  0.222126  0.169035  1
  Co  Co16  1  0.250000  0.616933  0.199101  1
  Co  Co17  1  0.750000  0.384543  0.803334  1
  Co  Co18  1  0.750000  0.120644  0.298804  1
  Co  Co19  1  0.250000  0.878373  0.700216  1
  Co  Co20  1  0.250000  0.033665  0.434332  1
  Co  Co21  1  0.750000  0.961773  0.568496  1
  Co  Co22  1  0.750000  0.532879  0.068101  1
  Co  Co23  1  0.250000  0.467680  0.933669  1
  P  P24  1  0.250000  0.073681  0.619527  1
  P  P25  1  0.750000  0.919712  0.387999  1
  P  P26  1  0.750000  0.580466  0.889554  1
  P  P27  1  0.250000  0.420434  0.111644  1
  P  P28  1  0.250000  0.229155  0.356114  1
  P  P29  1  0.750000  0.767922  0.633441  1
  P  P30  1  0.750000  0.728489  0.131006  1
  P  P31  1  0.250000  0.272351  0.868825  1
  P  P32  1  0.250000  0.895831  0.892625  1
  P  P33  1  0.750000  0.102316  0.103435  1
  P  P34  1  0.750000  0.406734  0.612703  1
  P  P35  1  0.250000  0.604727  0.392798  1
