# generated using pymatgen
data_Zn20CoPd2Au3
_symmetry_space_group_name_H-M   'P 1'
_cell_length_a   7.97019337
_cell_length_b   7.97019308
_cell_length_c   7.94019235
_cell_angle_alpha   70.79111045
_cell_angle_beta   70.79111263
_cell_angle_gamma   109.47657470
_symmetry_Int_Tables_number   1
_chemical_formula_structural   Zn20CoPd2Au3
_chemical_formula_sum   'Zn20 Co1 Pd2 Au3'
_cell_volume   390.74816100
_cell_formula_units_Z   1
loop_
 _symmetry_equiv_pos_site_id
 _symmetry_equiv_pos_as_xyz
  1  'x, y, z'
loop_
 _atom_site_type_symbol
 _atom_site_label
 _atom_site_symmetry_multiplicity
 _atom_site_fract_x
 _atom_site_fract_y
 _atom_site_fract_z
 _atom_site_occupancy
  Zn  Zn0  1  0.008492  0.008492  0.782490  1
  Zn  Zn1  1  0.783468  0.783468  0.211986  1
  Zn  Zn2  1  0.220541  0.008311  0.985067  1
  Zn  Zn3  1  0.008311  0.220541  0.985067  1
  Zn  Zn4  1  0.276870  0.276870  0.386903  1
  Zn  Zn5  1  0.000168  0.716533  0.657580  1
  Zn  Zn6  1  0.716533  0.000168  0.657580  1
  Zn  Zn7  1  0.637820  0.637820  0.618623  1
  Zn  Zn8  1  0.388484  0.639928  0.364058  1
  Zn  Zn9  1  0.639928  0.388484  0.364058  1
  Zn  Zn10  1  0.346644  0.726343  0.001075  1
  Zn  Zn11  1  0.607314  0.265838  0.737976  1
  Zn  Zn12  1  0.352794  0.002185  0.270279  1
  Zn  Zn13  1  0.726343  0.346644  0.001075  1
  Zn  Zn14  1  0.002185  0.352794  0.270279  1
  Zn  Zn15  1  0.265838  0.607314  0.737976  1
  Zn  Zn16  1  0.651804  0.651804  0.980000  1
  Zn  Zn17  1  0.019366  0.660701  0.337573  1
  Zn  Zn18  1  0.660701  0.019366  0.337573  1
  Zn  Zn19  1  0.358584  0.358584  0.000364  1
  Co  Co20  1  0.345418  0.345418  0.667548  1
  Pd  Pd21  1  0.642299  0.984878  0.014806  1
  Pd  Pd22  1  0.984878  0.642299  0.014806  1
  Au  Au23  1  0.995960  0.364925  0.627561  1
  Au  Au24  1  0.364925  0.995960  0.627561  1
  Au  Au25  1  0.994327  0.994327  0.360141  1
