# generated using pymatgen
data_Hf6Nb4GaSi4Ge
_symmetry_space_group_name_H-M   'P 1'
_cell_length_a   7.82399400
_cell_length_b   7.85648056
_cell_length_c   5.38902200
_cell_angle_alpha   90.00000000
_cell_angle_beta   90.00000000
_cell_angle_gamma   119.86330924
_symmetry_Int_Tables_number   1
_chemical_formula_structural   Hf6Nb4GaSi4Ge
_chemical_formula_sum   'Hf6 Nb4 Ga1 Si4 Ge1'
_cell_volume   287.27225439
_cell_formula_units_Z   1
loop_
 _symmetry_equiv_pos_site_id
 _symmetry_equiv_pos_as_xyz
  1  'x, y, z'
loop_
 _atom_site_type_symbol
 _atom_site_label
 _atom_site_symmetry_multiplicity
 _atom_site_fract_x
 _atom_site_fract_y
 _atom_site_fract_z
 _atom_site_occupancy
  Hf  Hf0  1  0.746982  0.744194  0.250000  1
  Hf  Hf1  1  0.751384  0.000000  0.750000  1
  Hf  Hf2  1  0.002787  0.255806  0.250000  1
  Hf  Hf3  1  0.252664  0.255659  0.750000  1
  Hf  Hf4  1  0.246947  0.000000  0.250000  1
  Hf  Hf5  1  0.997004  0.744341  0.750000  1
  Nb  Nb6  1  0.670275  0.339814  0.000246  1
  Nb  Nb7  1  0.670275  0.339814  0.499754  1
  Nb  Nb8  1  0.330460  0.660186  0.499754  1
  Nb  Nb9  1  0.330460  0.660186  0.000246  1
  Ga  Ga10  1  0.394965  0.000000  0.750000  1
  Si  Si11  1  0.605725  0.606908  0.750000  1
  Si  Si12  1  0.998817  0.393092  0.750000  1
  Si  Si13  1  0.002198  0.607632  0.250000  1
  Si  Si14  1  0.394566  0.392368  0.250000  1
  Ge  Ge15  1  0.604491  0.000000  0.250000  1
