# generated using pymatgen
data_LuZn4Ir
_symmetry_space_group_name_H-M   'P 1'
_cell_length_a   5.04136200
_cell_length_b   5.04136238
_cell_length_c   8.35915000
_cell_angle_alpha   90.00000000
_cell_angle_beta   90.00000000
_cell_angle_gamma   119.99999751
_symmetry_Int_Tables_number   1
_chemical_formula_structural   LuZn4Ir
_chemical_formula_sum   'Lu2 Zn8 Ir2'
_cell_volume   183.98760272
_cell_formula_units_Z   2
loop_
 _symmetry_equiv_pos_site_id
 _symmetry_equiv_pos_as_xyz
  1  'x, y, z'
loop_
 _atom_site_type_symbol
 _atom_site_label
 _atom_site_symmetry_multiplicity
 _atom_site_fract_x
 _atom_site_fract_y
 _atom_site_fract_z
 _atom_site_occupancy
  Lu  Lu0  1  0.666667  0.333333  0.435934  1
  Lu  Lu1  1  0.333333  0.666667  0.935934  1
  Zn  Zn2  1  0.000000  0.000000  0.999543  1
  Zn  Zn3  1  0.000000  0.000000  0.499543  1
  Zn  Zn4  1  0.169912  0.339824  0.247204  1
  Zn  Zn5  1  0.830088  0.169912  0.747204  1
  Zn  Zn6  1  0.339824  0.169912  0.747204  1
  Zn  Zn7  1  0.660176  0.830088  0.247204  1
  Zn  Zn8  1  0.169912  0.830088  0.247204  1
  Zn  Zn9  1  0.830088  0.660176  0.747204  1
  Ir  Ir10  1  0.333333  0.666667  0.572914  1
  Ir  Ir11  1  0.666667  0.333333  0.072914  1
