# generated using pymatgen
data_Y4GaNi13
_symmetry_space_group_name_H-M   'P 1'
_cell_length_a   12.52852372
_cell_length_b   12.52852350
_cell_length_c   12.53345876
_cell_angle_alpha   22.74284951
_cell_angle_beta   22.74285264
_cell_angle_gamma   22.89857519
_symmetry_Int_Tables_number   1
_chemical_formula_structural   Y4GaNi13
_chemical_formula_sum   'Y4 Ga1 Ni13'
_cell_volume   259.09865381
_cell_formula_units_Z   1
loop_
 _symmetry_equiv_pos_site_id
 _symmetry_equiv_pos_as_xyz
  1  'x, y, z'
loop_
 _atom_site_type_symbol
 _atom_site_label
 _atom_site_symmetry_multiplicity
 _atom_site_fract_x
 _atom_site_fract_y
 _atom_site_fract_z
 _atom_site_occupancy
  Y  Y0  1  0.948302  0.948302  0.948215  1
  Y  Y1  1  0.051698  0.051698  0.051785  1
  Y  Y2  1  0.852604  0.852604  0.852669  1
  Y  Y3  1  0.147396  0.147396  0.147331  1
  Ga  Ga4  1  0.500000  0.500000  0.000000  1
  Ni  Ni5  1  0.390429  0.890030  0.390614  1
  Ni  Ni6  1  0.389954  0.389954  0.890925  1
  Ni  Ni7  1  0.890030  0.390429  0.390614  1
  Ni  Ni8  1  0.609571  0.109970  0.609386  1
  Ni  Ni9  1  0.610046  0.610046  0.109075  1
  Ni  Ni10  1  0.109970  0.609571  0.609386  1
  Ni  Ni11  1  0.000000  0.500000  0.500000  1
  Ni  Ni12  1  0.500000  0.000000  0.500000  1
  Ni  Ni13  1  0.723677  0.723677  0.719461  1
  Ni  Ni14  1  0.276323  0.276323  0.280539  1
  Ni  Ni15  1  0.612395  0.612395  0.608725  1
  Ni  Ni16  1  0.387605  0.387605  0.391275  1
  Ni  Ni17  1  0.500000  0.500000  0.500000  1
