# generated using pymatgen
data_TaTi5(SiTc)6
_symmetry_space_group_name_H-M   'P 1'
_cell_length_a   7.53938397
_cell_length_b   7.54147220
_cell_length_c   7.53938306
_cell_angle_alpha   126.19148022
_cell_angle_beta   128.88565461
_cell_angle_gamma   77.38745419
_symmetry_Int_Tables_number   1
_chemical_formula_structural   TaTi5(SiTc)6
_chemical_formula_sum   'Ta1 Ti5 Si6 Tc6'
_cell_volume   261.25906210
_cell_formula_units_Z   1
loop_
 _symmetry_equiv_pos_site_id
 _symmetry_equiv_pos_as_xyz
  1  'x, y, z'
loop_
 _atom_site_type_symbol
 _atom_site_label
 _atom_site_symmetry_multiplicity
 _atom_site_fract_x
 _atom_site_fract_y
 _atom_site_fract_z
 _atom_site_occupancy
  Ta  Ta0  1  0.249096  0.900626  0.151529  1
  Ti  Ti1  1  0.953003  0.499504  0.046501  1
  Ti  Ti2  1  0.048451  0.088728  0.540277  1
  Ti  Ti3  1  0.450105  0.491355  0.541250  1
  Ti  Ti4  1  0.751122  0.901390  0.650268  1
  Ti  Ti5  1  0.548397  0.095724  0.047326  1
  Si  Si6  1  0.750469  0.498316  0.247848  1
  Si  Si7  1  0.164596  0.165277  0.993718  1
  Si  Si8  1  0.671559  0.165277  0.500680  1
  Si  Si9  1  0.338463  0.828853  0.503482  1
  Si  Si10  1  0.249598  0.494201  0.744602  1
  Si  Si11  1  0.825372  0.828853  0.990390  1
  Tc  Tc12  1  0.500933  0.236952  0.738051  1
  Tc  Tc13  1  0.998902  0.236952  0.236019  1
  Tc  Tc14  1  0.869759  0.497549  0.627209  1
  Tc  Tc15  1  0.629152  0.757553  0.126870  1
  Tc  Tc16  1  0.370338  0.497549  0.127790  1
  Tc  Tc17  1  0.130683  0.757553  0.628401  1
