# generated using pymatgen
data_Hf6MnFeSi6
_symmetry_space_group_name_H-M   'P 1'
_cell_length_a   5.27569307
_cell_length_b   5.27569129
_cell_length_c   12.80283901
_cell_angle_alpha   70.94094921
_cell_angle_beta   70.94095584
_cell_angle_gamma   42.75591577
_symmetry_Int_Tables_number   1
_chemical_formula_structural   Hf6MnFeSi6
_chemical_formula_sum   'Hf6 Mn1 Fe1 Si6'
_cell_volume   226.54964241
_cell_formula_units_Z   1
loop_
 _symmetry_equiv_pos_site_id
 _symmetry_equiv_pos_as_xyz
  1  'x, y, z'
loop_
 _atom_site_type_symbol
 _atom_site_label
 _atom_site_symmetry_multiplicity
 _atom_site_fract_x
 _atom_site_fract_y
 _atom_site_fract_z
 _atom_site_occupancy
  Hf  Hf0  1  0.747066  0.747066  0.773583  1
  Hf  Hf1  1  0.254040  0.254040  0.226745  1
  Hf  Hf2  1  0.522749  0.522749  0.621249  1
  Hf  Hf3  1  0.474625  0.474625  0.379890  1
  Hf  Hf4  1  0.395133  0.395133  0.918229  1
  Hf  Hf5  1  0.605651  0.605651  0.080263  1
  Mn  Mn6  1  0.761083  0.761083  0.410812  1
  Fe  Fe7  1  0.240584  0.240584  0.588508  1
  Si  Si8  1  0.134193  0.134193  0.453225  1
  Si  Si9  1  0.864016  0.864016  0.549598  1
  Si  Si10  1  0.116168  0.116168  0.925408  1
  Si  Si11  1  0.883431  0.883431  0.073960  1
  Si  Si12  1  0.041603  0.041603  0.761240  1
  Si  Si13  1  0.959658  0.959658  0.237290  1
