# generated using pymatgen
data_DyMnNi4P3
_symmetry_space_group_name_H-M   'P 1'
_cell_length_a   3.69897400
_cell_length_b   10.45608900
_cell_length_c   11.97551900
_cell_angle_alpha   90.00000000
_cell_angle_beta   90.00000000
_cell_angle_gamma   90.00000000
_symmetry_Int_Tables_number   1
_chemical_formula_structural   DyMnNi4P3
_chemical_formula_sum   'Dy4 Mn4 Ni16 P12'
_cell_volume   463.17476946
_cell_formula_units_Z   4
loop_
 _symmetry_equiv_pos_site_id
 _symmetry_equiv_pos_as_xyz
  1  'x, y, z'
loop_
 _atom_site_type_symbol
 _atom_site_label
 _atom_site_symmetry_multiplicity
 _atom_site_fract_x
 _atom_site_fract_y
 _atom_site_fract_z
 _atom_site_occupancy
  Dy  Dy0  1  0.250000  0.582664  0.705025  1
  Dy  Dy1  1  0.250000  0.917336  0.205025  1
  Dy  Dy2  1  0.750000  0.417336  0.294975  1
  Dy  Dy3  1  0.750000  0.082664  0.794975  1
  Mn  Mn4  1  0.250000  0.708167  0.987291  1
  Mn  Mn5  1  0.250000  0.791833  0.487291  1
  Mn  Mn6  1  0.750000  0.291833  0.012709  1
  Mn  Mn7  1  0.750000  0.208167  0.512709  1
  Ni  Ni8  1  0.250000  0.407630  0.487725  1
  Ni  Ni9  1  0.250000  0.092370  0.987725  1
  Ni  Ni10  1  0.750000  0.592370  0.512275  1
  Ni  Ni11  1  0.750000  0.907630  0.012275  1
  Ni  Ni12  1  0.250000  0.219909  0.177339  1
  Ni  Ni13  1  0.250000  0.280091  0.677339  1
  Ni  Ni14  1  0.750000  0.780091  0.822661  1
  Ni  Ni15  1  0.750000  0.719909  0.322661  1
  Ni  Ni16  1  0.250000  0.882504  0.700652  1
  Ni  Ni17  1  0.250000  0.617496  0.200652  1
  Ni  Ni18  1  0.750000  0.117496  0.299348  1
  Ni  Ni19  1  0.750000  0.382504  0.799348  1
  Ni  Ni20  1  0.250000  0.466748  0.931648  1
  Ni  Ni21  1  0.250000  0.033252  0.431648  1
  Ni  Ni22  1  0.750000  0.533252  0.068352  1
  Ni  Ni23  1  0.750000  0.966748  0.568352  1
  P  P24  1  0.250000  0.417373  0.113395  1
  P  P25  1  0.250000  0.082627  0.613395  1
  P  P26  1  0.750000  0.582627  0.886605  1
  P  P27  1  0.750000  0.917373  0.386605  1
  P  P28  1  0.250000  0.268490  0.869592  1
  P  P29  1  0.250000  0.231510  0.369592  1
  P  P30  1  0.750000  0.731510  0.130408  1
  P  P31  1  0.750000  0.768490  0.630408  1
  P  P32  1  0.250000  0.601269  0.391700  1
  P  P33  1  0.250000  0.898731  0.891700  1
  P  P34  1  0.750000  0.398731  0.608300  1
  P  P35  1  0.750000  0.101269  0.108300  1
