# generated using pymatgen
data_La5(Yb2Ni3)2
_symmetry_space_group_name_H-M   'P 1'
_cell_length_a   7.36324616
_cell_length_b   7.38061091
_cell_length_c   7.35665204
_cell_angle_alpha   73.62610336
_cell_angle_beta   73.73670057
_cell_angle_gamma   74.23577455
_symmetry_Int_Tables_number   1
_chemical_formula_structural   La5(Yb2Ni3)2
_chemical_formula_sum   'La5 Yb4 Ni6'
_cell_volume   360.08303080
_cell_formula_units_Z   1
loop_
 _symmetry_equiv_pos_site_id
 _symmetry_equiv_pos_as_xyz
  1  'x, y, z'
loop_
 _atom_site_type_symbol
 _atom_site_label
 _atom_site_symmetry_multiplicity
 _atom_site_fract_x
 _atom_site_fract_y
 _atom_site_fract_z
 _atom_site_occupancy
  La  La0  1  0.674867  0.164758  0.385280  1
  La  La1  1  0.381824  0.674969  0.159625  1
  La  La2  1  0.836734  0.619633  0.332139  1
  La  La3  1  0.322225  0.835301  0.614468  1
  La  La4  1  0.617320  0.322086  0.837168  1
  Yb  Yb5  1  0.002702  0.005138  0.994624  1
  Yb  Yb6  1  0.798186  0.791781  0.797122  1
  Yb  Yb7  1  0.203122  0.205387  0.203178  1
  Yb  Yb8  1  0.165577  0.380335  0.672101  1
  Ni  Ni9  1  0.958531  0.141741  0.584756  1
  Ni  Ni10  1  0.578885  0.964545  0.146336  1
  Ni  Ni11  1  0.137367  0.582879  0.964177  1
  Ni  Ni12  1  0.037891  0.860827  0.414004  1
  Ni  Ni13  1  0.418619  0.032955  0.858728  1
  Ni  Ni14  1  0.866152  0.417665  0.036293  1
