# generated using pymatgen
data_PrNdTcC2
_symmetry_space_group_name_H-M   'P 1'
_cell_length_a   5.37205700
_cell_length_b   6.74186300
_cell_length_c   10.25725500
_cell_angle_alpha   90.00000000
_cell_angle_beta   90.00000000
_cell_angle_gamma   90.00000000
_symmetry_Int_Tables_number   1
_chemical_formula_structural   PrNdTcC2
_chemical_formula_sum   'Pr4 Nd4 Tc4 C8'
_cell_volume   371.49390052
_cell_formula_units_Z   4
loop_
 _symmetry_equiv_pos_site_id
 _symmetry_equiv_pos_as_xyz
  1  'x, y, z'
loop_
 _atom_site_type_symbol
 _atom_site_label
 _atom_site_symmetry_multiplicity
 _atom_site_fract_x
 _atom_site_fract_y
 _atom_site_fract_z
 _atom_site_occupancy
  Pr  Pr0  1  0.250000  0.474311  0.787962  1
  Pr  Pr1  1  0.750000  0.025689  0.287962  1
  Pr  Pr2  1  0.250000  0.974311  0.712038  1
  Pr  Pr3  1  0.750000  0.525689  0.212038  1
  Nd  Nd4  1  0.250000  0.815004  0.052574  1
  Nd  Nd5  1  0.750000  0.684996  0.552574  1
  Nd  Nd6  1  0.250000  0.315004  0.447426  1
  Nd  Nd7  1  0.750000  0.184996  0.947426  1
  Tc  Tc8  1  0.250000  0.271024  0.142846  1
  Tc  Tc9  1  0.750000  0.228976  0.642846  1
  Tc  Tc10  1  0.250000  0.771024  0.357154  1
  Tc  Tc11  1  0.750000  0.728976  0.857154  1
  C  C12  1  0.250000  0.686327  0.534995  1
  C  C13  1  0.750000  0.813673  0.034995  1
  C  C14  1  0.250000  0.186327  0.965005  1
  C  C15  1  0.750000  0.313673  0.465005  1
  C  C16  1  0.250000  0.035494  0.257416  1
  C  C17  1  0.750000  0.464506  0.757416  1
  C  C18  1  0.250000  0.535494  0.242584  1
  C  C19  1  0.750000  0.964506  0.742584  1
