# generated using pymatgen
data_Tb5DyErIrI12
_symmetry_space_group_name_H-M   'P 1'
_cell_length_a   9.82559898
_cell_length_b   9.81902980
_cell_length_c   9.82354816
_cell_angle_alpha   106.93639371
_cell_angle_beta   106.96923485
_cell_angle_gamma   106.93743396
_symmetry_Int_Tables_number   1
_chemical_formula_structural   Tb5DyErIrI12
_chemical_formula_sum   'Tb5 Dy1 Er1 Ir1 I12'
_cell_volume   790.42284706
_cell_formula_units_Z   1
loop_
 _symmetry_equiv_pos_site_id
 _symmetry_equiv_pos_as_xyz
  1  'x, y, z'
loop_
 _atom_site_type_symbol
 _atom_site_label
 _atom_site_symmetry_multiplicity
 _atom_site_fract_x
 _atom_site_fract_y
 _atom_site_fract_z
 _atom_site_occupancy
  Tb  Tb0  1  0.094746  0.021764  0.296598  1
  Tb  Tb1  1  0.296575  0.094262  0.021989  1
  Tb  Tb2  1  0.022156  0.296929  0.094803  1
  Tb  Tb3  1  0.905186  0.977502  0.703140  1
  Tb  Tb4  1  0.703242  0.904837  0.977684  1
  Dy  Dy5  1  0.978025  0.704942  0.906017  1
  Er  Er6  1  0.500353  0.500165  0.500333  1
  Ir  Ir7  1  0.999953  0.999761  0.999913  1
  I  I8  1  0.069068  0.675513  0.223851  1
  I  I9  1  0.224917  0.069384  0.675761  1
  I  I10  1  0.675890  0.225021  0.069439  1
  I  I11  1  0.930744  0.324992  0.775329  1
  I  I12  1  0.775053  0.930614  0.324180  1
  I  I13  1  0.323519  0.774578  0.930464  1
  I  I14  1  0.464050  0.165331  0.387894  1
  I  I15  1  0.387816  0.464051  0.165324  1
  I  I16  1  0.165337  0.387904  0.464037  1
  I  I17  1  0.535839  0.834650  0.612033  1
  I  I18  1  0.612692  0.535853  0.834617  1
  I  I19  1  0.834838  0.611947  0.536597  1
