# generated using pymatgen
data_Ac3CuS3O2
_symmetry_space_group_name_H-M   'P 1'
_cell_length_a   14.38353700
_cell_length_b   4.02825900
_cell_length_c   12.83458400
_cell_angle_alpha   90.00000000
_cell_angle_beta   90.00000000
_cell_angle_gamma   90.00000000
_symmetry_Int_Tables_number   1
_chemical_formula_structural   Ac3CuS3O2
_chemical_formula_sum   'Ac12 Cu4 S12 O8'
_cell_volume   743.64365650
_cell_formula_units_Z   4
loop_
 _symmetry_equiv_pos_site_id
 _symmetry_equiv_pos_as_xyz
  1  'x, y, z'
loop_
 _atom_site_type_symbol
 _atom_site_label
 _atom_site_symmetry_multiplicity
 _atom_site_fract_x
 _atom_site_fract_y
 _atom_site_fract_z
 _atom_site_occupancy
  Ac  Ac0  1  0.629924  0.249999  0.095933  1
  Ac  Ac1  1  0.922679  0.249999  0.103084  1
  Ac  Ac2  1  0.207838  0.249999  0.114769  1
  Ac  Ac3  1  0.707838  0.249999  0.385232  1
  Ac  Ac4  1  0.422679  0.249999  0.396916  1
  Ac  Ac5  1  0.129924  0.249999  0.404068  1
  Ac  Ac6  1  0.870076  0.750001  0.595933  1
  Ac  Ac7  1  0.577321  0.750001  0.603084  1
  Ac  Ac8  1  0.292162  0.750001  0.614768  1
  Ac  Ac9  1  0.792162  0.750001  0.885232  1
  Ac  Ac10  1  0.077321  0.750001  0.896917  1
  Ac  Ac11  1  0.370076  0.750001  0.904067  1
  Cu  Cu12  1  0.414614  0.750001  0.171583  1
  Cu  Cu13  1  0.914614  0.750001  0.328417  1
  Cu  Cu14  1  0.085386  0.249999  0.671583  1
  Cu  Cu15  1  0.585386  0.249999  0.828417  1
  S  S16  1  0.413894  0.249999  0.071649  1
  S  S17  1  0.782297  0.750001  0.212359  1
  S  S18  1  0.054303  0.750001  0.237044  1
  S  S19  1  0.554303  0.750001  0.262956  1
  S  S20  1  0.282297  0.750001  0.287641  1
  S  S21  1  0.913894  0.249999  0.428351  1
  S  S22  1  0.086106  0.750001  0.571649  1
  S  S23  1  0.717703  0.249999  0.712359  1
  S  S24  1  0.445697  0.249999  0.737044  1
  S  S25  1  0.945697  0.249999  0.762956  1
  S  S26  1  0.217703  0.249999  0.787641  1
  S  S27  1  0.586107  0.750001  0.928351  1
  O  O28  1  0.073203  0.249999  0.006765  1
  O  O29  1  0.229856  0.750001  0.006285  1
  O  O30  1  0.729856  0.750001  0.493715  1
  O  O31  1  0.573203  0.249999  0.493235  1
  O  O32  1  0.426797  0.750001  0.506765  1
  O  O33  1  0.270144  0.249999  0.506285  1
  O  O34  1  0.770144  0.249999  0.993715  1
  O  O35  1  0.926797  0.750001  0.993235  1
