# generated using pymatgen
data_Gd2YCCl3
_symmetry_space_group_name_H-M   'P 1'
_cell_length_a   9.35772801
_cell_length_b   9.34996106
_cell_length_c   9.34680107
_cell_angle_alpha   109.61529204
_cell_angle_beta   109.36625468
_cell_angle_gamma   109.46029604
_symmetry_Int_Tables_number   1
_chemical_formula_structural   Gd2YCCl3
_chemical_formula_sum   'Gd8 Y4 C4 Cl12'
_cell_volume   629.31578422
_cell_formula_units_Z   4
loop_
 _symmetry_equiv_pos_site_id
 _symmetry_equiv_pos_as_xyz
  1  'x, y, z'
loop_
 _atom_site_type_symbol
 _atom_site_label
 _atom_site_symmetry_multiplicity
 _atom_site_fract_x
 _atom_site_fract_y
 _atom_site_fract_z
 _atom_site_occupancy
  Gd  Gd0  1  0.268113  0.017085  0.035129  1
  Gd  Gd1  1  0.232569  0.464704  0.482511  1
  Gd  Gd2  1  0.018789  0.036408  0.267808  1
  Gd  Gd3  1  0.019087  0.483105  0.751029  1
  Gd  Gd4  1  0.481891  0.231769  0.463873  1
  Gd  Gd5  1  0.751086  0.018471  0.482371  1
  Gd  Gd6  1  0.036253  0.268167  0.017923  1
  Gd  Gd7  1  0.267807  0.749611  0.231557  1
  Y  Y8  1  0.481120  0.749394  0.018271  1
  Y  Y9  1  0.750645  0.231134  0.268808  1
  Y  Y10  1  0.231665  0.269348  0.750319  1
  Y  Y11  1  0.462767  0.481391  0.230768  1
  C  C12  1  0.251261  0.250724  0.250176  1
  C  C13  1  0.000003  0.250337  0.499987  1
  C  C14  1  0.251492  0.500178  0.000341  1
  C  C15  1  0.500958  0.000179  0.249490  1
  Cl  Cl16  1  0.995007  0.987584  0.743304  1
  Cl  Cl17  1  0.753870  0.740486  0.246770  1
  Cl  Cl18  1  0.983699  0.741725  0.991860  1
  Cl  Cl19  1  0.249457  0.993308  0.508588  1
  Cl  Cl20  1  0.742220  0.993015  0.987077  1
  Cl  Cl21  1  0.507517  0.251282  0.994228  1
  Cl  Cl22  1  0.744408  0.252216  0.758554  1
  Cl  Cl23  1  0.506859  0.755377  0.512135  1
  Cl  Cl24  1  0.755445  0.512495  0.503790  1
  Cl  Cl25  1  0.251933  0.757867  0.744246  1
  Cl  Cl26  1  0.513783  0.507140  0.759733  1
  Cl  Cl27  1  0.990295  0.505500  0.249354  1
