# generated using pymatgen
data_Zr6Zn20Ir3Se
_symmetry_space_group_name_H-M   'P 1'
_cell_length_a   8.79740181
_cell_length_b   8.79740055
_cell_length_c   8.76291292
_cell_angle_alpha   59.80494038
_cell_angle_beta   59.80494561
_cell_angle_gamma   59.63780192
_symmetry_Int_Tables_number   1
_chemical_formula_structural   Zr6Zn20Ir3Se
_chemical_formula_sum   'Zr6 Zn20 Ir3 Se1'
_cell_volume   476.82569944
_cell_formula_units_Z   1
loop_
 _symmetry_equiv_pos_site_id
 _symmetry_equiv_pos_as_xyz
  1  'x, y, z'
loop_
 _atom_site_type_symbol
 _atom_site_label
 _atom_site_symmetry_multiplicity
 _atom_site_fract_x
 _atom_site_fract_y
 _atom_site_fract_z
 _atom_site_occupancy
  Zr  Zr0  1  0.724677  0.286991  0.284807  1
  Zr  Zr1  1  0.270686  0.733758  0.707928  1
  Zr  Zr2  1  0.286991  0.724677  0.284807  1
  Zr  Zr3  1  0.733758  0.270686  0.707928  1
  Zr  Zr4  1  0.279606  0.279606  0.718691  1
  Zr  Zr5  1  0.712823  0.712823  0.276682  1
  Zn  Zn6  1  0.119407  0.636919  0.118223  1
  Zn  Zn7  1  0.881567  0.881567  0.361921  1
  Zn  Zn8  1  0.882550  0.357549  0.879209  1
  Zn  Zn9  1  0.636919  0.119407  0.118223  1
  Zn  Zn10  1  0.357549  0.882550  0.879209  1
  Zn  Zn11  1  0.498349  0.000767  0.000662  1
  Zn  Zn12  1  0.998472  0.505443  0.497420  1
  Zn  Zn13  1  0.000767  0.498349  0.000662  1
  Zn  Zn14  1  0.505443  0.998472  0.497420  1
  Zn  Zn15  1  0.999745  0.999745  0.501138  1
  Zn  Zn16  1  0.498412  0.498412  0.002475  1
  Zn  Zn17  1  0.331473  0.331473  0.337779  1
  Zn  Zn18  1  0.664855  0.664855  0.666074  1
  Zn  Zn19  1  0.330168  0.330168  0.000619  1
  Zn  Zn20  1  0.326351  0.009342  0.331773  1
  Zn  Zn21  1  0.670693  0.670693  0.992599  1
  Zn  Zn22  1  0.670672  0.995554  0.670824  1
  Zn  Zn23  1  0.009342  0.326351  0.331773  1
  Zn  Zn24  1  0.995554  0.670672  0.670824  1
  Zn  Zn25  1  0.996758  0.996758  0.005007  1
  Ir  Ir26  1  0.118308  0.118308  0.115810  1
  Ir  Ir27  1  0.878391  0.878391  0.887544  1
  Ir  Ir28  1  0.123571  0.123571  0.641485  1
  Se  Se29  1  0.496140  0.496140  0.510484  1
