# generated using pymatgen
data_Sc22Fe2Ir5Rh
_symmetry_space_group_name_H-M   'P 1'
_cell_length_a   9.44320314
_cell_length_b   9.44320308
_cell_length_c   9.49037500
_cell_angle_alpha   59.83462127
_cell_angle_beta   59.83462148
_cell_angle_gamma   59.86282099
_symmetry_Int_Tables_number   1
_chemical_formula_structural   Sc22Fe2Ir5Rh
_chemical_formula_sum   'Sc22 Fe2 Ir5 Rh1'
_cell_volume   596.30285356
_cell_formula_units_Z   1
loop_
 _symmetry_equiv_pos_site_id
 _symmetry_equiv_pos_as_xyz
  1  'x, y, z'
loop_
 _atom_site_type_symbol
 _atom_site_label
 _atom_site_symmetry_multiplicity
 _atom_site_fract_x
 _atom_site_fract_y
 _atom_site_fract_z
 _atom_site_occupancy
  Sc  Sc0  1  0.808503  0.808503  0.191497  1
  Sc  Sc1  1  0.191956  0.808044  0.190719  1
  Sc  Sc2  1  0.808044  0.191956  0.190719  1
  Sc  Sc3  1  0.191497  0.191497  0.808503  1
  Sc  Sc4  1  0.808044  0.191956  0.809281  1
  Sc  Sc5  1  0.191956  0.808044  0.809281  1
  Sc  Sc6  1  0.614444  0.614444  0.156742  1
  Sc  Sc7  1  0.612782  0.156810  0.615203  1
  Sc  Sc8  1  0.156810  0.612782  0.615203  1
  Sc  Sc9  1  0.614444  0.614444  0.614367  1
  Sc  Sc10  1  0.385556  0.385556  0.843258  1
  Sc  Sc11  1  0.387218  0.843190  0.384797  1
  Sc  Sc12  1  0.843190  0.387218  0.384797  1
  Sc  Sc13  1  0.385556  0.385556  0.385633  1
  Sc  Sc14  1  0.841260  0.841260  0.474268  1
  Sc  Sc15  1  0.841240  0.474215  0.842271  1
  Sc  Sc16  1  0.474215  0.841240  0.842271  1
  Sc  Sc17  1  0.841260  0.841260  0.843210  1
  Sc  Sc18  1  0.158740  0.158740  0.525732  1
  Sc  Sc19  1  0.158760  0.525785  0.157729  1
  Sc  Sc20  1  0.525785  0.158760  0.157729  1
  Sc  Sc21  1  0.158740  0.158740  0.156790  1
  Fe  Fe22  1  0.000000  0.000000  0.000000  1
  Fe  Fe23  1  0.500000  0.500000  0.500000  1
  Ir  Ir24  1  0.500000  0.000000  0.500000  1
  Ir  Ir25  1  0.000000  0.500000  0.500000  1
  Ir  Ir26  1  0.500000  0.500000  0.000000  1
  Ir  Ir27  1  0.000000  0.500000  0.000000  1
  Ir  Ir28  1  0.500000  0.000000  0.000000  1
  Rh  Rh29  1  0.000000  0.000000  0.500000  1
