# generated using pymatgen
data_Th2SiN4
_symmetry_space_group_name_H-M   'P 1'
_cell_length_a   5.69988072
_cell_length_b   7.03488200
_cell_length_c   11.54066964
_cell_angle_alpha   89.99961037
_cell_angle_beta   122.58523802
_cell_angle_gamma   90.00031803
_symmetry_Int_Tables_number   1
_chemical_formula_structural   Th2SiN4
_chemical_formula_sum   'Th8 Si4 N16'
_cell_volume   389.91550307
_cell_formula_units_Z   4
loop_
 _symmetry_equiv_pos_site_id
 _symmetry_equiv_pos_as_xyz
  1  'x, y, z'
loop_
 _atom_site_type_symbol
 _atom_site_label
 _atom_site_symmetry_multiplicity
 _atom_site_fract_x
 _atom_site_fract_y
 _atom_site_fract_z
 _atom_site_occupancy
  Th  Th0  1  0.334113  0.844838  0.074092  1
  Th  Th1  1  0.924055  0.509530  0.193862  1
  Th  Th2  1  0.075941  0.009530  0.306141  1
  Th  Th3  1  0.665879  0.344838  0.425905  1
  Th  Th4  1  0.334121  0.655162  0.574095  1
  Th  Th5  1  0.924059  0.990470  0.693859  1
  Th  Th6  1  0.075945  0.490470  0.806138  1
  Th  Th7  1  0.665887  0.155163  0.925908  1
  Si  Si8  1  0.323123  0.284290  0.084054  1
  Si  Si9  1  0.676871  0.784287  0.415945  1
  Si  Si10  1  0.323128  0.215713  0.584055  1
  Si  Si11  1  0.676876  0.715710  0.915945  1
  N  N12  1  0.340670  0.526751  0.063244  1
  N  N13  1  0.907780  0.830697  0.075729  1
  N  N14  1  0.642281  0.172647  0.138684  1
  N  N15  1  0.207136  0.243665  0.193307  1
  N  N16  1  0.792847  0.743667  0.306691  1
  N  N17  1  0.357712  0.672654  0.361320  1
  N  N18  1  0.092224  0.330700  0.424273  1
  N  N19  1  0.659336  0.026754  0.436758  1
  N  N20  1  0.340663  0.973245  0.563242  1
  N  N21  1  0.907776  0.669301  0.575727  1
  N  N22  1  0.642288  0.327346  0.638680  1
  N  N23  1  0.207153  0.256333  0.693309  1
  N  N24  1  0.792863  0.756335  0.806693  1
  N  N25  1  0.357718  0.827353  0.861316  1
  N  N26  1  0.092219  0.169304  0.924271  1
  N  N27  1  0.659330  0.473250  0.936756  1
