# generated using pymatgen
data_Ti8Al15MoPt6
_symmetry_space_group_name_H-M   'P 1'
_cell_length_a   8.69356067
_cell_length_b   8.69356135
_cell_length_c   8.69356033
_cell_angle_alpha   120.16762432
_cell_angle_beta   119.74930418
_cell_angle_gamma   90.07234396
_symmetry_Int_Tables_number   1
_chemical_formula_structural   Ti8Al15MoPt6
_chemical_formula_sum   'Ti8 Al15 Mo1 Pt6'
_cell_volume   464.88232795
_cell_formula_units_Z   1
loop_
 _symmetry_equiv_pos_site_id
 _symmetry_equiv_pos_as_xyz
  1  'x, y, z'
loop_
 _atom_site_type_symbol
 _atom_site_label
 _atom_site_symmetry_multiplicity
 _atom_site_fract_x
 _atom_site_fract_y
 _atom_site_fract_z
 _atom_site_occupancy
  Ti  Ti0  1  0.788802  0.289566  0.075484  1
  Ti  Ti1  1  0.214059  0.289636  0.500806  1
  Ti  Ti2  1  0.211275  0.711228  0.499998  1
  Ti  Ti3  1  0.214143  0.713278  0.924569  1
  Ti  Ti4  1  0.788678  0.713337  0.499178  1
  Ti  Ti5  1  0.785764  0.285736  0.499991  1
  Ti  Ti6  1  0.381789  0.120333  0.738472  1
  Ti  Ti7  1  0.381773  0.643353  0.261515  1
  Al  Al8  1  0.998739  0.498662  0.499974  1
  Al  Al9  1  0.155428  0.346700  0.191275  1
  Al  Al10  1  0.155365  0.963993  0.808629  1
  Al  Al11  1  0.155204  0.344349  0.810854  1
  Al  Al12  1  0.533528  0.344349  0.189169  1
  Al  Al13  1  0.845364  0.653411  0.808074  1
  Al  Al14  1  0.845331  0.037228  0.191914  1
  Al  Al15  1  0.844018  0.654705  0.189329  1
  Al  Al16  1  0.465403  0.654713  0.810715  1
  Al  Al17  1  0.379855  0.120721  0.259157  1
  Al  Al18  1  0.861580  0.120732  0.740874  1
  Al  Al19  1  0.620083  0.879715  0.259619  1
  Al  Al20  1  0.620063  0.360456  0.740378  1
  Al  Al21  1  0.621234  0.879439  0.741818  1
  Al  Al22  1  0.137640  0.879444  0.258208  1
  Mo  Mo23  1  0.497950  0.997939  0.499987  1
  Pt  Pt24  1  0.998432  0.999025  0.499170  1
  Pt  Pt25  1  0.499829  0.999004  0.000579  1
  Pt  Pt26  1  0.499912  0.499909  0.999970  1
  Pt  Pt27  1  0.499826  0.499256  0.500826  1
  Pt  Pt28  1  0.998439  0.499265  0.999420  1
  Pt  Pt29  1  0.000488  0.000518  0.000048  1
