# generated using pymatgen
data_Ce3HoErIr3
_symmetry_space_group_name_H-M   'P 1'
_cell_length_a   8.22710500
_cell_length_b   8.22710444
_cell_length_c   6.45620800
_cell_angle_alpha   90.00000000
_cell_angle_beta   90.00000000
_cell_angle_gamma   120.00000625
_symmetry_Int_Tables_number   1
_chemical_formula_structural   Ce3HoErIr3
_chemical_formula_sum   'Ce6 Ho2 Er2 Ir6'
_cell_volume   378.44447467
_cell_formula_units_Z   2
loop_
 _symmetry_equiv_pos_site_id
 _symmetry_equiv_pos_as_xyz
  1  'x, y, z'
loop_
 _atom_site_type_symbol
 _atom_site_label
 _atom_site_symmetry_multiplicity
 _atom_site_fract_x
 _atom_site_fract_y
 _atom_site_fract_z
 _atom_site_occupancy
  Ce  Ce0  1  0.745333  0.745333  0.249883  1
  Ce  Ce1  1  0.254667  0.000000  0.249883  1
  Ce  Ce2  1  0.000000  0.254667  0.249883  1
  Ce  Ce3  1  0.254667  0.254667  0.750117  1
  Ce  Ce4  1  0.745333  0.000000  0.750117  1
  Ce  Ce5  1  0.000000  0.745333  0.750117  1
  Ho  Ho6  1  0.333333  0.666667  0.000000  1
  Ho  Ho7  1  0.666667  0.333333  0.000000  1
  Er  Er8  1  0.666667  0.333333  0.500000  1
  Er  Er9  1  0.333333  0.666667  0.500000  1
  Ir  Ir10  1  0.382050  0.382050  0.257873  1
  Ir  Ir11  1  0.617950  0.000000  0.257873  1
  Ir  Ir12  1  0.000000  0.617950  0.257873  1
  Ir  Ir13  1  0.617950  0.617950  0.742127  1
  Ir  Ir14  1  0.382050  0.000000  0.742127  1
  Ir  Ir15  1  0.000000  0.382050  0.742127  1
