# generated using pymatgen
data_Tb3Tm(ThRu)2
_symmetry_space_group_name_H-M   'P 1'
_cell_length_a   6.35426970
_cell_length_b   7.22172560
_cell_length_c   9.62109987
_cell_angle_alpha   90.03369461
_cell_angle_beta   90.32373733
_cell_angle_gamma   89.85465240
_symmetry_Int_Tables_number   1
_chemical_formula_structural   Tb3Tm(ThRu)2
_chemical_formula_sum   'Tb6 Tm2 Th4 Ru4'
_cell_volume   441.49211178
_cell_formula_units_Z   2
loop_
 _symmetry_equiv_pos_site_id
 _symmetry_equiv_pos_as_xyz
  1  'x, y, z'
loop_
 _atom_site_type_symbol
 _atom_site_label
 _atom_site_symmetry_multiplicity
 _atom_site_fract_x
 _atom_site_fract_y
 _atom_site_fract_z
 _atom_site_occupancy
  Tb  Tb0  1  0.167291  0.177222  0.065970  1
  Tb  Tb1  1  0.832709  0.822778  0.934030  1
  Tb  Tb2  1  0.667291  0.323531  0.932814  1
  Tb  Tb3  1  0.832674  0.822596  0.565427  1
  Tb  Tb4  1  0.332709  0.676469  0.067186  1
  Tb  Tb5  1  0.167326  0.177404  0.434573  1
  Tm  Tm6  1  0.334357  0.676610  0.434425  1
  Tm  Tm7  1  0.665643  0.323390  0.565575  1
  Th  Th8  1  0.650998  0.046924  0.251718  1
  Th  Th9  1  0.349002  0.953076  0.748282  1
  Th  Th10  1  0.150195  0.452418  0.747829  1
  Th  Th11  1  0.849805  0.547582  0.252171  1
  Ru  Ru12  1  0.470916  0.372641  0.254788  1
  Ru  Ru13  1  0.529084  0.627359  0.745212  1
  Ru  Ru14  1  0.967092  0.129680  0.748413  1
  Ru  Ru15  1  0.032908  0.870320  0.251587  1
