# generated using pymatgen
data_Dy8Er9Lu3Pb16
_symmetry_space_group_name_H-M   'P 1'
_cell_length_a   8.15628306
_cell_length_b   8.23331906
_cell_length_c   15.55332400
_cell_angle_alpha   90.00000000
_cell_angle_beta   90.00000000
_cell_angle_gamma   89.98626126
_symmetry_Int_Tables_number   1
_chemical_formula_structural   Dy8Er9Lu3Pb16
_chemical_formula_sum   'Dy8 Er9 Lu3 Pb16'
_cell_volume   1044.45670327
_cell_formula_units_Z   1
loop_
 _symmetry_equiv_pos_site_id
 _symmetry_equiv_pos_as_xyz
  1  'x, y, z'
loop_
 _atom_site_type_symbol
 _atom_site_label
 _atom_site_symmetry_multiplicity
 _atom_site_fract_x
 _atom_site_fract_y
 _atom_site_fract_z
 _atom_site_occupancy
  Dy  Dy0  1  0.536441  0.323241  0.900004  1
  Dy  Dy1  1  0.036458  0.176760  0.600028  1
  Dy  Dy2  1  0.463621  0.676655  0.399993  1
  Dy  Dy3  1  0.963474  0.823175  0.099988  1
  Dy  Dy4  1  0.463621  0.676655  0.100007  1
  Dy  Dy5  1  0.963474  0.823175  0.400012  1
  Dy  Dy6  1  0.536441  0.323241  0.599996  1
  Dy  Dy7  1  0.036458  0.176760  0.899972  1
  Er  Er8  1  0.376552  0.841210  0.878995  1
  Er  Er9  1  0.876534  0.658776  0.620987  1
  Er  Er10  1  0.623649  0.158894  0.379074  1
  Er  Er11  1  0.123334  0.341304  0.120953  1
  Er  Er12  1  0.623649  0.158894  0.120926  1
  Er  Er13  1  0.123334  0.341304  0.379047  1
  Er  Er14  1  0.376552  0.841210  0.621005  1
  Er  Er15  1  0.876534  0.658776  0.879013  1
  Er  Er16  1  0.291862  0.004574  0.250000  1
  Lu  Lu17  1  0.208293  0.504575  0.750000  1
  Lu  Lu18  1  0.708284  0.995374  0.750000  1
  Lu  Lu19  1  0.791700  0.495333  0.250000  1
  Pb  Pb20  1  0.281609  0.033245  0.042848  1
  Pb  Pb21  1  0.781626  0.466775  0.457002  1
  Pb  Pb22  1  0.718374  0.966785  0.543044  1
  Pb  Pb23  1  0.218386  0.533219  0.956964  1
  Pb  Pb24  1  0.718374  0.966785  0.956956  1
  Pb  Pb25  1  0.218386  0.533219  0.543036  1
  Pb  Pb26  1  0.281609  0.033245  0.457152  1
  Pb  Pb27  1  0.781626  0.466775  0.042998  1
  Pb  Pb28  1  0.570883  0.627089  0.750000  1
  Pb  Pb29  1  0.070883  0.872936  0.750000  1
  Pb  Pb30  1  0.429164  0.373157  0.250000  1
  Pb  Pb31  1  0.928688  0.127280  0.250000  1
  Pb  Pb32  1  0.347542  0.153928  0.750000  1
  Pb  Pb33  1  0.847579  0.346148  0.750000  1
  Pb  Pb34  1  0.652575  0.846100  0.250000  1
  Pb  Pb35  1  0.152436  0.653425  0.250000  1
