# generated using pymatgen
data_Sc2U(GaRh)3
_symmetry_space_group_name_H-M   'P 1'
_cell_length_a   7.13435853
_cell_length_b   7.24229076
_cell_length_c   3.59013500
_cell_angle_alpha   90.00000000
_cell_angle_beta   90.00000000
_cell_angle_gamma   120.50172138
_symmetry_Int_Tables_number   1
_chemical_formula_structural   Sc2U(GaRh)3
_chemical_formula_sum   'Sc2 U1 Ga3 Rh3'
_cell_volume   159.82855374
_cell_formula_units_Z   1
loop_
 _symmetry_equiv_pos_site_id
 _symmetry_equiv_pos_as_xyz
  1  'x, y, z'
loop_
 _atom_site_type_symbol
 _atom_site_label
 _atom_site_symmetry_multiplicity
 _atom_site_fract_x
 _atom_site_fract_y
 _atom_site_fract_z
 _atom_site_occupancy
  Sc  Sc0  1  0.399767  0.404635  0.500000  1
  Sc  Sc1  1  0.600233  0.004867  0.500000  1
  U  U2  1  0.000000  0.586564  0.500000  1
  Ga  Ga3  1  0.716898  0.739394  0.000000  1
  Ga  Ga4  1  0.283102  0.022497  0.000000  1
  Ga  Ga5  1  0.000000  0.239304  0.000000  1
  Rh  Rh6  1  0.692366  0.356182  0.000000  1
  Rh  Rh7  1  0.307634  0.663817  0.000000  1
  Rh  Rh8  1  0.000000  0.982739  0.500000  1
