# generated using pymatgen
data_Sc2Be2FeIr5
_symmetry_space_group_name_H-M   'P 1'
_cell_length_a   9.44241000
_cell_length_b   9.44241000
_cell_length_c   3.12464700
_cell_angle_alpha   90.00000000
_cell_angle_beta   90.00000000
_cell_angle_gamma   90.00000000
_symmetry_Int_Tables_number   1
_chemical_formula_structural   Sc2Be2FeIr5
_chemical_formula_sum   'Sc4 Be4 Fe2 Ir10'
_cell_volume   278.59073499
_cell_formula_units_Z   2
loop_
 _symmetry_equiv_pos_site_id
 _symmetry_equiv_pos_as_xyz
  1  'x, y, z'
loop_
 _atom_site_type_symbol
 _atom_site_label
 _atom_site_symmetry_multiplicity
 _atom_site_fract_x
 _atom_site_fract_y
 _atom_site_fract_z
 _atom_site_occupancy
  Sc  Sc0  1  0.176138  0.676138  0.000000  1
  Sc  Sc1  1  0.823862  0.323862  0.000000  1
  Sc  Sc2  1  0.323862  0.176138  0.000000  1
  Sc  Sc3  1  0.676138  0.823862  0.000000  1
  Be  Be4  1  0.376328  0.876328  0.000000  1
  Be  Be5  1  0.876328  0.623672  0.000000  1
  Be  Be6  1  0.123672  0.376328  0.000000  1
  Be  Be7  1  0.623672  0.123672  0.000000  1
  Fe  Fe8  1  0.000000  0.000000  0.000000  1
  Fe  Fe9  1  0.500000  0.500000  0.000000  1
  Ir  Ir10  1  0.500000  0.000000  0.500000  1
  Ir  Ir11  1  0.709005  0.568290  0.500000  1
  Ir  Ir12  1  0.568290  0.290995  0.500000  1
  Ir  Ir13  1  0.431710  0.709005  0.500000  1
  Ir  Ir14  1  0.290995  0.431710  0.500000  1
  Ir  Ir15  1  0.000000  0.500000  0.500000  1
  Ir  Ir16  1  0.931710  0.790995  0.500000  1
  Ir  Ir17  1  0.790995  0.068290  0.500000  1
  Ir  Ir18  1  0.209005  0.931710  0.500000  1
  Ir  Ir19  1  0.068290  0.209005  0.500000  1
