# generated using pymatgen
data_TaBe4Ni2W5C
_symmetry_space_group_name_H-M   'P 1'
_cell_length_a   7.59353010
_cell_length_b   7.59562717
_cell_length_c   7.58840298
_cell_angle_alpha   60.05170904
_cell_angle_beta   59.97764534
_cell_angle_gamma   60.00913257
_symmetry_Int_Tables_number   1
_chemical_formula_structural   TaBe4Ni2W5C
_chemical_formula_sum   'Ta2 Be8 Ni4 W10 C2'
_cell_volume   309.57699013
_cell_formula_units_Z   2
loop_
 _symmetry_equiv_pos_site_id
 _symmetry_equiv_pos_as_xyz
  1  'x, y, z'
loop_
 _atom_site_type_symbol
 _atom_site_label
 _atom_site_symmetry_multiplicity
 _atom_site_fract_x
 _atom_site_fract_y
 _atom_site_fract_z
 _atom_site_occupancy
  Ta  Ta0  1  0.049094  0.049819  0.450255  1
  Ta  Ta1  1  0.450832  0.049819  0.450255  1
  Be  Be2  1  0.421302  0.421107  0.736287  1
  Be  Be3  1  0.422855  0.733129  0.421160  1
  Be  Be4  1  0.734604  0.422961  0.421310  1
  Be  Be5  1  0.421124  0.422961  0.421310  1
  Be  Be6  1  0.830139  0.826497  0.513227  1
  Be  Be7  1  0.828636  0.515327  0.827402  1
  Be  Be8  1  0.514322  0.828253  0.830452  1
  Be  Be9  1  0.826974  0.828253  0.830452  1
  Ni  Ni10  1  0.625228  0.626376  0.123169  1
  Ni  Ni11  1  0.623487  0.126038  0.626989  1
  Ni  Ni12  1  0.124560  0.623456  0.625275  1
  Ni  Ni13  1  0.626708  0.623456  0.625275  1
  W  W14  1  0.050271  0.449954  0.449503  1
  W  W15  1  0.450488  0.451048  0.048896  1
  W  W16  1  0.049568  0.451048  0.048896  1
  W  W17  1  0.449654  0.050979  0.049714  1
  W  W18  1  0.197622  0.199859  0.802932  1
  W  W19  1  0.799588  0.199859  0.802932  1
  W  W20  1  0.199599  0.797242  0.803561  1
  W  W21  1  0.801742  0.798419  0.198721  1
  W  W22  1  0.201117  0.798419  0.198721  1
  W  W23  1  0.800486  0.201726  0.197302  1
  C  C24  1  0.249959  0.255199  0.244883  1
  C  C25  1  0.000042  0.998795  0.001122  1
