# generated using pymatgen
data_Tb3In3Ni2Hg
_symmetry_space_group_name_H-M   'P 1'
_cell_length_a   7.65103900
_cell_length_b   7.65103863
_cell_length_c   3.91853200
_cell_angle_alpha   90.00000000
_cell_angle_beta   90.00000000
_cell_angle_gamma   119.99999728
_symmetry_Int_Tables_number   1
_chemical_formula_structural   Tb3In3Ni2Hg
_chemical_formula_sum   'Tb3 In3 Ni2 Hg1'
_cell_volume   198.65287361
_cell_formula_units_Z   1
loop_
 _symmetry_equiv_pos_site_id
 _symmetry_equiv_pos_as_xyz
  1  'x, y, z'
loop_
 _atom_site_type_symbol
 _atom_site_label
 _atom_site_symmetry_multiplicity
 _atom_site_fract_x
 _atom_site_fract_y
 _atom_site_fract_z
 _atom_site_occupancy
  Tb  Tb0  1  0.024767  0.604761  0.500000  1
  Tb  Tb1  1  0.579994  0.975233  0.500000  1
  Tb  Tb2  1  0.395239  0.420006  0.500000  1
  In  In3  1  0.750456  0.758003  0.000000  1
  In  In4  1  0.007548  0.249544  0.000000  1
  In  In5  1  0.241997  0.992452  0.000000  1
  Ni  Ni6  1  0.000000  0.000000  0.500000  1
  Ni  Ni7  1  0.333333  0.666667  0.000000  1
  Hg  Hg8  1  0.666667  0.333333  0.000000  1
