# generated using pymatgen
data_Pr8Nd8Cd4IrPd3
_symmetry_space_group_name_H-M   'P 1'
_cell_length_a   10.05034656
_cell_length_b   10.01817315
_cell_length_c   10.02560800
_cell_angle_alpha   59.97544728
_cell_angle_beta   60.08139121
_cell_angle_gamma   60.15694936
_symmetry_Int_Tables_number   1
_chemical_formula_structural   Pr8Nd8Cd4IrPd3
_chemical_formula_sum   'Pr8 Nd8 Cd4 Ir1 Pd3'
_cell_volume   714.93063551
_cell_formula_units_Z   1
loop_
 _symmetry_equiv_pos_site_id
 _symmetry_equiv_pos_as_xyz
  1  'x, y, z'
loop_
 _atom_site_type_symbol
 _atom_site_label
 _atom_site_symmetry_multiplicity
 _atom_site_fract_x
 _atom_site_fract_y
 _atom_site_fract_z
 _atom_site_occupancy
  Pr  Pr0  1  0.194317  0.190230  0.807727  1
  Pr  Pr1  1  0.805876  0.814404  0.189860  1
  Pr  Pr2  1  0.940072  0.562114  0.563480  1
  Pr  Pr3  1  0.565480  0.938220  0.936240  1
  Pr  Pr4  1  0.565480  0.938220  0.560060  1
  Pr  Pr5  1  0.940072  0.562114  0.934334  1
  Pr  Pr6  1  0.566132  0.559728  0.937070  1
  Pr  Pr7  1  0.938413  0.936083  0.562752  1
  Nd  Nd8  1  0.353141  0.348195  0.347368  1
  Nd  Nd9  1  0.353141  0.348195  0.951295  1
  Nd  Nd10  1  0.354110  0.947765  0.349062  1
  Nd  Nd11  1  0.937551  0.353905  0.354271  1
  Nd  Nd12  1  0.805964  0.189653  0.190282  1
  Nd  Nd13  1  0.194068  0.808977  0.806361  1
  Nd  Nd14  1  0.194068  0.808977  0.190595  1
  Nd  Nd15  1  0.805964  0.189653  0.814102  1
  Cd  Cd16  1  0.578789  0.580643  0.581345  1
  Cd  Cd17  1  0.578789  0.580643  0.259223  1
  Cd  Cd18  1  0.579205  0.259045  0.580874  1
  Cd  Cd19  1  0.260394  0.579930  0.579838  1
  Ir  Ir20  1  0.569493  0.144019  0.143243  1
  Pd  Pd21  1  0.139422  0.144931  0.147453  1
  Pd  Pd22  1  0.139422  0.144931  0.568194  1
  Pd  Pd23  1  0.140630  0.569427  0.144971  1
