# generated using pymatgen
data_Cs2Ta3Nb3SnBr18
_symmetry_space_group_name_H-M   'P 1'
_cell_length_a   11.02131321
_cell_length_b   11.02131431
_cell_length_c   11.02131306
_cell_angle_alpha   54.91751729
_cell_angle_beta   54.91751718
_cell_angle_gamma   54.91751253
_symmetry_Int_Tables_number   1
_chemical_formula_structural   Cs2Ta3Nb3SnBr18
_chemical_formula_sum   'Cs2 Ta3 Nb3 Sn1 Br18'
_cell_volume   834.65871111
_cell_formula_units_Z   1
loop_
 _symmetry_equiv_pos_site_id
 _symmetry_equiv_pos_as_xyz
  1  'x, y, z'
loop_
 _atom_site_type_symbol
 _atom_site_label
 _atom_site_symmetry_multiplicity
 _atom_site_fract_x
 _atom_site_fract_y
 _atom_site_fract_z
 _atom_site_occupancy
  Cs  Cs0  1  0.723029  0.723029  0.723029  1
  Cs  Cs1  1  0.277231  0.277231  0.277231  1
  Ta  Ta2  1  0.576491  0.361127  0.690793  1
  Ta  Ta3  1  0.361127  0.690793  0.576491  1
  Ta  Ta4  1  0.690793  0.576491  0.361127  1
  Nb  Nb5  1  0.639911  0.307737  0.422801  1
  Nb  Nb6  1  0.422801  0.639911  0.307737  1
  Nb  Nb7  1  0.307737  0.422801  0.639911  1
  Sn  Sn8  1  0.000621  0.000621  0.000621  1
  Br  Br9  1  0.906682  0.361380  0.231785  1
  Br  Br10  1  0.830685  0.422439  0.564848  1
  Br  Br11  1  0.767441  0.093837  0.641638  1
  Br  Br12  1  0.093837  0.641638  0.767441  1
  Br  Br13  1  0.679243  0.172447  0.958469  1
  Br  Br14  1  0.231785  0.906682  0.361380  1
  Br  Br15  1  0.435121  0.168170  0.577620  1
  Br  Br16  1  0.641638  0.767441  0.093837  1
  Br  Br17  1  0.577620  0.435121  0.168170  1
  Br  Br18  1  0.039371  0.319342  0.829741  1
  Br  Br19  1  0.564848  0.830685  0.422439  1
  Br  Br20  1  0.361380  0.231785  0.906682  1
  Br  Br21  1  0.958469  0.679243  0.172447  1
  Br  Br22  1  0.168170  0.577620  0.435121  1
  Br  Br23  1  0.829741  0.039371  0.319342  1
  Br  Br24  1  0.422439  0.564848  0.830685  1
  Br  Br25  1  0.172447  0.958469  0.679243  1
  Br  Br26  1  0.319342  0.829741  0.039371  1
