# generated using pymatgen
data_Tb2FeCo3(SiC)2
_symmetry_space_group_name_H-M   'P 1'
_cell_length_a   5.55149156
_cell_length_b   5.55149128
_cell_length_c   6.74489888
_cell_angle_alpha   89.90070243
_cell_angle_beta   90.09929905
_cell_angle_gamma   140.71792135
_symmetry_Int_Tables_number   1
_chemical_formula_structural   Tb2FeCo3(SiC)2
_chemical_formula_sum   'Tb2 Fe1 Co3 Si2 C2'
_cell_volume   131.61123923
_cell_formula_units_Z   1
loop_
 _symmetry_equiv_pos_site_id
 _symmetry_equiv_pos_as_xyz
  1  'x, y, z'
loop_
 _atom_site_type_symbol
 _atom_site_label
 _atom_site_symmetry_multiplicity
 _atom_site_fract_x
 _atom_site_fract_y
 _atom_site_fract_z
 _atom_site_occupancy
  Tb  Tb0  1  0.551268  0.448732  0.250519  1
  Tb  Tb1  1  0.448688  0.551312  0.749134  1
  Fe  Fe2  1  0.836060  0.163940  0.441095  1
  Co  Co3  1  0.835521  0.164479  0.057367  1
  Co  Co4  1  0.164184  0.835816  0.944059  1
  Co  Co5  1  0.165249  0.834751  0.558254  1
  Si  Si6  1  0.272303  0.727697  0.252122  1
  Si  Si7  1  0.728624  0.271376  0.748274  1
  C  C8  1  0.999636  0.000364  0.999679  1
  C  C9  1  0.998467  0.001533  0.499495  1
