# generated using pymatgen
data_Hf4Ga2Ni3Rh7
_symmetry_space_group_name_H-M   'P 1'
_cell_length_a   4.07232900
_cell_length_b   5.44832692
_cell_length_c   10.77986753
_cell_angle_alpha   88.27628269
_cell_angle_beta   90.00000000
_cell_angle_gamma   90.00000000
_symmetry_Int_Tables_number   1
_chemical_formula_structural   Hf4Ga2Ni3Rh7
_chemical_formula_sum   'Hf4 Ga2 Ni3 Rh7'
_cell_volume   239.06878507
_cell_formula_units_Z   1
loop_
 _symmetry_equiv_pos_site_id
 _symmetry_equiv_pos_as_xyz
  1  'x, y, z'
loop_
 _atom_site_type_symbol
 _atom_site_label
 _atom_site_symmetry_multiplicity
 _atom_site_fract_x
 _atom_site_fract_y
 _atom_site_fract_z
 _atom_site_occupancy
  Hf  Hf0  1  0.500000  0.189021  0.639104  1
  Hf  Hf1  1  0.500000  0.810979  0.360896  1
  Hf  Hf2  1  0.500000  0.688533  0.860443  1
  Hf  Hf3  1  0.500000  0.311467  0.139557  1
  Ga  Ga4  1  0.000000  0.500000  0.500000  1
  Ga  Ga5  1  0.000000  0.000000  0.000000  1
  Ni  Ni6  1  0.000000  0.440089  0.745036  1
  Ni  Ni7  1  0.000000  0.559911  0.254964  1
  Ni  Ni8  1  0.000000  0.000000  0.500000  1
  Rh  Rh9  1  0.500000  0.199728  0.886381  1
  Rh  Rh10  1  0.500000  0.800272  0.113619  1
  Rh  Rh11  1  0.500000  0.694500  0.608310  1
  Rh  Rh12  1  0.500000  0.305500  0.391690  1
  Rh  Rh13  1  0.000000  0.500000  0.000000  1
  Rh  Rh14  1  0.000000  0.061351  0.250966  1
  Rh  Rh15  1  0.000000  0.938649  0.749034  1
