# generated using pymatgen
data_Tb7Yb(Si3Ir)4
_symmetry_space_group_name_H-M   'P 1'
_cell_length_a   8.18397800
_cell_length_b   8.19284436
_cell_length_c   8.02841400
_cell_angle_alpha   90.00000000
_cell_angle_beta   90.00000000
_cell_angle_gamma   119.96420730
_symmetry_Int_Tables_number   1
_chemical_formula_structural   Tb7Yb(Si3Ir)4
_chemical_formula_sum   'Tb7 Yb1 Si12 Ir4'
_cell_volume   466.35439478
_cell_formula_units_Z   1
loop_
 _symmetry_equiv_pos_site_id
 _symmetry_equiv_pos_as_xyz
  1  'x, y, z'
loop_
 _atom_site_type_symbol
 _atom_site_label
 _atom_site_symmetry_multiplicity
 _atom_site_fract_x
 _atom_site_fract_y
 _atom_site_fract_z
 _atom_site_occupancy
  Tb  Tb0  1  0.492731  0.985465  0.750000  1
  Tb  Tb1  1  0.983151  0.490915  0.250000  1
  Tb  Tb2  1  0.016311  0.508733  0.750000  1
  Tb  Tb3  1  0.507765  0.490915  0.250000  1
  Tb  Tb4  1  0.492421  0.508733  0.750000  1
  Tb  Tb5  1  0.999796  0.999593  0.250000  1
  Tb  Tb6  1  0.000016  0.000034  0.750000  1
  Yb  Yb7  1  0.507542  0.015083  0.250000  1
  Si  Si8  1  0.165430  0.330861  0.000510  1
  Si  Si9  1  0.834509  0.669020  0.996929  1
  Si  Si10  1  0.666077  0.833798  0.003126  1
  Si  Si11  1  0.834509  0.669020  0.503071  1
  Si  Si12  1  0.333917  0.166548  0.997929  1
  Si  Si13  1  0.165430  0.330861  0.499490  1
  Si  Si14  1  0.167722  0.833798  0.003126  1
  Si  Si15  1  0.333917  0.166548  0.502071  1
  Si  Si16  1  0.832631  0.166548  0.997929  1
  Si  Si17  1  0.666077  0.833798  0.496874  1
  Si  Si18  1  0.832631  0.166548  0.502071  1
  Si  Si19  1  0.167722  0.833798  0.496874  1
  Ir  Ir20  1  0.331822  0.663646  0.021394  1
  Ir  Ir21  1  0.668023  0.336045  0.974955  1
  Ir  Ir22  1  0.668023  0.336045  0.525045  1
  Ir  Ir23  1  0.331822  0.663646  0.478606  1
