# generated using pymatgen
data_Ca3Yb(Ga8Pt3)3
_symmetry_space_group_name_H-M   'P 1'
_cell_length_a   7.55876795
_cell_length_b   7.62434256
_cell_length_c   13.42102400
_cell_angle_alpha   84.64762080
_cell_angle_beta   79.30187347
_cell_angle_gamma   60.11862496
_symmetry_Int_Tables_number   1
_chemical_formula_structural   Ca3Yb(Ga8Pt3)3
_chemical_formula_sum   'Ca3 Yb1 Ga24 Pt9'
_cell_volume   658.98040109
_cell_formula_units_Z   1
loop_
 _symmetry_equiv_pos_site_id
 _symmetry_equiv_pos_as_xyz
  1  'x, y, z'
loop_
 _atom_site_type_symbol
 _atom_site_label
 _atom_site_symmetry_multiplicity
 _atom_site_fract_x
 _atom_site_fract_y
 _atom_site_fract_z
 _atom_site_occupancy
  Ca  Ca0  1  0.603452  0.832045  0.191359  1
  Ca  Ca1  1  0.731629  0.500389  0.808836  1
  Ca  Ca2  1  0.268326  0.499417  0.191175  1
  Yb  Yb3  1  0.397279  0.168335  0.806877  1
  Ga  Ga4  1  0.686067  0.834719  0.939779  1
  Ga  Ga5  1  0.312472  0.166754  0.057470  1
  Ga  Ga6  1  0.146745  0.832030  0.559537  1
  Ga  Ga7  1  0.853133  0.167929  0.441083  1
  Ga  Ga8  1  0.478431  0.166086  0.556354  1
  Ga  Ga9  1  0.521369  0.833859  0.444505  1
  Ga  Ga10  1  0.219158  0.165013  0.326172  1
  Ga  Ga11  1  0.779903  0.835501  0.675016  1
  Ga  Ga12  1  0.436247  0.505323  0.673969  1
  Ga  Ga13  1  0.563688  0.494320  0.326993  1
  Ga  Ga14  1  0.107911  0.160438  0.673146  1
  Ga  Ga15  1  0.892382  0.839664  0.327913  1
  Ga  Ga16  1  0.355634  0.497028  0.940532  1
  Ga  Ga17  1  0.644914  0.500982  0.058248  1
  Ga  Ga18  1  0.019855  0.167716  0.946536  1
  Ga  Ga19  1  0.981847  0.832557  0.052073  1
  Ga  Ga20  1  0.186337  0.498496  0.444488  1
  Ga  Ga21  1  0.813612  0.501354  0.556108  1
  Ga  Ga22  1  0.733934  0.165565  0.182419  1
  Ga  Ga23  1  0.265781  0.836275  0.817854  1
  Ga  Ga24  1  0.063548  0.628652  0.816502  1
  Ga  Ga25  1  0.938046  0.370085  0.183548  1
  Ga  Ga26  1  0.855345  0.039565  0.815877  1
  Ga  Ga27  1  0.143793  0.960489  0.184174  1
  Pt  Pt28  1  0.118929  0.492056  0.638991  1
  Pt  Pt29  1  0.881263  0.507750  0.361592  1
  Pt  Pt30  1  0.660897  0.169294  0.998625  1
  Pt  Pt31  1  0.339444  0.829779  0.001049  1
  Pt  Pt32  1  0.539947  0.166911  0.361838  1
  Pt  Pt33  1  0.459852  0.833163  0.638918  1
  Pt  Pt34  1  0.778719  0.174108  0.635989  1
  Pt  Pt35  1  0.220791  0.825939  0.364742  1
  Pt  Pt36  1  0.999320  0.500418  0.999711  1
