# generated using pymatgen
data_Tb3SnPd2PtPb2
_symmetry_space_group_name_H-M   'P 1'
_cell_length_a   7.82554044
_cell_length_b   7.76975966
_cell_length_c   3.90466900
_cell_angle_alpha   90.00000000
_cell_angle_beta   90.00000000
_cell_angle_gamma   119.90097125
_symmetry_Int_Tables_number   1
_chemical_formula_structural   Tb3SnPd2PtPb2
_chemical_formula_sum   'Tb3 Sn1 Pd2 Pt1 Pb2'
_cell_volume   205.81133532
_cell_formula_units_Z   1
loop_
 _symmetry_equiv_pos_site_id
 _symmetry_equiv_pos_as_xyz
  1  'x, y, z'
loop_
 _atom_site_type_symbol
 _atom_site_label
 _atom_site_symmetry_multiplicity
 _atom_site_fract_x
 _atom_site_fract_y
 _atom_site_fract_z
 _atom_site_occupancy
  Tb  Tb0  1  0.396246  0.407023  0.500000  1
  Tb  Tb1  1  0.596971  0.997378  0.500000  1
  Tb  Tb2  1  0.006581  0.597584  0.500000  1
  Sn  Sn3  1  0.994343  0.260072  0.000000  1
  Pd  Pd4  1  0.674072  0.329976  0.000000  1
  Pd  Pd5  1  0.999994  0.011953  0.500000  1
  Pt  Pt6  1  0.325159  0.655563  0.000000  1
  Pb  Pb7  1  0.739932  0.733902  0.000000  1
  Pb  Pb8  1  0.266701  0.006549  0.000000  1
