# generated using pymatgen
data_KTb3(SbAu)4
_symmetry_space_group_name_H-M   'P 1'
_cell_length_a   4.64256000
_cell_length_b   4.64256059
_cell_length_c   17.27711500
_cell_angle_alpha   90.00000000
_cell_angle_beta   90.00000000
_cell_angle_gamma   120.00001006
_symmetry_Int_Tables_number   1
_chemical_formula_structural   KTb3(SbAu)4
_chemical_formula_sum   'K1 Tb3 Sb4 Au4'
_cell_volume   322.49049369
_cell_formula_units_Z   1
loop_
 _symmetry_equiv_pos_site_id
 _symmetry_equiv_pos_as_xyz
  1  'x, y, z'
loop_
 _atom_site_type_symbol
 _atom_site_label
 _atom_site_symmetry_multiplicity
 _atom_site_fract_x
 _atom_site_fract_y
 _atom_site_fract_z
 _atom_site_occupancy
  K  K0  1  0.000000  0.000000  0.250000  1
  Tb  Tb1  1  0.000000  0.000000  0.513736  1
  Tb  Tb2  1  0.000000  0.000000  0.986264  1
  Tb  Tb3  1  0.000000  0.000000  0.750000  1
  Sb  Sb4  1  0.333333  0.666667  0.391735  1
  Sb  Sb5  1  0.666667  0.333333  0.617665  1
  Sb  Sb6  1  0.666667  0.333333  0.882335  1
  Sb  Sb7  1  0.333333  0.666667  0.108265  1
  Au  Au8  1  0.666667  0.333333  0.431181  1
  Au  Au9  1  0.333333  0.666667  0.666738  1
  Au  Au10  1  0.333333  0.666667  0.833262  1
  Au  Au11  1  0.666667  0.333333  0.068819  1
