# generated using pymatgen
data_Y9Tm10LuSn16
_symmetry_space_group_name_H-M   'P 1'
_cell_length_a   7.98740803
_cell_length_b   8.11672002
_cell_length_c   15.34848700
_cell_angle_alpha   90.02709943
_cell_angle_beta   90.00478457
_cell_angle_gamma   90.07586064
_symmetry_Int_Tables_number   1
_chemical_formula_structural   Y9Tm10LuSn16
_chemical_formula_sum   'Y9 Tm10 Lu1 Sn16'
_cell_volume   995.06528702
_cell_formula_units_Z   1
loop_
 _symmetry_equiv_pos_site_id
 _symmetry_equiv_pos_as_xyz
  1  'x, y, z'
loop_
 _atom_site_type_symbol
 _atom_site_label
 _atom_site_symmetry_multiplicity
 _atom_site_fract_x
 _atom_site_fract_y
 _atom_site_fract_z
 _atom_site_occupancy
  Y  Y0  1  0.866131  0.663466  0.877749  1
  Y  Y1  1  0.520297  0.321193  0.904132  1
  Y  Y2  1  0.020461  0.178791  0.595612  1
  Y  Y3  1  0.479330  0.678446  0.403832  1
  Y  Y4  1  0.978965  0.822307  0.097396  1
  Y  Y5  1  0.480703  0.677963  0.096217  1
  Y  Y6  1  0.979668  0.821685  0.403376  1
  Y  Y7  1  0.519664  0.321115  0.595428  1
  Y  Y8  1  0.020233  0.178398  0.903650  1
  Tm  Tm9  1  0.364565  0.837480  0.876064  1
  Tm  Tm10  1  0.865066  0.661980  0.623214  1
  Tm  Tm11  1  0.634881  0.161584  0.376717  1
  Tm  Tm12  1  0.135201  0.337824  0.123520  1
  Tm  Tm13  1  0.633823  0.161962  0.124469  1
  Tm  Tm14  1  0.134866  0.337466  0.376683  1
  Tm  Tm15  1  0.365796  0.838035  0.622909  1
  Tm  Tm16  1  0.196696  0.504544  0.749695  1
  Tm  Tm17  1  0.696096  0.995833  0.749352  1
  Tm  Tm18  1  0.803634  0.495281  0.250378  1
  Lu  Lu19  1  0.303102  0.004468  0.250026  1
  Sn  Sn20  1  0.296401  0.039170  0.041420  1
  Sn  Sn21  1  0.796653  0.460639  0.458555  1
  Sn  Sn22  1  0.704059  0.960396  0.541409  1
  Sn  Sn23  1  0.206414  0.538337  0.958658  1
  Sn  Sn24  1  0.701338  0.963448  0.958609  1
  Sn  Sn25  1  0.202876  0.539518  0.541529  1
  Sn  Sn26  1  0.296330  0.039330  0.458318  1
  Sn  Sn27  1  0.796608  0.459299  0.042570  1
  Sn  Sn28  1  0.561828  0.619755  0.749098  1
  Sn  Sn29  1  0.062911  0.881232  0.749007  1
  Sn  Sn30  1  0.437465  0.380254  0.250655  1
  Sn  Sn31  1  0.938217  0.119326  0.250170  1
  Sn  Sn32  1  0.330260  0.149338  0.749679  1
  Sn  Sn33  1  0.830119  0.350384  0.749451  1
  Sn  Sn34  1  0.669430  0.850168  0.250294  1
  Sn  Sn35  1  0.169913  0.649588  0.250160  1
