# generated using pymatgen
data_Cs6ScInBi4
_symmetry_space_group_name_H-M   'P 1'
_cell_length_a   10.52488601
_cell_length_b   10.52488667
_cell_length_c   10.52488573
_cell_angle_alpha   126.42358096
_cell_angle_beta   70.73393414
_cell_angle_gamma   137.40915027
_symmetry_Int_Tables_number   1
_chemical_formula_structural   Cs6ScInBi4
_chemical_formula_sum   'Cs6 Sc1 In1 Bi4'
_cell_volume   622.46582787
_cell_formula_units_Z   1
loop_
 _symmetry_equiv_pos_site_id
 _symmetry_equiv_pos_as_xyz
  1  'x, y, z'
loop_
 _atom_site_type_symbol
 _atom_site_label
 _atom_site_symmetry_multiplicity
 _atom_site_fract_x
 _atom_site_fract_y
 _atom_site_fract_z
 _atom_site_occupancy
  Cs  Cs0  1  0.250000  0.250000  0.000000  1
  Cs  Cs1  1  0.750000  0.750000  0.000000  1
  Cs  Cs2  1  0.325473  0.816108  0.130677  1
  Cs  Cs3  1  0.174528  0.305206  0.490636  1
  Cs  Cs4  1  0.814571  0.683893  0.509364  1
  Cs  Cs5  1  0.685429  0.194794  0.869323  1
  Sc  Sc6  1  0.250000  0.750000  0.500000  1
  In  In7  1  0.749999  0.250000  0.500000  1
  Bi  Bi8  1  0.911635  0.321247  0.223343  1
  Bi  Bi9  1  0.588366  0.811708  0.409611  1
  Bi  Bi10  1  0.402096  0.178753  0.590389  1
  Bi  Bi11  1  0.097904  0.688293  0.776658  1
