# generated using pymatgen
data_TmSi4(RuRh)3
_symmetry_space_group_name_H-M   'P 1'
_cell_length_a   7.00961900
_cell_length_b   7.00961914
_cell_length_c   3.79426000
_cell_angle_alpha   90.00000000
_cell_angle_beta   90.00000000
_cell_angle_gamma   120.00000405
_symmetry_Int_Tables_number   1
_chemical_formula_structural   TmSi4(RuRh)3
_chemical_formula_sum   'Tm1 Si4 Ru3 Rh3'
_cell_volume   161.45315504
_cell_formula_units_Z   1
loop_
 _symmetry_equiv_pos_site_id
 _symmetry_equiv_pos_as_xyz
  1  'x, y, z'
loop_
 _atom_site_type_symbol
 _atom_site_label
 _atom_site_symmetry_multiplicity
 _atom_site_fract_x
 _atom_site_fract_y
 _atom_site_fract_z
 _atom_site_occupancy
  Tm  Tm0  1  0.000000  0.000000  0.000000  1
  Si  Si1  1  0.333333  0.666667  0.000000  1
  Si  Si2  1  0.399266  0.199632  0.500000  1
  Si  Si3  1  0.800368  0.199632  0.500000  1
  Si  Si4  1  0.800367  0.600734  0.500000  1
  Ru  Ru5  1  0.534678  0.069357  0.000000  1
  Ru  Ru6  1  0.534680  0.465321  0.000000  1
  Ru  Ru7  1  0.930642  0.465321  0.000000  1
  Rh  Rh8  1  0.197868  0.395737  0.500000  1
  Rh  Rh9  1  0.197869  0.802132  0.500000  1
  Rh  Rh10  1  0.604263  0.802132  0.500000  1
