# generated using pymatgen
data_Tm5Sc3(P3Rh4)4
_symmetry_space_group_name_H-M   'P 1'
_cell_length_a   12.86286000
_cell_length_b   12.86286041
_cell_length_c   3.92419100
_cell_angle_alpha   90.00000000
_cell_angle_beta   90.00000000
_cell_angle_gamma   119.99999894
_symmetry_Int_Tables_number   1
_chemical_formula_structural   Tm5Sc3(P3Rh4)4
_chemical_formula_sum   'Tm5 Sc3 P12 Rh16'
_cell_volume   562.28419096
_cell_formula_units_Z   1
loop_
 _symmetry_equiv_pos_site_id
 _symmetry_equiv_pos_as_xyz
  1  'x, y, z'
loop_
 _atom_site_type_symbol
 _atom_site_label
 _atom_site_symmetry_multiplicity
 _atom_site_fract_x
 _atom_site_fract_y
 _atom_site_fract_z
 _atom_site_occupancy
  Tm  Tm0  1  0.333333  0.666667  0.500000  1
  Tm  Tm1  1  0.666667  0.333333  0.500000  1
  Tm  Tm2  1  0.000000  0.811337  0.000000  1
  Tm  Tm3  1  0.188663  0.188663  0.000000  1
  Tm  Tm4  1  0.811337  0.000000  0.000000  1
  Sc  Sc5  1  0.000000  0.443421  0.500000  1
  Sc  Sc6  1  0.556579  0.556579  0.500000  1
  Sc  Sc7  1  0.443421  0.000000  0.500000  1
  P  P8  1  0.000000  0.645737  0.500000  1
  P  P9  1  0.354263  0.354263  0.500000  1
  P  P10  1  0.645737  0.000000  0.500000  1
  P  P11  1  0.516428  0.687313  0.000000  1
  P  P12  1  0.312687  0.829116  0.000000  1
  P  P13  1  0.170884  0.483572  0.000000  1
  P  P14  1  0.483572  0.170884  0.000000  1
  P  P15  1  0.687313  0.516428  0.000000  1
  P  P16  1  0.829116  0.312687  0.000000  1
  P  P17  1  0.000000  0.176517  0.500000  1
  P  P18  1  0.823483  0.823483  0.500000  1
  P  P19  1  0.176517  0.000000  0.500000  1
  Rh  Rh20  1  0.512571  0.869761  0.000000  1
  Rh  Rh21  1  0.130239  0.642811  0.000000  1
  Rh  Rh22  1  0.357189  0.487429  0.000000  1
  Rh  Rh23  1  0.487429  0.357189  0.000000  1
  Rh  Rh24  1  0.869761  0.512571  0.000000  1
  Rh  Rh25  1  0.642811  0.130239  0.000000  1
  Rh  Rh26  1  0.000000  0.277530  0.000000  1
  Rh  Rh27  1  0.722470  0.722470  0.000000  1
  Rh  Rh28  1  0.277530  0.000000  0.000000  1
  Rh  Rh29  1  0.626950  0.805511  0.500000  1
  Rh  Rh30  1  0.194489  0.821439  0.500000  1
  Rh  Rh31  1  0.178561  0.373050  0.500000  1
  Rh  Rh32  1  0.373050  0.178561  0.500000  1
  Rh  Rh33  1  0.805511  0.626950  0.500000  1
  Rh  Rh34  1  0.821439  0.194489  0.500000  1
  Rh  Rh35  1  0.000000  0.000000  0.500000  1
