# generated using pymatgen
data_Y9Tm(TlSb)4
_symmetry_space_group_name_H-M   'P 1'
_cell_length_a   8.87037846
_cell_length_b   8.87037860
_cell_length_c   8.12037200
_cell_angle_alpha   90.04264381
_cell_angle_beta   90.04263736
_cell_angle_gamma   125.47146305
_symmetry_Int_Tables_number   1
_chemical_formula_structural   Y9Tm(TlSb)4
_chemical_formula_sum   'Y9 Tm1 Tl4 Sb4'
_cell_volume   520.35520110
_cell_formula_units_Z   1
loop_
 _symmetry_equiv_pos_site_id
 _symmetry_equiv_pos_as_xyz
  1  'x, y, z'
loop_
 _atom_site_type_symbol
 _atom_site_label
 _atom_site_symmetry_multiplicity
 _atom_site_fract_x
 _atom_site_fract_y
 _atom_site_fract_z
 _atom_site_occupancy
  Y  Y0  1  0.531195  0.808016  0.165881  1
  Y  Y1  1  0.306813  0.030961  0.333592  1
  Y  Y2  1  0.191984  0.468805  0.834119  1
  Y  Y3  1  0.969039  0.693187  0.666408  1
  Y  Y4  1  0.693187  0.969039  0.666408  1
  Y  Y5  1  0.468805  0.191984  0.834119  1
  Y  Y6  1  0.808016  0.531195  0.165881  1
  Y  Y7  1  0.030961  0.306813  0.333592  1
  Y  Y8  1  0.500000  0.500000  0.500000  1
  Tm  Tm9  1  0.000000  0.000000  0.000000  1
  Tl  Tl10  1  0.633882  0.633882  0.869203  1
  Tl  Tl11  1  0.132077  0.132077  0.633170  1
  Tl  Tl12  1  0.867923  0.867923  0.366830  1
  Tl  Tl13  1  0.366118  0.366118  0.130797  1
  Sb  Sb14  1  0.296736  0.703264  0.500000  1
  Sb  Sb15  1  0.202388  0.797612  0.000000  1
  Sb  Sb16  1  0.703264  0.296736  0.500000  1
  Sb  Sb17  1  0.797612  0.202388  0.000000  1
