# generated using pymatgen
data_Ca4Zn4Pd3Rh
_symmetry_space_group_name_H-M   'P 1'
_cell_length_a   4.44086800
_cell_length_b   7.15221541
_cell_length_c   7.69880691
_cell_angle_alpha   90.15348478
_cell_angle_beta   90.00000000
_cell_angle_gamma   90.00000000
_symmetry_Int_Tables_number   1
_chemical_formula_structural   Ca4Zn4Pd3Rh
_chemical_formula_sum   'Ca4 Zn4 Pd3 Rh1'
_cell_volume   244.52897069
_cell_formula_units_Z   1
loop_
 _symmetry_equiv_pos_site_id
 _symmetry_equiv_pos_as_xyz
  1  'x, y, z'
loop_
 _atom_site_type_symbol
 _atom_site_label
 _atom_site_symmetry_multiplicity
 _atom_site_fract_x
 _atom_site_fract_y
 _atom_site_fract_z
 _atom_site_occupancy
  Ca  Ca0  1  0.250000  0.513921  0.189142  1
  Ca  Ca1  1  0.750000  0.493908  0.808753  1
  Ca  Ca2  1  0.750000  0.986171  0.696028  1
  Ca  Ca3  1  0.250000  0.009641  0.306004  1
  Zn  Zn4  1  0.250000  0.668283  0.583652  1
  Zn  Zn5  1  0.750000  0.333686  0.422633  1
  Zn  Zn6  1  0.750000  0.829949  0.072739  1
  Zn  Zn7  1  0.250000  0.160545  0.920741  1
  Pd  Pd8  1  0.750000  0.207093  0.102024  1
  Pd  Pd9  1  0.750000  0.707842  0.398019  1
  Pd  Pd10  1  0.250000  0.292928  0.602064  1
  Rh  Rh11  1  0.250000  0.796033  0.898202  1
