# generated using pymatgen
data_Hf8Fe8Si13P
_symmetry_space_group_name_H-M   'P 1'
_cell_length_a   9.45825926
_cell_length_b   9.45826078
_cell_length_c   9.45524575
_cell_angle_alpha   94.09167117
_cell_angle_beta   94.09167049
_cell_angle_gamma   149.01927805
_symmetry_Int_Tables_number   1
_chemical_formula_structural   Hf8Fe8Si13P
_chemical_formula_sum   'Hf8 Fe8 Si13 P1'
_cell_volume   419.57684794
_cell_formula_units_Z   1
loop_
 _symmetry_equiv_pos_site_id
 _symmetry_equiv_pos_as_xyz
  1  'x, y, z'
loop_
 _atom_site_type_symbol
 _atom_site_label
 _atom_site_symmetry_multiplicity
 _atom_site_fract_x
 _atom_site_fract_y
 _atom_site_fract_z
 _atom_site_occupancy
  Hf  Hf0  1  0.139949  0.139949  0.279899  1
  Hf  Hf1  1  0.859742  0.859742  0.719483  1
  Hf  Hf2  1  0.137935  0.861921  0.999857  1
  Hf  Hf3  1  0.861921  0.137935  0.999857  1
  Hf  Hf4  1  0.303459  0.497597  0.801055  1
  Hf  Hf5  1  0.696310  0.500473  0.196783  1
  Hf  Hf6  1  0.500473  0.696310  0.196783  1
  Hf  Hf7  1  0.497597  0.303459  0.801055  1
  Fe  Fe8  1  0.102040  0.602040  0.204081  1
  Fe  Fe9  1  0.397923  0.897923  0.795847  1
  Fe  Fe10  1  0.903426  0.101569  0.501787  1
  Fe  Fe11  1  0.598361  0.400217  0.501787  1
  Fe  Fe12  1  0.602040  0.102040  0.204081  1
  Fe  Fe13  1  0.897923  0.397923  0.795847  1
  Fe  Fe14  1  0.101569  0.903426  0.501787  1
  Fe  Fe15  1  0.400217  0.598361  0.501787  1
  Si  Si16  1  0.708254  0.708254  0.416509  1
  Si  Si17  1  0.290806  0.708793  0.999601  1
  Si  Si18  1  0.708793  0.290806  0.999601  1
  Si  Si19  1  0.091501  0.496604  0.588104  1
  Si  Si20  1  0.907868  0.504181  0.412049  1
  Si  Si21  1  0.504181  0.907868  0.412049  1
  Si  Si22  1  0.496604  0.091501  0.588104  1
  Si  Si23  1  0.249096  0.249096  0.999336  1
  Si  Si24  1  0.750240  0.750240  0.999336  1
  Si  Si25  1  0.301038  0.001851  0.302889  1
  Si  Si26  1  0.699417  0.998353  0.697770  1
  Si  Si27  1  0.998353  0.699417  0.697770  1
  Si  Si28  1  0.001851  0.301038  0.302889  1
  P  P29  1  0.291110  0.291110  0.582220  1
