# generated using pymatgen
data_LaYCd2(Ir2O7)2
_symmetry_space_group_name_H-M   'P 1'
_cell_length_a   7.30139827
_cell_length_b   7.30139795
_cell_length_c   7.43340494
_cell_angle_alpha   59.35397668
_cell_angle_beta   59.35397843
_cell_angle_gamma   59.24694924
_symmetry_Int_Tables_number   1
_chemical_formula_structural   LaYCd2(Ir2O7)2
_chemical_formula_sum   'La1 Y1 Cd2 Ir4 O14'
_cell_volume   275.86108418
_cell_formula_units_Z   1
loop_
 _symmetry_equiv_pos_site_id
 _symmetry_equiv_pos_as_xyz
  1  'x, y, z'
loop_
 _atom_site_type_symbol
 _atom_site_label
 _atom_site_symmetry_multiplicity
 _atom_site_fract_x
 _atom_site_fract_y
 _atom_site_fract_z
 _atom_site_occupancy
  La  La0  1  0.125000  0.125000  0.625000  1
  Y  Y1  1  0.125000  0.125000  0.125000  1
  Cd  Cd2  1  0.625000  0.125000  0.125000  1
  Cd  Cd3  1  0.125000  0.625000  0.125000  1
  Ir  Ir4  1  0.125000  0.625000  0.625000  1
  Ir  Ir5  1  0.625000  0.125000  0.625000  1
  Ir  Ir6  1  0.625000  0.625000  0.125000  1
  Ir  Ir7  1  0.625000  0.625000  0.625000  1
  O  O8  1  0.698275  0.698275  0.300326  1
  O  O9  1  0.290645  0.290645  0.717421  1
  O  O10  1  0.699259  0.296212  0.704639  1
  O  O11  1  0.297115  0.711524  0.298997  1
  O  O12  1  0.296212  0.699259  0.704639  1
  O  O13  1  0.711524  0.297115  0.298997  1
  O  O14  1  0.551725  0.551725  0.949674  1
  O  O15  1  0.959355  0.959355  0.532579  1
  O  O16  1  0.550741  0.953788  0.545361  1
  O  O17  1  0.952885  0.538476  0.951003  1
  O  O18  1  0.953788  0.550741  0.545361  1
  O  O19  1  0.538476  0.952885  0.951003  1
  O  O20  1  0.253913  0.253913  0.236557  1
  O  O21  1  0.996087  0.996087  0.013443  1
