# generated using pymatgen
data_Ba2Na4(CrH9)3
_symmetry_space_group_name_H-M   'P 1'
_cell_length_a   8.23652500
_cell_length_b   8.22380126
_cell_length_c   4.85046900
_cell_angle_alpha   90.00000000
_cell_angle_beta   90.00000000
_cell_angle_gamma   119.94893113
_symmetry_Int_Tables_number   1
_chemical_formula_structural   Ba2Na4(CrH9)3
_chemical_formula_sum   'Ba2 Na4 Cr3 H27'
_cell_volume   284.67822695
_cell_formula_units_Z   1
loop_
 _symmetry_equiv_pos_site_id
 _symmetry_equiv_pos_as_xyz
  1  'x, y, z'
loop_
 _atom_site_type_symbol
 _atom_site_label
 _atom_site_symmetry_multiplicity
 _atom_site_fract_x
 _atom_site_fract_y
 _atom_site_fract_z
 _atom_site_occupancy
  Ba  Ba0  1  0.412567  0.410102  0.000000  1
  Ba  Ba1  1  0.587433  0.997536  0.000000  1
  Na  Na2  1  0.000000  0.243916  0.500000  1
  Na  Na3  1  0.755332  0.749509  0.500000  1
  Na  Na4  1  0.244668  0.994178  0.500000  1
  Na  Na5  1  0.000000  0.599933  0.000000  1
  Cr  Cr6  1  0.698222  0.349456  0.500000  1
  Cr  Cr7  1  0.301778  0.651235  0.500000  1
  Cr  Cr8  1  0.000000  0.990932  0.000000  1
  H  H9  1  0.810135  0.322654  0.751346  1
  H  H10  1  0.741582  0.503037  0.734742  1
  H  H11  1  0.526778  0.220990  0.705547  1
  H  H12  1  0.189865  0.512520  0.248654  1
  H  H13  1  0.526778  0.220990  0.294453  1
  H  H14  1  0.810135  0.322654  0.248654  1
  H  H15  1  0.741582  0.503037  0.265258  1
  H  H16  1  0.258418  0.761455  0.734742  1
  H  H17  1  0.473222  0.694214  0.705547  1
  H  H18  1  0.197424  0.994076  0.000000  1
  H  H19  1  0.802576  0.796652  0.000000  1
  H  H20  1  0.000000  0.186686  0.000000  1
  H  H21  1  0.863808  0.992827  0.236163  1
  H  H22  1  0.136192  0.129019  0.763837  1
  H  H23  1  0.000000  0.848188  0.776123  1
  H  H24  1  0.000000  0.848188  0.223877  1
  H  H25  1  0.136192  0.129019  0.236163  1
  H  H26  1  0.863808  0.992827  0.763837  1
  H  H27  1  0.064673  0.612045  0.500000  1
  H  H28  1  0.445971  0.868335  0.500000  1
  H  H29  1  0.324130  0.470000  0.500000  1
  H  H30  1  0.554029  0.422363  0.500000  1
  H  H31  1  0.935327  0.547372  0.500000  1
  H  H32  1  0.675870  0.145871  0.500000  1
  H  H33  1  0.189865  0.512520  0.751346  1
  H  H34  1  0.258418  0.761455  0.265258  1
  H  H35  1  0.473222  0.694214  0.294453  1
