# generated using pymatgen
data_LaTb2Tm(Mo2O7)2
_symmetry_space_group_name_H-M   'P 1'
_cell_length_a   7.44508336
_cell_length_b   7.47637601
_cell_length_c   7.47637541
_cell_angle_alpha   59.27821331
_cell_angle_beta   59.03410606
_cell_angle_gamma   59.03410396
_symmetry_Int_Tables_number   1
_chemical_formula_structural   LaTb2Tm(Mo2O7)2
_chemical_formula_sum   'La1 Tb2 Tm1 Mo4 O14'
_cell_volume   288.32700788
_cell_formula_units_Z   1
loop_
 _symmetry_equiv_pos_site_id
 _symmetry_equiv_pos_as_xyz
  1  'x, y, z'
loop_
 _atom_site_type_symbol
 _atom_site_label
 _atom_site_symmetry_multiplicity
 _atom_site_fract_x
 _atom_site_fract_y
 _atom_site_fract_z
 _atom_site_occupancy
  La  La0  1  0.125000  0.125000  0.125000  1
  Tb  Tb1  1  0.125000  0.125000  0.625000  1
  Tb  Tb2  1  0.125000  0.625000  0.125000  1
  Tm  Tm3  1  0.625000  0.125000  0.125000  1
  Mo  Mo4  1  0.625000  0.625000  0.625000  1
  Mo  Mo5  1  0.125000  0.625000  0.625000  1
  Mo  Mo6  1  0.625000  0.625000  0.125000  1
  Mo  Mo7  1  0.625000  0.125000  0.625000  1
  O  O8  1  0.993362  0.999098  0.999098  1
  O  O9  1  0.256638  0.250902  0.250902  1
  O  O10  1  0.287922  0.289514  0.702238  1
  O  O11  1  0.539367  0.528509  0.966990  1
  O  O12  1  0.710633  0.283010  0.721491  1
  O  O13  1  0.701856  0.289930  0.289930  1
  O  O14  1  0.289089  0.712570  0.712570  1
  O  O15  1  0.287922  0.702238  0.289514  1
  O  O16  1  0.710633  0.721491  0.283010  1
  O  O17  1  0.960911  0.537430  0.537430  1
  O  O18  1  0.548144  0.960070  0.960070  1
  O  O19  1  0.962078  0.960486  0.547762  1
  O  O20  1  0.962078  0.547762  0.960486  1
  O  O21  1  0.539367  0.966990  0.528509  1
