# generated using pymatgen
data_Er16Ga6IrOs
_symmetry_space_group_name_H-M   'P 1'
_cell_length_a   9.96720600
_cell_length_b   9.96720685
_cell_length_c   6.99268700
_cell_angle_alpha   90.00000000
_cell_angle_beta   90.00000000
_cell_angle_gamma   120.00000383
_symmetry_Int_Tables_number   1
_chemical_formula_structural   Er16Ga6IrOs
_chemical_formula_sum   'Er16 Ga6 Ir1 Os1'
_cell_volume   601.61909149
_cell_formula_units_Z   1
loop_
 _symmetry_equiv_pos_site_id
 _symmetry_equiv_pos_as_xyz
  1  'x, y, z'
loop_
 _atom_site_type_symbol
 _atom_site_label
 _atom_site_symmetry_multiplicity
 _atom_site_fract_x
 _atom_site_fract_y
 _atom_site_fract_z
 _atom_site_occupancy
  Er  Er0  1  0.000000  0.000000  0.266147  1
  Er  Er1  1  0.000000  0.000000  0.766448  1
  Er  Er2  1  0.171041  0.828959  0.990548  1
  Er  Er3  1  0.828525  0.171475  0.491106  1
  Er  Er4  1  0.171041  0.342082  0.990548  1
  Er  Er5  1  0.657918  0.828959  0.990548  1
  Er  Er6  1  0.342950  0.171475  0.491106  1
  Er  Er7  1  0.828525  0.657050  0.491106  1
  Er  Er8  1  0.333333  0.666667  0.661045  1
  Er  Er9  1  0.666667  0.333333  0.160474  1
  Er  Er10  1  0.466331  0.533669  0.295852  1
  Er  Er11  1  0.534389  0.465611  0.794727  1
  Er  Er12  1  0.466331  0.932663  0.295852  1
  Er  Er13  1  0.067337  0.533669  0.295852  1
  Er  Er14  1  0.931223  0.465611  0.794727  1
  Er  Er15  1  0.534389  0.068777  0.794727  1
  Ga  Ga16  1  0.163979  0.836021  0.543961  1
  Ga  Ga17  1  0.836293  0.163707  0.043829  1
  Ga  Ga18  1  0.163979  0.327958  0.543961  1
  Ga  Ga19  1  0.672042  0.836021  0.543961  1
  Ga  Ga20  1  0.327413  0.163707  0.043829  1
  Ga  Ga21  1  0.836293  0.672587  0.043829  1
  Ir  Ir22  1  0.333333  0.666667  0.056098  1
  Os  Os23  1  0.666667  0.333333  0.555841  1
