# generated using pymatgen
data_Eu2Al9OsPd2
_symmetry_space_group_name_H-M   'P 1'
_cell_length_a   7.66999134
_cell_length_b   7.66999260
_cell_length_c   9.74609275
_cell_angle_alpha   90.08721592
_cell_angle_beta   90.08722070
_cell_angle_gamma   119.43690312
_symmetry_Int_Tables_number   1
_chemical_formula_structural   Eu2Al9OsPd2
_chemical_formula_sum   'Eu4 Al18 Os2 Pd4'
_cell_volume   499.32739999
_cell_formula_units_Z   2
loop_
 _symmetry_equiv_pos_site_id
 _symmetry_equiv_pos_as_xyz
  1  'x, y, z'
loop_
 _atom_site_type_symbol
 _atom_site_label
 _atom_site_symmetry_multiplicity
 _atom_site_fract_x
 _atom_site_fract_y
 _atom_site_fract_z
 _atom_site_occupancy
  Eu  Eu0  1  0.996241  0.670987  0.248651  1
  Eu  Eu1  1  0.003759  0.329013  0.751349  1
  Eu  Eu2  1  0.670987  0.996241  0.248651  1
  Eu  Eu3  1  0.329013  0.003759  0.751349  1
  Al  Al4  1  0.134642  0.134642  0.250324  1
  Al  Al5  1  0.865358  0.865358  0.749676  1
  Al  Al6  1  0.001978  0.341446  0.070152  1
  Al  Al7  1  0.998022  0.658554  0.929848  1
  Al  Al8  1  0.995438  0.664811  0.573696  1
  Al  Al9  1  0.335189  0.004562  0.426304  1
  Al  Al10  1  0.004562  0.335189  0.426304  1
  Al  Al11  1  0.664811  0.995438  0.573696  1
  Al  Al12  1  0.658554  0.998022  0.929848  1
  Al  Al13  1  0.341446  0.001978  0.070152  1
  Al  Al14  1  0.336381  0.336381  0.555169  1
  Al  Al15  1  0.663619  0.663619  0.444831  1
  Al  Al16  1  0.660641  0.660641  0.044253  1
  Al  Al17  1  0.339359  0.339359  0.955747  1
  Al  Al18  1  0.337518  0.545322  0.245762  1
  Al  Al19  1  0.662482  0.454678  0.754238  1
  Al  Al20  1  0.545322  0.337518  0.245762  1
  Al  Al21  1  0.454678  0.662482  0.754238  1
  Os  Os22  1  0.670707  0.329293  0.000000  1
  Os  Os23  1  0.329293  0.670707  0.000000  1
  Pd  Pd24  1  0.328732  0.671268  0.500000  1
  Pd  Pd25  1  0.671268  0.328732  0.500000  1
  Pd  Pd26  1  0.000000  0.000000  0.000000  1
  Pd  Pd27  1  0.000000  0.000000  0.500000  1
