# generated using pymatgen
data_Th3GaSn2Rh3
_symmetry_space_group_name_H-M   'P 1'
_cell_length_a   7.48825200
_cell_length_b   7.51086496
_cell_length_c   4.09876900
_cell_angle_alpha   90.00000000
_cell_angle_beta   90.00000000
_cell_angle_gamma   119.90046551
_symmetry_Int_Tables_number   1
_chemical_formula_structural   Th3GaSn2Rh3
_chemical_formula_sum   'Th3 Ga1 Sn2 Rh3'
_cell_volume   199.84311628
_cell_formula_units_Z   1
loop_
 _symmetry_equiv_pos_site_id
 _symmetry_equiv_pos_as_xyz
  1  'x, y, z'
loop_
 _atom_site_type_symbol
 _atom_site_label
 _atom_site_symmetry_multiplicity
 _atom_site_fract_x
 _atom_site_fract_y
 _atom_site_fract_z
 _atom_site_occupancy
  Th  Th0  1  0.991093  0.403250  0.500000  1
  Th  Th1  1  0.587843  0.596750  0.500000  1
  Th  Th2  1  0.426126  0.000000  0.500000  1
  Ga  Ga3  1  0.751620  0.000000  0.000000  1
  Sn  Sn4  1  0.999556  0.753050  0.000000  1
  Sn  Sn5  1  0.246507  0.246950  0.000000  1
  Rh  Rh6  1  0.340683  0.672248  0.000000  1
  Rh  Rh7  1  0.668436  0.327752  0.000000  1
  Rh  Rh8  1  0.988134  0.000000  0.500000  1
