# generated using pymatgen
data_CaLaNbFeO6
_symmetry_space_group_name_H-M   'P 1'
_cell_length_a   5.62715490
_cell_length_b   7.91230709
_cell_length_c   11.66647504
_cell_angle_alpha   90.00847481
_cell_angle_beta   89.99483587
_cell_angle_gamma   89.23236397
_symmetry_Int_Tables_number   1
_chemical_formula_structural   CaLaNbFeO6
_chemical_formula_sum   'Ca4 La4 Nb4 Fe4 O24'
_cell_volume   519.38891351
_cell_formula_units_Z   4
loop_
 _symmetry_equiv_pos_site_id
 _symmetry_equiv_pos_as_xyz
  1  'x, y, z'
loop_
 _atom_site_type_symbol
 _atom_site_label
 _atom_site_symmetry_multiplicity
 _atom_site_fract_x
 _atom_site_fract_y
 _atom_site_fract_z
 _atom_site_occupancy
  Ca  Ca0  1  0.515147  0.251995  0.278573  1
  Ca  Ca1  1  0.515190  0.252211  0.778549  1
  Ca  Ca2  1  0.015120  0.751981  0.471441  1
  Ca  Ca3  1  0.015311  0.752137  0.971458  1
  La  La4  1  0.986517  0.247499  0.027554  1
  La  La5  1  0.986038  0.247423  0.527489  1
  La  La6  1  0.486070  0.747397  0.222457  1
  La  La7  1  0.486541  0.747403  0.722404  1
  Nb  Nb8  1  0.000309  0.498487  0.252182  1
  Nb  Nb9  1  0.000392  0.498408  0.752306  1
  Nb  Nb10  1  0.500211  0.998471  0.497798  1
  Nb  Nb11  1  0.500392  0.998395  0.997675  1
  Fe  Fe12  1  0.000269  0.000183  0.750124  1
  Fe  Fe13  1  0.500262  0.500223  0.999899  1
  Fe  Fe14  1  0.000104  0.000204  0.250108  1
  Fe  Fe15  1  0.500047  0.500232  0.499882  1
  O  O16  1  0.603170  0.754218  0.015133  1
  O  O17  1  0.603227  0.754484  0.515185  1
  O  O18  1  0.103289  0.254469  0.234807  1
  O  O19  1  0.103039  0.254149  0.734903  1
  O  O20  1  0.209584  0.950574  0.093041  1
  O  O21  1  0.209435  0.950273  0.593076  1
  O  O22  1  0.709430  0.450261  0.156965  1
  O  O23  1  0.709484  0.450613  0.657021  1
  O  O24  1  0.184794  0.554105  0.107254  1
  O  O25  1  0.185087  0.553549  0.607064  1
  O  O26  1  0.685193  0.053695  0.142849  1
  O  O27  1  0.684774  0.054201  0.642674  1
  O  O28  1  0.900710  0.745794  0.267640  1
  O  O29  1  0.901541  0.746086  0.767534  1
  O  O30  1  0.400695  0.245793  0.482405  1
  O  O31  1  0.401467  0.246050  0.982459  1
  O  O32  1  0.288469  0.550278  0.346497  1
  O  O33  1  0.288927  0.550065  0.846366  1
  O  O34  1  0.788468  0.050229  0.403514  1
  O  O35  1  0.788831  0.050157  0.903603  1
  O  O36  1  0.310252  0.947114  0.355464  1
  O  O37  1  0.310939  0.946965  0.855661  1
  O  O38  1  0.810299  0.447051  0.394569  1
  O  O39  1  0.810968  0.447170  0.894417  1
