# generated using pymatgen
data_Dy2Ho10OsRh3
_symmetry_space_group_name_H-M   'P 1'
_cell_length_a   6.35784701
_cell_length_b   7.22286445
_cell_length_c   9.18151400
_cell_angle_alpha   90.00000000
_cell_angle_beta   90.00000000
_cell_angle_gamma   90.12999173
_symmetry_Int_Tables_number   1
_chemical_formula_structural   Dy2Ho10OsRh3
_chemical_formula_sum   'Dy2 Ho10 Os1 Rh3'
_cell_volume   421.63118085
_cell_formula_units_Z   1
loop_
 _symmetry_equiv_pos_site_id
 _symmetry_equiv_pos_as_xyz
  1  'x, y, z'
loop_
 _atom_site_type_symbol
 _atom_site_label
 _atom_site_symmetry_multiplicity
 _atom_site_fract_x
 _atom_site_fract_y
 _atom_site_fract_z
 _atom_site_occupancy
  Dy  Dy0  1  0.872877  0.536840  0.250000  1
  Dy  Dy1  1  0.630885  0.035216  0.250000  1
  Ho  Ho2  1  0.332685  0.677248  0.058284  1
  Ho  Ho3  1  0.171268  0.178516  0.437049  1
  Ho  Ho4  1  0.672078  0.323724  0.563979  1
  Ho  Ho5  1  0.825011  0.819126  0.934977  1
  Ho  Ho6  1  0.672078  0.323724  0.936021  1
  Ho  Ho7  1  0.825011  0.819126  0.565023  1
  Ho  Ho8  1  0.332685  0.677248  0.441716  1
  Ho  Ho9  1  0.171268  0.178516  0.062951  1
  Ho  Ho10  1  0.128166  0.464550  0.750000  1
  Ho  Ho11  1  0.371677  0.966032  0.750000  1
  Os  Os12  1  0.537069  0.614843  0.750000  1
  Rh  Rh13  1  0.047436  0.885902  0.250000  1
  Rh  Rh14  1  0.455157  0.385160  0.250000  1
  Rh  Rh15  1  0.954651  0.114229  0.750000  1
