# generated using pymatgen
data_Ce3SmTa2(B2Ru5)2
_symmetry_space_group_name_H-M   'P 1'
_cell_length_a   9.77519082
_cell_length_b   9.77519082
_cell_length_c   3.13633500
_cell_angle_alpha   90.00000000
_cell_angle_beta   90.00000000
_cell_angle_gamma   90.06989070
_symmetry_Int_Tables_number   1
_chemical_formula_structural   Ce3SmTa2(B2Ru5)2
_chemical_formula_sum   'Ce3 Sm1 Ta2 B4 Ru10'
_cell_volume   299.69024669
_cell_formula_units_Z   1
loop_
 _symmetry_equiv_pos_site_id
 _symmetry_equiv_pos_as_xyz
  1  'x, y, z'
loop_
 _atom_site_type_symbol
 _atom_site_label
 _atom_site_symmetry_multiplicity
 _atom_site_fract_x
 _atom_site_fract_y
 _atom_site_fract_z
 _atom_site_occupancy
  Ce  Ce0  1  0.175081  0.324919  0.000000  1
  Ce  Ce1  1  0.324514  0.824102  0.000000  1
  Ce  Ce2  1  0.675898  0.175486  0.000000  1
  Sm  Sm3  1  0.824356  0.675644  0.000000  1
  Ta  Ta4  1  0.502067  0.501264  0.000000  1
  Ta  Ta5  1  0.998736  0.997933  0.000000  1
  B  B6  1  0.621702  0.878298  0.000000  1
  B  B7  1  0.379227  0.120773  0.000000  1
  B  B8  1  0.119608  0.620492  0.000000  1
  B  B9  1  0.879508  0.380392  0.000000  1
  Ru  Ru10  1  0.566285  0.720359  0.500000  1
  Ru  Ru11  1  0.429137  0.281204  0.500000  1
  Ru  Ru12  1  0.073396  0.781288  0.500000  1
  Ru  Ru13  1  0.929914  0.218439  0.500000  1
  Ru  Ru14  1  0.281561  0.570086  0.500000  1
  Ru  Ru15  1  0.718712  0.426604  0.500000  1
  Ru  Ru16  1  0.218796  0.070863  0.500000  1
  Ru  Ru17  1  0.779641  0.933715  0.500000  1
  Ru  Ru18  1  0.499312  0.000688  0.500000  1
  Ru  Ru19  1  0.002549  0.497451  0.500000  1
