# generated using pymatgen
data_Dy3Ag3C
_symmetry_space_group_name_H-M   'P 1'
_cell_length_a   9.37806033
_cell_length_b   9.37806035
_cell_length_c   9.37806000
_cell_angle_alpha   59.99999418
_cell_angle_beta   59.99999410
_cell_angle_gamma   60.00000022
_symmetry_Int_Tables_number   1
_chemical_formula_structural   Dy3Ag3C
_chemical_formula_sum   'Dy12 Ag12 C4'
_cell_volume   583.20873064
_cell_formula_units_Z   4
loop_
 _symmetry_equiv_pos_site_id
 _symmetry_equiv_pos_as_xyz
  1  'x, y, z'
loop_
 _atom_site_type_symbol
 _atom_site_label
 _atom_site_symmetry_multiplicity
 _atom_site_fract_x
 _atom_site_fract_y
 _atom_site_fract_z
 _atom_site_occupancy
  Dy  Dy0  1  0.441578  0.441578  0.058422  1
  Dy  Dy1  1  0.058422  0.441578  0.058422  1
  Dy  Dy2  1  0.441578  0.058422  0.058422  1
  Dy  Dy3  1  0.058422  0.058422  0.441578  1
  Dy  Dy4  1  0.441578  0.058422  0.441578  1
  Dy  Dy5  1  0.058422  0.441578  0.441578  1
  Dy  Dy6  1  0.808422  0.808422  0.191578  1
  Dy  Dy7  1  0.191578  0.808422  0.191578  1
  Dy  Dy8  1  0.808422  0.191578  0.191578  1
  Dy  Dy9  1  0.191578  0.191578  0.808422  1
  Dy  Dy10  1  0.808422  0.191578  0.808422  1
  Dy  Dy11  1  0.191578  0.808422  0.808422  1
  Ag  Ag12  1  0.832097  0.832097  0.503709  1
  Ag  Ag13  1  0.832097  0.503709  0.832097  1
  Ag  Ag14  1  0.503709  0.832097  0.832097  1
  Ag  Ag15  1  0.832097  0.832097  0.832097  1
  Ag  Ag16  1  0.417903  0.417903  0.746291  1
  Ag  Ag17  1  0.417903  0.746291  0.417903  1
  Ag  Ag18  1  0.746291  0.417903  0.417903  1
  Ag  Ag19  1  0.417903  0.417903  0.417903  1
  Ag  Ag20  1  0.625000  0.625000  0.125000  1
  Ag  Ag21  1  0.625000  0.125000  0.625000  1
  Ag  Ag22  1  0.125000  0.625000  0.625000  1
  Ag  Ag23  1  0.625000  0.625000  0.625000  1
  C  C24  1  0.125000  0.125000  0.625000  1
  C  C25  1  0.125000  0.625000  0.125000  1
  C  C26  1  0.625000  0.125000  0.125000  1
  C  C27  1  0.125000  0.125000  0.125000  1
