# generated using pymatgen
data_KTi2PS10
_symmetry_space_group_name_H-M   'P 1'
_cell_length_a   8.04915900
_cell_length_b   7.24798364
_cell_length_c   13.20326086
_cell_angle_alpha   69.19430491
_cell_angle_beta   90.00000000
_cell_angle_gamma   90.00000000
_symmetry_Int_Tables_number   1
_chemical_formula_structural   KTi2PS10
_chemical_formula_sum   'K2 Ti4 P2 S20'
_cell_volume   720.05081533
_cell_formula_units_Z   2
loop_
 _symmetry_equiv_pos_site_id
 _symmetry_equiv_pos_as_xyz
  1  'x, y, z'
loop_
 _atom_site_type_symbol
 _atom_site_label
 _atom_site_symmetry_multiplicity
 _atom_site_fract_x
 _atom_site_fract_y
 _atom_site_fract_z
 _atom_site_occupancy
  K  K0  1  0.993895  0.399764  0.457636  1
  K  K1  1  0.006105  0.399764  0.957636  1
  Ti  Ti2  1  0.439243  0.866955  0.694723  1
  Ti  Ti3  1  0.560757  0.866955  0.194723  1
  Ti  Ti4  1  0.560505  0.870837  0.464032  1
  Ti  Ti5  1  0.439495  0.870837  0.964032  1
  P  P6  1  0.114126  0.011458  0.799276  1
  P  P7  1  0.885874  0.011458  0.299276  1
  S  S8  1  0.063986  0.213765  0.254753  1
  S  S9  1  0.936014  0.213765  0.754753  1
  S  S10  1  0.877956  0.850260  0.462919  1
  S  S11  1  0.122044  0.850260  0.962919  1
  S  S12  1  0.621748  0.629234  0.105034  1
  S  S13  1  0.378252  0.629234  0.605034  1
  S  S14  1  0.376885  0.627238  0.145485  1
  S  S15  1  0.623115  0.627238  0.645485  1
  S  S16  1  0.618057  0.113517  0.997566  1
  S  S17  1  0.381943  0.113517  0.497566  1
  S  S18  1  0.387044  0.115366  0.064634  1
  S  S19  1  0.612956  0.115366  0.564634  1
  S  S20  1  0.656275  0.808312  0.841139  1
  S  S21  1  0.343725  0.808312  0.341139  1
  S  S22  1  0.456088  0.618467  0.877974  1
  S  S23  1  0.543912  0.618467  0.377974  1
  S  S24  1  0.125777  0.830972  0.709984  1
  S  S25  1  0.874223  0.830972  0.209984  1
  S  S26  1  0.361077  0.117996  0.779646  1
  S  S27  1  0.638923  0.117996  0.279646  1
