# generated using pymatgen
data_Rb10ZrTiAs6
_symmetry_space_group_name_H-M   'P 1'
_cell_length_a   8.69742200
_cell_length_b   9.30727391
_cell_length_c   18.20478000
_cell_angle_alpha   60.44340696
_cell_angle_beta   90.00000000
_cell_angle_gamma   90.00000000
_symmetry_Int_Tables_number   1
_chemical_formula_structural   Rb10ZrTiAs6
_chemical_formula_sum   'Rb20 Zr2 Ti2 As12'
_cell_volume   1281.89445955
_cell_formula_units_Z   2
loop_
 _symmetry_equiv_pos_site_id
 _symmetry_equiv_pos_as_xyz
  1  'x, y, z'
loop_
 _atom_site_type_symbol
 _atom_site_label
 _atom_site_symmetry_multiplicity
 _atom_site_fract_x
 _atom_site_fract_y
 _atom_site_fract_z
 _atom_site_occupancy
  Rb  Rb0  1  0.172548  0.846447  0.740216  1
  Rb  Rb1  1  0.672548  0.153553  0.759784  1
  Rb  Rb2  1  0.824991  0.157814  0.258226  1
  Rb  Rb3  1  0.324991  0.842186  0.241774  1
  Rb  Rb4  1  0.167923  0.160613  0.421637  1
  Rb  Rb5  1  0.667923  0.839387  0.078363  1
  Rb  Rb6  1  0.833523  0.833618  0.583265  1
  Rb  Rb7  1  0.333523  0.166382  0.916735  1
  Rb  Rb8  1  0.007586  0.086588  0.088807  1
  Rb  Rb9  1  0.507586  0.913412  0.411193  1
  Rb  Rb10  1  0.992026  0.915579  0.907621  1
  Rb  Rb11  1  0.492026  0.084421  0.592379  1
  Rb  Rb12  1  0.519418  0.254334  0.080029  1
  Rb  Rb13  1  0.019418  0.745666  0.419971  1
  Rb  Rb14  1  0.486807  0.720604  0.923446  1
  Rb  Rb15  1  0.986807  0.279396  0.576554  1
  Rb  Rb16  1  0.982946  0.544132  0.257860  1
  Rb  Rb17  1  0.482946  0.455868  0.242140  1
  Rb  Rb18  1  0.022277  0.455559  0.748172  1
  Rb  Rb19  1  0.522277  0.544441  0.751828  1
  Zr  Zr20  1  0.627329  0.503592  0.421835  1
  Zr  Zr21  1  0.127329  0.496408  0.078165  1
  Ti  Ti22  1  0.369529  0.494306  0.580559  1
  Ti  Ti23  1  0.869529  0.505694  0.919441  1
  As  As24  1  0.322107  0.486476  0.442272  1
  As  As25  1  0.822107  0.513524  0.057728  1
  As  As26  1  0.665343  0.511427  0.565554  1
  As  As27  1  0.165343  0.488573  0.934446  1
  As  As28  1  0.208514  0.221817  0.215953  1
  As  As29  1  0.708514  0.778183  0.284047  1
  As  As30  1  0.793800  0.766856  0.789583  1
  As  As31  1  0.293800  0.233144  0.710417  1
  As  As32  1  0.251049  0.759109  0.075123  1
  As  As33  1  0.751049  0.240891  0.424877  1
  As  As34  1  0.752284  0.257856  0.921210  1
  As  As35  1  0.252284  0.742144  0.578790  1
