# generated using pymatgen
data_Ho2Er5Tm3Ru4
_symmetry_space_group_name_H-M   'P 1'
_cell_length_a   6.26949200
_cell_length_b   7.25176562
_cell_length_c   8.38252544
_cell_angle_alpha   96.83199337
_cell_angle_beta   111.99671856
_cell_angle_gamma   89.95532186
_symmetry_Int_Tables_number   1
_chemical_formula_structural   Ho2Er5Tm3Ru4
_chemical_formula_sum   'Ho2 Er5 Tm3 Ru4'
_cell_volume   350.46167300
_cell_formula_units_Z   1
loop_
 _symmetry_equiv_pos_site_id
 _symmetry_equiv_pos_as_xyz
  1  'x, y, z'
loop_
 _atom_site_type_symbol
 _atom_site_label
 _atom_site_symmetry_multiplicity
 _atom_site_fract_x
 _atom_site_fract_y
 _atom_site_fract_z
 _atom_site_occupancy
  Ho  Ho0  1  0.790722  0.083844  0.813224  1
  Ho  Ho1  1  0.977589  0.416122  0.186653  1
  Er  Er2  1  0.209003  0.915666  0.186515  1
  Er  Er3  1  0.022784  0.584353  0.813681  1
  Er  Er4  1  0.205811  0.184226  0.565437  1
  Er  Er5  1  0.640239  0.315829  0.434818  1
  Er  Er6  1  0.794010  0.815357  0.434462  1
  Tm  Tm7  1  0.359631  0.684558  0.565538  1
  Tm  Tm8  1  0.419170  0.249759  0.999875  1
  Tm  Tm9  1  0.580376  0.750187  0.999922  1
  Ru  Ru10  1  0.602203  0.424497  0.779553  1
  Ru  Ru11  1  0.822643  0.076135  0.220108  1
  Ru  Ru12  1  0.397723  0.576384  0.220148  1
  Ru  Ru13  1  0.178097  0.923082  0.780066  1
