# generated using pymatgen
data_Ce3Co(NiSb2)2
_symmetry_space_group_name_H-M   'P 1'
_cell_length_a   8.26973413
_cell_length_b   8.26977531
_cell_length_c   8.26973506
_cell_angle_alpha   109.52556924
_cell_angle_beta   109.36248650
_cell_angle_gamma   109.52557361
_symmetry_Int_Tables_number   1
_chemical_formula_structural   Ce3Co(NiSb2)2
_chemical_formula_sum   'Ce6 Co2 Ni4 Sb8'
_cell_volume   435.36574781
_cell_formula_units_Z   2
loop_
 _symmetry_equiv_pos_site_id
 _symmetry_equiv_pos_as_xyz
  1  'x, y, z'
loop_
 _atom_site_type_symbol
 _atom_site_label
 _atom_site_symmetry_multiplicity
 _atom_site_fract_x
 _atom_site_fract_y
 _atom_site_fract_z
 _atom_site_occupancy
  Ce  Ce0  1  0.875004  0.249997  0.124996  1
  Ce  Ce1  1  0.624996  0.749997  0.375004  1
  Ce  Ce2  1  0.249991  0.121576  0.871581  1
  Ce  Ce3  1  0.750007  0.378411  0.628416  1
  Ce  Ce4  1  0.128416  0.878411  0.250007  1
  Ce  Ce5  1  0.371581  0.621576  0.749991  1
  Co  Co6  1  0.374979  0.250023  0.625043  1
  Co  Co7  1  0.125043  0.750023  0.874979  1
  Ni  Ni8  1  0.250006  0.624574  0.374613  1
  Ni  Ni9  1  0.749960  0.875439  0.125432  1
  Ni  Ni10  1  0.625432  0.375439  0.249960  1
  Ni  Ni11  1  0.874613  0.124574  0.750006  1
  Sb  Sb12  1  0.658760  0.499479  0.000253  1
  Sb  Sb13  1  0.500764  0.000505  0.659300  1
  Sb  Sb14  1  0.999230  0.658523  0.499742  1
  Sb  Sb15  1  0.841217  0.841473  0.840706  1
  Sb  Sb16  1  0.500253  0.999479  0.158760  1
  Sb  Sb17  1  0.159300  0.500505  0.000764  1
  Sb  Sb18  1  0.999742  0.158523  0.499230  1
  Sb  Sb19  1  0.340706  0.341473  0.341217  1
