# generated using pymatgen
data_Zr2TaSi2W
_symmetry_space_group_name_H-M   'P 1'
_cell_length_a   3.58955400
_cell_length_b   7.00870700
_cell_length_c   8.38576800
_cell_angle_alpha   90.00000000
_cell_angle_beta   90.00000000
_cell_angle_gamma   90.00000000
_symmetry_Int_Tables_number   1
_chemical_formula_structural   Zr2TaSi2W
_chemical_formula_sum   'Zr4 Ta2 Si4 W2'
_cell_volume   210.97026033
_cell_formula_units_Z   2
loop_
 _symmetry_equiv_pos_site_id
 _symmetry_equiv_pos_as_xyz
  1  'x, y, z'
loop_
 _atom_site_type_symbol
 _atom_site_label
 _atom_site_symmetry_multiplicity
 _atom_site_fract_x
 _atom_site_fract_y
 _atom_site_fract_z
 _atom_site_occupancy
  Zr  Zr0  1  0.250000  0.043032  0.333673  1
  Zr  Zr1  1  0.250000  0.543032  0.166327  1
  Zr  Zr2  1  0.750000  0.959147  0.668612  1
  Zr  Zr3  1  0.750000  0.459147  0.831388  1
  Ta  Ta4  1  0.250000  0.130276  0.940585  1
  Ta  Ta5  1  0.250000  0.630276  0.559415  1
  Si  Si6  1  0.250000  0.255224  0.635940  1
  Si  Si7  1  0.250000  0.755224  0.864060  1
  Si  Si8  1  0.750000  0.744057  0.357070  1
  Si  Si9  1  0.750000  0.244057  0.142930  1
  W  W10  1  0.750000  0.868263  0.060724  1
  W  W11  1  0.750000  0.368263  0.439276  1
