# generated using pymatgen
data_Nd6In8HgAs
_symmetry_space_group_name_H-M   'P 1'
_cell_length_a   8.56994046
_cell_length_b   8.56990882
_cell_length_c   8.56993410
_cell_angle_alpha   119.79669586
_cell_angle_beta   119.79685517
_cell_angle_gamma   90.35243739
_symmetry_Int_Tables_number   1
_chemical_formula_structural   Nd6In8HgAs
_chemical_formula_sum   'Nd6 In8 Hg1 As1'
_cell_volume   446.41551890
_cell_formula_units_Z   1
loop_
 _symmetry_equiv_pos_site_id
 _symmetry_equiv_pos_as_xyz
  1  'x, y, z'
loop_
 _atom_site_type_symbol
 _atom_site_label
 _atom_site_symmetry_multiplicity
 _atom_site_fract_x
 _atom_site_fract_y
 _atom_site_fract_z
 _atom_site_occupancy
  Nd  Nd0  1  0.764439  0.764439  0.000000  1
  Nd  Nd1  1  0.235561  0.235561  0.000000  1
  Nd  Nd2  1  0.676805  0.145852  0.822656  1
  Nd  Nd3  1  0.323195  0.854148  0.177344  1
  Nd  Nd4  1  0.145851  0.323194  0.469045  1
  Nd  Nd5  1  0.854149  0.676806  0.530955  1
  In  In6  1  0.334908  0.817840  0.788379  1
  In  In7  1  0.665092  0.182160  0.211621  1
  In  In8  1  0.029463  0.546530  0.211623  1
  In  In9  1  0.817840  0.029463  0.482932  1
  In  In10  1  0.453470  0.665092  0.482932  1
  In  In11  1  0.970537  0.453470  0.788377  1
  In  In12  1  0.182160  0.970537  0.517068  1
  In  In13  1  0.546530  0.334908  0.517068  1
  Hg  Hg14  1  0.500000  0.500000  0.000000  1
  As  As15  1  0.000000  0.000000  0.000000  1
