# generated using pymatgen
data_Na3Ga2Ag
_symmetry_space_group_name_H-M   'P 1'
_cell_length_a   9.33283285
_cell_length_b   9.33283364
_cell_length_c   9.33283200
_cell_angle_alpha   59.99999871
_cell_angle_beta   59.99999591
_cell_angle_gamma   60.00000417
_symmetry_Int_Tables_number   1
_chemical_formula_structural   Na3Ga2Ag
_chemical_formula_sum   'Na12 Ga8 Ag4'
_cell_volume   574.81151321
_cell_formula_units_Z   4
loop_
 _symmetry_equiv_pos_site_id
 _symmetry_equiv_pos_as_xyz
  1  'x, y, z'
loop_
 _atom_site_type_symbol
 _atom_site_label
 _atom_site_symmetry_multiplicity
 _atom_site_fract_x
 _atom_site_fract_y
 _atom_site_fract_z
 _atom_site_occupancy
  Na  Na0  1  0.047195  0.452805  0.047195  1
  Na  Na1  1  0.797195  0.202805  0.202805  1
  Na  Na2  1  0.202805  0.797195  0.797195  1
  Na  Na3  1  0.797195  0.202805  0.797195  1
  Na  Na4  1  0.202805  0.202805  0.797195  1
  Na  Na5  1  0.797195  0.797195  0.202805  1
  Na  Na6  1  0.047195  0.047195  0.452805  1
  Na  Na7  1  0.452805  0.047195  0.047195  1
  Na  Na8  1  0.047195  0.452805  0.452805  1
  Na  Na9  1  0.452805  0.452805  0.047195  1
  Na  Na10  1  0.202805  0.797195  0.202805  1
  Na  Na11  1  0.452805  0.047195  0.452805  1
  Ga  Ga12  1  0.827894  0.827894  0.827894  1
  Ga  Ga13  1  0.733684  0.422106  0.422106  1
  Ga  Ga14  1  0.422106  0.733684  0.422106  1
  Ga  Ga15  1  0.422106  0.422106  0.733684  1
  Ga  Ga16  1  0.827894  0.516316  0.827894  1
  Ga  Ga17  1  0.827894  0.827894  0.516316  1
  Ga  Ga18  1  0.516316  0.827894  0.827894  1
  Ga  Ga19  1  0.422106  0.422106  0.422106  1
  Ag  Ag20  1  0.625000  0.625000  0.625000  1
  Ag  Ag21  1  0.125000  0.625000  0.625000  1
  Ag  Ag22  1  0.625000  0.125000  0.625000  1
  Ag  Ag23  1  0.625000  0.625000  0.125000  1
