# generated using pymatgen
data_Ba2Sr3Si6Sn
_symmetry_space_group_name_H-M   'P 1'
_cell_length_a   9.53194042
_cell_length_b   9.64348799
_cell_length_c   4.26992800
_cell_angle_alpha   90.00000000
_cell_angle_beta   90.00000000
_cell_angle_gamma   120.38788283
_symmetry_Int_Tables_number   1
_chemical_formula_structural   Ba2Sr3Si6Sn
_chemical_formula_sum   'Ba2 Sr3 Si6 Sn1'
_cell_volume   338.57576974
_cell_formula_units_Z   1
loop_
 _symmetry_equiv_pos_site_id
 _symmetry_equiv_pos_as_xyz
  1  'x, y, z'
loop_
 _atom_site_type_symbol
 _atom_site_label
 _atom_site_symmetry_multiplicity
 _atom_site_fract_x
 _atom_site_fract_y
 _atom_site_fract_z
 _atom_site_occupancy
  Ba  Ba0  1  0.341690  0.674165  0.000000  1
  Ba  Ba1  1  0.658310  0.332474  0.000000  1
  Sr  Sr2  1  0.000000  0.754040  0.500000  1
  Sr  Sr3  1  0.258935  0.252879  0.500000  1
  Sr  Sr4  1  0.741065  0.993944  0.500000  1
  Si  Si5  1  0.000000  0.994630  0.000000  1
  Si  Si6  1  0.000000  0.244175  0.000000  1
  Si  Si7  1  0.738359  0.739732  0.000000  1
  Si  Si8  1  0.261641  0.001373  0.000000  1
  Si  Si9  1  0.600614  0.600915  0.500000  1
  Si  Si10  1  0.399386  0.000301  0.500000  1
  Sn  Sn11  1  0.000000  0.411373  0.500000  1
