# generated using pymatgen
data_TbDy3Ga4Ir3Pt
_symmetry_space_group_name_H-M   'P 1'
_cell_length_a   4.38302300
_cell_length_b   6.84043993
_cell_length_c   7.77484681
_cell_angle_alpha   89.88688446
_cell_angle_beta   90.00000000
_cell_angle_gamma   90.00000000
_symmetry_Int_Tables_number   1
_chemical_formula_structural   TbDy3Ga4Ir3Pt
_chemical_formula_sum   'Tb1 Dy3 Ga4 Ir3 Pt1'
_cell_volume   233.10349100
_cell_formula_units_Z   1
loop_
 _symmetry_equiv_pos_site_id
 _symmetry_equiv_pos_as_xyz
  1  'x, y, z'
loop_
 _atom_site_type_symbol
 _atom_site_label
 _atom_site_symmetry_multiplicity
 _atom_site_fract_x
 _atom_site_fract_y
 _atom_site_fract_z
 _atom_site_occupancy
  Tb  Tb0  1  0.250000  0.974178  0.308588  1
  Dy  Dy1  1  0.250000  0.479046  0.187810  1
  Dy  Dy2  1  0.750000  0.019771  0.695160  1
  Dy  Dy3  1  0.750000  0.521482  0.809257  1
  Ga  Ga4  1  0.250000  0.343228  0.572937  1
  Ga  Ga5  1  0.250000  0.840333  0.928337  1
  Ga  Ga6  1  0.750000  0.663146  0.429116  1
  Ga  Ga7  1  0.750000  0.158293  0.068159  1
  Ir  Ir8  1  0.250000  0.230626  0.892757  1
  Ir  Ir9  1  0.250000  0.730385  0.607326  1
  Ir  Ir10  1  0.750000  0.768600  0.106922  1
  Pt  Pt11  1  0.750000  0.270913  0.393628  1
