# generated using pymatgen
data_BeNb5(B2Ru5)2
_symmetry_space_group_name_H-M   'P 1'
_cell_length_a   9.32729300
_cell_length_b   9.32729300
_cell_length_c   3.00043000
_cell_angle_alpha   90.00000000
_cell_angle_beta   90.00000000
_cell_angle_gamma   90.00000000
_symmetry_Int_Tables_number   1
_chemical_formula_structural   BeNb5(B2Ru5)2
_chemical_formula_sum   'Be1 Nb5 B4 Ru10'
_cell_volume   261.03259343
_cell_formula_units_Z   1
loop_
 _symmetry_equiv_pos_site_id
 _symmetry_equiv_pos_as_xyz
  1  'x, y, z'
loop_
 _atom_site_type_symbol
 _atom_site_label
 _atom_site_symmetry_multiplicity
 _atom_site_fract_x
 _atom_site_fract_y
 _atom_site_fract_z
 _atom_site_occupancy
  Be  Be0  1  0.500000  0.500000  0.000000  1
  Nb  Nb1  1  0.818336  0.673216  0.000000  1
  Nb  Nb2  1  0.181664  0.326784  0.000000  1
  Nb  Nb3  1  0.326784  0.818336  0.000000  1
  Nb  Nb4  1  0.673216  0.181664  0.000000  1
  Nb  Nb5  1  0.000000  0.000000  0.000000  1
  B  B6  1  0.614044  0.865228  0.000000  1
  B  B7  1  0.385956  0.134772  0.000000  1
  B  B8  1  0.134772  0.614044  0.000000  1
  B  B9  1  0.865228  0.385956  0.000000  1
  Ru  Ru10  1  0.564550  0.707041  0.500000  1
  Ru  Ru11  1  0.435450  0.292959  0.500000  1
  Ru  Ru12  1  0.074067  0.779254  0.500000  1
  Ru  Ru13  1  0.925933  0.220746  0.500000  1
  Ru  Ru14  1  0.292959  0.564550  0.500000  1
  Ru  Ru15  1  0.707041  0.435450  0.500000  1
  Ru  Ru16  1  0.220746  0.074067  0.500000  1
  Ru  Ru17  1  0.779254  0.925933  0.500000  1
  Ru  Ru18  1  0.500000  0.000000  0.500000  1
  Ru  Ru19  1  0.000000  0.500000  0.500000  1
