# generated using pymatgen
data_Cs2Si3PbO9
_symmetry_space_group_name_H-M   'P 1'
_cell_length_a   7.36739400
_cell_length_b   7.36739319
_cell_length_c   10.42065000
_cell_angle_alpha   90.00000000
_cell_angle_beta   90.00000000
_cell_angle_gamma   119.99999468
_symmetry_Int_Tables_number   1
_chemical_formula_structural   Cs2Si3PbO9
_chemical_formula_sum   'Cs4 Si6 Pb2 O18'
_cell_volume   489.83882931
_cell_formula_units_Z   2
loop_
 _symmetry_equiv_pos_site_id
 _symmetry_equiv_pos_as_xyz
  1  'x, y, z'
loop_
 _atom_site_type_symbol
 _atom_site_label
 _atom_site_symmetry_multiplicity
 _atom_site_fract_x
 _atom_site_fract_y
 _atom_site_fract_z
 _atom_site_occupancy
  Cs  Cs0  1  0.333333  0.666667  0.434900  1
  Cs  Cs1  1  0.666667  0.333333  0.934900  1
  Cs  Cs2  1  0.666667  0.333333  0.565100  1
  Cs  Cs3  1  0.333333  0.666667  0.065100  1
  Si  Si4  1  0.608102  0.760251  0.750000  1
  Si  Si5  1  0.847851  0.608102  0.250000  1
  Si  Si6  1  0.760251  0.152149  0.250000  1
  Si  Si7  1  0.239749  0.847851  0.750000  1
  Si  Si8  1  0.152149  0.391898  0.750000  1
  Si  Si9  1  0.391898  0.239749  0.250000  1
  Pb  Pb10  1  0.000000  0.000000  0.500000  1
  Pb  Pb11  1  0.000000  0.000000  0.000000  1
  O  O12  1  0.269054  0.214869  0.383723  1
  O  O13  1  0.054184  0.269054  0.883723  1
  O  O14  1  0.214869  0.945816  0.883723  1
  O  O15  1  0.785131  0.054184  0.383723  1
  O  O16  1  0.945816  0.730946  0.383723  1
  O  O17  1  0.730946  0.785131  0.883723  1
  O  O18  1  0.730946  0.785131  0.616277  1
  O  O19  1  0.945816  0.730946  0.116277  1
  O  O20  1  0.785131  0.054184  0.116277  1
  O  O21  1  0.214869  0.945816  0.616277  1
  O  O22  1  0.054184  0.269054  0.616277  1
  O  O23  1  0.269054  0.214869  0.116277  1
  O  O24  1  0.509088  0.096214  0.250000  1
  O  O25  1  0.412873  0.509088  0.750000  1
  O  O26  1  0.096214  0.587127  0.750000  1
  O  O27  1  0.903786  0.412873  0.250000  1
  O  O28  1  0.587127  0.490912  0.250000  1
  O  O29  1  0.490912  0.903786  0.750000  1
