# generated using pymatgen
data_NaEr7(Si3Pt)4
_symmetry_space_group_name_H-M   'P 1'
_cell_length_a   8.11201600
_cell_length_b   8.11201692
_cell_length_c   8.18804500
_cell_angle_alpha   90.00000000
_cell_angle_beta   90.00000000
_cell_angle_gamma   119.99999623
_symmetry_Int_Tables_number   1
_chemical_formula_structural   NaEr7(Si3Pt)4
_chemical_formula_sum   'Na1 Er7 Si12 Pt4'
_cell_volume   466.62555093
_cell_formula_units_Z   1
loop_
 _symmetry_equiv_pos_site_id
 _symmetry_equiv_pos_as_xyz
  1  'x, y, z'
loop_
 _atom_site_type_symbol
 _atom_site_label
 _atom_site_symmetry_multiplicity
 _atom_site_fract_x
 _atom_site_fract_y
 _atom_site_fract_z
 _atom_site_occupancy
  Na  Na0  1  0.000000  0.000000  0.250000  1
  Er  Er1  1  0.000000  0.000000  0.750000  1
  Er  Er2  1  0.499465  0.500535  0.250000  1
  Er  Er3  1  0.499465  0.998930  0.250000  1
  Er  Er4  1  0.001070  0.500535  0.250000  1
  Er  Er5  1  0.500593  0.499407  0.750000  1
  Er  Er6  1  0.998815  0.499407  0.750000  1
  Er  Er7  1  0.500593  0.001185  0.750000  1
  Si  Si8  1  0.834435  0.165565  0.504845  1
  Si  Si9  1  0.834435  0.668872  0.504845  1
  Si  Si10  1  0.331128  0.165565  0.504845  1
  Si  Si11  1  0.834435  0.165565  0.995155  1
  Si  Si12  1  0.834435  0.668872  0.995155  1
  Si  Si13  1  0.331128  0.165565  0.995155  1
  Si  Si14  1  0.165553  0.834447  0.994674  1
  Si  Si15  1  0.668896  0.834447  0.994674  1
  Si  Si16  1  0.165553  0.331104  0.994674  1
  Si  Si17  1  0.165553  0.834447  0.505326  1
  Si  Si18  1  0.668896  0.834447  0.505326  1
  Si  Si19  1  0.165553  0.331104  0.505326  1
  Pt  Pt20  1  0.666667  0.333333  0.494095  1
  Pt  Pt21  1  0.666667  0.333333  0.005905  1
  Pt  Pt22  1  0.333333  0.666667  0.002863  1
  Pt  Pt23  1  0.333333  0.666667  0.497137  1
