# generated using pymatgen
data_TbSiNi3Ir
_symmetry_space_group_name_H-M   'P 1'
_cell_length_a   4.96592110
_cell_length_b   4.78021034
_cell_length_c   3.98291600
_cell_angle_alpha   90.00000000
_cell_angle_beta   90.00000000
_cell_angle_gamma   114.61972254
_symmetry_Int_Tables_number   1
_chemical_formula_structural   TbSiNi3Ir
_chemical_formula_sum   'Tb1 Si1 Ni3 Ir1'
_cell_volume   85.95203610
_cell_formula_units_Z   1
loop_
 _symmetry_equiv_pos_site_id
 _symmetry_equiv_pos_as_xyz
  1  'x, y, z'
loop_
 _atom_site_type_symbol
 _atom_site_label
 _atom_site_symmetry_multiplicity
 _atom_site_fract_x
 _atom_site_fract_y
 _atom_site_fract_z
 _atom_site_occupancy
  Tb  Tb0  1  0.000000  0.000000  0.000000  1
  Si  Si1  1  0.500000  0.500000  0.500000  1
  Ni  Ni2  1  0.365244  0.676289  0.000000  1
  Ni  Ni3  1  0.634756  0.323711  0.000000  1
  Ni  Ni4  1  0.500000  0.000000  0.500000  1
  Ir  Ir5  1  0.000000  0.500000  0.500000  1
