# generated using pymatgen
data_Pr4Nd3Sm(Te3N2)2
_symmetry_space_group_name_H-M   'P 1'
_cell_length_a   7.44420800
_cell_length_b   11.43949100
_cell_length_c   11.82882400
_cell_angle_alpha   90.00000000
_cell_angle_beta   90.00000000
_cell_angle_gamma   90.00000000
_symmetry_Int_Tables_number   1
_chemical_formula_structural   Pr4Nd3Sm(Te3N2)2
_chemical_formula_sum   'Pr8 Nd6 Sm2 Te12 N8'
_cell_volume   1007.31840770
_cell_formula_units_Z   2
loop_
 _symmetry_equiv_pos_site_id
 _symmetry_equiv_pos_as_xyz
  1  'x, y, z'
loop_
 _atom_site_type_symbol
 _atom_site_label
 _atom_site_symmetry_multiplicity
 _atom_site_fract_x
 _atom_site_fract_y
 _atom_site_fract_z
 _atom_site_occupancy
  Pr  Pr0  1  0.851646  0.609736  0.450452  1
  Pr  Pr1  1  0.147157  0.389525  0.548917  1
  Pr  Pr2  1  0.147157  0.389525  0.951083  1
  Pr  Pr3  1  0.352843  0.889525  0.451083  1
  Pr  Pr4  1  0.648354  0.109736  0.950452  1
  Pr  Pr5  1  0.352843  0.889525  0.048917  1
  Pr  Pr6  1  0.851646  0.609736  0.049548  1
  Pr  Pr7  1  0.648354  0.109736  0.549548  1
  Nd  Nd8  1  0.090486  0.659174  0.750000  1
  Nd  Nd9  1  0.233587  0.031336  0.750000  1
  Nd  Nd10  1  0.266413  0.531336  0.250000  1
  Nd  Nd11  1  0.409514  0.159174  0.250000  1
  Nd  Nd12  1  0.766767  0.968653  0.250000  1
  Nd  Nd13  1  0.733233  0.468653  0.750000  1
  Sm  Sm14  1  0.589000  0.842932  0.750000  1
  Sm  Sm15  1  0.911000  0.342932  0.250000  1
  Te  Te16  1  0.921790  0.225754  0.750000  1
  Te  Te17  1  0.078516  0.774252  0.250000  1
  Te  Te18  1  0.567876  0.365215  0.418424  1
  Te  Te19  1  0.064177  0.135710  0.081531  1
  Te  Te20  1  0.421484  0.274252  0.750000  1
  Te  Te21  1  0.578210  0.725754  0.250000  1
  Te  Te22  1  0.567876  0.365215  0.081576  1
  Te  Te23  1  0.435823  0.635710  0.581531  1
  Te  Te24  1  0.932124  0.865215  0.918424  1
  Te  Te25  1  0.932124  0.865215  0.581576  1
  Te  Te26  1  0.064177  0.135710  0.418469  1
  Te  Te27  1  0.435823  0.635710  0.918469  1
  N  N28  1  0.050810  0.466262  0.376580  1
  N  N29  1  0.551643  0.032500  0.122336  1
  N  N30  1  0.449190  0.966262  0.623420  1
  N  N31  1  0.948357  0.532500  0.622336  1
  N  N32  1  0.948357  0.532500  0.877664  1
  N  N33  1  0.449190  0.966262  0.876580  1
  N  N34  1  0.551643  0.032500  0.377664  1
  N  N35  1  0.050810  0.466262  0.123420  1
