# generated using pymatgen
data_TbErFe3P7Ru9
_symmetry_space_group_name_H-M   'P 1'
_cell_length_a   9.29748300
_cell_length_b   9.29748184
_cell_length_c   3.85593600
_cell_angle_alpha   90.00000000
_cell_angle_beta   90.00000000
_cell_angle_gamma   119.99999344
_symmetry_Int_Tables_number   1
_chemical_formula_structural   TbErFe3P7Ru9
_chemical_formula_sum   'Tb1 Er1 Fe3 P7 Ru9'
_cell_volume   288.66305877
_cell_formula_units_Z   1
loop_
 _symmetry_equiv_pos_site_id
 _symmetry_equiv_pos_as_xyz
  1  'x, y, z'
loop_
 _atom_site_type_symbol
 _atom_site_label
 _atom_site_symmetry_multiplicity
 _atom_site_fract_x
 _atom_site_fract_y
 _atom_site_fract_z
 _atom_site_occupancy
  Tb  Tb0  1  0.000000  0.000000  0.000000  1
  Er  Er1  1  0.333333  0.666667  0.500000  1
  Fe  Fe2  1  0.824539  0.223525  0.000000  1
  Fe  Fe3  1  0.776475  0.601014  0.000000  1
  Fe  Fe4  1  0.398986  0.175461  0.000000  1
  P  P5  1  0.080435  0.442200  0.000000  1
  P  P6  1  0.557800  0.638235  0.000000  1
  P  P7  1  0.361765  0.919565  0.000000  1
  P  P8  1  0.782321  0.053263  0.500000  1
  P  P9  1  0.946737  0.729057  0.500000  1
  P  P10  1  0.270943  0.217679  0.500000  1
  P  P11  1  0.666667  0.333333  0.000000  1
  Ru  Ru12  1  0.087676  0.693230  0.000000  1
  Ru  Ru13  1  0.306770  0.394446  0.000000  1
  Ru  Ru14  1  0.605554  0.912324  0.000000  1
  Ru  Ru15  1  0.052953  0.281929  0.500000  1
  Ru  Ru16  1  0.718071  0.771023  0.500000  1
  Ru  Ru17  1  0.228977  0.947047  0.500000  1
  Ru  Ru18  1  0.870761  0.449601  0.500000  1
  Ru  Ru19  1  0.550399  0.421160  0.500000  1
  Ru  Ru20  1  0.578840  0.129239  0.500000  1
