# generated using pymatgen
data_MgMnZnO4
_symmetry_space_group_name_H-M   'P 1'
_cell_length_a   5.96941997
_cell_length_b   5.96953916
_cell_length_c   5.96955652
_cell_angle_alpha   120.22353770
_cell_angle_beta   120.12962484
_cell_angle_gamma   89.69528571
_symmetry_Int_Tables_number   1
_chemical_formula_structural   MgMnZnO4
_chemical_formula_sum   'Mg2 Mn2 Zn2 O8'
_cell_volume   150.01306352
_cell_formula_units_Z   2
loop_
 _symmetry_equiv_pos_site_id
 _symmetry_equiv_pos_as_xyz
  1  'x, y, z'
loop_
 _atom_site_type_symbol
 _atom_site_label
 _atom_site_symmetry_multiplicity
 _atom_site_fract_x
 _atom_site_fract_y
 _atom_site_fract_z
 _atom_site_occupancy
  Mg  Mg0  1  0.000000  0.500000  0.000000  1
  Mg  Mg1  1  0.000000  0.000000  0.500000  1
  Mn  Mn2  1  0.500000  0.500000  0.000000  1
  Mn  Mn3  1  0.000000  0.500000  0.500000  1
  Zn  Zn4  1  0.392829  0.142830  0.250000  1
  Zn  Zn5  1  0.607171  0.857170  0.750000  1
  O  O6  1  0.751070  0.720710  0.469643  1
  O  O7  1  0.751070  0.281426  0.030360  1
  O  O8  1  0.208606  0.726439  0.482168  1
  O  O9  1  0.744272  0.726441  0.017831  1
  O  O10  1  0.248930  0.279290  0.530357  1
  O  O11  1  0.248930  0.718574  0.969640  1
  O  O12  1  0.791394  0.273561  0.517832  1
  O  O13  1  0.255728  0.273559  0.982169  1
