# generated using pymatgen
data_Tb13Ho3(C2Cl3)4
_symmetry_space_group_name_H-M   'P 1'
_cell_length_a   3.66216500
_cell_length_b   10.52671624
_cell_length_c   19.81232900
_cell_angle_alpha   90.05142989
_cell_angle_beta   90.00000000
_cell_angle_gamma   90.00000000
_symmetry_Int_Tables_number   1
_chemical_formula_structural   Tb13Ho3(C2Cl3)4
_chemical_formula_sum   'Tb13 Ho3 C8 Cl12'
_cell_volume   763.77630359
_cell_formula_units_Z   1
loop_
 _symmetry_equiv_pos_site_id
 _symmetry_equiv_pos_as_xyz
  1  'x, y, z'
loop_
 _atom_site_type_symbol
 _atom_site_label
 _atom_site_symmetry_multiplicity
 _atom_site_fract_x
 _atom_site_fract_y
 _atom_site_fract_z
 _atom_site_occupancy
  Tb  Tb0  1  0.250000  0.139303  0.573736  1
  Tb  Tb1  1  0.250000  0.639454  0.926437  1
  Tb  Tb2  1  0.750000  0.860760  0.426823  1
  Tb  Tb3  1  0.750000  0.361728  0.073299  1
  Tb  Tb4  1  0.250000  0.635939  0.755432  1
  Tb  Tb5  1  0.250000  0.136562  0.744652  1
  Tb  Tb6  1  0.750000  0.363132  0.244498  1
  Tb  Tb7  1  0.750000  0.863862  0.255984  1
  Tb  Tb8  1  0.250000  0.102349  0.332935  1
  Tb  Tb9  1  0.250000  0.601487  0.167913  1
  Tb  Tb10  1  0.750000  0.898119  0.667549  1
  Tb  Tb11  1  0.750000  0.397858  0.832600  1
  Tb  Tb12  1  0.250000  0.124533  0.164789  1
  Ho  Ho13  1  0.250000  0.626196  0.334372  1
  Ho  Ho14  1  0.750000  0.873795  0.834063  1
  Ho  Ho15  1  0.750000  0.374024  0.666006  1
  C  C16  1  0.250000  0.863217  0.347970  1
  C  C17  1  0.250000  0.364868  0.152295  1
  C  C18  1  0.750000  0.136195  0.652655  1
  C  C19  1  0.750000  0.636656  0.847497  1
  C  C20  1  0.250000  0.386753  0.750184  1
  C  C21  1  0.250000  0.886518  0.749898  1
  C  C22  1  0.750000  0.613345  0.250338  1
  C  C23  1  0.750000  0.112789  0.250690  1
  Cl  Cl24  1  0.250000  0.378241  0.952030  1
  Cl  Cl25  1  0.250000  0.877680  0.547828  1
  Cl  Cl26  1  0.750000  0.622785  0.047429  1
  Cl  Cl27  1  0.750000  0.122316  0.452743  1
  Cl  Cl28  1  0.250000  0.889465  0.941309  1
  Cl  Cl29  1  0.250000  0.389252  0.558830  1
  Cl  Cl30  1  0.750000  0.112524  0.055337  1
  Cl  Cl31  1  0.750000  0.610703  0.441808  1
  Cl  Cl32  1  0.250000  0.364106  0.354311  1
  Cl  Cl33  1  0.250000  0.861185  0.145796  1
  Cl  Cl34  1  0.750000  0.636165  0.645805  1
  Cl  Cl35  1  0.750000  0.136134  0.854163  1
