# generated using pymatgen
data_Tb8Ho5Tm7Pb16
_symmetry_space_group_name_H-M   'P 1'
_cell_length_a   8.18213996
_cell_length_b   8.25342670
_cell_length_c   15.57485151
_cell_angle_alpha   90.01227646
_cell_angle_beta   89.91352738
_cell_angle_gamma   90.09184180
_symmetry_Int_Tables_number   1
_chemical_formula_structural   Tb8Ho5Tm7Pb16
_chemical_formula_sum   'Tb8 Ho5 Tm7 Pb16'
_cell_volume   1051.77793413
_cell_formula_units_Z   1
loop_
 _symmetry_equiv_pos_site_id
 _symmetry_equiv_pos_as_xyz
  1  'x, y, z'
loop_
 _atom_site_type_symbol
 _atom_site_label
 _atom_site_symmetry_multiplicity
 _atom_site_fract_x
 _atom_site_fract_y
 _atom_site_fract_z
 _atom_site_occupancy
  Tb  Tb0  1  0.534823  0.323487  0.900498  1
  Tb  Tb1  1  0.035261  0.176477  0.599436  1
  Tb  Tb2  1  0.465132  0.676886  0.400870  1
  Tb  Tb3  1  0.964723  0.823547  0.099370  1
  Tb  Tb4  1  0.465618  0.676929  0.099042  1
  Tb  Tb5  1  0.965640  0.823463  0.401153  1
  Tb  Tb6  1  0.534510  0.323511  0.599214  1
  Tb  Tb7  1  0.034714  0.175988  0.900173  1
  Ho  Ho8  1  0.124775  0.341905  0.121075  1
  Ho  Ho9  1  0.624043  0.158639  0.121512  1
  Ho  Ho10  1  0.124106  0.341783  0.378755  1
  Ho  Ho11  1  0.375831  0.841737  0.621575  1
  Ho  Ho12  1  0.876052  0.658222  0.878488  1
  Tm  Tm13  1  0.374954  0.842410  0.877833  1
  Tm  Tm14  1  0.874704  0.657539  0.621754  1
  Tm  Tm15  1  0.625145  0.157471  0.378772  1
  Tm  Tm16  1  0.207528  0.505204  0.749987  1
  Tm  Tm17  1  0.707601  0.994988  0.749828  1
  Tm  Tm18  1  0.792142  0.494960  0.250470  1
  Tm  Tm19  1  0.292579  0.005044  0.250088  1
  Pb  Pb20  1  0.283329  0.034009  0.042501  1
  Pb  Pb21  1  0.782953  0.464695  0.457384  1
  Pb  Pb22  1  0.717319  0.964465  0.542940  1
  Pb  Pb23  1  0.217491  0.535981  0.956569  1
  Pb  Pb24  1  0.715237  0.964773  0.956643  1
  Pb  Pb25  1  0.215201  0.535248  0.543414  1
  Pb  Pb26  1  0.284952  0.035285  0.456761  1
  Pb  Pb27  1  0.783305  0.465351  0.043360  1
  Pb  Pb28  1  0.570431  0.626634  0.750190  1
  Pb  Pb29  1  0.070118  0.873211  0.749679  1
  Pb  Pb30  1  0.430042  0.373455  0.250773  1
  Pb  Pb31  1  0.929253  0.126135  0.250173  1
  Pb  Pb32  1  0.347047  0.154202  0.749943  1
  Pb  Pb33  1  0.846802  0.345661  0.749554  1
  Pb  Pb34  1  0.653422  0.846081  0.250251  1
  Pb  Pb35  1  0.153217  0.654624  0.249974  1
