# generated using pymatgen
data_DyY2In3SnPt2
_symmetry_space_group_name_H-M   'P 1'
_cell_length_a   7.63387954
_cell_length_b   7.62998189
_cell_length_c   4.16804800
_cell_angle_alpha   90.00000000
_cell_angle_beta   90.00000000
_cell_angle_gamma   120.06002813
_symmetry_Int_Tables_number   1
_chemical_formula_structural   DyY2In3SnPt2
_chemical_formula_sum   'Dy1 Y2 In3 Sn1 Pt2'
_cell_volume   210.12084454
_cell_formula_units_Z   1
loop_
 _symmetry_equiv_pos_site_id
 _symmetry_equiv_pos_as_xyz
  1  'x, y, z'
loop_
 _atom_site_type_symbol
 _atom_site_label
 _atom_site_symmetry_multiplicity
 _atom_site_fract_x
 _atom_site_fract_y
 _atom_site_fract_z
 _atom_site_occupancy
  Dy  Dy0  1  0.979343  0.586200  0.500000  1
  Y  Y1  1  0.606408  0.019815  0.500000  1
  Y  Y2  1  0.413523  0.393689  0.500000  1
  In  In3  1  0.756211  0.744580  0.000000  1
  In  In4  1  0.988372  0.243819  0.000000  1
  In  In5  1  0.255384  0.011574  0.000000  1
  Sn  Sn6  1  0.333273  0.666723  0.000000  1
  Pt  Pt7  1  0.667517  0.334040  0.000000  1
  Pt  Pt8  1  0.999969  0.999562  0.500000  1
