# generated using pymatgen
data_Ho16Sc4RuPt11
_symmetry_space_group_name_H-M   'P 1'
_cell_length_a   10.83307800
_cell_length_b   10.83307800
_cell_length_c   6.23217800
_cell_angle_alpha   90.00000000
_cell_angle_beta   90.00000000
_cell_angle_gamma   90.00000000
_symmetry_Int_Tables_number   1
_chemical_formula_structural   Ho16Sc4RuPt11
_chemical_formula_sum   'Ho16 Sc4 Ru1 Pt11'
_cell_volume   731.38085733
_cell_formula_units_Z   1
loop_
 _symmetry_equiv_pos_site_id
 _symmetry_equiv_pos_as_xyz
  1  'x, y, z'
loop_
 _atom_site_type_symbol
 _atom_site_label
 _atom_site_symmetry_multiplicity
 _atom_site_fract_x
 _atom_site_fract_y
 _atom_site_fract_z
 _atom_site_occupancy
  Ho  Ho0  1  0.287587  0.087460  0.376517  1
  Ho  Ho1  1  0.287171  0.912085  0.875651  1
  Ho  Ho2  1  0.712829  0.087915  0.875651  1
  Ho  Ho3  1  0.712413  0.912540  0.376517  1
  Ho  Ho4  1  0.587915  0.787171  0.875651  1
  Ho  Ho5  1  0.587460  0.212413  0.376517  1
  Ho  Ho6  1  0.412540  0.787587  0.376517  1
  Ho  Ho7  1  0.412085  0.212829  0.875651  1
  Ho  Ho8  1  0.209483  0.413675  0.619901  1
  Ho  Ho9  1  0.210171  0.586402  0.128388  1
  Ho  Ho10  1  0.789829  0.413598  0.128388  1
  Ho  Ho11  1  0.790517  0.586325  0.619901  1
  Ho  Ho12  1  0.913598  0.710171  0.128388  1
  Ho  Ho13  1  0.913675  0.290517  0.619901  1
  Ho  Ho14  1  0.086325  0.709483  0.619901  1
  Ho  Ho15  1  0.086402  0.289829  0.128388  1
  Sc  Sc16  1  0.000000  0.000000  0.500842  1
  Sc  Sc17  1  0.000000  0.000000  0.000851  1
  Sc  Sc18  1  0.500000  0.500000  0.000851  1
  Sc  Sc19  1  0.500000  0.500000  0.500842  1
  Ru  Ru20  1  0.000000  0.500000  0.379248  1
  Pt  Pt21  1  0.850077  0.147914  0.250202  1
  Pt  Pt22  1  0.851236  0.851000  0.750583  1
  Pt  Pt23  1  0.148764  0.149000  0.750583  1
  Pt  Pt24  1  0.149923  0.852086  0.250202  1
  Pt  Pt25  1  0.649000  0.351236  0.750583  1
  Pt  Pt26  1  0.647914  0.649923  0.250202  1
  Pt  Pt27  1  0.352086  0.350077  0.250202  1
  Pt  Pt28  1  0.351000  0.648764  0.750583  1
  Pt  Pt29  1  0.500000  0.000000  0.115695  1
  Pt  Pt30  1  0.500000  0.000000  0.616769  1
  Pt  Pt31  1  0.000000  0.500000  0.879935  1
