# generated using pymatgen
data_La2Al3ZnAg6
_symmetry_space_group_name_H-M   'P 1'
_cell_length_a   4.52323800
_cell_length_b   5.60677064
_cell_length_c   9.77520200
_cell_angle_alpha   90.02745855
_cell_angle_beta   90.00000000
_cell_angle_gamma   90.00000000
_symmetry_Int_Tables_number   1
_chemical_formula_structural   La2Al3ZnAg6
_chemical_formula_sum   'La2 Al3 Zn1 Ag6'
_cell_volume   247.90650418
_cell_formula_units_Z   1
loop_
 _symmetry_equiv_pos_site_id
 _symmetry_equiv_pos_as_xyz
  1  'x, y, z'
loop_
 _atom_site_type_symbol
 _atom_site_label
 _atom_site_symmetry_multiplicity
 _atom_site_fract_x
 _atom_site_fract_y
 _atom_site_fract_z
 _atom_site_occupancy
  La  La0  1  0.000000  0.261339  0.751036  1
  La  La1  1  0.000000  0.738661  0.248964  1
  Al  Al2  1  0.500000  0.745010  0.747006  1
  Al  Al3  1  0.500000  0.254990  0.252994  1
  Al  Al4  1  0.500000  0.000000  0.000000  1
  Zn  Zn5  1  0.500000  0.000000  0.500000  1
  Ag  Ag6  1  0.000000  0.228445  0.088601  1
  Ag  Ag7  1  0.000000  0.770408  0.588413  1
  Ag  Ag8  1  0.000000  0.771555  0.911399  1
  Ag  Ag9  1  0.000000  0.229592  0.411587  1
  Ag  Ag10  1  0.500000  0.500000  0.500000  1
  Ag  Ag11  1  0.500000  0.500000  0.000000  1
