# generated using pymatgen
data_Tb4Ga20(TcRu)3
_symmetry_space_group_name_H-M   'P 1'
_cell_length_a   9.03020328
_cell_length_b   9.03020328
_cell_length_c   6.39923500
_cell_angle_alpha   90.00000000
_cell_angle_beta   90.00000000
_cell_angle_gamma   90.18900211
_symmetry_Int_Tables_number   1
_chemical_formula_structural   Tb4Ga20(TcRu)3
_chemical_formula_sum   'Tb4 Ga20 Tc3 Ru3'
_cell_volume   521.82003580
_cell_formula_units_Z   1
loop_
 _symmetry_equiv_pos_site_id
 _symmetry_equiv_pos_as_xyz
  1  'x, y, z'
loop_
 _atom_site_type_symbol
 _atom_site_label
 _atom_site_symmetry_multiplicity
 _atom_site_fract_x
 _atom_site_fract_y
 _atom_site_fract_z
 _atom_site_occupancy
  Tb  Tb0  1  0.182642  0.681914  0.000000  1
  Tb  Tb1  1  0.818086  0.317358  0.000000  1
  Tb  Tb2  1  0.682007  0.817993  0.000000  1
  Tb  Tb3  1  0.316929  0.183071  0.000000  1
  Ga  Ga4  1  0.060729  0.206503  0.706349  1
  Ga  Ga5  1  0.940199  0.794265  0.706555  1
  Ga  Ga6  1  0.560339  0.294716  0.707236  1
  Ga  Ga7  1  0.439943  0.705281  0.706111  1
  Ga  Ga8  1  0.794719  0.060057  0.706111  1
  Ga  Ga9  1  0.205284  0.939661  0.707236  1
  Ga  Ga10  1  0.705735  0.559801  0.706555  1
  Ga  Ga11  1  0.293497  0.439271  0.706349  1
  Ga  Ga12  1  0.940199  0.794265  0.293445  1
  Ga  Ga13  1  0.060729  0.206503  0.293651  1
  Ga  Ga14  1  0.439943  0.705281  0.293889  1
  Ga  Ga15  1  0.560339  0.294716  0.292764  1
  Ga  Ga16  1  0.205284  0.939661  0.292764  1
  Ga  Ga17  1  0.794719  0.060057  0.293889  1
  Ga  Ga18  1  0.293497  0.439271  0.293651  1
  Ga  Ga19  1  0.705735  0.559801  0.293445  1
  Ga  Ga20  1  0.000295  0.499705  0.707839  1
  Ga  Ga21  1  0.499386  0.000614  0.708775  1
  Ga  Ga22  1  0.000295  0.499705  0.292161  1
  Ga  Ga23  1  0.499386  0.000614  0.291225  1
  Tc  Tc24  1  0.180087  0.679309  0.500000  1
  Tc  Tc25  1  0.820691  0.319913  0.500000  1
  Tc  Tc26  1  0.678955  0.821045  0.500000  1
  Ru  Ru27  1  0.321251  0.178749  0.500000  1
  Ru  Ru28  1  0.000398  0.001299  0.000000  1
  Ru  Ru29  1  0.498701  0.499602  0.000000  1
