# generated using pymatgen
data_ScV3Tc3P4
_symmetry_space_group_name_H-M   'P 1'
_cell_length_a   7.41535600
_cell_length_b   7.41535715
_cell_length_c   3.18674500
_cell_angle_alpha   90.00000000
_cell_angle_beta   90.00000000
_cell_angle_gamma   119.99999488
_symmetry_Int_Tables_number   1
_chemical_formula_structural   ScV3Tc3P4
_chemical_formula_sum   'Sc1 V3 Tc3 P4'
_cell_volume   151.75466342
_cell_formula_units_Z   1
loop_
 _symmetry_equiv_pos_site_id
 _symmetry_equiv_pos_as_xyz
  1  'x, y, z'
loop_
 _atom_site_type_symbol
 _atom_site_label
 _atom_site_symmetry_multiplicity
 _atom_site_fract_x
 _atom_site_fract_y
 _atom_site_fract_z
 _atom_site_occupancy
  Sc  Sc0  1  0.000000  0.000000  0.000000  1
  V  V1  1  0.545961  0.091924  0.000000  1
  V  V2  1  0.908076  0.454039  0.000000  1
  V  V3  1  0.545961  0.454039  0.000000  1
  Tc  Tc4  1  0.197406  0.802594  0.500000  1
  Tc  Tc5  1  0.197406  0.394813  0.500000  1
  Tc  Tc6  1  0.605187  0.802594  0.500000  1
  P  P7  1  0.821525  0.178475  0.500000  1
  P  P8  1  0.356949  0.178475  0.500000  1
  P  P9  1  0.333333  0.666667  0.000000  1
  P  P10  1  0.821525  0.643051  0.500000  1
