# generated using pymatgen
data_Er3Mn(Al4Rh)3
_symmetry_space_group_name_H-M   'P 1'
_cell_length_a   8.77566600
_cell_length_b   8.77566490
_cell_length_c   9.42435200
_cell_angle_alpha   90.00000000
_cell_angle_beta   90.00000000
_cell_angle_gamma   119.99999660
_symmetry_Int_Tables_number   1
_chemical_formula_structural   Er3Mn(Al4Rh)3
_chemical_formula_sum   'Er6 Mn2 Al24 Rh6'
_cell_volume   628.55351923
_cell_formula_units_Z   2
loop_
 _symmetry_equiv_pos_site_id
 _symmetry_equiv_pos_as_xyz
  1  'x, y, z'
loop_
 _atom_site_type_symbol
 _atom_site_label
 _atom_site_symmetry_multiplicity
 _atom_site_fract_x
 _atom_site_fract_y
 _atom_site_fract_z
 _atom_site_occupancy
  Er  Er0  1  0.192988  0.385975  0.250000  1
  Er  Er1  1  0.807012  0.614025  0.750000  1
  Er  Er2  1  0.614025  0.807012  0.250000  1
  Er  Er3  1  0.385975  0.192988  0.750000  1
  Er  Er4  1  0.192988  0.807012  0.250000  1
  Er  Er5  1  0.807012  0.192988  0.750000  1
  Mn  Mn6  1  0.000000  0.000000  0.000000  1
  Mn  Mn7  1  0.000000  0.000000  0.500000  1
  Al  Al8  1  0.333333  0.666667  0.026863  1
  Al  Al9  1  0.666667  0.333333  0.973137  1
  Al  Al10  1  0.666667  0.333333  0.526863  1
  Al  Al11  1  0.333333  0.666667  0.473137  1
  Al  Al12  1  0.160169  0.320339  0.575623  1
  Al  Al13  1  0.839831  0.679661  0.424377  1
  Al  Al14  1  0.679661  0.839831  0.575623  1
  Al  Al15  1  0.839831  0.679661  0.075623  1
  Al  Al16  1  0.320339  0.160169  0.424377  1
  Al  Al17  1  0.160169  0.320339  0.924377  1
  Al  Al18  1  0.160169  0.839831  0.575623  1
  Al  Al19  1  0.320339  0.160169  0.075623  1
  Al  Al20  1  0.839831  0.160169  0.424377  1
  Al  Al21  1  0.679661  0.839831  0.924377  1
  Al  Al22  1  0.839831  0.160169  0.075623  1
  Al  Al23  1  0.160169  0.839831  0.924377  1
  Al  Al24  1  0.562827  0.125655  0.250000  1
  Al  Al25  1  0.437173  0.874345  0.750000  1
  Al  Al26  1  0.874345  0.437173  0.250000  1
  Al  Al27  1  0.125655  0.562827  0.750000  1
  Al  Al28  1  0.562827  0.437173  0.250000  1
  Al  Al29  1  0.437173  0.562827  0.750000  1
  Al  Al30  1  0.000000  0.000000  0.250000  1
  Al  Al31  1  0.000000  0.000000  0.750000  1
  Rh  Rh32  1  0.500000  0.000000  0.000000  1
  Rh  Rh33  1  0.000000  0.500000  0.000000  1
  Rh  Rh34  1  0.500000  0.000000  0.500000  1
  Rh  Rh35  1  0.500000  0.500000  0.000000  1
  Rh  Rh36  1  0.000000  0.500000  0.500000  1
  Rh  Rh37  1  0.500000  0.500000  0.500000  1
