# generated using pymatgen
data_KBa3PaS6
_symmetry_space_group_name_H-M   'P 1'
_cell_length_a   8.56808885
_cell_length_b   8.56808923
_cell_length_c   8.56808900
_cell_angle_alpha   89.14998997
_cell_angle_beta   89.14999662
_cell_angle_gamma   89.15000450
_symmetry_Int_Tables_number   1
_chemical_formula_structural   KBa3PaS6
_chemical_formula_sum   'K2 Ba6 Pa2 S12'
_cell_volume   628.79621485
_cell_formula_units_Z   2
loop_
 _symmetry_equiv_pos_site_id
 _symmetry_equiv_pos_as_xyz
  1  'x, y, z'
loop_
 _atom_site_type_symbol
 _atom_site_label
 _atom_site_symmetry_multiplicity
 _atom_site_fract_x
 _atom_site_fract_y
 _atom_site_fract_z
 _atom_site_occupancy
  K  K0  1  0.250000  0.250000  0.250000  1
  K  K1  1  0.750000  0.750000  0.750000  1
  Ba  Ba2  1  0.879772  0.620228  0.250000  1
  Ba  Ba3  1  0.250000  0.879772  0.620228  1
  Ba  Ba4  1  0.620228  0.250000  0.879772  1
  Ba  Ba5  1  0.750000  0.120228  0.379772  1
  Ba  Ba6  1  0.379772  0.750000  0.120228  1
  Ba  Ba7  1  0.120228  0.379772  0.750000  1
  Pa  Pa8  1  0.500000  0.500000  0.500000  1
  Pa  Pa9  1  0.000000  0.000000  0.000000  1
  S  S10  1  0.206548  0.563550  0.427408  1
  S  S11  1  0.427408  0.206548  0.563550  1
  S  S12  1  0.563550  0.427408  0.206548  1
  S  S13  1  0.927408  0.063550  0.706548  1
  S  S14  1  0.706548  0.927408  0.063550  1
  S  S15  1  0.063550  0.706548  0.927408  1
  S  S16  1  0.793452  0.436450  0.572592  1
  S  S17  1  0.572592  0.793452  0.436450  1
  S  S18  1  0.436450  0.572592  0.793452  1
  S  S19  1  0.072592  0.936450  0.293452  1
  S  S20  1  0.293452  0.072592  0.936450  1
  S  S21  1  0.936450  0.293452  0.072592  1
