# generated using pymatgen
data_Hf8Ti11Si16Tc
_symmetry_space_group_name_H-M   'P 1'
_cell_length_a   6.59378535
_cell_length_b   6.74622720
_cell_length_c   12.91705600
_cell_angle_alpha   90.00000000
_cell_angle_beta   90.00000000
_cell_angle_gamma   90.00483891
_symmetry_Int_Tables_number   1
_chemical_formula_structural   Hf8Ti11Si16Tc
_chemical_formula_sum   'Hf8 Ti11 Si16 Tc1'
_cell_volume   574.59164847
_cell_formula_units_Z   1
loop_
 _symmetry_equiv_pos_site_id
 _symmetry_equiv_pos_as_xyz
  1  'x, y, z'
loop_
 _atom_site_type_symbol
 _atom_site_label
 _atom_site_symmetry_multiplicity
 _atom_site_fract_x
 _atom_site_fract_y
 _atom_site_fract_z
 _atom_site_occupancy
  Hf  Hf0  1  0.998682  0.174108  0.093866  1
  Hf  Hf1  1  0.004487  0.827389  0.904927  1
  Hf  Hf2  1  0.501637  0.673702  0.905581  1
  Hf  Hf3  1  0.004487  0.827389  0.595073  1
  Hf  Hf4  1  0.500012  0.326028  0.094072  1
  Hf  Hf5  1  0.998682  0.174108  0.406134  1
  Hf  Hf6  1  0.500012  0.326028  0.405928  1
  Hf  Hf7  1  0.501637  0.673702  0.594419  1
  Ti  Ti8  1  0.163764  0.493396  0.750000  1
  Ti  Ti9  1  0.835141  0.505065  0.250000  1
  Ti  Ti10  1  0.336032  0.995439  0.250000  1
  Ti  Ti11  1  0.334768  0.171488  0.624713  1
  Ti  Ti12  1  0.663302  0.827674  0.374793  1
  Ti  Ti13  1  0.163161  0.672304  0.374826  1
  Ti  Ti14  1  0.663302  0.827674  0.125207  1
  Ti  Ti15  1  0.835858  0.328398  0.624889  1
  Ti  Ti16  1  0.334768  0.171488  0.875287  1
  Ti  Ti17  1  0.835858  0.328398  0.875111  1
  Ti  Ti18  1  0.163161  0.672304  0.125174  1
  Si  Si19  1  0.035490  0.117127  0.750000  1
  Si  Si20  1  0.961131  0.881674  0.250000  1
  Si  Si21  1  0.461504  0.617949  0.250000  1
  Si  Si22  1  0.536813  0.381881  0.750000  1
  Si  Si23  1  0.298610  0.862508  0.750000  1
  Si  Si24  1  0.703796  0.135922  0.250000  1
  Si  Si25  1  0.202913  0.363601  0.250000  1
  Si  Si26  1  0.797937  0.637053  0.750000  1
  Si  Si27  1  0.170001  0.463032  0.538861  1
  Si  Si28  1  0.829865  0.538398  0.461025  1
  Si  Si29  1  0.329998  0.961895  0.461223  1
  Si  Si30  1  0.829865  0.538398  0.038975  1
  Si  Si31  1  0.670001  0.037769  0.539604  1
  Si  Si32  1  0.170001  0.463032  0.961139  1
  Si  Si33  1  0.670001  0.037769  0.960396  1
  Si  Si34  1  0.329998  0.961895  0.038777  1
  Tc  Tc35  1  0.663326  0.004011  0.750000  1
