# generated using pymatgen
data_PrNdPPt8
_symmetry_space_group_name_H-M   'P 1'
_cell_length_a   9.21588278
_cell_length_b   9.21409693
_cell_length_c   4.31229800
_cell_angle_alpha   90.00000000
_cell_angle_beta   90.00000000
_cell_angle_gamma   145.60704255
_symmetry_Int_Tables_number   1
_chemical_formula_structural   PrNdPPt8
_chemical_formula_sum   'Pr1 Nd1 P1 Pt8'
_cell_volume   206.84431784
_cell_formula_units_Z   1
loop_
 _symmetry_equiv_pos_site_id
 _symmetry_equiv_pos_as_xyz
  1  'x, y, z'
loop_
 _atom_site_type_symbol
 _atom_site_label
 _atom_site_symmetry_multiplicity
 _atom_site_fract_x
 _atom_site_fract_y
 _atom_site_fract_z
 _atom_site_occupancy
  Pr  Pr0  1  0.619091  0.372965  0.500000  1
  Nd  Nd1  1  0.372061  0.619668  0.500000  1
  P  P2  1  0.224131  0.223984  0.000000  1
  Pt  Pt3  1  0.110211  0.890268  0.000000  1
  Pt  Pt4  1  0.891406  0.110892  0.000000  1
  Pt  Pt5  1  0.489454  0.983442  0.000000  1
  Pt  Pt6  1  0.984549  0.489065  0.000000  1
  Pt  Pt7  1  0.194890  0.791993  0.500000  1
  Pt  Pt8  1  0.792261  0.194144  0.500000  1
  Pt  Pt9  1  0.003282  0.003632  0.500000  1
  Pt  Pt10  1  0.632263  0.633545  0.000000  1
