# generated using pymatgen
data_Dy8Tm2Sn5Pb3
_symmetry_space_group_name_H-M   'P 1'
_cell_length_a   8.10287531
_cell_length_b   8.18417435
_cell_length_c   15.56661400
_cell_angle_alpha   90.05895376
_cell_angle_beta   89.98416086
_cell_angle_gamma   90.02852356
_symmetry_Int_Tables_number   1
_chemical_formula_structural   Dy8Tm2Sn5Pb3
_chemical_formula_sum   'Dy16 Tm4 Sn10 Pb6'
_cell_volume   1032.30465227
_cell_formula_units_Z   2
loop_
 _symmetry_equiv_pos_site_id
 _symmetry_equiv_pos_as_xyz
  1  'x, y, z'
loop_
 _atom_site_type_symbol
 _atom_site_label
 _atom_site_symmetry_multiplicity
 _atom_site_fract_x
 _atom_site_fract_y
 _atom_site_fract_z
 _atom_site_occupancy
  Dy  Dy0  1  0.870025  0.660857  0.624093  1
  Dy  Dy1  1  0.627501  0.161429  0.376639  1
  Dy  Dy2  1  0.127384  0.338745  0.123010  1
  Dy  Dy3  1  0.629631  0.164010  0.123171  1
  Dy  Dy4  1  0.128990  0.336249  0.376885  1
  Dy  Dy5  1  0.370478  0.840507  0.623331  1
  Dy  Dy6  1  0.870528  0.659384  0.876998  1
  Dy  Dy7  1  0.530646  0.324665  0.899364  1
  Dy  Dy8  1  0.031100  0.175004  0.601020  1
  Dy  Dy9  1  0.471308  0.680144  0.398859  1
  Dy  Dy10  1  0.970922  0.819271  0.101197  1
  Dy  Dy11  1  0.475632  0.675303  0.100516  1
  Dy  Dy12  1  0.975120  0.824655  0.399006  1
  Dy  Dy13  1  0.526060  0.321229  0.601007  1
  Dy  Dy14  1  0.025918  0.178611  0.899083  1
  Dy  Dy15  1  0.297808  0.002845  0.251201  1
  Tm  Tm16  1  0.369681  0.839602  0.875461  1
  Tm  Tm17  1  0.202020  0.503462  0.750268  1
  Tm  Tm18  1  0.701584  0.996839  0.750144  1
  Tm  Tm19  1  0.797651  0.496897  0.248650  1
  Sn  Sn20  1  0.289350  0.035159  0.458220  1
  Sn  Sn21  1  0.789420  0.464793  0.042164  1
  Sn  Sn22  1  0.565635  0.621845  0.750240  1
  Sn  Sn23  1  0.066434  0.878787  0.750582  1
  Sn  Sn24  1  0.432775  0.380378  0.250261  1
  Sn  Sn25  1  0.931762  0.120620  0.249562  1
  Sn  Sn26  1  0.336953  0.150257  0.751000  1
  Sn  Sn27  1  0.836624  0.349615  0.749405  1
  Sn  Sn28  1  0.664837  0.850859  0.249911  1
  Sn  Sn29  1  0.164089  0.647456  0.249996  1
  Pb  Pb30  1  0.288286  0.033850  0.040935  1
  Pb  Pb31  1  0.787847  0.465723  0.457977  1
  Pb  Pb32  1  0.712421  0.964635  0.541515  1
  Pb  Pb33  1  0.212867  0.536864  0.958332  1
  Pb  Pb34  1  0.709576  0.963647  0.958285  1
  Pb  Pb35  1  0.211135  0.535804  0.541716  1
