# generated using pymatgen
data_Tb16In4PdRuRh2
_symmetry_space_group_name_H-M   'P 1'
_cell_length_a   9.71548642
_cell_length_b   9.74165908
_cell_length_c   9.71548582
_cell_angle_alpha   60.05463104
_cell_angle_beta   59.95840061
_cell_angle_gamma   60.05462297
_symmetry_Int_Tables_number   1
_chemical_formula_structural   Tb16In4PdRuRh2
_chemical_formula_sum   'Tb16 In4 Pd1 Ru1 Rh2'
_cell_volume   650.53123104
_cell_formula_units_Z   1
loop_
 _symmetry_equiv_pos_site_id
 _symmetry_equiv_pos_as_xyz
  1  'x, y, z'
loop_
 _atom_site_type_symbol
 _atom_site_label
 _atom_site_symmetry_multiplicity
 _atom_site_fract_x
 _atom_site_fract_y
 _atom_site_fract_z
 _atom_site_occupancy
  Tb  Tb0  1  0.810799  0.810856  0.188063  1
  Tb  Tb1  1  0.810854  0.183520  0.810854  1
  Tb  Tb2  1  0.194624  0.185454  0.811813  1
  Tb  Tb3  1  0.650092  0.047460  0.650092  1
  Tb  Tb4  1  0.060388  0.061032  0.440448  1
  Tb  Tb5  1  0.434998  0.438638  0.062661  1
  Tb  Tb6  1  0.648736  0.654635  0.648736  1
  Tb  Tb7  1  0.811813  0.185454  0.194624  1
  Tb  Tb8  1  0.188063  0.810856  0.810799  1
  Tb  Tb9  1  0.051347  0.653015  0.647315  1
  Tb  Tb10  1  0.440448  0.061032  0.060388  1
  Tb  Tb11  1  0.435976  0.063680  0.435976  1
  Tb  Tb12  1  0.060614  0.442180  0.060614  1
  Tb  Tb13  1  0.647315  0.653015  0.051347  1
  Tb  Tb14  1  0.190003  0.811523  0.190003  1
  Tb  Tb15  1  0.062661  0.438638  0.434998  1
  In  In16  1  0.417347  0.417027  0.417347  1
  In  In17  1  0.418179  0.417843  0.747397  1
  In  In18  1  0.417749  0.747757  0.417749  1
  In  In19  1  0.747397  0.417843  0.418179  1
  Pd  Pd20  1  0.857583  0.428058  0.857583  1
  Ru  Ru21  1  0.857988  0.856403  0.857988  1
  Rh  Rh22  1  0.858194  0.857039  0.426834  1
  Rh  Rh23  1  0.426834  0.857039  0.858194  1
