# generated using pymatgen
data_HoTm(TaSe2)8
_symmetry_space_group_name_H-M   'P 1'
_cell_length_a   7.01634000
_cell_length_b   7.01634028
_cell_length_c   14.13873600
_cell_angle_alpha   90.00000000
_cell_angle_beta   90.00000000
_cell_angle_gamma   119.99999870
_symmetry_Int_Tables_number   1
_chemical_formula_structural   HoTm(TaSe2)8
_chemical_formula_sum   'Ho1 Tm1 Ta8 Se16'
_cell_volume   602.78507679
_cell_formula_units_Z   1
loop_
 _symmetry_equiv_pos_site_id
 _symmetry_equiv_pos_as_xyz
  1  'x, y, z'
loop_
 _atom_site_type_symbol
 _atom_site_label
 _atom_site_symmetry_multiplicity
 _atom_site_fract_x
 _atom_site_fract_y
 _atom_site_fract_z
 _atom_site_occupancy
  Ho  Ho0  1  0.000000  0.000000  0.000000  1
  Tm  Tm1  1  0.000000  0.000000  0.500000  1
  Ta  Ta2  1  0.000000  0.000000  0.250093  1
  Ta  Ta3  1  0.000000  0.000000  0.749907  1
  Ta  Ta4  1  0.508667  0.017336  0.250533  1
  Ta  Ta5  1  0.982664  0.491333  0.250533  1
  Ta  Ta6  1  0.508667  0.491333  0.250533  1
  Ta  Ta7  1  0.491333  0.982664  0.749467  1
  Ta  Ta8  1  0.017336  0.508667  0.749467  1
  Ta  Ta9  1  0.491333  0.508667  0.749467  1
  Se  Se10  1  0.333333  0.666667  0.872688  1
  Se  Se11  1  0.666667  0.333333  0.127312  1
  Se  Se12  1  0.666667  0.333333  0.373513  1
  Se  Se13  1  0.333333  0.666667  0.626487  1
  Se  Se14  1  0.170009  0.829991  0.366812  1
  Se  Se15  1  0.170009  0.340019  0.366812  1
  Se  Se16  1  0.659981  0.829991  0.366812  1
  Se  Se17  1  0.829991  0.170009  0.633188  1
  Se  Se18  1  0.829991  0.659981  0.633188  1
  Se  Se19  1  0.340019  0.170009  0.633188  1
  Se  Se20  1  0.829408  0.170592  0.865895  1
  Se  Se21  1  0.829408  0.658817  0.865895  1
  Se  Se22  1  0.341183  0.170592  0.865895  1
  Se  Se23  1  0.170592  0.829408  0.134105  1
  Se  Se24  1  0.170592  0.341183  0.134105  1
  Se  Se25  1  0.658817  0.829408  0.134105  1
