# generated using pymatgen
data_TbYAl9Co2Ni
_symmetry_space_group_name_H-M   'P 1'
_cell_length_a   7.39361700
_cell_length_b   7.39337351
_cell_length_c   9.29679900
_cell_angle_alpha   90.00000000
_cell_angle_beta   90.00000000
_cell_angle_gamma   119.27287281
_symmetry_Int_Tables_number   1
_chemical_formula_structural   TbYAl9Co2Ni
_chemical_formula_sum   'Tb2 Y2 Al18 Co4 Ni2'
_cell_volume   443.30164949
_cell_formula_units_Z   2
loop_
 _symmetry_equiv_pos_site_id
 _symmetry_equiv_pos_as_xyz
  1  'x, y, z'
loop_
 _atom_site_type_symbol
 _atom_site_label
 _atom_site_symmetry_multiplicity
 _atom_site_fract_x
 _atom_site_fract_y
 _atom_site_fract_z
 _atom_site_occupancy
  Tb  Tb0  1  0.993448  0.671734  0.250230  1
  Tb  Tb1  1  0.006552  0.328266  0.750230  1
  Y  Y2  1  0.671739  0.993433  0.249768  1
  Y  Y3  1  0.328261  0.006567  0.749768  1
  Al  Al4  1  0.124313  0.124317  0.250000  1
  Al  Al5  1  0.875687  0.875683  0.750000  1
  Al  Al6  1  0.332305  0.329561  0.543221  1
  Al  Al7  1  0.667695  0.670439  0.043221  1
  Al  Al8  1  0.329579  0.332297  0.956779  1
  Al  Al9  1  0.670421  0.667703  0.456779  1
  Al  Al10  1  0.340349  0.552911  0.247229  1
  Al  Al11  1  0.659651  0.447089  0.747229  1
  Al  Al12  1  0.552887  0.340323  0.252777  1
  Al  Al13  1  0.447113  0.659677  0.752777  1
  Al  Al14  1  0.000180  0.335469  0.071539  1
  Al  Al15  1  0.999820  0.664531  0.571539  1
  Al  Al16  1  0.335507  0.000200  0.428475  1
  Al  Al17  1  0.664493  0.999800  0.928475  1
  Al  Al18  1  0.005035  0.668461  0.928171  1
  Al  Al19  1  0.994965  0.331539  0.428171  1
  Al  Al20  1  0.668431  0.005023  0.571817  1
  Al  Al21  1  0.331569  0.994977  0.071817  1
  Co  Co22  1  0.999620  0.000392  0.999994  1
  Co  Co23  1  0.000380  0.999608  0.499994  1
  Co  Co24  1  0.328887  0.671117  0.000001  1
  Co  Co25  1  0.671113  0.328883  0.500001  1
  Ni  Ni26  1  0.670822  0.329169  0.999999  1
  Ni  Ni27  1  0.329178  0.670831  0.499999  1
