# generated using pymatgen
data_Tb5Lu11(ZnCo)4
_symmetry_space_group_name_H-M   'P 1'
_cell_length_a   9.24151049
_cell_length_b   9.22249572
_cell_length_c   9.22249460
_cell_angle_alpha   59.96645150
_cell_angle_beta   59.93177505
_cell_angle_gamma   59.93177961
_symmetry_Int_Tables_number   1
_chemical_formula_structural   Tb5Lu11(ZnCo)4
_chemical_formula_sum   'Tb5 Lu11 Zn4 Co4'
_cell_volume   555.09360054
_cell_formula_units_Z   1
loop_
 _symmetry_equiv_pos_site_id
 _symmetry_equiv_pos_as_xyz
  1  'x, y, z'
loop_
 _atom_site_type_symbol
 _atom_site_label
 _atom_site_symmetry_multiplicity
 _atom_site_fract_x
 _atom_site_fract_y
 _atom_site_fract_z
 _atom_site_occupancy
  Tb  Tb0  1  0.560142  0.939858  0.939858  1
  Tb  Tb1  1  0.561805  0.938044  0.560323  1
  Tb  Tb2  1  0.939829  0.560323  0.938044  1
  Tb  Tb3  1  0.561805  0.560323  0.938044  1
  Tb  Tb4  1  0.939829  0.938044  0.560323  1
  Lu  Lu5  1  0.348931  0.350363  0.350363  1
  Lu  Lu6  1  0.349506  0.350287  0.950700  1
  Lu  Lu7  1  0.349506  0.950700  0.350287  1
  Lu  Lu8  1  0.950343  0.350363  0.350363  1
  Lu  Lu9  1  0.810771  0.189229  0.189229  1
  Lu  Lu10  1  0.189228  0.810772  0.810772  1
  Lu  Lu11  1  0.188516  0.810067  0.190268  1
  Lu  Lu12  1  0.811149  0.190268  0.810067  1
  Lu  Lu13  1  0.188516  0.190268  0.810067  1
  Lu  Lu14  1  0.811149  0.810067  0.190268  1
  Lu  Lu15  1  0.940127  0.559873  0.559873  1
  Zn  Zn16  1  0.577854  0.576945  0.576945  1
  Zn  Zn17  1  0.576777  0.576825  0.269621  1
  Zn  Zn18  1  0.576777  0.269621  0.576825  1
  Zn  Zn19  1  0.268257  0.576945  0.576945  1
  Co  Co20  1  0.141965  0.141654  0.141654  1
  Co  Co21  1  0.141245  0.143128  0.574381  1
  Co  Co22  1  0.141245  0.574381  0.143128  1
  Co  Co23  1  0.574727  0.141654  0.141654  1
