# generated using pymatgen
data_YTh7Si12(RuRh)2
_symmetry_space_group_name_H-M   'P 1'
_cell_length_a   8.26371201
_cell_length_b   8.21725436
_cell_length_c   8.33658100
_cell_angle_alpha   90.00000000
_cell_angle_beta   90.00000000
_cell_angle_gamma   119.81421034
_symmetry_Int_Tables_number   1
_chemical_formula_structural   YTh7Si12(RuRh)2
_chemical_formula_sum   'Y1 Th7 Si12 Ru2 Rh2'
_cell_volume   491.16852618
_cell_formula_units_Z   1
loop_
 _symmetry_equiv_pos_site_id
 _symmetry_equiv_pos_as_xyz
  1  'x, y, z'
loop_
 _atom_site_type_symbol
 _atom_site_label
 _atom_site_symmetry_multiplicity
 _atom_site_fract_x
 _atom_site_fract_y
 _atom_site_fract_z
 _atom_site_occupancy
  Y  Y0  1  0.001753  0.500877  0.750000  1
  Th  Th1  1  0.000504  0.000251  0.250000  1
  Th  Th2  1  0.999789  0.999894  0.750000  1
  Th  Th3  1  0.005945  0.502973  0.250000  1
  Th  Th4  1  0.496854  0.503031  0.250000  1
  Th  Th5  1  0.497343  0.995405  0.750000  1
  Th  Th6  1  0.496854  0.993823  0.250000  1
  Th  Th7  1  0.497343  0.501939  0.750000  1
  Si  Si8  1  0.165220  0.334378  0.998881  1
  Si  Si9  1  0.670684  0.835342  0.002062  1
  Si  Si10  1  0.165220  0.334378  0.501119  1
  Si  Si11  1  0.329718  0.164859  0.001170  1
  Si  Si12  1  0.165220  0.830843  0.998881  1
  Si  Si13  1  0.670684  0.835342  0.497938  1
  Si  Si14  1  0.834750  0.666136  0.998774  1
  Si  Si15  1  0.329718  0.164859  0.498830  1
  Si  Si16  1  0.165220  0.830843  0.501119  1
  Si  Si17  1  0.834750  0.666136  0.501226  1
  Si  Si18  1  0.834750  0.168615  0.998774  1
  Si  Si19  1  0.834750  0.168615  0.501226  1
  Ru  Ru20  1  0.338508  0.669255  0.994745  1
  Ru  Ru21  1  0.338508  0.669255  0.505255  1
  Rh  Rh22  1  0.662955  0.331477  0.998119  1
  Rh  Rh23  1  0.662955  0.331477  0.501881  1
