# generated using pymatgen
data_BiTeO3F
_symmetry_space_group_name_H-M   'P 1'
_cell_length_a   5.62656800
_cell_length_b   8.31466836
_cell_length_c   8.79996226
_cell_angle_alpha   90.79009321
_cell_angle_beta   90.00000000
_cell_angle_gamma   90.00000000
_symmetry_Int_Tables_number   1
_chemical_formula_structural   BiTeO3F
_chemical_formula_sum   'Bi4 Te4 O12 F4'
_cell_volume   411.64990527
_cell_formula_units_Z   4
loop_
 _symmetry_equiv_pos_site_id
 _symmetry_equiv_pos_as_xyz
  1  'x, y, z'
loop_
 _atom_site_type_symbol
 _atom_site_label
 _atom_site_symmetry_multiplicity
 _atom_site_fract_x
 _atom_site_fract_y
 _atom_site_fract_z
 _atom_site_occupancy
  Bi  Bi0  1  0.722844  0.362119  0.855284  1
  Bi  Bi1  1  0.222844  0.137881  0.144716  1
  Bi  Bi2  1  0.277156  0.637881  0.144716  1
  Bi  Bi3  1  0.777156  0.862119  0.855284  1
  Te  Te4  1  0.247256  0.163370  0.707218  1
  Te  Te5  1  0.747256  0.336630  0.292782  1
  Te  Te6  1  0.752744  0.836630  0.292782  1
  Te  Te7  1  0.252744  0.663370  0.707218  1
  O  O8  1  0.038332  0.170509  0.883153  1
  O  O9  1  0.538332  0.329491  0.116847  1
  O  O10  1  0.961668  0.829491  0.116847  1
  O  O11  1  0.461668  0.670509  0.883153  1
  O  O12  1  0.358400  0.387278  0.735359  1
  O  O13  1  0.858400  0.112722  0.264641  1
  O  O14  1  0.641600  0.612722  0.264641  1
  O  O15  1  0.141600  0.887278  0.735359  1
  O  O16  1  0.528277  0.113527  0.826177  1
  O  O17  1  0.028277  0.386473  0.173823  1
  O  O18  1  0.471723  0.886473  0.173823  1
  O  O19  1  0.971723  0.613527  0.826177  1
  F  F20  1  0.874593  0.311741  0.624712  1
  F  F21  1  0.374593  0.188259  0.375288  1
  F  F22  1  0.125407  0.688259  0.375288  1
  F  F23  1  0.625407  0.811741  0.624712  1
