# generated using pymatgen
data_Dy2Ho5CoBr12
_symmetry_space_group_name_H-M   'P 1'
_cell_length_a   9.19441054
_cell_length_b   9.19052663
_cell_length_c   9.19339231
_cell_angle_alpha   106.70412348
_cell_angle_beta   106.72241941
_cell_angle_gamma   106.70079480
_symmetry_Int_Tables_number   1
_chemical_formula_structural   Dy2Ho5CoBr12
_chemical_formula_sum   'Dy2 Ho5 Co1 Br12'
_cell_volume   652.03809881
_cell_formula_units_Z   1
loop_
 _symmetry_equiv_pos_site_id
 _symmetry_equiv_pos_as_xyz
  1  'x, y, z'
loop_
 _atom_site_type_symbol
 _atom_site_label
 _atom_site_symmetry_multiplicity
 _atom_site_fract_x
 _atom_site_fract_y
 _atom_site_fract_z
 _atom_site_occupancy
  Dy  Dy0  1  0.300120  0.096125  0.020572  1
  Dy  Dy1  1  0.095922  0.020721  0.300189  1
  Ho  Ho2  1  0.020356  0.298979  0.095387  1
  Ho  Ho3  1  0.700976  0.904426  0.979165  1
  Ho  Ho4  1  0.904164  0.979296  0.700979  1
  Ho  Ho5  1  0.979075  0.700793  0.904124  1
  Ho  Ho6  1  0.499980  0.500055  0.499994  1
  Co  Co7  1  0.999781  0.999938  0.999818  1
  Br  Br8  1  0.220490  0.069754  0.677108  1
  Br  Br9  1  0.069654  0.676708  0.220359  1
  Br  Br10  1  0.677495  0.220732  0.069814  1
  Br  Br11  1  0.778845  0.930125  0.322815  1
  Br  Br12  1  0.930251  0.322955  0.779395  1
  Br  Br13  1  0.322769  0.778856  0.930099  1
  Br  Br14  1  0.386016  0.460557  0.167663  1
  Br  Br15  1  0.460547  0.167666  0.386275  1
  Br  Br16  1  0.167526  0.386303  0.460195  1
  Br  Br17  1  0.613917  0.539747  0.832384  1
  Br  Br18  1  0.539735  0.832388  0.613902  1
  Br  Br19  1  0.832381  0.613876  0.539762  1
