# generated using pymatgen
data_La5Pr3(CdOs)2
_symmetry_space_group_name_H-M   'P 1'
_cell_length_a   10.08880352
_cell_length_b   10.08880296
_cell_length_c   10.08880300
_cell_angle_alpha   59.99999659
_cell_angle_beta   59.99999842
_cell_angle_gamma   60.00000091
_symmetry_Int_Tables_number   1
_chemical_formula_structural   La5Pr3(CdOs)2
_chemical_formula_sum   'La10 Pr6 Cd4 Os4'
_cell_volume   726.11253610
_cell_formula_units_Z   2
loop_
 _symmetry_equiv_pos_site_id
 _symmetry_equiv_pos_as_xyz
  1  'x, y, z'
loop_
 _atom_site_type_symbol
 _atom_site_label
 _atom_site_symmetry_multiplicity
 _atom_site_fract_x
 _atom_site_fract_y
 _atom_site_fract_z
 _atom_site_occupancy
  La  La0  1  0.345429  0.345429  0.345429  1
  La  La1  1  0.345429  0.345429  0.963712  1
  La  La2  1  0.345429  0.963712  0.345429  1
  La  La3  1  0.963712  0.345429  0.345429  1
  La  La4  1  0.810277  0.189723  0.189723  1
  La  La5  1  0.189723  0.810277  0.810277  1
  La  La6  1  0.189723  0.810277  0.189723  1
  La  La7  1  0.810277  0.189723  0.810277  1
  La  La8  1  0.189723  0.189723  0.810277  1
  La  La9  1  0.810277  0.810277  0.189723  1
  Pr  Pr10  1  0.938962  0.561038  0.561038  1
  Pr  Pr11  1  0.561038  0.938962  0.938962  1
  Pr  Pr12  1  0.561038  0.938962  0.561038  1
  Pr  Pr13  1  0.938962  0.561038  0.938962  1
  Pr  Pr14  1  0.561038  0.561038  0.938962  1
  Pr  Pr15  1  0.938962  0.938962  0.561038  1
  Cd  Cd16  1  0.579550  0.579550  0.579550  1
  Cd  Cd17  1  0.579550  0.579550  0.261351  1
  Cd  Cd18  1  0.579550  0.261351  0.579550  1
  Cd  Cd19  1  0.261351  0.579550  0.579550  1
  Os  Os20  1  0.137420  0.137420  0.137420  1
  Os  Os21  1  0.137420  0.137420  0.587740  1
  Os  Os22  1  0.137420  0.587740  0.137420  1
  Os  Os23  1  0.587740  0.137420  0.137420  1
