# generated using pymatgen
data_ErGaSiRh3
_symmetry_space_group_name_H-M   'P 1'
_cell_length_a   6.67200897
_cell_length_b   6.67200881
_cell_length_c   6.67201013
_cell_angle_alpha   130.25148408
_cell_angle_beta   113.50395077
_cell_angle_gamma   87.42333527
_symmetry_Int_Tables_number   1
_chemical_formula_structural   ErGaSiRh3
_chemical_formula_sum   'Er2 Ga2 Si2 Rh6'
_cell_volume   198.03977980
_cell_formula_units_Z   2
loop_
 _symmetry_equiv_pos_site_id
 _symmetry_equiv_pos_as_xyz
  1  'x, y, z'
loop_
 _atom_site_type_symbol
 _atom_site_label
 _atom_site_symmetry_multiplicity
 _atom_site_fract_x
 _atom_site_fract_y
 _atom_site_fract_z
 _atom_site_occupancy
  Er  Er0  1  0.750000  0.065636  0.315636  1
  Er  Er1  1  0.250000  0.958986  0.708986  1
  Ga  Ga2  1  0.598346  0.401592  0.803246  1
  Ga  Ga3  1  0.901654  0.704899  0.803246  1
  Si  Si4  1  0.436935  0.632847  0.195913  1
  Si  Si5  1  0.063065  0.258978  0.195913  1
  Rh  Rh6  1  0.218609  0.500064  0.717558  1
  Rh  Rh7  1  0.782506  0.500064  0.281455  1
  Rh  Rh8  1  0.462398  0.489517  0.451915  1
  Rh  Rh9  1  0.037602  0.489517  0.027120  1
  Rh  Rh10  1  0.717494  0.998949  0.717558  1
  Rh  Rh11  1  0.281391  0.998949  0.281455  1
