# generated using pymatgen
data_Tm3Al9Fe(SiRu)3
_symmetry_space_group_name_H-M   'P 1'
_cell_length_a   8.60903705
_cell_length_b   8.60903639
_cell_length_c   9.42824100
_cell_angle_alpha   90.00000000
_cell_angle_beta   90.00000000
_cell_angle_gamma   119.84881596
_symmetry_Int_Tables_number   1
_chemical_formula_structural   Tm3Al9Fe(SiRu)3
_chemical_formula_sum   'Tm6 Al18 Fe2 Si6 Ru6'
_cell_volume   606.08010874
_cell_formula_units_Z   2
loop_
 _symmetry_equiv_pos_site_id
 _symmetry_equiv_pos_as_xyz
  1  'x, y, z'
loop_
 _atom_site_type_symbol
 _atom_site_label
 _atom_site_symmetry_multiplicity
 _atom_site_fract_x
 _atom_site_fract_y
 _atom_site_fract_z
 _atom_site_occupancy
  Tm  Tm0  1  0.805636  0.194364  0.750000  1
  Tm  Tm1  1  0.194364  0.805636  0.250000  1
  Tm  Tm2  1  0.391955  0.198824  0.750000  1
  Tm  Tm3  1  0.608045  0.801176  0.250000  1
  Tm  Tm4  1  0.801176  0.608045  0.750000  1
  Tm  Tm5  1  0.198824  0.391955  0.250000  1
  Al  Al6  1  0.838575  0.161425  0.420762  1
  Al  Al7  1  0.161425  0.838575  0.579238  1
  Al  Al8  1  0.322704  0.160671  0.422674  1
  Al  Al9  1  0.161425  0.838575  0.920762  1
  Al  Al10  1  0.677296  0.839329  0.577326  1
  Al  Al11  1  0.838575  0.161425  0.079238  1
  Al  Al12  1  0.839329  0.677296  0.422674  1
  Al  Al13  1  0.677296  0.839329  0.922674  1
  Al  Al14  1  0.160671  0.322704  0.577326  1
  Al  Al15  1  0.322704  0.160671  0.077326  1
  Al  Al16  1  0.160671  0.322704  0.922674  1
  Al  Al17  1  0.839329  0.677296  0.077326  1
  Al  Al18  1  0.127029  0.560156  0.750000  1
  Al  Al19  1  0.872971  0.439844  0.250000  1
  Al  Al20  1  0.439844  0.872971  0.750000  1
  Al  Al21  1  0.560156  0.127029  0.250000  1
  Al  Al22  1  0.000582  0.999418  0.750000  1
  Al  Al23  1  0.999418  0.000582  0.250000  1
  Fe  Fe24  1  0.000000  0.000000  0.000000  1
  Fe  Fe25  1  0.000000  0.000000  0.500000  1
  Si  Si26  1  0.668136  0.331864  0.961465  1
  Si  Si27  1  0.331864  0.668136  0.038535  1
  Si  Si28  1  0.331864  0.668136  0.461465  1
  Si  Si29  1  0.668136  0.331864  0.538535  1
  Si  Si30  1  0.437095  0.562905  0.750000  1
  Si  Si31  1  0.562905  0.437095  0.250000  1
  Ru  Ru32  1  0.500000  0.500000  0.000000  1
  Ru  Ru33  1  0.000000  0.500000  0.000000  1
  Ru  Ru34  1  0.500000  0.500000  0.500000  1
  Ru  Ru35  1  0.500000  0.000000  0.000000  1
  Ru  Ru36  1  0.000000  0.500000  0.500000  1
  Ru  Ru37  1  0.500000  0.000000  0.500000  1
