# generated using pymatgen
data_Tm6Al12ZnSi11Ru8
_symmetry_space_group_name_H-M   'P 1'
_cell_length_a   8.63978531
_cell_length_b   8.63978518
_cell_length_c   9.29288800
_cell_angle_alpha   90.00000000
_cell_angle_beta   90.00000000
_cell_angle_gamma   120.34567255
_symmetry_Int_Tables_number   1
_chemical_formula_structural   Tm6Al12ZnSi11Ru8
_chemical_formula_sum   'Tm6 Al12 Zn1 Si11 Ru8'
_cell_volume   598.63750351
_cell_formula_units_Z   1
loop_
 _symmetry_equiv_pos_site_id
 _symmetry_equiv_pos_as_xyz
  1  'x, y, z'
loop_
 _atom_site_type_symbol
 _atom_site_label
 _atom_site_symmetry_multiplicity
 _atom_site_fract_x
 _atom_site_fract_y
 _atom_site_fract_z
 _atom_site_occupancy
  Tm  Tm0  1  0.808638  0.191362  0.750000  1
  Tm  Tm1  1  0.195149  0.804851  0.250000  1
  Tm  Tm2  1  0.385317  0.191964  0.750000  1
  Tm  Tm3  1  0.617125  0.809774  0.250000  1
  Tm  Tm4  1  0.808036  0.614683  0.750000  1
  Tm  Tm5  1  0.190226  0.382875  0.250000  1
  Al  Al6  1  0.832506  0.167494  0.421486  1
  Al  Al7  1  0.163858  0.836142  0.581003  1
  Al  Al8  1  0.329102  0.163344  0.418121  1
  Al  Al9  1  0.163858  0.836142  0.918997  1
  Al  Al10  1  0.664477  0.830031  0.581468  1
  Al  Al11  1  0.832506  0.167494  0.078514  1
  Al  Al12  1  0.836656  0.670898  0.418121  1
  Al  Al13  1  0.664477  0.830031  0.918532  1
  Al  Al14  1  0.169969  0.335523  0.581468  1
  Al  Al15  1  0.329102  0.163344  0.081879  1
  Al  Al16  1  0.169969  0.335523  0.918532  1
  Al  Al17  1  0.836656  0.670898  0.081879  1
  Zn  Zn18  1  0.438609  0.561391  0.750000  1
  Si  Si19  1  0.665895  0.334105  0.955417  1
  Si  Si20  1  0.335337  0.664663  0.044126  1
  Si  Si21  1  0.335337  0.664663  0.455874  1
  Si  Si22  1  0.665895  0.334105  0.544583  1
  Si  Si23  1  0.565234  0.434766  0.250000  1
  Si  Si24  1  0.127492  0.566191  0.750000  1
  Si  Si25  1  0.876283  0.439287  0.250000  1
  Si  Si26  1  0.433809  0.872508  0.750000  1
  Si  Si27  1  0.560713  0.123717  0.250000  1
  Si  Si28  1  0.002736  0.997264  0.750000  1
  Si  Si29  1  0.005124  0.994876  0.250000  1
  Ru  Ru30  1  0.502360  0.497640  0.012559  1
  Ru  Ru31  1  0.000141  0.502478  0.000456  1
  Ru  Ru32  1  0.502360  0.497640  0.487441  1
  Ru  Ru33  1  0.497522  0.999859  0.000456  1
  Ru  Ru34  1  0.000141  0.502478  0.499544  1
  Ru  Ru35  1  0.497522  0.999859  0.499544  1
  Ru  Ru36  1  0.994931  0.005069  0.999209  1
  Ru  Ru37  1  0.994931  0.005069  0.500791  1
