# generated using pymatgen
data_Ce2SmY3(BO3)6
_symmetry_space_group_name_H-M   'P 1'
_cell_length_a   6.70117360
_cell_length_b   6.70117288
_cell_length_c   9.02162513
_cell_angle_alpha   89.98021513
_cell_angle_beta   89.98020699
_cell_angle_gamma   119.89338128
_symmetry_Int_Tables_number   1
_chemical_formula_structural   Ce2SmY3(BO3)6
_chemical_formula_sum   'Ce2 Sm1 Y3 B6 O18'
_cell_volume   351.22270515
_cell_formula_units_Z   1
loop_
 _symmetry_equiv_pos_site_id
 _symmetry_equiv_pos_as_xyz
  1  'x, y, z'
loop_
 _atom_site_type_symbol
 _atom_site_label
 _atom_site_symmetry_multiplicity
 _atom_site_fract_x
 _atom_site_fract_y
 _atom_site_fract_z
 _atom_site_occupancy
  Ce  Ce0  1  0.328133  0.671867  0.500000  1
  Ce  Ce1  1  0.998620  0.001380  0.500000  1
  Sm  Sm2  1  0.328448  0.671552  0.000000  1
  Y  Y3  1  0.000224  0.999776  0.000000  1
  Y  Y4  1  0.669398  0.330602  0.500000  1
  Y  Y5  1  0.672024  0.327976  0.000000  1
  B  B6  1  0.338130  0.102216  0.753924  1
  B  B7  1  0.093909  0.333412  0.754551  1
  B  B8  1  0.574848  0.570988  0.754141  1
  B  B9  1  0.429012  0.425152  0.245859  1
  B  B10  1  0.666588  0.906091  0.245449  1
  B  B11  1  0.897784  0.661870  0.246076  1
  O  O12  1  0.454910  0.666260  0.244873  1
  O  O13  1  0.664547  0.447284  0.245325  1
  O  O14  1  0.876318  0.876937  0.244048  1
  O  O15  1  0.123063  0.123682  0.755952  1
  O  O16  1  0.552716  0.335453  0.754675  1
  O  O17  1  0.333740  0.545090  0.755127  1
  O  O18  1  0.010223  0.665122  0.107589  1
  O  O19  1  0.002600  0.658109  0.387659  1
  O  O20  1  0.669226  0.017075  0.106424  1
  O  O21  1  0.666544  0.019742  0.384281  1
  O  O22  1  0.316541  0.313450  0.107406  1
  O  O23  1  0.326339  0.320388  0.388873  1
  O  O24  1  0.679612  0.673661  0.611127  1
  O  O25  1  0.686550  0.683459  0.892594  1
  O  O26  1  0.980258  0.333456  0.615719  1
  O  O27  1  0.982925  0.330774  0.893576  1
  O  O28  1  0.341891  0.997400  0.612341  1
  O  O29  1  0.334878  0.989777  0.892411  1
