# generated using pymatgen
data_TbDy3(Sc4Bi3)4
_symmetry_space_group_name_H-M   'P 1'
_cell_length_a   7.89666600
_cell_length_b   9.06710100
_cell_length_c   11.56821400
_cell_angle_alpha   90.00000000
_cell_angle_beta   89.99997558
_cell_angle_gamma   90.00000000
_symmetry_Int_Tables_number   1
_chemical_formula_structural   TbDy3(Sc4Bi3)4
_chemical_formula_sum   'Tb1 Dy3 Sc16 Bi12'
_cell_volume   828.28259754
_cell_formula_units_Z   1
loop_
 _symmetry_equiv_pos_site_id
 _symmetry_equiv_pos_as_xyz
  1  'x, y, z'
loop_
 _atom_site_type_symbol
 _atom_site_label
 _atom_site_symmetry_multiplicity
 _atom_site_fract_x
 _atom_site_fract_y
 _atom_site_fract_z
 _atom_site_occupancy
  Tb  Tb0  1  0.315548  0.250000  0.218994  1
  Dy  Dy1  1  0.815465  0.250000  0.281149  1
  Dy  Dy2  1  0.684575  0.750000  0.781155  1
  Dy  Dy3  1  0.184581  0.750000  0.718853  1
  Sc  Sc4  1  0.348565  0.750000  0.220553  1
  Sc  Sc5  1  0.848529  0.750000  0.279458  1
  Sc  Sc6  1  0.651481  0.250000  0.779410  1
  Sc  Sc7  1  0.151464  0.250000  0.720605  1
  Sc  Sc8  1  0.693087  0.567152  0.061969  1
  Sc  Sc9  1  0.193114  0.932847  0.438052  1
  Sc  Sc10  1  0.306835  0.067260  0.937966  1
  Sc  Sc11  1  0.806796  0.432731  0.562001  1
  Sc  Sc12  1  0.306835  0.432740  0.937966  1
  Sc  Sc13  1  0.806796  0.067269  0.562001  1
  Sc  Sc14  1  0.693087  0.932848  0.061969  1
  Sc  Sc15  1  0.193114  0.567153  0.438052  1
  Sc  Sc16  1  0.481770  0.250000  0.488907  1
  Sc  Sc17  1  0.981679  0.250000  0.011033  1
  Sc  Sc18  1  0.518360  0.750000  0.511152  1
  Sc  Sc19  1  0.018233  0.750000  0.988868  1
  Bi  Bi20  1  0.402382  0.750000  0.966865  1
  Bi  Bi21  1  0.902422  0.750000  0.533138  1
  Bi  Bi22  1  0.597925  0.250000  0.032891  1
  Bi  Bi23  1  0.097475  0.250000  0.467004  1
  Bi  Bi24  1  0.564007  0.989631  0.328459  1
  Bi  Bi25  1  0.063527  0.510429  0.171553  1
  Bi  Bi26  1  0.436192  0.489816  0.671607  1
  Bi  Bi27  1  0.936216  0.010168  0.828376  1
  Bi  Bi28  1  0.436192  0.010184  0.671607  1
  Bi  Bi29  1  0.936216  0.489832  0.828376  1
  Bi  Bi30  1  0.564007  0.510369  0.328459  1
  Bi  Bi31  1  0.063527  0.989571  0.171553  1
