# generated using pymatgen
data_Hf6Al6Mo3WN2
_symmetry_space_group_name_H-M   'P 1'
_cell_length_a   7.89104600
_cell_length_b   7.89104574
_cell_length_c   5.35291700
_cell_angle_alpha   90.00000000
_cell_angle_beta   90.00000000
_cell_angle_gamma   120.00000108
_symmetry_Int_Tables_number   1
_chemical_formula_structural   Hf6Al6Mo3WN2
_chemical_formula_sum   'Hf6 Al6 Mo3 W1 N2'
_cell_volume   288.66243602
_cell_formula_units_Z   1
loop_
 _symmetry_equiv_pos_site_id
 _symmetry_equiv_pos_as_xyz
  1  'x, y, z'
loop_
 _atom_site_type_symbol
 _atom_site_label
 _atom_site_symmetry_multiplicity
 _atom_site_fract_x
 _atom_site_fract_y
 _atom_site_fract_z
 _atom_site_occupancy
  Hf  Hf0  1  0.230768  0.999429  0.250249  1
  Hf  Hf1  1  0.000571  0.231339  0.250249  1
  Hf  Hf2  1  0.768661  0.769232  0.250249  1
  Hf  Hf3  1  0.768661  0.999429  0.749751  1
  Hf  Hf4  1  0.000571  0.769232  0.749751  1
  Hf  Hf5  1  0.230768  0.231339  0.749751  1
  Al  Al6  1  0.586181  0.000692  0.249908  1
  Al  Al7  1  0.999308  0.585489  0.249908  1
  Al  Al8  1  0.414511  0.413819  0.249908  1
  Al  Al9  1  0.414511  0.000692  0.750092  1
  Al  Al10  1  0.999308  0.413819  0.750092  1
  Al  Al11  1  0.586181  0.585489  0.750092  1
  Mo  Mo12  1  0.666667  0.333333  0.000000  1
  Mo  Mo13  1  0.333333  0.666667  0.000000  1
  Mo  Mo14  1  0.666667  0.333333  0.500000  1
  W  W15  1  0.333333  0.666667  0.500000  1
  N  N16  1  0.000000  0.000000  0.000000  1
  N  N17  1  0.000000  0.000000  0.500000  1
