# generated using pymatgen
data_Yb3Hf5Si16Mo11W
_symmetry_space_group_name_H-M   'P 1'
_cell_length_a   6.63164978
_cell_length_b   6.80571884
_cell_length_c   12.77473656
_cell_angle_alpha   90.19748012
_cell_angle_beta   89.91277238
_cell_angle_gamma   90.17279820
_symmetry_Int_Tables_number   1
_chemical_formula_structural   Yb3Hf5Si16Mo11W
_chemical_formula_sum   'Yb3 Hf5 Si16 Mo11 W1'
_cell_volume   576.55731736
_cell_formula_units_Z   1
loop_
 _symmetry_equiv_pos_site_id
 _symmetry_equiv_pos_as_xyz
  1  'x, y, z'
loop_
 _atom_site_type_symbol
 _atom_site_label
 _atom_site_symmetry_multiplicity
 _atom_site_fract_x
 _atom_site_fract_y
 _atom_site_fract_z
 _atom_site_occupancy
  Yb  Yb0  1  0.994704  0.162805  0.089217  1
  Yb  Yb1  1  0.003241  0.835367  0.911052  1
  Yb  Yb2  1  0.503530  0.666299  0.908891  1
  Hf  Hf3  1  0.003467  0.830887  0.593034  1
  Hf  Hf4  1  0.493972  0.329223  0.098172  1
  Hf  Hf5  1  0.995003  0.169210  0.407177  1
  Hf  Hf6  1  0.494650  0.331005  0.407571  1
  Hf  Hf7  1  0.502945  0.669492  0.593123  1
  Si  Si8  1  0.034926  0.126831  0.748054  1
  Si  Si9  1  0.967520  0.871632  0.251008  1
  Si  Si10  1  0.465968  0.627086  0.251232  1
  Si  Si11  1  0.535494  0.375352  0.746297  1
  Si  Si12  1  0.301451  0.863468  0.749502  1
  Si  Si13  1  0.698634  0.137667  0.251023  1
  Si  Si14  1  0.197524  0.360934  0.251509  1
  Si  Si15  1  0.801849  0.639267  0.749367  1
  Si  Si16  1  0.168956  0.458591  0.541438  1
  Si  Si17  1  0.831788  0.542190  0.457167  1
  Si  Si18  1  0.332551  0.957806  0.457210  1
  Si  Si19  1  0.834853  0.536635  0.048569  1
  Si  Si20  1  0.667222  0.041647  0.540908  1
  Si  Si21  1  0.161817  0.459411  0.954161  1
  Si  Si22  1  0.656103  0.044686  0.954732  1
  Si  Si23  1  0.344044  0.961821  0.048452  1
  Mo  Mo24  1  0.830963  0.492117  0.254670  1
  Mo  Mo25  1  0.334611  0.010585  0.253771  1
  Mo  Mo26  1  0.666606  0.996772  0.742757  1
  Mo  Mo27  1  0.331686  0.162046  0.621161  1
  Mo  Mo28  1  0.669210  0.839369  0.377333  1
  Mo  Mo29  1  0.169322  0.660224  0.378433  1
  Mo  Mo30  1  0.668102  0.834330  0.127905  1
  Mo  Mo31  1  0.833606  0.337294  0.620024  1
  Mo  Mo32  1  0.334606  0.171685  0.872539  1
  Mo  Mo33  1  0.831822  0.332904  0.870642  1
  Mo  Mo34  1  0.170536  0.658840  0.128208  1
  W  W35  1  0.166723  0.504517  0.743695  1
