# generated using pymatgen
data_Sc2Cr(ReB2)2
_symmetry_space_group_name_H-M   'P 1'
_cell_length_a   6.02380800
_cell_length_b   6.02380800
_cell_length_c   11.12337400
_cell_angle_alpha   90.00000000
_cell_angle_beta   90.00000000
_cell_angle_gamma   90.00000000
_symmetry_Int_Tables_number   1
_chemical_formula_structural   Sc2Cr(ReB2)2
_chemical_formula_sum   'Sc8 Cr4 Re8 B16'
_cell_volume   403.62567242
_cell_formula_units_Z   4
loop_
 _symmetry_equiv_pos_site_id
 _symmetry_equiv_pos_as_xyz
  1  'x, y, z'
loop_
 _atom_site_type_symbol
 _atom_site_label
 _atom_site_symmetry_multiplicity
 _atom_site_fract_x
 _atom_site_fract_y
 _atom_site_fract_z
 _atom_site_occupancy
  Sc  Sc0  1  0.995101  0.651060  0.040054  1
  Sc  Sc1  1  0.004899  0.348940  0.540054  1
  Sc  Sc2  1  0.348940  0.004899  0.459946  1
  Sc  Sc3  1  0.151060  0.504899  0.790054  1
  Sc  Sc4  1  0.848940  0.495101  0.290054  1
  Sc  Sc5  1  0.504899  0.151060  0.209946  1
  Sc  Sc6  1  0.495101  0.848940  0.709946  1
  Sc  Sc7  1  0.651060  0.995101  0.959946  1
  Cr  Cr8  1  0.675081  0.675081  0.500000  1
  Cr  Cr9  1  0.175081  0.824919  0.250000  1
  Cr  Cr10  1  0.324919  0.324919  0.000000  1
  Cr  Cr11  1  0.824919  0.175081  0.750000  1
  Re  Re12  1  0.995486  0.856102  0.625222  1
  Re  Re13  1  0.004514  0.143898  0.125222  1
  Re  Re14  1  0.856102  0.995486  0.374778  1
  Re  Re15  1  0.356102  0.504514  0.375222  1
  Re  Re16  1  0.643898  0.495486  0.875222  1
  Re  Re17  1  0.504514  0.356102  0.624778  1
  Re  Re18  1  0.495486  0.643898  0.124778  1
  Re  Re19  1  0.143898  0.004514  0.874778  1
  B  B20  1  0.063840  0.708634  0.441817  1
  B  B21  1  0.644620  0.290927  0.440340  1
  B  B22  1  0.355380  0.709073  0.940340  1
  B  B23  1  0.209073  0.144620  0.690340  1
  B  B24  1  0.290927  0.644620  0.559660  1
  B  B25  1  0.709073  0.355380  0.059660  1
  B  B26  1  0.790927  0.855380  0.190340  1
  B  B27  1  0.144620  0.209073  0.309660  1
  B  B28  1  0.936160  0.291366  0.941817  1
  B  B29  1  0.708634  0.063840  0.558183  1
  B  B30  1  0.208634  0.436160  0.191817  1
  B  B31  1  0.791366  0.563840  0.691817  1
  B  B32  1  0.436160  0.208634  0.808183  1
  B  B33  1  0.563840  0.791366  0.308183  1
  B  B34  1  0.291366  0.936160  0.058183  1
  B  B35  1  0.855380  0.790927  0.809660  1
