# generated using pymatgen
data_Ta16Cu7PdN4
_symmetry_space_group_name_H-M   'P 1'
_cell_length_a   8.27002689
_cell_length_b   8.27002776
_cell_length_c   8.27002708
_cell_angle_alpha   60.42187715
_cell_angle_beta   60.42187576
_cell_angle_gamma   60.42187321
_symmetry_Int_Tables_number   1
_chemical_formula_structural   Ta16Cu7PdN4
_chemical_formula_sum   'Ta16 Cu7 Pd1 N4'
_cell_volume   403.76531216
_cell_formula_units_Z   1
loop_
 _symmetry_equiv_pos_site_id
 _symmetry_equiv_pos_as_xyz
  1  'x, y, z'
loop_
 _atom_site_type_symbol
 _atom_site_label
 _atom_site_symmetry_multiplicity
 _atom_site_fract_x
 _atom_site_fract_y
 _atom_site_fract_z
 _atom_site_occupancy
  Ta  Ta0  1  0.130061  0.621594  0.621594  1
  Ta  Ta1  1  0.621594  0.130061  0.621594  1
  Ta  Ta2  1  0.621594  0.621594  0.130061  1
  Ta  Ta3  1  0.626628  0.626628  0.626628  1
  Ta  Ta4  1  0.814220  0.814220  0.186142  1
  Ta  Ta5  1  0.186917  0.186917  0.813441  1
  Ta  Ta6  1  0.814220  0.186142  0.814220  1
  Ta  Ta7  1  0.186917  0.813441  0.186917  1
  Ta  Ta8  1  0.186142  0.814220  0.814220  1
  Ta  Ta9  1  0.813441  0.186917  0.186917  1
  Ta  Ta10  1  0.437697  0.437697  0.062503  1
  Ta  Ta11  1  0.067036  0.067036  0.431160  1
  Ta  Ta12  1  0.437697  0.062503  0.437697  1
  Ta  Ta13  1  0.067036  0.431160  0.067036  1
  Ta  Ta14  1  0.062503  0.437697  0.437697  1
  Ta  Ta15  1  0.431160  0.067036  0.067036  1
  Cu  Cu16  1  0.754915  0.416364  0.416364  1
  Cu  Cu17  1  0.416364  0.754915  0.416364  1
  Cu  Cu18  1  0.416364  0.416364  0.754915  1
  Cu  Cu19  1  0.414027  0.414027  0.414027  1
  Cu  Cu20  1  0.492440  0.836867  0.836867  1
  Cu  Cu21  1  0.836867  0.492440  0.836867  1
  Cu  Cu22  1  0.836867  0.836867  0.492440  1
  Pd  Pd23  1  0.828665  0.828665  0.828665  1
  N  N24  1  0.624178  0.125254  0.125254  1
  N  N25  1  0.125254  0.624178  0.125254  1
  N  N26  1  0.125254  0.125254  0.624178  1
  N  N27  1  0.123936  0.123936  0.123936  1
