# generated using pymatgen
data_PrSm3ReTc5B12
_symmetry_space_group_name_H-M   'P 1'
_cell_length_a   6.26069868
_cell_length_b   6.28433966
_cell_length_c   7.59535358
_cell_angle_alpha   89.65850007
_cell_angle_beta   89.09132172
_cell_angle_gamma   114.32654340
_symmetry_Int_Tables_number   1
_chemical_formula_structural   PrSm3ReTc5B12
_chemical_formula_sum   'Pr1 Sm3 Re1 Tc5 B12'
_cell_volume   272.24172162
_cell_formula_units_Z   1
loop_
 _symmetry_equiv_pos_site_id
 _symmetry_equiv_pos_as_xyz
  1  'x, y, z'
loop_
 _atom_site_type_symbol
 _atom_site_label
 _atom_site_symmetry_multiplicity
 _atom_site_fract_x
 _atom_site_fract_y
 _atom_site_fract_z
 _atom_site_occupancy
  Pr  Pr0  1  0.565054  0.909551  0.826575  1
  Sm  Sm1  1  0.902687  0.557419  0.324847  1
  Sm  Sm2  1  0.437942  0.095689  0.175694  1
  Sm  Sm3  1  0.098385  0.445847  0.675273  1
  Re  Re4  1  0.193770  0.011352  0.589389  1
  Tc  Tc5  1  0.414289  0.584913  0.249567  1
  Tc  Tc6  1  0.585740  0.416795  0.748355  1
  Tc  Tc7  1  0.010493  0.196473  0.088738  1
  Tc  Tc8  1  0.804399  0.989373  0.410614  1
  Tc  Tc9  1  0.990025  0.800527  0.913595  1
  B  B10  1  0.760230  0.846128  0.133373  1
  B  B11  1  0.152643  0.243417  0.371045  1
  B  B12  1  0.237645  0.152075  0.867015  1
  B  B13  1  0.848602  0.752194  0.628946  1
  B  B14  1  0.415621  0.843333  0.480745  1
  B  B15  1  0.157229  0.581794  0.020100  1
  B  B16  1  0.582625  0.159145  0.515329  1
  B  B17  1  0.842145  0.415066  0.982386  1
  B  B18  1  0.559261  0.650951  0.531711  1
  B  B19  1  0.349787  0.440037  0.967131  1
  B  B20  1  0.441465  0.351022  0.465978  1
  B  B21  1  0.649963  0.556901  0.033594  1
