# generated using pymatgen
data_Tb5Zn7Ni12
_symmetry_space_group_name_H-M   'P 1'
_cell_length_a   5.14531782
_cell_length_b   5.14531884
_cell_length_c   16.16411135
_cell_angle_alpha   80.84192609
_cell_angle_beta   80.84192494
_cell_angle_gamma   59.99999205
_symmetry_Int_Tables_number   1
_chemical_formula_structural   Tb5Zn7Ni12
_chemical_formula_sum   'Tb5 Zn7 Ni12'
_cell_volume   364.28893447
_cell_formula_units_Z   1
loop_
 _symmetry_equiv_pos_site_id
 _symmetry_equiv_pos_as_xyz
  1  'x, y, z'
loop_
 _atom_site_type_symbol
 _atom_site_label
 _atom_site_symmetry_multiplicity
 _atom_site_fract_x
 _atom_site_fract_y
 _atom_site_fract_z
 _atom_site_occupancy
  Tb  Tb0  1  0.000000  0.000000  0.000000  1
  Tb  Tb1  1  0.926138  0.926138  0.221588  1
  Tb  Tb2  1  0.073862  0.073862  0.778412  1
  Tb  Tb3  1  0.850719  0.850719  0.447843  1
  Tb  Tb4  1  0.149281  0.149281  0.552157  1
  Zn  Zn5  1  0.500000  0.500000  0.500000  1
  Zn  Zn6  1  0.750029  0.750030  0.749911  1
  Zn  Zn7  1  0.249970  0.249970  0.250090  1
  Zn  Zn8  1  0.666633  0.666633  0.000102  1
  Zn  Zn9  1  0.333367  0.333367  0.999898  1
  Zn  Zn10  1  0.583120  0.583120  0.250641  1
  Zn  Zn11  1  0.416880  0.416880  0.749359  1
  Ni  Ni12  1  0.372863  0.372863  0.374336  1
  Ni  Ni13  1  0.879937  0.372863  0.374336  1
  Ni  Ni14  1  0.372863  0.879937  0.374336  1
  Ni  Ni15  1  0.627137  0.627137  0.625664  1
  Ni  Ni16  1  0.120063  0.627137  0.625664  1
  Ni  Ni17  1  0.627137  0.120063  0.625664  1
  Ni  Ni18  1  0.458710  0.458710  0.123958  1
  Ni  Ni19  1  0.958623  0.458710  0.123958  1
  Ni  Ni20  1  0.458710  0.958623  0.123958  1
  Ni  Ni21  1  0.541290  0.541290  0.876042  1
  Ni  Ni22  1  0.041377  0.541290  0.876042  1
  Ni  Ni23  1  0.541290  0.041377  0.876042  1
