# generated using pymatgen
data_Tm5LuReBi2
_symmetry_space_group_name_H-M   'P 1'
_cell_length_a   8.15303100
_cell_length_b   8.15480373
_cell_length_c   4.30101200
_cell_angle_alpha   90.00000000
_cell_angle_beta   90.00000000
_cell_angle_gamma   119.99282139
_symmetry_Int_Tables_number   1
_chemical_formula_structural   Tm5LuReBi2
_chemical_formula_sum   'Tm5 Lu1 Re1 Bi2'
_cell_volume   247.66538036
_cell_formula_units_Z   1
loop_
 _symmetry_equiv_pos_site_id
 _symmetry_equiv_pos_as_xyz
  1  'x, y, z'
loop_
 _atom_site_type_symbol
 _atom_site_label
 _atom_site_symmetry_multiplicity
 _atom_site_fract_x
 _atom_site_fract_y
 _atom_site_fract_z
 _atom_site_occupancy
  Tm  Tm0  1  0.999984  0.231887  0.500000  1
  Tm  Tm1  1  0.768097  0.768113  0.500000  1
  Tm  Tm2  1  0.614968  0.000000  0.000000  1
  Tm  Tm3  1  0.000221  0.615473  0.000000  1
  Tm  Tm4  1  0.384747  0.384527  0.000000  1
  Lu  Lu5  1  0.231526  0.000000  0.500000  1
  Re  Re6  1  0.000895  0.000000  0.000000  1
  Bi  Bi7  1  0.333255  0.666949  0.500000  1
  Bi  Bi8  1  0.666307  0.333051  0.500000  1
