# generated using pymatgen
data_Ho16Er4IrRh11
_symmetry_space_group_name_H-M   'P 1'
_cell_length_a   10.84737741
_cell_length_b   10.84737741
_cell_length_c   6.32894400
_cell_angle_alpha   90.00255436
_cell_angle_beta   90.00255436
_cell_angle_gamma   90.03126937
_symmetry_Int_Tables_number   1
_chemical_formula_structural   Ho16Er4IrRh11
_chemical_formula_sum   'Ho16 Er4 Ir1 Rh11'
_cell_volume   744.69885960
_cell_formula_units_Z   1
loop_
 _symmetry_equiv_pos_site_id
 _symmetry_equiv_pos_as_xyz
  1  'x, y, z'
loop_
 _atom_site_type_symbol
 _atom_site_label
 _atom_site_symmetry_multiplicity
 _atom_site_fract_x
 _atom_site_fract_y
 _atom_site_fract_z
 _atom_site_occupancy
  Ho  Ho0  1  0.290561  0.088292  0.377953  1
  Ho  Ho1  1  0.290781  0.910643  0.877777  1
  Ho  Ho2  1  0.709419  0.088235  0.877909  1
  Ho  Ho3  1  0.709359  0.911673  0.377884  1
  Ho  Ho4  1  0.587241  0.790147  0.877651  1
  Ho  Ho5  1  0.588303  0.209369  0.378241  1
  Ho  Ho6  1  0.411468  0.790058  0.378729  1
  Ho  Ho7  1  0.411666  0.209299  0.877894  1
  Ho  Ho8  1  0.209853  0.412759  0.622349  1
  Ho  Ho9  1  0.209942  0.588532  0.121271  1
  Ho  Ho10  1  0.790631  0.411697  0.121759  1
  Ho  Ho11  1  0.790701  0.588334  0.622106  1
  Ho  Ho12  1  0.911708  0.709439  0.122047  1
  Ho  Ho13  1  0.911765  0.290581  0.622091  1
  Ho  Ho14  1  0.089357  0.709219  0.622223  1
  Ho  Ho15  1  0.088327  0.290641  0.122116  1
  Er  Er16  1  0.999901  0.999958  0.500018  1
  Er  Er17  1  0.000042  0.000099  0.999982  1
  Er  Er18  1  0.499732  0.500224  0.999957  1
  Er  Er19  1  0.499776  0.500268  0.500043  1
  Ir  Ir20  1  0.346539  0.653461  0.750000  1
  Rh  Rh21  1  0.846516  0.153484  0.250000  1
  Rh  Rh22  1  0.846494  0.846598  0.750094  1
  Rh  Rh23  1  0.153402  0.153506  0.749906  1
  Rh  Rh24  1  0.153035  0.846965  0.250000  1
  Rh  Rh25  1  0.653504  0.346496  0.750000  1
  Rh  Rh26  1  0.653908  0.653506  0.250067  1
  Rh  Rh27  1  0.346494  0.346092  0.249933  1
  Rh  Rh28  1  0.500155  0.000335  0.122934  1
  Rh  Rh29  1  0.500225  0.000471  0.622566  1
  Rh  Rh30  1  0.999529  0.499775  0.877434  1
  Rh  Rh31  1  0.999665  0.499845  0.377066  1
