# generated using pymatgen
data_Hf6TaNb3(GaGe)3
_symmetry_space_group_name_H-M   'P 1'
_cell_length_a   7.92811000
_cell_length_b   7.92604215
_cell_length_c   5.42887400
_cell_angle_alpha   90.00187368
_cell_angle_beta   90.00054900
_cell_angle_gamma   120.01084661
_symmetry_Int_Tables_number   1
_chemical_formula_structural   Hf6TaNb3(GaGe)3
_chemical_formula_sum   'Hf6 Ta1 Nb3 Ga3 Ge3'
_cell_volume   295.40576110
_cell_formula_units_Z   1
loop_
 _symmetry_equiv_pos_site_id
 _symmetry_equiv_pos_as_xyz
  1  'x, y, z'
loop_
 _atom_site_type_symbol
 _atom_site_label
 _atom_site_symmetry_multiplicity
 _atom_site_fract_x
 _atom_site_fract_y
 _atom_site_fract_z
 _atom_site_occupancy
  Hf  Hf0  1  0.748338  0.748199  0.250055  1
  Hf  Hf1  1  0.747775  0.000123  0.749899  1
  Hf  Hf2  1  0.999900  0.251663  0.250099  1
  Hf  Hf3  1  0.250355  0.250393  0.749925  1
  Hf  Hf4  1  0.250135  0.000084  0.250068  1
  Hf  Hf5  1  0.999784  0.749540  0.749884  1
  Ta  Ta6  1  0.667216  0.333431  0.999974  1
  Nb  Nb7  1  0.667334  0.333426  0.500124  1
  Nb  Nb8  1  0.333862  0.666574  0.500145  1
  Nb  Nb9  1  0.333911  0.666571  0.999843  1
  Ga  Ga10  1  0.000816  0.605907  0.249907  1
  Ga  Ga11  1  0.394929  0.394088  0.249937  1
  Ga  Ga12  1  0.394181  0.000019  0.750069  1
  Ge  Ge13  1  0.604890  0.000001  0.249915  1
  Ge  Ge14  1  0.605753  0.604914  0.750062  1
  Ge  Ge15  1  0.000821  0.395067  0.750095  1
