# generated using pymatgen
data_Sm8Zr12Si15As
_symmetry_space_group_name_H-M   'P 1'
_cell_length_a   7.22534932
_cell_length_b   7.38764481
_cell_length_c   14.06794997
_cell_angle_alpha   90.11744912
_cell_angle_beta   89.44987856
_cell_angle_gamma   90.08535300
_symmetry_Int_Tables_number   1
_chemical_formula_structural   Sm8Zr12Si15As
_chemical_formula_sum   'Sm8 Zr12 Si15 As1'
_cell_volume   750.88645520
_cell_formula_units_Z   1
loop_
 _symmetry_equiv_pos_site_id
 _symmetry_equiv_pos_as_xyz
  1  'x, y, z'
loop_
 _atom_site_type_symbol
 _atom_site_label
 _atom_site_symmetry_multiplicity
 _atom_site_fract_x
 _atom_site_fract_y
 _atom_site_fract_z
 _atom_site_occupancy
  Sm  Sm0  1  0.013185  0.175314  0.097044  1
  Sm  Sm1  1  0.986870  0.825350  0.902684  1
  Sm  Sm2  1  0.486834  0.674646  0.902581  1
  Sm  Sm3  1  0.989484  0.823117  0.597035  1
  Sm  Sm4  1  0.513183  0.325302  0.097564  1
  Sm  Sm5  1  0.010166  0.176862  0.403501  1
  Sm  Sm6  1  0.507761  0.323927  0.402272  1
  Sm  Sm7  1  0.494474  0.675632  0.598347  1
  Zr  Zr8  1  0.160095  0.495638  0.750982  1
  Zr  Zr9  1  0.840185  0.502954  0.250995  1
  Zr  Zr10  1  0.339940  0.997996  0.250132  1
  Zr  Zr11  1  0.660385  0.001777  0.750300  1
  Zr  Zr12  1  0.334815  0.172536  0.625955  1
  Zr  Zr13  1  0.666577  0.825918  0.374538  1
  Zr  Zr14  1  0.163919  0.675858  0.375250  1
  Zr  Zr15  1  0.669388  0.824138  0.125162  1
  Zr  Zr16  1  0.832974  0.325410  0.623664  1
  Zr  Zr17  1  0.329893  0.176295  0.874783  1
  Zr  Zr18  1  0.830741  0.323228  0.874703  1
  Zr  Zr19  1  0.169719  0.676917  0.125224  1
  Si  Si20  1  0.035408  0.121038  0.749040  1
  Si  Si21  1  0.964200  0.879589  0.250010  1
  Si  Si22  1  0.462458  0.622106  0.249957  1
  Si  Si23  1  0.537456  0.377238  0.749952  1
  Si  Si24  1  0.287019  0.875634  0.750055  1
  Si  Si25  1  0.713744  0.124093  0.249824  1
  Si  Si26  1  0.212705  0.377925  0.250000  1
  Si  Si27  1  0.788230  0.622439  0.749949  1
  Si  Si28  1  0.825784  0.537019  0.456733  1
  Si  Si29  1  0.342287  0.964221  0.459673  1
  Si  Si30  1  0.846803  0.533573  0.040851  1
  Si  Si31  1  0.658520  0.035468  0.540723  1
  Si  Si32  1  0.153030  0.467156  0.958799  1
  Si  Si33  1  0.652584  0.033290  0.958758  1
  Si  Si34  1  0.347432  0.967062  0.041016  1
  As  As35  1  0.171751  0.463336  0.541943  1
