# generated using pymatgen
data_LiEr4Lu2Co17P12
_symmetry_space_group_name_H-M   'P 1'
_cell_length_a   3.68414500
_cell_length_b   10.50882100
_cell_length_c   12.12287700
_cell_angle_alpha   90.00000000
_cell_angle_beta   90.00000000
_cell_angle_gamma   90.00000000
_symmetry_Int_Tables_number   1
_chemical_formula_structural   LiEr4Lu2Co17P12
_chemical_formula_sum   'Li1 Er4 Lu2 Co17 P12'
_cell_volume   469.34955255
_cell_formula_units_Z   1
loop_
 _symmetry_equiv_pos_site_id
 _symmetry_equiv_pos_as_xyz
  1  'x, y, z'
loop_
 _atom_site_type_symbol
 _atom_site_label
 _atom_site_symmetry_multiplicity
 _atom_site_fract_x
 _atom_site_fract_y
 _atom_site_fract_z
 _atom_site_occupancy
  Li  Li0  1  0.250000  0.250000  0.847472  1
  Er  Er1  1  0.750000  0.250000  0.477473  1
  Er  Er2  1  0.250000  0.750000  0.522590  1
  Er  Er3  1  0.750000  0.068027  0.205502  1
  Er  Er4  1  0.750000  0.431973  0.205502  1
  Lu  Lu5  1  0.250000  0.929783  0.793542  1
  Lu  Lu6  1  0.250000  0.570217  0.793542  1
  Co  Co7  1  0.750000  0.750000  0.159880  1
  Co  Co8  1  0.250000  0.250000  0.295694  1
  Co  Co9  1  0.750000  0.750000  0.703767  1
  Co  Co10  1  0.750000  0.250000  0.012976  1
  Co  Co11  1  0.250000  0.750000  0.986664  1
  Co  Co12  1  0.250000  0.419641  0.004188  1
  Co  Co13  1  0.250000  0.080359  0.004188  1
  Co  Co14  1  0.750000  0.585359  0.995819  1
  Co  Co15  1  0.750000  0.914641  0.995819  1
  Co  Co16  1  0.250000  0.453741  0.568683  1
  Co  Co17  1  0.250000  0.046259  0.568683  1
  Co  Co18  1  0.750000  0.547721  0.430475  1
  Co  Co19  1  0.750000  0.952279  0.430475  1
  Co  Co20  1  0.250000  0.870719  0.291325  1
  Co  Co21  1  0.250000  0.629281  0.291325  1
  Co  Co22  1  0.750000  0.126777  0.707674  1
  Co  Co23  1  0.750000  0.373223  0.707674  1
  P  P24  1  0.250000  0.250000  0.115193  1
  P  P25  1  0.750000  0.750000  0.881958  1
  P  P26  1  0.250000  0.250000  0.654078  1
  P  P27  1  0.750000  0.750000  0.345381  1
  P  P28  1  0.250000  0.439108  0.383250  1
  P  P29  1  0.250000  0.060892  0.383250  1
  P  P30  1  0.750000  0.561471  0.616461  1
  P  P31  1  0.750000  0.938529  0.616461  1
  P  P32  1  0.250000  0.902288  0.108612  1
  P  P33  1  0.250000  0.597712  0.108612  1
  P  P34  1  0.750000  0.091506  0.892906  1
  P  P35  1  0.750000  0.408494  0.892906  1
