# generated using pymatgen
data_Sc22CdTc6Ir
_symmetry_space_group_name_H-M   'P 1'
_cell_length_a   9.62042512
_cell_length_b   9.50386569
_cell_length_c   9.62042544
_cell_angle_alpha   60.39998781
_cell_angle_beta   59.37047794
_cell_angle_gamma   60.39999129
_symmetry_Int_Tables_number   1
_chemical_formula_structural   Sc22CdTc6Ir
_chemical_formula_sum   'Sc22 Cd1 Tc6 Ir1'
_cell_volume   622.64435447
_cell_formula_units_Z   1
loop_
 _symmetry_equiv_pos_site_id
 _symmetry_equiv_pos_as_xyz
  1  'x, y, z'
loop_
 _atom_site_type_symbol
 _atom_site_label
 _atom_site_symmetry_multiplicity
 _atom_site_fract_x
 _atom_site_fract_y
 _atom_site_fract_z
 _atom_site_occupancy
  Sc  Sc0  1  0.802412  0.805292  0.197588  1
  Sc  Sc1  1  0.197125  0.802875  0.197125  1
  Sc  Sc2  1  0.802412  0.194708  0.197588  1
  Sc  Sc3  1  0.197588  0.194708  0.802412  1
  Sc  Sc4  1  0.802875  0.197125  0.802875  1
  Sc  Sc5  1  0.197588  0.805292  0.802412  1
  Sc  Sc6  1  0.601172  0.622888  0.153050  1
  Sc  Sc7  1  0.613952  0.148361  0.613952  1
  Sc  Sc8  1  0.153050  0.622888  0.601172  1
  Sc  Sc9  1  0.613952  0.623732  0.613952  1
  Sc  Sc10  1  0.398828  0.377112  0.846950  1
  Sc  Sc11  1  0.386048  0.851639  0.386048  1
  Sc  Sc12  1  0.846950  0.377112  0.398828  1
  Sc  Sc13  1  0.386048  0.376268  0.386048  1
  Sc  Sc14  1  0.844723  0.843712  0.467851  1
  Sc  Sc15  1  0.834176  0.472129  0.834176  1
  Sc  Sc16  1  0.467851  0.843712  0.844723  1
  Sc  Sc17  1  0.834176  0.859518  0.834176  1
  Sc  Sc18  1  0.155277  0.156288  0.532149  1
  Sc  Sc19  1  0.165824  0.527871  0.165824  1
  Sc  Sc20  1  0.532149  0.156288  0.155277  1
  Sc  Sc21  1  0.165824  0.140482  0.165824  1
  Cd  Cd22  1  0.000000  0.500000  0.000000  1
  Tc  Tc23  1  0.000000  0.000000  0.000000  1
  Tc  Tc24  1  0.000000  0.000000  0.500000  1
  Tc  Tc25  1  0.500000  0.000000  0.500000  1
  Tc  Tc26  1  0.000000  0.500000  0.500000  1
  Tc  Tc27  1  0.500000  0.500000  0.000000  1
  Tc  Tc28  1  0.500000  0.000000  0.000000  1
  Ir  Ir29  1  0.500000  0.500000  0.500000  1
