# generated using pymatgen
data_La2HoSi4(PPd10)2
_symmetry_space_group_name_H-M   'P 1'
_cell_length_a   8.76530835
_cell_length_b   8.76530963
_cell_length_c   8.76644400
_cell_angle_alpha   59.99571887
_cell_angle_beta   59.99571405
_cell_angle_gamma   60.00856853
_symmetry_Int_Tables_number   1
_chemical_formula_structural   La2HoSi4(PPd10)2
_chemical_formula_sum   'La2 Ho1 Si4 P2 Pd20'
_cell_volume   476.25869310
_cell_formula_units_Z   1
loop_
 _symmetry_equiv_pos_site_id
 _symmetry_equiv_pos_as_xyz
  1  'x, y, z'
loop_
 _atom_site_type_symbol
 _atom_site_label
 _atom_site_symmetry_multiplicity
 _atom_site_fract_x
 _atom_site_fract_y
 _atom_site_fract_z
 _atom_site_occupancy
  La  La0  1  0.250000  0.250000  0.250000  1
  La  La1  1  0.750000  0.750000  0.750000  1
  Ho  Ho2  1  0.000000  0.000000  0.000000  1
  Si  Si3  1  0.734814  0.265186  0.265186  1
  Si  Si4  1  0.265186  0.734814  0.734814  1
  Si  Si5  1  0.265186  0.734814  0.265186  1
  Si  Si6  1  0.734814  0.265186  0.734814  1
  P  P7  1  0.264600  0.264600  0.735400  1
  P  P8  1  0.735400  0.735400  0.264600  1
  Pd  Pd9  1  0.385183  0.385183  0.387315  1
  Pd  Pd10  1  0.614817  0.614817  0.612685  1
  Pd  Pd11  1  0.385183  0.385183  0.842319  1
  Pd  Pd12  1  0.387315  0.842319  0.385183  1
  Pd  Pd13  1  0.614817  0.614817  0.157681  1
  Pd  Pd14  1  0.612685  0.157681  0.614817  1
  Pd  Pd15  1  0.842319  0.387315  0.385183  1
  Pd  Pd16  1  0.157681  0.612685  0.614817  1
  Pd  Pd17  1  0.344596  0.001538  0.998462  1
  Pd  Pd18  1  0.655404  0.998462  0.001538  1
  Pd  Pd19  1  0.001538  0.344596  0.655404  1
  Pd  Pd20  1  0.998462  0.655404  0.344596  1
  Pd  Pd21  1  0.001538  0.344596  0.998462  1
  Pd  Pd22  1  0.655404  0.998462  0.344596  1
  Pd  Pd23  1  0.998462  0.655404  0.001538  1
  Pd  Pd24  1  0.344596  0.001538  0.655404  1
  Pd  Pd25  1  0.000000  0.000000  0.346117  1
  Pd  Pd26  1  0.000000  0.000000  0.653883  1
  Pd  Pd27  1  0.653883  0.346117  0.000000  1
  Pd  Pd28  1  0.346117  0.653883  0.000000  1
