# generated using pymatgen
data_Tm2Re7Si4Os
_symmetry_space_group_name_H-M   'P 1'
_cell_length_a   7.25524884
_cell_length_b   7.54696351
_cell_length_c   4.10820000
_cell_angle_alpha   90.00000000
_cell_angle_beta   90.00000000
_cell_angle_gamma   89.59990096
_symmetry_Int_Tables_number   1
_chemical_formula_structural   Tm2Re7Si4Os
_chemical_formula_sum   'Tm2 Re7 Si4 Os1'
_cell_volume   224.93941013
_cell_formula_units_Z   1
loop_
 _symmetry_equiv_pos_site_id
 _symmetry_equiv_pos_as_xyz
  1  'x, y, z'
loop_
 _atom_site_type_symbol
 _atom_site_label
 _atom_site_symmetry_multiplicity
 _atom_site_fract_x
 _atom_site_fract_y
 _atom_site_fract_z
 _atom_site_occupancy
  Tm  Tm0  1  0.498788  0.500654  0.000000  1
  Tm  Tm1  1  0.998214  0.999265  0.500000  1
  Re  Re2  1  0.416620  0.842909  0.500000  1
  Re  Re3  1  0.080478  0.336986  0.000000  1
  Re  Re4  1  0.918073  0.659958  0.000000  1
  Re  Re5  1  0.157627  0.601833  0.500000  1
  Re  Re6  1  0.849563  0.400733  0.500000  1
  Re  Re7  1  0.342884  0.099000  0.000000  1
  Re  Re8  1  0.656450  0.898344  0.000000  1
  Si  Si9  1  0.717329  0.698840  0.500000  1
  Si  Si10  1  0.282901  0.298666  0.500000  1
  Si  Si11  1  0.216512  0.801887  0.000000  1
  Si  Si12  1  0.778133  0.197652  0.000000  1
  Os  Os13  1  0.586429  0.163275  0.500000  1
