# generated using pymatgen
data_BaPb2F10
_symmetry_space_group_name_H-M   'P 1'
_cell_length_a   8.65035809
_cell_length_b   8.65035889
_cell_length_c   9.10732009
_cell_angle_alpha   83.93024723
_cell_angle_beta   83.93025108
_cell_angle_gamma   137.28805968
_symmetry_Int_Tables_number   1
_chemical_formula_structural   BaPb2F10
_chemical_formula_sum   'Ba2 Pb4 F20'
_cell_volume   442.34675573
_cell_formula_units_Z   2
loop_
 _symmetry_equiv_pos_site_id
 _symmetry_equiv_pos_as_xyz
  1  'x, y, z'
loop_
 _atom_site_type_symbol
 _atom_site_label
 _atom_site_symmetry_multiplicity
 _atom_site_fract_x
 _atom_site_fract_y
 _atom_site_fract_z
 _atom_site_occupancy
  Ba  Ba0  1  0.430594  0.569406  0.750000  1
  Ba  Ba1  1  0.569406  0.430594  0.250000  1
  Pb  Pb2  1  0.340219  0.031931  0.903523  1
  Pb  Pb3  1  0.968069  0.659781  0.596477  1
  Pb  Pb4  1  0.659781  0.968069  0.096477  1
  Pb  Pb5  1  0.031931  0.340219  0.403523  1
  F  F6  1  0.139917  0.556751  0.576274  1
  F  F7  1  0.443249  0.860083  0.923726  1
  F  F8  1  0.860083  0.443249  0.423726  1
  F  F9  1  0.556751  0.139917  0.076274  1
  F  F10  1  0.700302  0.299698  0.750000  1
  F  F11  1  0.299698  0.700302  0.250000  1
  F  F12  1  0.202839  0.797161  0.750000  1
  F  F13  1  0.797161  0.202839  0.250000  1
  F  F14  1  0.979887  0.253636  0.931059  1
  F  F15  1  0.746364  0.020113  0.568941  1
  F  F16  1  0.020113  0.746364  0.068941  1
  F  F17  1  0.253636  0.979887  0.431059  1
  F  F18  1  0.266683  0.378203  0.502058  1
  F  F19  1  0.621797  0.733317  0.997942  1
  F  F20  1  0.733317  0.621797  0.497942  1
  F  F21  1  0.378203  0.266683  0.002058  1
  F  F22  1  0.296217  0.174003  0.737270  1
  F  F23  1  0.825997  0.703783  0.762730  1
  F  F24  1  0.703783  0.825997  0.262730  1
  F  F25  1  0.174003  0.296217  0.237270  1
