# generated using pymatgen
data_Nd6CuPt2Rh15
_symmetry_space_group_name_H-M   'P 1'
_cell_length_a   5.35850300
_cell_length_b   5.35875900
_cell_length_c   17.54174500
_cell_angle_alpha   90.00000000
_cell_angle_beta   90.00000000
_cell_angle_gamma   120.01173599
_symmetry_Int_Tables_number   1
_chemical_formula_structural   Nd6CuPt2Rh15
_chemical_formula_sum   'Nd6 Cu1 Pt2 Rh15'
_cell_volume   436.17398368
_cell_formula_units_Z   1
loop_
 _symmetry_equiv_pos_site_id
 _symmetry_equiv_pos_as_xyz
  1  'x, y, z'
loop_
 _atom_site_type_symbol
 _atom_site_label
 _atom_site_symmetry_multiplicity
 _atom_site_fract_x
 _atom_site_fract_y
 _atom_site_fract_z
 _atom_site_occupancy
  Nd  Nd0  1  0.333346  0.666685  0.540505  1
  Nd  Nd1  1  0.666661  0.333340  0.044475  1
  Nd  Nd2  1  0.666661  0.333340  0.455525  1
  Nd  Nd3  1  0.333346  0.666685  0.959495  1
  Nd  Nd4  1  0.333342  0.666684  0.750000  1
  Nd  Nd5  1  0.666604  0.333323  0.250000  1
  Cu  Cu6  1  0.999632  0.000021  0.250000  1
  Pt  Pt7  1  0.000035  0.000018  0.001715  1
  Pt  Pt8  1  0.000035  0.000018  0.498285  1
  Rh  Rh9  1  0.167032  0.334029  0.129028  1
  Rh  Rh10  1  0.832354  0.664673  0.626935  1
  Rh  Rh11  1  0.665952  0.832955  0.129010  1
  Rh  Rh12  1  0.167017  0.832972  0.129036  1
  Rh  Rh13  1  0.832393  0.167678  0.626936  1
  Rh  Rh14  1  0.335344  0.167686  0.626919  1
  Rh  Rh15  1  0.832354  0.664673  0.873065  1
  Rh  Rh16  1  0.832393  0.167678  0.873064  1
  Rh  Rh17  1  0.335344  0.167686  0.873081  1
  Rh  Rh18  1  0.665952  0.832955  0.370990  1
  Rh  Rh19  1  0.167017  0.832972  0.370964  1
  Rh  Rh20  1  0.167032  0.334029  0.370972  1
  Rh  Rh21  1  0.000165  0.999968  0.750000  1
  Rh  Rh22  1  0.333353  0.666647  0.250000  1
  Rh  Rh23  1  0.666630  0.333287  0.750000  1
