# generated using pymatgen
data_Sc6Zn17Pt6Pb
_symmetry_space_group_name_H-M   'P 1'
_cell_length_a   8.92174492
_cell_length_b   8.92340602
_cell_length_c   8.92012500
_cell_angle_alpha   59.99977763
_cell_angle_beta   60.01359513
_cell_angle_gamma   59.98022527
_symmetry_Int_Tables_number   1
_chemical_formula_structural   Sc6Zn17Pt6Pb
_chemical_formula_sum   'Sc6 Zn17 Pt6 Pb1'
_cell_volume   502.12900738
_cell_formula_units_Z   1
loop_
 _symmetry_equiv_pos_site_id
 _symmetry_equiv_pos_as_xyz
  1  'x, y, z'
loop_
 _atom_site_type_symbol
 _atom_site_label
 _atom_site_symmetry_multiplicity
 _atom_site_fract_x
 _atom_site_fract_y
 _atom_site_fract_z
 _atom_site_occupancy
  Sc  Sc0  1  0.740810  0.259186  0.259186  1
  Sc  Sc1  1  0.259190  0.740814  0.740814  1
  Sc  Sc2  1  0.259180  0.740818  0.259176  1
  Sc  Sc3  1  0.740820  0.259182  0.740824  1
  Sc  Sc4  1  0.259258  0.259244  0.740751  1
  Sc  Sc5  1  0.740742  0.740756  0.259249  1
  Zn  Zn6  1  0.131702  0.131710  0.131655  1
  Zn  Zn7  1  0.868298  0.868290  0.868345  1
  Zn  Zn8  1  0.131744  0.131730  0.604904  1
  Zn  Zn9  1  0.131613  0.604931  0.131720  1
  Zn  Zn10  1  0.868256  0.868270  0.395096  1
  Zn  Zn11  1  0.868387  0.395069  0.868280  1
  Zn  Zn12  1  0.604922  0.131640  0.131730  1
  Zn  Zn13  1  0.395078  0.868360  0.868270  1
  Zn  Zn14  1  0.349829  0.349821  0.349834  1
  Zn  Zn15  1  0.650171  0.650179  0.650166  1
  Zn  Zn16  1  0.349801  0.349796  0.950585  1
  Zn  Zn17  1  0.349833  0.950536  0.349813  1
  Zn  Zn18  1  0.650199  0.650204  0.049415  1
  Zn  Zn19  1  0.650167  0.049464  0.650187  1
  Zn  Zn20  1  0.950542  0.349827  0.349812  1
  Zn  Zn21  1  0.049458  0.650173  0.650188  1
  Zn  Zn22  1  0.000000  0.000000  0.000000  1
  Pt  Pt23  1  0.500000  0.000000  0.000000  1
  Pt  Pt24  1  0.000000  0.500000  0.500000  1
  Pt  Pt25  1  0.000000  0.500000  0.000000  1
  Pt  Pt26  1  0.500000  0.000000  0.500000  1
  Pt  Pt27  1  0.000000  0.000000  0.500000  1
  Pt  Pt28  1  0.500000  0.500000  0.000000  1
  Pb  Pb29  1  0.500000  0.500000  0.500000  1
