# generated using pymatgen
data_Er8Al(Pd5Pt3)3
_symmetry_space_group_name_H-M   'P 1'
_cell_length_a   8.35523900
_cell_length_b   8.35568500
_cell_length_c   8.36525600
_cell_angle_alpha   90.00000000
_cell_angle_beta   90.00000000
_cell_angle_gamma   90.00000000
_symmetry_Int_Tables_number   1
_chemical_formula_structural   Er8Al(Pd5Pt3)3
_chemical_formula_sum   'Er8 Al1 Pd15 Pt9'
_cell_volume   584.00985078
_cell_formula_units_Z   1
loop_
 _symmetry_equiv_pos_site_id
 _symmetry_equiv_pos_as_xyz
  1  'x, y, z'
loop_
 _atom_site_type_symbol
 _atom_site_label
 _atom_site_symmetry_multiplicity
 _atom_site_fract_x
 _atom_site_fract_y
 _atom_site_fract_z
 _atom_site_occupancy
  Er  Er0  1  0.250961  0.251474  0.250755  1
  Er  Er1  1  0.749460  0.748438  0.748725  1
  Er  Er2  1  0.749460  0.748438  0.251275  1
  Er  Er3  1  0.749039  0.251474  0.749245  1
  Er  Er4  1  0.250961  0.251474  0.749245  1
  Er  Er5  1  0.250540  0.748438  0.251275  1
  Er  Er6  1  0.250540  0.748438  0.748725  1
  Er  Er7  1  0.749039  0.251474  0.250755  1
  Al  Al8  1  0.000000  0.000485  0.000000  1
  Pd  Pd9  1  0.500000  0.739626  0.000000  1
  Pd  Pd10  1  0.500000  0.999834  0.262000  1
  Pd  Pd11  1  0.260856  0.999959  0.500000  1
  Pd  Pd12  1  0.500000  0.999834  0.738000  1
  Pd  Pd13  1  0.739144  0.999959  0.500000  1
  Pd  Pd14  1  0.000000  0.500030  0.261915  1
  Pd  Pd15  1  0.000000  0.500030  0.738085  1
  Pd  Pd16  1  0.253120  0.500056  0.500000  1
  Pd  Pd17  1  0.746880  0.500056  0.500000  1
  Pd  Pd18  1  0.500000  0.253059  0.500000  1
  Pd  Pd19  1  0.500000  0.746831  0.500000  1
  Pd  Pd20  1  0.500000  0.500081  0.253968  1
  Pd  Pd21  1  0.500000  0.500081  0.746032  1
  Pd  Pd22  1  0.000000  0.000109  0.292921  1
  Pd  Pd23  1  0.000000  0.000109  0.707079  1
  Pt  Pt24  1  0.260674  0.499911  0.000000  1
  Pt  Pt25  1  0.739326  0.499911  0.000000  1
  Pt  Pt26  1  0.000000  0.260547  0.500000  1
  Pt  Pt27  1  0.500000  0.260135  0.000000  1
  Pt  Pt28  1  0.000000  0.739575  0.500000  1
  Pt  Pt29  1  0.290867  0.999772  0.000000  1
  Pt  Pt30  1  0.709133  0.999772  0.000000  1
  Pt  Pt31  1  0.000000  0.290956  0.000000  1
  Pt  Pt32  1  0.000000  0.709637  0.000000  1
