# generated using pymatgen
data_YTh5Ir18
_symmetry_space_group_name_H-M   'P 1'
_cell_length_a   5.37120600
_cell_length_b   5.37120527
_cell_length_c   17.73780900
_cell_angle_alpha   90.00000000
_cell_angle_beta   90.00000000
_cell_angle_gamma   120.00000451
_symmetry_Int_Tables_number   1
_chemical_formula_structural   YTh5Ir18
_chemical_formula_sum   'Y1 Th5 Ir18'
_cell_volume   443.17386898
_cell_formula_units_Z   1
loop_
 _symmetry_equiv_pos_site_id
 _symmetry_equiv_pos_as_xyz
  1  'x, y, z'
loop_
 _atom_site_type_symbol
 _atom_site_label
 _atom_site_symmetry_multiplicity
 _atom_site_fract_x
 _atom_site_fract_y
 _atom_site_fract_z
 _atom_site_occupancy
  Y  Y0  1  0.333333  0.666667  0.542475  1
  Th  Th1  1  0.333333  0.666667  0.957120  1
  Th  Th2  1  0.666667  0.333333  0.042331  1
  Th  Th3  1  0.666667  0.333333  0.460033  1
  Th  Th4  1  0.333333  0.666667  0.747164  1
  Th  Th5  1  0.666667  0.333333  0.251004  1
  Ir  Ir6  1  0.167221  0.832779  0.373972  1
  Ir  Ir7  1  0.167221  0.334443  0.373972  1
  Ir  Ir8  1  0.665557  0.832779  0.373972  1
  Ir  Ir9  1  0.833064  0.166936  0.626082  1
  Ir  Ir10  1  0.833064  0.666125  0.626082  1
  Ir  Ir11  1  0.333875  0.166936  0.626082  1
  Ir  Ir12  1  0.832892  0.167108  0.872422  1
  Ir  Ir13  1  0.832892  0.665781  0.872422  1
  Ir  Ir14  1  0.334219  0.167108  0.872422  1
  Ir  Ir15  1  0.167157  0.832843  0.127264  1
  Ir  Ir16  1  0.167157  0.334314  0.127264  1
  Ir  Ir17  1  0.665686  0.832843  0.127264  1
  Ir  Ir18  1  0.333333  0.666667  0.250353  1
  Ir  Ir19  1  0.666667  0.333333  0.749348  1
  Ir  Ir20  1  0.000000  0.000000  0.250768  1
  Ir  Ir21  1  0.000000  0.000000  0.749427  1
  Ir  Ir22  1  0.000000  0.000000  0.500755  1
  Ir  Ir23  1  0.000000  0.000000  0.000002  1
