# generated using pymatgen
data_Y6Er2AlPd24
_symmetry_space_group_name_H-M   'P 1'
_cell_length_a   8.35403475
_cell_length_b   8.35403458
_cell_length_c   8.35403592
_cell_angle_alpha   89.98059243
_cell_angle_beta   90.01940886
_cell_angle_gamma   90.01940662
_symmetry_Int_Tables_number   1
_chemical_formula_structural   Y6Er2AlPd24
_chemical_formula_sum   'Y6 Er2 Al1 Pd24'
_cell_volume   583.02719126
_cell_formula_units_Z   1
loop_
 _symmetry_equiv_pos_site_id
 _symmetry_equiv_pos_as_xyz
  1  'x, y, z'
loop_
 _atom_site_type_symbol
 _atom_site_label
 _atom_site_symmetry_multiplicity
 _atom_site_fract_x
 _atom_site_fract_y
 _atom_site_fract_z
 _atom_site_occupancy
  Y  Y0  1  0.251028  0.251351  0.251351  1
  Y  Y1  1  0.748972  0.748649  0.748649  1
  Y  Y2  1  0.748649  0.748972  0.251351  1
  Y  Y3  1  0.748649  0.251351  0.748972  1
  Y  Y4  1  0.251351  0.251028  0.748649  1
  Y  Y5  1  0.251351  0.748649  0.251028  1
  Er  Er6  1  0.251148  0.748852  0.748852  1
  Er  Er7  1  0.748852  0.251148  0.251148  1
  Al  Al8  1  0.000000  0.000000  0.000000  1
  Pd  Pd9  1  0.259554  0.500809  0.998650  1
  Pd  Pd10  1  0.740446  0.499191  0.001350  1
  Pd  Pd11  1  0.998650  0.259554  0.499191  1
  Pd  Pd12  1  0.500809  0.259554  0.001350  1
  Pd  Pd13  1  0.001350  0.740446  0.500809  1
  Pd  Pd14  1  0.499191  0.740446  0.998650  1
  Pd  Pd15  1  0.500809  0.001350  0.259554  1
  Pd  Pd16  1  0.259554  0.998650  0.500809  1
  Pd  Pd17  1  0.499191  0.998650  0.740446  1
  Pd  Pd18  1  0.740446  0.001350  0.499191  1
  Pd  Pd19  1  0.998650  0.499191  0.259554  1
  Pd  Pd20  1  0.001350  0.500809  0.740446  1
  Pd  Pd21  1  0.252517  0.500924  0.500924  1
  Pd  Pd22  1  0.747483  0.499076  0.499076  1
  Pd  Pd23  1  0.500924  0.252517  0.499076  1
  Pd  Pd24  1  0.499076  0.747483  0.500924  1
  Pd  Pd25  1  0.500924  0.499076  0.252517  1
  Pd  Pd26  1  0.499076  0.500924  0.747483  1
  Pd  Pd27  1  0.288887  0.998657  0.998657  1
  Pd  Pd28  1  0.711113  0.001343  0.001343  1
  Pd  Pd29  1  0.998657  0.288887  0.001343  1
  Pd  Pd30  1  0.001343  0.711113  0.998657  1
  Pd  Pd31  1  0.998657  0.001343  0.288887  1
  Pd  Pd32  1  0.001343  0.998657  0.711113  1
