# generated using pymatgen
data_BaAs2IrRu
_symmetry_space_group_name_H-M   'P 1'
_cell_length_a   7.01341853
_cell_length_b   7.01341793
_cell_length_c   7.01341743
_cell_angle_alpha   145.49833656
_cell_angle_beta   145.49832558
_cell_angle_gamma   49.59251076
_symmetry_Int_Tables_number   1
_chemical_formula_structural   BaAs2IrRu
_chemical_formula_sum   'Ba1 As2 Ir1 Ru1'
_cell_volume   110.16752503
_cell_formula_units_Z   1
loop_
 _symmetry_equiv_pos_site_id
 _symmetry_equiv_pos_as_xyz
  1  'x, y, z'
loop_
 _atom_site_type_symbol
 _atom_site_label
 _atom_site_symmetry_multiplicity
 _atom_site_fract_x
 _atom_site_fract_y
 _atom_site_fract_z
 _atom_site_occupancy
  Ba  Ba0  1  0.000000  0.000000  0.000000  1
  As  As1  1  0.353255  0.353255  0.000000  1
  As  As2  1  0.646745  0.646745  0.000000  1
  Ir  Ir3  1  0.750000  0.250000  0.500000  1
  Ru  Ru4  1  0.250000  0.750000  0.500000  1
