# generated using pymatgen
data_Ta4Ag2Se4O19
_symmetry_space_group_name_H-M   'P 1'
_cell_length_a   3.90989299
_cell_length_b   10.37453409
_cell_length_c   11.13687000
_cell_angle_alpha   106.04275450
_cell_angle_beta   90.04070896
_cell_angle_gamma   97.11611151
_symmetry_Int_Tables_number   1
_chemical_formula_structural   Ta4Ag2Se4O19
_chemical_formula_sum   'Ta4 Ag2 Se4 O19'
_cell_volume   430.52182155
_cell_formula_units_Z   1
loop_
 _symmetry_equiv_pos_site_id
 _symmetry_equiv_pos_as_xyz
  1  'x, y, z'
loop_
 _atom_site_type_symbol
 _atom_site_label
 _atom_site_symmetry_multiplicity
 _atom_site_fract_x
 _atom_site_fract_y
 _atom_site_fract_z
 _atom_site_occupancy
  Ta  Ta0  1  0.370355  0.190238  0.704725  1
  Ta  Ta1  1  0.629645  0.809762  0.295275  1
  Ta  Ta2  1  0.531492  0.554169  0.680564  1
  Ta  Ta3  1  0.468508  0.445831  0.319436  1
  Ag  Ag4  1  0.788650  0.942710  0.861678  1
  Ag  Ag5  1  0.211350  0.057290  0.138322  1
  Se  Se6  1  0.331964  0.827965  0.585783  1
  Se  Se7  1  0.668036  0.172035  0.414217  1
  Se  Se8  1  0.279248  0.711145  0.986085  1
  Se  Se9  1  0.720752  0.288855  0.013915  1
  O  O10  1  0.639872  0.874218  0.486539  1
  O  O11  1  0.360128  0.125782  0.513461  1
  O  O12  1  0.319031  0.980704  0.697962  1
  O  O13  1  0.680969  0.019296  0.302038  1
  O  O14  1  0.597927  0.762895  0.672872  1
  O  O15  1  0.402073  0.237105  0.327128  1
  O  O16  1  0.564528  0.642321  0.873559  1
  O  O17  1  0.435472  0.357679  0.126441  1
  O  O18  1  0.600482  0.762278  0.109935  1
  O  O19  1  0.399518  0.237722  0.890065  1
  O  O20  1  0.250278  0.864093  0.961763  1
  O  O21  1  0.749722  0.135907  0.038237  1
  O  O22  1  0.883454  0.178766  0.705207  1
  O  O23  1  0.116546  0.821234  0.294793  1
  O  O24  1  0.457879  0.373834  0.697084  1
  O  O25  1  0.542121  0.626166  0.302916  1
  O  O26  1  0.500000  0.500000  0.500000  1
  O  O27  1  0.027484  0.574682  0.692697  1
  O  O28  1  0.972516  0.425318  0.307303  1
