# generated using pymatgen
data_Tb5NdRh18
_symmetry_space_group_name_H-M   'P 1'
_cell_length_a   5.29662201
_cell_length_b   5.29689990
_cell_length_c   17.53158500
_cell_angle_alpha   90.00000000
_cell_angle_beta   90.00000000
_cell_angle_gamma   120.00588176
_symmetry_Int_Tables_number   1
_chemical_formula_structural   Tb5NdRh18
_chemical_formula_sum   'Tb5 Nd1 Rh18'
_cell_volume   425.93842142
_cell_formula_units_Z   1
loop_
 _symmetry_equiv_pos_site_id
 _symmetry_equiv_pos_as_xyz
  1  'x, y, z'
loop_
 _atom_site_type_symbol
 _atom_site_label
 _atom_site_symmetry_multiplicity
 _atom_site_fract_x
 _atom_site_fract_y
 _atom_site_fract_z
 _atom_site_occupancy
  Tb  Tb0  1  0.333339  0.666666  0.542380  1
  Tb  Tb1  1  0.666662  0.333335  0.041598  1
  Tb  Tb2  1  0.666662  0.333335  0.458402  1
  Tb  Tb3  1  0.333339  0.666666  0.957620  1
  Tb  Tb4  1  0.333336  0.666664  0.750000  1
  Nd  Nd5  1  0.666669  0.333334  0.250000  1
  Rh  Rh6  1  0.167312  0.334624  0.125378  1
  Rh  Rh7  1  0.832657  0.665303  0.626199  1
  Rh  Rh8  1  0.665372  0.832690  0.125378  1
  Rh  Rh9  1  0.167310  0.832691  0.125382  1
  Rh  Rh10  1  0.832650  0.167345  0.626200  1
  Rh  Rh11  1  0.334699  0.167350  0.626197  1
  Rh  Rh12  1  0.832657  0.665303  0.873801  1
  Rh  Rh13  1  0.832650  0.167345  0.873800  1
  Rh  Rh14  1  0.334699  0.167350  0.873803  1
  Rh  Rh15  1  0.665372  0.832690  0.374622  1
  Rh  Rh16  1  0.167310  0.832691  0.374618  1
  Rh  Rh17  1  0.167312  0.334624  0.374622  1
  Rh  Rh18  1  0.000002  0.000005  0.250000  1
  Rh  Rh19  1  0.999997  0.999997  0.750000  1
  Rh  Rh20  1  0.333323  0.666658  0.250000  1
  Rh  Rh21  1  0.666663  0.333331  0.750000  1
  Rh  Rh22  1  0.000005  0.000001  0.999657  1
  Rh  Rh23  1  0.000005  0.000001  0.500343  1
