# generated using pymatgen
data_SrTe19
_symmetry_space_group_name_H-M   'P 1'
_cell_length_a   8.01800484
_cell_length_b   9.02478963
_cell_length_c   10.16484400
_cell_angle_alpha   104.08862850
_cell_angle_beta   97.23290686
_cell_angle_gamma   106.97193268
_symmetry_Int_Tables_number   1
_chemical_formula_structural   SrTe19
_chemical_formula_sum   'Sr1 Te19'
_cell_volume   666.78472118
_cell_formula_units_Z   1
loop_
 _symmetry_equiv_pos_site_id
 _symmetry_equiv_pos_as_xyz
  1  'x, y, z'
loop_
 _atom_site_type_symbol
 _atom_site_label
 _atom_site_symmetry_multiplicity
 _atom_site_fract_x
 _atom_site_fract_y
 _atom_site_fract_z
 _atom_site_occupancy
  Sr  Sr0  1  0.000000  0.500000  0.000000  1
  Te  Te1  1  0.778625  0.582413  0.619901  1
  Te  Te2  1  0.649530  0.208130  0.210670  1
  Te  Te3  1  0.350470  0.791870  0.789330  1
  Te  Te4  1  0.598787  0.687973  0.195367  1
  Te  Te5  1  0.221375  0.417587  0.380099  1
  Te  Te6  1  0.401213  0.312027  0.804633  1
  Te  Te7  1  0.000000  0.000000  0.000000  1
  Te  Te8  1  0.199548  0.912195  0.393558  1
  Te  Te9  1  0.800452  0.087805  0.606442  1
  Te  Te10  1  0.681716  0.636456  0.898786  1
  Te  Te11  1  0.518864  0.258156  0.501433  1
  Te  Te12  1  0.701420  0.133325  0.904038  1
  Te  Te13  1  0.298580  0.866675  0.095962  1
  Te  Te14  1  0.481136  0.741844  0.498567  1
  Te  Te15  1  0.097477  0.465649  0.697021  1
  Te  Te16  1  0.318284  0.363544  0.101214  1
  Te  Te17  1  0.914205  0.038655  0.299728  1
  Te  Te18  1  0.085795  0.961345  0.700272  1
  Te  Te19  1  0.902523  0.534351  0.302979  1
