# generated using pymatgen
data_Hf3ZnSn2
_symmetry_space_group_name_H-M   'P 1'
_cell_length_a   5.77045300
_cell_length_b   8.89669500
_cell_length_c   9.67232700
_cell_angle_alpha   90.00000000
_cell_angle_beta   90.00000000
_cell_angle_gamma   90.00000000
_symmetry_Int_Tables_number   1
_chemical_formula_structural   Hf3ZnSn2
_chemical_formula_sum   'Hf12 Zn4 Sn8'
_cell_volume   496.55754005
_cell_formula_units_Z   4
loop_
 _symmetry_equiv_pos_site_id
 _symmetry_equiv_pos_as_xyz
  1  'x, y, z'
loop_
 _atom_site_type_symbol
 _atom_site_label
 _atom_site_symmetry_multiplicity
 _atom_site_fract_x
 _atom_site_fract_y
 _atom_site_fract_z
 _atom_site_occupancy
  Hf  Hf0  1  0.000000  0.750000  0.113375  1
  Hf  Hf1  1  0.500000  0.250000  0.886625  1
  Hf  Hf2  1  0.000000  0.250000  0.886625  1
  Hf  Hf3  1  0.500000  0.750000  0.113375  1
  Hf  Hf4  1  0.750000  0.475160  0.622757  1
  Hf  Hf5  1  0.250000  0.524840  0.377243  1
  Hf  Hf6  1  0.750000  0.975160  0.377243  1
  Hf  Hf7  1  0.250000  0.024840  0.622757  1
  Hf  Hf8  1  0.750000  0.364002  0.187022  1
  Hf  Hf9  1  0.250000  0.635998  0.812978  1
  Hf  Hf10  1  0.750000  0.864002  0.812978  1
  Hf  Hf11  1  0.250000  0.135998  0.187022  1
  Zn  Zn12  1  0.000000  0.750000  0.581243  1
  Zn  Zn13  1  0.500000  0.250000  0.418757  1
  Zn  Zn14  1  0.000000  0.250000  0.418757  1
  Zn  Zn15  1  0.500000  0.750000  0.581243  1
  Sn  Sn16  1  0.750000  0.047227  0.081585  1
  Sn  Sn17  1  0.250000  0.952773  0.918415  1
  Sn  Sn18  1  0.750000  0.547227  0.918415  1
  Sn  Sn19  1  0.250000  0.452773  0.081585  1
  Sn  Sn20  1  0.750000  0.132301  0.642702  1
  Sn  Sn21  1  0.250000  0.867699  0.357298  1
  Sn  Sn22  1  0.750000  0.632301  0.357298  1
  Sn  Sn23  1  0.250000  0.367699  0.642702  1
