# generated using pymatgen
data_In(BiO3)2
_symmetry_space_group_name_H-M   'P 1'
_cell_length_a   5.06516200
_cell_length_b   5.06516200
_cell_length_c   10.29257700
_cell_angle_alpha   90.00000000
_cell_angle_beta   90.00000000
_cell_angle_gamma   90.00000000
_symmetry_Int_Tables_number   1
_chemical_formula_structural   In(BiO3)2
_chemical_formula_sum   'In2 Bi4 O12'
_cell_volume   264.06497719
_cell_formula_units_Z   2
loop_
 _symmetry_equiv_pos_site_id
 _symmetry_equiv_pos_as_xyz
  1  'x, y, z'
loop_
 _atom_site_type_symbol
 _atom_site_label
 _atom_site_symmetry_multiplicity
 _atom_site_fract_x
 _atom_site_fract_y
 _atom_site_fract_z
 _atom_site_occupancy
  In  In0  1  0.000000  0.000000  0.000000  1
  In  In1  1  0.500000  0.500000  0.500000  1
  Bi  Bi2  1  0.500000  0.500000  0.833006  1
  Bi  Bi3  1  0.000000  0.000000  0.333006  1
  Bi  Bi4  1  0.500000  0.500000  0.166994  1
  Bi  Bi5  1  0.000000  0.000000  0.666994  1
  O  O6  1  0.693016  0.693016  0.667327  1
  O  O7  1  0.306984  0.306984  0.667327  1
  O  O8  1  0.693016  0.693016  0.332673  1
  O  O9  1  0.193016  0.806984  0.167327  1
  O  O10  1  0.806984  0.193016  0.167327  1
  O  O11  1  0.806984  0.193016  0.832673  1
  O  O12  1  0.306983  0.306983  0.000000  1
  O  O13  1  0.193017  0.806983  0.500000  1
  O  O14  1  0.806983  0.193017  0.500000  1
  O  O15  1  0.693017  0.693017  0.000000  1
  O  O16  1  0.306984  0.306984  0.332673  1
  O  O17  1  0.193016  0.806984  0.832673  1
