# generated using pymatgen
data_TmLu(NbSe2)8
_symmetry_space_group_name_H-M   'P 1'
_cell_length_a   7.01634000
_cell_length_b   7.01634028
_cell_length_c   14.13873600
_cell_angle_alpha   90.00000000
_cell_angle_beta   90.00000000
_cell_angle_gamma   119.99999870
_symmetry_Int_Tables_number   1
_chemical_formula_structural   TmLu(NbSe2)8
_chemical_formula_sum   'Tm1 Lu1 Nb8 Se16'
_cell_volume   602.78507679
_cell_formula_units_Z   1
loop_
 _symmetry_equiv_pos_site_id
 _symmetry_equiv_pos_as_xyz
  1  'x, y, z'
loop_
 _atom_site_type_symbol
 _atom_site_label
 _atom_site_symmetry_multiplicity
 _atom_site_fract_x
 _atom_site_fract_y
 _atom_site_fract_z
 _atom_site_occupancy
  Tm  Tm0  1  0.000000  0.000000  0.500000  1
  Lu  Lu1  1  0.000000  0.000000  0.000000  1
  Nb  Nb2  1  0.000000  0.000000  0.247533  1
  Nb  Nb3  1  0.000000  0.000000  0.752467  1
  Nb  Nb4  1  0.506328  0.012657  0.247306  1
  Nb  Nb5  1  0.987343  0.493672  0.247306  1
  Nb  Nb6  1  0.506328  0.493672  0.247306  1
  Nb  Nb7  1  0.493672  0.987343  0.752694  1
  Nb  Nb8  1  0.012657  0.506328  0.752694  1
  Nb  Nb9  1  0.493672  0.506328  0.752694  1
  Se  Se10  1  0.333333  0.666667  0.874253  1
  Se  Se11  1  0.666667  0.333333  0.125747  1
  Se  Se12  1  0.666667  0.333333  0.368726  1
  Se  Se13  1  0.333333  0.666667  0.631274  1
  Se  Se14  1  0.169148  0.830852  0.365305  1
  Se  Se15  1  0.169148  0.338296  0.365305  1
  Se  Se16  1  0.661704  0.830852  0.365305  1
  Se  Se17  1  0.830852  0.169148  0.634695  1
  Se  Se18  1  0.830852  0.661704  0.634695  1
  Se  Se19  1  0.338296  0.169148  0.634695  1
  Se  Se20  1  0.830229  0.169771  0.870256  1
  Se  Se21  1  0.830229  0.660459  0.870256  1
  Se  Se22  1  0.339541  0.169771  0.870256  1
  Se  Se23  1  0.169771  0.830229  0.129744  1
  Se  Se24  1  0.169771  0.339541  0.129744  1
  Se  Se25  1  0.660459  0.830229  0.129744  1
