# generated using pymatgen
data_Tb4Rh2Pb5
_symmetry_space_group_name_H-M   'P 1'
_cell_length_a   8.03099573
_cell_length_b   3.70176500
_cell_length_c   9.79265356
_cell_angle_alpha   90.00000000
_cell_angle_beta   93.92956613
_cell_angle_gamma   90.00000000
_symmetry_Int_Tables_number   1
_chemical_formula_structural   Tb4Rh2Pb5
_chemical_formula_sum   'Tb4 Rh2 Pb5'
_cell_volume   290.43999663
_cell_formula_units_Z   1
loop_
 _symmetry_equiv_pos_site_id
 _symmetry_equiv_pos_as_xyz
  1  'x, y, z'
loop_
 _atom_site_type_symbol
 _atom_site_label
 _atom_site_symmetry_multiplicity
 _atom_site_fract_x
 _atom_site_fract_y
 _atom_site_fract_z
 _atom_site_occupancy
  Tb  Tb0  1  0.304443  0.500000  0.160868  1
  Tb  Tb1  1  0.702004  0.500000  0.432115  1
  Tb  Tb2  1  0.297997  0.500000  0.567886  1
  Tb  Tb3  1  0.695556  0.500000  0.839132  1
  Rh  Rh4  1  0.418860  0.000000  0.363858  1
  Rh  Rh5  1  0.581140  0.000000  0.636142  1
  Pb  Pb6  1  0.000000  0.000000  0.000000  1
  Pb  Pb7  1  0.644181  0.000000  0.135957  1
  Pb  Pb8  1  0.042344  0.000000  0.336894  1
  Pb  Pb9  1  0.957657  0.000000  0.663106  1
  Pb  Pb10  1  0.355819  0.000000  0.864043  1
