# generated using pymatgen
data_Sc7U(Si4Mo3)4
_symmetry_space_group_name_H-M   'P 1'
_cell_length_a   6.59647367
_cell_length_b   6.79539511
_cell_length_c   12.72120446
_cell_angle_alpha   89.81825519
_cell_angle_beta   90.09817516
_cell_angle_gamma   90.27260675
_symmetry_Int_Tables_number   1
_chemical_formula_structural   Sc7U(Si4Mo3)4
_chemical_formula_sum   'Sc7 U1 Si16 Mo12'
_cell_volume   570.22604901
_cell_formula_units_Z   1
loop_
 _symmetry_equiv_pos_site_id
 _symmetry_equiv_pos_as_xyz
  1  'x, y, z'
loop_
 _atom_site_type_symbol
 _atom_site_label
 _atom_site_symmetry_multiplicity
 _atom_site_fract_x
 _atom_site_fract_y
 _atom_site_fract_z
 _atom_site_occupancy
  Sc  Sc0  1  0.995520  0.169837  0.409616  1
  Sc  Sc1  1  0.503502  0.669748  0.593085  1
  Sc  Sc2  1  0.003500  0.829782  0.905135  1
  Sc  Sc3  1  0.505656  0.667189  0.906271  1
  Sc  Sc4  1  0.003706  0.830854  0.593047  1
  Sc  Sc5  1  0.494943  0.330628  0.407554  1
  Sc  Sc6  1  0.995970  0.169982  0.091729  1
  U  U7  1  0.493938  0.329587  0.095965  1
  Si  Si8  1  0.665031  0.036779  0.545119  1
  Si  Si9  1  0.162936  0.462865  0.953473  1
  Si  Si10  1  0.332870  0.955257  0.042813  1
  Si  Si11  1  0.834283  0.537376  0.455534  1
  Si  Si12  1  0.335922  0.963534  0.455528  1
  Si  Si13  1  0.838238  0.542616  0.042522  1
  Si  Si14  1  0.667958  0.034410  0.954635  1
  Si  Si15  1  0.164055  0.463563  0.544836  1
  Si  Si16  1  0.533482  0.376285  0.749158  1
  Si  Si17  1  0.032890  0.123594  0.749505  1
  Si  Si18  1  0.465502  0.628287  0.252706  1
  Si  Si19  1  0.968612  0.875657  0.248824  1
  Si  Si20  1  0.800424  0.640005  0.749247  1
  Si  Si21  1  0.299872  0.859857  0.749443  1
  Si  Si22  1  0.193411  0.361612  0.253696  1
  Si  Si23  1  0.705907  0.135620  0.253384  1
  Mo  Mo24  1  0.828918  0.335096  0.623754  1
  Mo  Mo25  1  0.331440  0.166785  0.876235  1
  Mo  Mo26  1  0.172414  0.659593  0.125011  1
  Mo  Mo27  1  0.670659  0.834472  0.376822  1
  Mo  Mo28  1  0.167964  0.668466  0.376819  1
  Mo  Mo29  1  0.671622  0.837437  0.124525  1
  Mo  Mo30  1  0.830088  0.335463  0.875064  1
  Mo  Mo31  1  0.331369  0.165792  0.623606  1
  Mo  Mo32  1  0.664554  0.994117  0.750235  1
  Mo  Mo33  1  0.165722  0.504121  0.748996  1
  Mo  Mo34  1  0.336063  0.009025  0.247364  1
  Mo  Mo35  1  0.831056  0.494709  0.248737  1
