# generated using pymatgen
data_Ho7Lu13ZnBi11
_symmetry_space_group_name_H-M   'P 1'
_cell_length_a   8.09365854
_cell_length_b   9.35492400
_cell_length_c   11.82636500
_cell_angle_alpha   90.00000000
_cell_angle_beta   89.73352066
_cell_angle_gamma   90.00000000
_symmetry_Int_Tables_number   1
_chemical_formula_structural   Ho7Lu13ZnBi11
_chemical_formula_sum   'Ho7 Lu13 Zn1 Bi11'
_cell_volume   895.43016997
_cell_formula_units_Z   1
loop_
 _symmetry_equiv_pos_site_id
 _symmetry_equiv_pos_as_xyz
  1  'x, y, z'
loop_
 _atom_site_type_symbol
 _atom_site_label
 _atom_site_symmetry_multiplicity
 _atom_site_fract_x
 _atom_site_fract_y
 _atom_site_fract_z
 _atom_site_occupancy
  Ho  Ho0  1  0.648776  0.750000  0.716421  1
  Ho  Ho1  1  0.150228  0.750000  0.782353  1
  Ho  Ho2  1  0.852097  0.250000  0.215797  1
  Ho  Ho3  1  0.191757  0.250000  0.778868  1
  Ho  Ho4  1  0.809649  0.750000  0.217513  1
  Ho  Ho5  1  0.312904  0.750000  0.281203  1
  Ho  Ho6  1  0.674662  0.250000  0.710398  1
  Lu  Lu7  1  0.036859  0.250000  0.508435  1
  Lu  Lu8  1  0.981082  0.750000  0.490384  1
  Lu  Lu9  1  0.476501  0.750000  0.010174  1
  Lu  Lu10  1  0.524337  0.250000  0.989971  1
  Lu  Lu11  1  0.356430  0.250000  0.295233  1
  Lu  Lu12  1  0.193495  0.067016  0.061603  1
  Lu  Lu13  1  0.806749  0.933650  0.940664  1
  Lu  Lu14  1  0.309553  0.952431  0.558517  1
  Lu  Lu15  1  0.806749  0.566350  0.940664  1
  Lu  Lu16  1  0.683342  0.072630  0.445536  1
  Lu  Lu17  1  0.193495  0.432984  0.061603  1
  Lu  Lu18  1  0.683342  0.427370  0.445536  1
  Lu  Lu19  1  0.309553  0.547569  0.558517  1
  Zn  Zn20  1  0.405810  0.250000  0.538254  1
  Bi  Bi21  1  0.595952  0.750000  0.457195  1
  Bi  Bi22  1  0.096514  0.750000  0.042900  1
  Bi  Bi23  1  0.905043  0.250000  0.953994  1
  Bi  Bi24  1  0.062318  0.002896  0.324876  1
  Bi  Bi25  1  0.936064  0.997711  0.674357  1
  Bi  Bi26  1  0.436069  0.996557  0.825980  1
  Bi  Bi27  1  0.936064  0.502289  0.674357  1
  Bi  Bi28  1  0.563109  0.004995  0.173922  1
  Bi  Bi29  1  0.062318  0.497104  0.324876  1
  Bi  Bi30  1  0.563109  0.495005  0.173922  1
  Bi  Bi31  1  0.436069  0.503443  0.825980  1
