# generated using pymatgen
data_Dy10TcNiSb4
_symmetry_space_group_name_H-M   'P 1'
_cell_length_a   7.88769200
_cell_length_b   8.84250400
_cell_length_c   12.18229200
_cell_angle_alpha   90.00000000
_cell_angle_beta   90.00000000
_cell_angle_gamma   90.00000000
_symmetry_Int_Tables_number   1
_chemical_formula_structural   Dy10TcNiSb4
_chemical_formula_sum   'Dy20 Tc2 Ni2 Sb8'
_cell_volume   849.67768739
_cell_formula_units_Z   2
loop_
 _symmetry_equiv_pos_site_id
 _symmetry_equiv_pos_as_xyz
  1  'x, y, z'
loop_
 _atom_site_type_symbol
 _atom_site_label
 _atom_site_symmetry_multiplicity
 _atom_site_fract_x
 _atom_site_fract_y
 _atom_site_fract_z
 _atom_site_occupancy
  Dy  Dy0  1  0.321984  0.539570  0.435398  1
  Dy  Dy1  1  0.873122  0.250000  0.803016  1
  Dy  Dy2  1  0.178016  0.539570  0.935398  1
  Dy  Dy3  1  0.321984  0.960430  0.435398  1
  Dy  Dy4  1  0.125538  0.750000  0.198973  1
  Dy  Dy5  1  0.839358  0.750000  0.786729  1
  Dy  Dy6  1  0.374462  0.750000  0.698973  1
  Dy  Dy7  1  0.951426  0.750000  0.501863  1
  Dy  Dy8  1  0.453870  0.250000  0.997168  1
  Dy  Dy9  1  0.681578  0.457049  0.566696  1
  Dy  Dy10  1  0.818422  0.042951  0.066696  1
  Dy  Dy11  1  0.660642  0.750000  0.286729  1
  Dy  Dy12  1  0.548574  0.750000  0.001863  1
  Dy  Dy13  1  0.046130  0.250000  0.497168  1
  Dy  Dy14  1  0.681578  0.042951  0.566696  1
  Dy  Dy15  1  0.178016  0.960430  0.935398  1
  Dy  Dy16  1  0.626878  0.250000  0.303016  1
  Dy  Dy17  1  0.341305  0.250000  0.707354  1
  Dy  Dy18  1  0.818422  0.457049  0.066696  1
  Dy  Dy19  1  0.158695  0.250000  0.207354  1
  Tc  Tc20  1  0.920370  0.750000  0.013877  1
  Tc  Tc21  1  0.579630  0.750000  0.513877  1
  Ni  Ni22  1  0.078116  0.250000  0.985752  1
  Ni  Ni23  1  0.421884  0.250000  0.485752  1
  Sb  Sb24  1  0.928809  0.490784  0.328170  1
  Sb  Sb25  1  0.427637  0.506934  0.172370  1
  Sb  Sb26  1  0.427637  0.993066  0.172370  1
  Sb  Sb27  1  0.571191  0.490784  0.828170  1
  Sb  Sb28  1  0.072363  0.506934  0.672370  1
  Sb  Sb29  1  0.571191  0.009216  0.828170  1
  Sb  Sb30  1  0.928809  0.009216  0.328170  1
  Sb  Sb31  1  0.072363  0.993066  0.672370  1
