# generated using pymatgen
data_Ho3PtRh8
_symmetry_space_group_name_H-M   'P 1'
_cell_length_a   5.26780120
_cell_length_b   5.26780054
_cell_length_c   9.34496177
_cell_angle_alpha   106.68702438
_cell_angle_beta   106.68702244
_cell_angle_gamma   59.95106728
_symmetry_Int_Tables_number   1
_chemical_formula_structural   Ho3PtRh8
_chemical_formula_sum   'Ho3 Pt1 Rh8'
_cell_volume   211.77589373
_cell_formula_units_Z   1
loop_
 _symmetry_equiv_pos_site_id
 _symmetry_equiv_pos_as_xyz
  1  'x, y, z'
loop_
 _atom_site_type_symbol
 _atom_site_label
 _atom_site_symmetry_multiplicity
 _atom_site_fract_x
 _atom_site_fract_y
 _atom_site_fract_z
 _atom_site_occupancy
  Ho  Ho0  1  0.000000  0.000000  0.000000  1
  Ho  Ho1  1  0.138717  0.138717  0.414913  1
  Ho  Ho2  1  0.861282  0.861282  0.585087  1
  Pt  Pt3  1  0.500000  0.500000  0.500000  1
  Rh  Rh4  1  0.665994  0.665994  0.000788  1
  Rh  Rh5  1  0.582666  0.081271  0.246700  1
  Rh  Rh6  1  0.081271  0.582666  0.246700  1
  Rh  Rh7  1  0.584603  0.584603  0.247864  1
  Rh  Rh8  1  0.415398  0.415398  0.752136  1
  Rh  Rh9  1  0.918730  0.417334  0.753300  1
  Rh  Rh10  1  0.417334  0.918730  0.753300  1
  Rh  Rh11  1  0.334005  0.334005  0.999211  1
