# generated using pymatgen
data_YHo2Zn3PdPt2
_symmetry_space_group_name_H-M   'P 1'
_cell_length_a   7.33591794
_cell_length_b   7.33591769
_cell_length_c   3.81619900
_cell_angle_alpha   90.00000000
_cell_angle_beta   90.00000000
_cell_angle_gamma   120.32185574
_symmetry_Int_Tables_number   1
_chemical_formula_structural   YHo2Zn3PdPt2
_chemical_formula_sum   'Y1 Ho2 Zn3 Pd1 Pt2'
_cell_volume   177.27720077
_cell_formula_units_Z   1
loop_
 _symmetry_equiv_pos_site_id
 _symmetry_equiv_pos_as_xyz
  1  'x, y, z'
loop_
 _atom_site_type_symbol
 _atom_site_label
 _atom_site_symmetry_multiplicity
 _atom_site_fract_x
 _atom_site_fract_y
 _atom_site_fract_z
 _atom_site_occupancy
  Y  Y0  1  0.408259  0.408259  0.000000  1
  Ho  Ho1  1  0.592374  0.000161  0.000000  1
  Ho  Ho2  1  0.000161  0.592374  0.000000  1
  Zn  Zn3  1  0.747194  0.747194  0.500000  1
  Zn  Zn4  1  0.252735  0.999588  0.500000  1
  Zn  Zn5  1  0.999588  0.252735  0.500000  1
  Pd  Pd6  1  0.998396  0.998396  0.000000  1
  Pt  Pt7  1  0.668669  0.332623  0.500000  1
  Pt  Pt8  1  0.332623  0.668669  0.500000  1
