# generated using pymatgen
data_La7Ce(CdCo)2
_symmetry_space_group_name_H-M   'P 1'
_cell_length_a   9.90372461
_cell_length_b   9.90372518
_cell_length_c   10.04100100
_cell_angle_alpha   59.54041510
_cell_angle_beta   59.54041316
_cell_angle_gamma   60.32821107
_symmetry_Int_Tables_number   1
_chemical_formula_structural   La7Ce(CdCo)2
_chemical_formula_sum   'La14 Ce2 Cd4 Co4'
_cell_volume   693.19816123
_cell_formula_units_Z   2
loop_
 _symmetry_equiv_pos_site_id
 _symmetry_equiv_pos_as_xyz
  1  'x, y, z'
loop_
 _atom_site_type_symbol
 _atom_site_label
 _atom_site_symmetry_multiplicity
 _atom_site_fract_x
 _atom_site_fract_y
 _atom_site_fract_z
 _atom_site_occupancy
  La  La0  1  0.599287  0.214212  0.593250  1
  La  La1  1  0.214212  0.599287  0.593250  1
  La  La2  1  0.052190  0.439230  0.444230  1
  La  La3  1  0.439230  0.052190  0.064350  1
  La  La4  1  0.439230  0.052190  0.444230  1
  La  La5  1  0.052190  0.439230  0.064350  1
  La  La6  1  0.438705  0.438705  0.061295  1
  La  La7  1  0.054231  0.054231  0.445769  1
  La  La8  1  0.197560  0.801314  0.815187  1
  La  La9  1  0.801314  0.197560  0.185938  1
  La  La10  1  0.801314  0.197560  0.815187  1
  La  La11  1  0.197560  0.801314  0.185938  1
  La  La12  1  0.803962  0.803962  0.196038  1
  La  La13  1  0.185236  0.185236  0.814764  1
  Ce  Ce14  1  0.587318  0.587318  0.595840  1
  Ce  Ce15  1  0.587318  0.587318  0.229524  1
  Cd  Cd16  1  0.827054  0.827054  0.832767  1
  Cd  Cd17  1  0.827054  0.827054  0.513124  1
  Cd  Cd18  1  0.826361  0.516476  0.828581  1
  Cd  Cd19  1  0.516476  0.826361  0.828581  1
  Co  Co20  1  0.410734  0.410734  0.364204  1
  Co  Co21  1  0.410734  0.410734  0.814331  1
  Co  Co22  1  0.415401  0.815327  0.384637  1
  Co  Co23  1  0.815327  0.415401  0.384637  1
