# generated using pymatgen
data_Y2ErIn3CoAu2
_symmetry_space_group_name_H-M   'P 1'
_cell_length_a   7.69269198
_cell_length_b   7.71619534
_cell_length_c   3.86430600
_cell_angle_alpha   90.00000000
_cell_angle_beta   90.00000000
_cell_angle_gamma   120.10112543
_symmetry_Int_Tables_number   1
_chemical_formula_structural   Y2ErIn3CoAu2
_chemical_formula_sum   'Y2 Er1 In3 Co1 Au2'
_cell_volume   198.44503913
_cell_formula_units_Z   1
loop_
 _symmetry_equiv_pos_site_id
 _symmetry_equiv_pos_as_xyz
  1  'x, y, z'
loop_
 _atom_site_type_symbol
 _atom_site_label
 _atom_site_symmetry_multiplicity
 _atom_site_fract_x
 _atom_site_fract_y
 _atom_site_fract_z
 _atom_site_occupancy
  Y  Y0  1  0.600272  0.000092  0.500000  1
  Y  Y1  1  0.399728  0.399821  0.500000  1
  Er  Er2  1  0.000000  0.600364  0.500000  1
  In  In3  1  0.000000  0.246439  0.000000  1
  In  In4  1  0.245829  0.999269  0.000000  1
  In  In5  1  0.754171  0.753440  0.000000  1
  Co  Co6  1  0.000000  0.999191  0.500000  1
  Au  Au7  1  0.669015  0.335200  0.000000  1
  Au  Au8  1  0.330985  0.666186  0.000000  1
