# generated using pymatgen
data_GaAs3Rh4
_symmetry_space_group_name_H-M   'P 1'
_cell_length_a   3.62346800
_cell_length_b   5.62261143
_cell_length_c   6.23841729
_cell_angle_alpha   89.93095771
_cell_angle_beta   90.00000000
_cell_angle_gamma   90.00000000
_symmetry_Int_Tables_number   1
_chemical_formula_structural   GaAs3Rh4
_chemical_formula_sum   'Ga1 As3 Rh4'
_cell_volume   127.09738292
_cell_formula_units_Z   1
loop_
 _symmetry_equiv_pos_site_id
 _symmetry_equiv_pos_as_xyz
  1  'x, y, z'
loop_
 _atom_site_type_symbol
 _atom_site_label
 _atom_site_symmetry_multiplicity
 _atom_site_fract_x
 _atom_site_fract_y
 _atom_site_fract_z
 _atom_site_occupancy
  Ga  Ga0  1  0.750000  0.805111  0.583183  1
  As  As1  1  0.250000  0.698878  0.083177  1
  As  As2  1  0.250000  0.184968  0.424625  1
  As  As3  1  0.750000  0.304979  0.912234  1
  Rh  Rh4  1  0.750000  0.497325  0.291847  1
  Rh  Rh5  1  0.750000  0.001938  0.196222  1
  Rh  Rh6  1  0.250000  0.498522  0.703231  1
  Rh  Rh7  1  0.250000  0.008278  0.805479  1
