# generated using pymatgen
data_Pr2Zn2SiGeRh4
_symmetry_space_group_name_H-M   'P 1'
_cell_length_a   4.13762700
_cell_length_b   4.13762700
_cell_length_c   10.70919000
_cell_angle_alpha   90.00000000
_cell_angle_beta   90.00000000
_cell_angle_gamma   90.00000000
_symmetry_Int_Tables_number   1
_chemical_formula_structural   Pr2Zn2SiGeRh4
_chemical_formula_sum   'Pr2 Zn2 Si1 Ge1 Rh4'
_cell_volume   183.34087435
_cell_formula_units_Z   1
loop_
 _symmetry_equiv_pos_site_id
 _symmetry_equiv_pos_as_xyz
  1  'x, y, z'
loop_
 _atom_site_type_symbol
 _atom_site_label
 _atom_site_symmetry_multiplicity
 _atom_site_fract_x
 _atom_site_fract_y
 _atom_site_fract_z
 _atom_site_occupancy
  Pr  Pr0  1  0.000000  0.500000  0.248553  1
  Pr  Pr1  1  0.500000  0.000000  0.750162  1
  Zn  Zn2  1  0.000000  0.000000  0.502442  1
  Zn  Zn3  1  0.500000  0.500000  0.502442  1
  Si  Si4  1  0.000000  0.500000  0.878027  1
  Ge  Ge5  1  0.500000  0.000000  0.123163  1
  Rh  Rh6  1  0.000000  0.000000  0.993116  1
  Rh  Rh7  1  0.500000  0.500000  0.993116  1
  Rh  Rh8  1  0.000000  0.500000  0.652196  1
  Rh  Rh9  1  0.500000  0.000000  0.356782  1
