# generated using pymatgen
data_Tb3Dy(Sc3Sn4)2
_symmetry_space_group_name_H-M   'P 1'
_cell_length_a   7.70134809
_cell_length_b   7.95510868
_cell_length_c   14.85204700
_cell_angle_alpha   89.95519394
_cell_angle_beta   89.99105747
_cell_angle_gamma   90.11931505
_symmetry_Int_Tables_number   1
_chemical_formula_structural   Tb3Dy(Sc3Sn4)2
_chemical_formula_sum   'Tb6 Dy2 Sc12 Sn16'
_cell_volume   909.90930435
_cell_formula_units_Z   2
loop_
 _symmetry_equiv_pos_site_id
 _symmetry_equiv_pos_as_xyz
  1  'x, y, z'
loop_
 _atom_site_type_symbol
 _atom_site_label
 _atom_site_symmetry_multiplicity
 _atom_site_fract_x
 _atom_site_fract_y
 _atom_site_fract_z
 _atom_site_occupancy
  Tb  Tb0  1  0.992916  0.176740  0.094760  1
  Tb  Tb1  1  0.007084  0.823260  0.905240  1
  Tb  Tb2  1  0.506269  0.676608  0.906019  1
  Tb  Tb3  1  0.006419  0.822582  0.593834  1
  Tb  Tb4  1  0.493731  0.323392  0.093981  1
  Tb  Tb5  1  0.993581  0.177418  0.406166  1
  Dy  Dy6  1  0.491845  0.323237  0.406034  1
  Dy  Dy7  1  0.508155  0.676763  0.593966  1
  Sc  Sc8  1  0.167783  0.495932  0.749624  1
  Sc  Sc9  1  0.832217  0.504068  0.250376  1
  Sc  Sc10  1  0.332417  0.995432  0.250200  1
  Sc  Sc11  1  0.667583  0.004568  0.749800  1
  Sc  Sc12  1  0.339126  0.161578  0.627456  1
  Sc  Sc13  1  0.660874  0.838422  0.372544  1
  Sc  Sc14  1  0.160828  0.660348  0.373072  1
  Sc  Sc15  1  0.661209  0.839201  0.127816  1
  Sc  Sc16  1  0.839172  0.339652  0.626928  1
  Sc  Sc17  1  0.338791  0.160799  0.872184  1
  Sc  Sc18  1  0.838455  0.338707  0.872575  1
  Sc  Sc19  1  0.161545  0.661293  0.127425  1
  Sn  Sn20  1  0.030067  0.124828  0.749621  1
  Sn  Sn21  1  0.969933  0.875172  0.250379  1
  Sn  Sn22  1  0.469421  0.624217  0.249997  1
  Sn  Sn23  1  0.530579  0.375783  0.750003  1
  Sn  Sn24  1  0.310882  0.849526  0.749283  1
  Sn  Sn25  1  0.689118  0.150474  0.250717  1
  Sn  Sn26  1  0.190654  0.350026  0.250282  1
  Sn  Sn27  1  0.809346  0.649974  0.749718  1
  Sn  Sn28  1  0.184054  0.457396  0.542593  1
  Sn  Sn29  1  0.815946  0.542604  0.457407  1
  Sn  Sn30  1  0.319238  0.957213  0.457435  1
  Sn  Sn31  1  0.819181  0.543557  0.042657  1
  Sn  Sn32  1  0.680762  0.042787  0.542565  1
  Sn  Sn33  1  0.180819  0.456443  0.957343  1
  Sn  Sn34  1  0.681433  0.042541  0.957511  1
  Sn  Sn35  1  0.318567  0.957459  0.042489  1
