# generated using pymatgen
data_Yb2Th3Si3C
_symmetry_space_group_name_H-M   'P 1'
_cell_length_a   8.83203500
_cell_length_b   8.83203503
_cell_length_c   6.35172500
_cell_angle_alpha   90.00000000
_cell_angle_beta   90.00000000
_cell_angle_gamma   119.99999614
_symmetry_Int_Tables_number   1
_chemical_formula_structural   Yb2Th3Si3C
_chemical_formula_sum   'Yb4 Th6 Si6 C2'
_cell_volume   429.08556031
_cell_formula_units_Z   2
loop_
 _symmetry_equiv_pos_site_id
 _symmetry_equiv_pos_as_xyz
  1  'x, y, z'
loop_
 _atom_site_type_symbol
 _atom_site_label
 _atom_site_symmetry_multiplicity
 _atom_site_fract_x
 _atom_site_fract_y
 _atom_site_fract_z
 _atom_site_occupancy
  Yb  Yb0  1  0.666667  0.333333  0.000000  1
  Yb  Yb1  1  0.333333  0.666667  0.000000  1
  Yb  Yb2  1  0.333333  0.666667  0.500000  1
  Yb  Yb3  1  0.666667  0.333333  0.500000  1
  Th  Th4  1  0.764957  0.764957  0.750000  1
  Th  Th5  1  0.235043  0.000000  0.750000  1
  Th  Th6  1  0.000000  0.235043  0.750000  1
  Th  Th7  1  0.235043  0.235043  0.250000  1
  Th  Th8  1  0.764957  0.000000  0.250000  1
  Th  Th9  1  0.000000  0.764957  0.250000  1
  Si  Si10  1  0.396610  0.396610  0.750000  1
  Si  Si11  1  0.603390  0.000000  0.750000  1
  Si  Si12  1  0.000000  0.603390  0.750000  1
  Si  Si13  1  0.603390  0.603390  0.250000  1
  Si  Si14  1  0.396610  0.000000  0.250000  1
  Si  Si15  1  0.000000  0.396610  0.250000  1
  C  C16  1  0.000000  0.000000  0.000000  1
  C  C17  1  0.000000  0.000000  0.500000  1
