# generated using pymatgen
data_K4Zr6OsCl18
_symmetry_space_group_name_H-M   'P 1'
_cell_length_a   10.09630644
_cell_length_b   10.26705807
_cell_length_c   10.37957300
_cell_angle_alpha   118.40967912
_cell_angle_beta   100.16286991
_cell_angle_gamma   103.62140041
_symmetry_Int_Tables_number   1
_chemical_formula_structural   K4Zr6OsCl18
_chemical_formula_sum   'K4 Zr6 Os1 Cl18'
_cell_volume   865.78299922
_cell_formula_units_Z   1
loop_
 _symmetry_equiv_pos_site_id
 _symmetry_equiv_pos_as_xyz
  1  'x, y, z'
loop_
 _atom_site_type_symbol
 _atom_site_label
 _atom_site_symmetry_multiplicity
 _atom_site_fract_x
 _atom_site_fract_y
 _atom_site_fract_z
 _atom_site_occupancy
  K  K0  1  0.653063  0.537782  0.227074  1
  K  K1  1  0.346937  0.462218  0.772926  1
  K  K2  1  0.687667  0.225820  0.564651  1
  K  K3  1  0.312333  0.774180  0.435349  1
  Zr  Zr4  1  0.165803  0.062389  0.253673  1
  Zr  Zr5  1  0.834197  0.937611  0.746327  1
  Zr  Zr6  1  0.846267  0.138759  0.145473  1
  Zr  Zr7  1  0.153733  0.861241  0.854527  1
  Zr  Zr8  1  0.158825  0.262364  0.048627  1
  Zr  Zr9  1  0.841175  0.737636  0.951373  1
  Os  Os10  1  0.000000  0.000000  0.000000  1
  Cl  Cl11  1  0.007715  0.413858  0.198912  1
  Cl  Cl12  1  0.992285  0.586142  0.801088  1
  Cl  Cl13  1  0.331165  0.336038  0.312750  1
  Cl  Cl14  1  0.668835  0.663962  0.687250  1
  Cl  Cl15  1  0.332735  0.532124  0.103347  1
  Cl  Cl16  1  0.667265  0.467876  0.896653  1
  Cl  Cl17  1  0.005941  0.794030  0.211829  1
  Cl  Cl18  1  0.994059  0.205970  0.788171  1
  Cl  Cl19  1  0.697144  0.285749  0.298756  1
  Cl  Cl20  1  0.302856  0.714251  0.701244  1
  Cl  Cl21  1  0.319368  0.128096  0.901607  1
  Cl  Cl22  1  0.680632  0.871904  0.098393  1
  Cl  Cl23  1  0.014386  0.206040  0.411977  1
  Cl  Cl24  1  0.985614  0.793960  0.588023  1
  Cl  Cl25  1  0.323379  0.920024  0.110646  1
  Cl  Cl26  1  0.676621  0.079976  0.889354  1
  Cl  Cl27  1  0.343588  0.123769  0.512542  1
  Cl  Cl28  1  0.656412  0.876231  0.487458  1
