# generated using pymatgen
data_LiCu2(Se3I)3
_symmetry_space_group_name_H-M   'P 1'
_cell_length_a   9.64674788
_cell_length_b   9.72075981
_cell_length_c   9.64674794
_cell_angle_alpha   95.92872676
_cell_angle_beta   94.30720656
_cell_angle_gamma   95.92873224
_symmetry_Int_Tables_number   1
_chemical_formula_structural   LiCu2(Se3I)3
_chemical_formula_sum   'Li2 Cu4 Se18 I6'
_cell_volume   891.59018478
_cell_formula_units_Z   2
loop_
 _symmetry_equiv_pos_site_id
 _symmetry_equiv_pos_as_xyz
  1  'x, y, z'
loop_
 _atom_site_type_symbol
 _atom_site_label
 _atom_site_symmetry_multiplicity
 _atom_site_fract_x
 _atom_site_fract_y
 _atom_site_fract_z
 _atom_site_occupancy
  Li  Li0  1  0.890426  0.396602  0.890426  1
  Li  Li1  1  0.109574  0.603398  0.109574  1
  Cu  Cu2  1  0.392134  0.889056  0.889410  1
  Cu  Cu3  1  0.889410  0.889056  0.392134  1
  Cu  Cu4  1  0.607866  0.110944  0.110590  1
  Cu  Cu5  1  0.110590  0.110944  0.607866  1
  Se  Se6  1  0.871696  0.611273  0.608066  1
  Se  Se7  1  0.608066  0.611273  0.871696  1
  Se  Se8  1  0.613244  0.875113  0.613244  1
  Se  Se9  1  0.386756  0.124887  0.386756  1
  Se  Se10  1  0.128304  0.388727  0.391934  1
  Se  Se11  1  0.391934  0.388727  0.128304  1
  Se  Se12  1  0.141718  0.876534  0.877684  1
  Se  Se13  1  0.877684  0.876534  0.141718  1
  Se  Se14  1  0.872297  0.119724  0.872297  1
  Se  Se15  1  0.127703  0.880276  0.127703  1
  Se  Se16  1  0.858282  0.123466  0.122316  1
  Se  Se17  1  0.122316  0.123466  0.858282  1
  Se  Se18  1  0.453826  0.715228  0.715220  1
  Se  Se19  1  0.715220  0.715228  0.453826  1
  Se  Se20  1  0.701983  0.457785  0.701983  1
  Se  Se21  1  0.298017  0.542215  0.298017  1
  Se  Se22  1  0.546174  0.284772  0.284780  1
  Se  Se23  1  0.284780  0.284772  0.546174  1
  I  I24  1  0.146298  0.852964  0.498361  1
  I  I25  1  0.846022  0.500000  0.153978  1
  I  I26  1  0.501639  0.147036  0.853702  1
  I  I27  1  0.853702  0.147036  0.501639  1
  I  I28  1  0.153978  0.500000  0.846022  1
  I  I29  1  0.498361  0.852964  0.146298  1
