# generated using pymatgen
data_Rb4InPCl12
_symmetry_space_group_name_H-M   'P 1'
_cell_length_a   7.32222800
_cell_length_b   7.32222800
_cell_length_c   10.15275900
_cell_angle_alpha   90.00000000
_cell_angle_beta   90.00000000
_cell_angle_gamma   90.00000000
_symmetry_Int_Tables_number   1
_chemical_formula_structural   Rb4InPCl12
_chemical_formula_sum   'Rb4 In1 P1 Cl12'
_cell_volume   544.34040612
_cell_formula_units_Z   1
loop_
 _symmetry_equiv_pos_site_id
 _symmetry_equiv_pos_as_xyz
  1  'x, y, z'
loop_
 _atom_site_type_symbol
 _atom_site_label
 _atom_site_symmetry_multiplicity
 _atom_site_fract_x
 _atom_site_fract_y
 _atom_site_fract_z
 _atom_site_occupancy
  Rb  Rb0  1  0.500000  0.000000  0.776495  1
  Rb  Rb1  1  0.000000  0.500000  0.223505  1
  Rb  Rb2  1  0.500000  0.000000  0.223505  1
  Rb  Rb3  1  0.000000  0.500000  0.776495  1
  In  In4  1  0.000000  0.000000  0.000000  1
  P  P5  1  0.500000  0.500000  0.500000  1
  Cl  Cl6  1  0.000000  0.000000  0.746034  1
  Cl  Cl7  1  0.500000  0.500000  0.286548  1
  Cl  Cl8  1  0.710282  0.710282  0.500000  1
  Cl  Cl9  1  0.245783  0.245783  0.000000  1
  Cl  Cl10  1  0.710282  0.289718  0.500000  1
  Cl  Cl11  1  0.245783  0.754217  0.000000  1
  Cl  Cl12  1  0.000000  0.000000  0.253966  1
  Cl  Cl13  1  0.500000  0.500000  0.713452  1
  Cl  Cl14  1  0.289718  0.289718  0.500000  1
  Cl  Cl15  1  0.754217  0.754217  0.000000  1
  Cl  Cl16  1  0.289718  0.710282  0.500000  1
  Cl  Cl17  1  0.754217  0.245783  0.000000  1
