# generated using pymatgen
data_Tb4Ga3SiPd8
_symmetry_space_group_name_H-M   'P 1'
_cell_length_a   5.60578140
_cell_length_b   7.16622300
_cell_length_c   7.38225654
_cell_angle_alpha   90.00000000
_cell_angle_beta   89.48208178
_cell_angle_gamma   90.00000000
_symmetry_Int_Tables_number   1
_chemical_formula_structural   Tb4Ga3SiPd8
_chemical_formula_sum   'Tb4 Ga3 Si1 Pd8'
_cell_volume   296.54995767
_cell_formula_units_Z   1
loop_
 _symmetry_equiv_pos_site_id
 _symmetry_equiv_pos_as_xyz
  1  'x, y, z'
loop_
 _atom_site_type_symbol
 _atom_site_label
 _atom_site_symmetry_multiplicity
 _atom_site_fract_x
 _atom_site_fract_y
 _atom_site_fract_z
 _atom_site_occupancy
  Tb  Tb0  1  0.140473  0.750000  0.528432  1
  Tb  Tb1  1  0.856599  0.250000  0.470983  1
  Tb  Tb2  1  0.647745  0.250000  0.969629  1
  Tb  Tb3  1  0.352037  0.750000  0.031615  1
  Ga  Ga4  1  0.856330  0.750000  0.884293  1
  Ga  Ga5  1  0.143224  0.250000  0.119875  1
  Ga  Ga6  1  0.358290  0.250000  0.617077  1
  Si  Si7  1  0.637501  0.750000  0.380972  1
  Pd  Pd8  1  0.595199  0.554518  0.673246  1
  Pd  Pd9  1  0.416039  0.451273  0.317494  1
  Pd  Pd10  1  0.089494  0.448651  0.819831  1
  Pd  Pd11  1  0.416039  0.048727  0.317494  1
  Pd  Pd12  1  0.903168  0.554610  0.187992  1
  Pd  Pd13  1  0.595199  0.945482  0.673246  1
  Pd  Pd14  1  0.903168  0.945390  0.187992  1
  Pd  Pd15  1  0.089494  0.051349  0.819831  1
