# generated using pymatgen
data_Pr6DyAs12Rh17
_symmetry_space_group_name_H-M   'P 1'
_cell_length_a   4.08983800
_cell_length_b   11.62213300
_cell_length_c   13.37510100
_cell_angle_alpha   90.00000000
_cell_angle_beta   90.00000000
_cell_angle_gamma   90.00000000
_symmetry_Int_Tables_number   1
_chemical_formula_structural   Pr6DyAs12Rh17
_chemical_formula_sum   'Pr6 Dy1 As12 Rh17'
_cell_volume   635.75387664
_cell_formula_units_Z   1
loop_
 _symmetry_equiv_pos_site_id
 _symmetry_equiv_pos_as_xyz
  1  'x, y, z'
loop_
 _atom_site_type_symbol
 _atom_site_label
 _atom_site_symmetry_multiplicity
 _atom_site_fract_x
 _atom_site_fract_y
 _atom_site_fract_z
 _atom_site_occupancy
  Pr  Pr0  1  0.000000  0.500000  0.523340  1
  Pr  Pr1  1  0.500000  0.000000  0.476657  1
  Pr  Pr2  1  0.500000  0.819222  0.207799  1
  Pr  Pr3  1  0.500000  0.180778  0.207799  1
  Pr  Pr4  1  0.000000  0.683820  0.797433  1
  Pr  Pr5  1  0.000000  0.316180  0.797433  1
  Dy  Dy6  1  0.500000  0.500000  0.153612  1
  As  As7  1  0.500000  0.500000  0.880751  1
  As  As8  1  0.000000  0.000000  0.120381  1
  As  As9  1  0.500000  0.500000  0.361070  1
  As  As10  1  0.000000  0.000000  0.648124  1
  As  As11  1  0.500000  0.313116  0.618303  1
  As  As12  1  0.500000  0.686884  0.618303  1
  As  As13  1  0.000000  0.187437  0.385676  1
  As  As14  1  0.000000  0.812563  0.385676  1
  As  As15  1  0.500000  0.854572  0.886873  1
  As  As16  1  0.500000  0.145428  0.886873  1
  As  As17  1  0.000000  0.665117  0.105102  1
  As  As18  1  0.000000  0.334883  0.105102  1
  Rh  Rh19  1  0.000000  0.000000  0.829164  1
  Rh  Rh20  1  0.500000  0.500000  0.701988  1
  Rh  Rh21  1  0.000000  0.000000  0.299913  1
  Rh  Rh22  1  0.000000  0.500000  0.984099  1
  Rh  Rh23  1  0.500000  0.000000  0.020543  1
  Rh  Rh24  1  0.500000  0.326609  0.990508  1
  Rh  Rh25  1  0.500000  0.673391  0.990508  1
  Rh  Rh26  1  0.000000  0.161157  0.000762  1
  Rh  Rh27  1  0.000000  0.838843  0.000762  1
  Rh  Rh28  1  0.500000  0.290533  0.434931  1
  Rh  Rh29  1  0.500000  0.709467  0.434931  1
  Rh  Rh30  1  0.000000  0.203715  0.571887  1
  Rh  Rh31  1  0.000000  0.796285  0.571887  1
  Rh  Rh32  1  0.500000  0.877901  0.705439  1
  Rh  Rh33  1  0.500000  0.122099  0.705439  1
  Rh  Rh34  1  0.000000  0.625112  0.295467  1
  Rh  Rh35  1  0.000000  0.374888  0.295467  1
