# generated using pymatgen
data_La2Pr2MgOs
_symmetry_space_group_name_H-M   'P 1'
_cell_length_a   10.10900626
_cell_length_b   10.10900599
_cell_length_c   10.16742700
_cell_angle_alpha   59.80865374
_cell_angle_beta   59.80865463
_cell_angle_gamma   60.38270877
_symmetry_Int_Tables_number   1
_chemical_formula_structural   La2Pr2MgOs
_chemical_formula_sum   'La8 Pr8 Mg4 Os4'
_cell_volume   734.65571845
_cell_formula_units_Z   4
loop_
 _symmetry_equiv_pos_site_id
 _symmetry_equiv_pos_as_xyz
  1  'x, y, z'
loop_
 _atom_site_type_symbol
 _atom_site_label
 _atom_site_symmetry_multiplicity
 _atom_site_fract_x
 _atom_site_fract_y
 _atom_site_fract_z
 _atom_site_occupancy
  La  La0  1  0.342983  0.342983  0.344814  1
  La  La1  1  0.342983  0.342983  0.969222  1
  La  La2  1  0.344814  0.969222  0.342983  1
  La  La3  1  0.969222  0.344814  0.342983  1
  La  La4  1  0.812760  0.187240  0.187240  1
  La  La5  1  0.187240  0.812760  0.812760  1
  La  La6  1  0.187240  0.812760  0.187240  1
  La  La7  1  0.812760  0.187240  0.812760  1
  Pr  Pr8  1  0.190041  0.190041  0.809959  1
  Pr  Pr9  1  0.809959  0.809959  0.190041  1
  Pr  Pr10  1  0.937882  0.562118  0.562118  1
  Pr  Pr11  1  0.562118  0.937882  0.937882  1
  Pr  Pr12  1  0.562118  0.937882  0.562118  1
  Pr  Pr13  1  0.937882  0.562118  0.937882  1
  Pr  Pr14  1  0.559951  0.559951  0.940049  1
  Pr  Pr15  1  0.940049  0.940049  0.559951  1
  Mg  Mg16  1  0.579309  0.579309  0.577332  1
  Mg  Mg17  1  0.579309  0.579309  0.264049  1
  Mg  Mg18  1  0.577332  0.264049  0.579309  1
  Mg  Mg19  1  0.264049  0.577332  0.579309  1
  Os  Os20  1  0.134805  0.134805  0.143937  1
  Os  Os21  1  0.134805  0.134805  0.586452  1
  Os  Os22  1  0.143937  0.586452  0.134805  1
  Os  Os23  1  0.586452  0.143937  0.134805  1
