# generated using pymatgen
data_NaMnCoS4
_symmetry_space_group_name_H-M   'P 1'
_cell_length_a   5.81145100
_cell_length_b   6.76429600
_cell_length_c   13.83061400
_cell_angle_alpha   90.00000000
_cell_angle_beta   90.00000000
_cell_angle_gamma   90.00000000
_symmetry_Int_Tables_number   1
_chemical_formula_structural   NaMnCoS4
_chemical_formula_sum   'Na4 Mn4 Co4 S16'
_cell_volume   543.68661941
_cell_formula_units_Z   4
loop_
 _symmetry_equiv_pos_site_id
 _symmetry_equiv_pos_as_xyz
  1  'x, y, z'
loop_
 _atom_site_type_symbol
 _atom_site_label
 _atom_site_symmetry_multiplicity
 _atom_site_fract_x
 _atom_site_fract_y
 _atom_site_fract_z
 _atom_site_occupancy
  Na  Na0  1  0.351905  0.000000  0.000000  1
  Na  Na1  1  0.648095  0.500000  0.500000  1
  Na  Na2  1  0.028983  0.000000  0.500000  1
  Na  Na3  1  0.971017  0.500000  0.000000  1
  Mn  Mn4  1  0.998303  0.000000  0.247875  1
  Mn  Mn5  1  0.998303  0.000000  0.752125  1
  Mn  Mn6  1  0.001697  0.500000  0.252125  1
  Mn  Mn7  1  0.001697  0.500000  0.747875  1
  Co  Co8  1  0.500000  0.250000  0.250000  1
  Co  Co9  1  0.500000  0.750000  0.750000  1
  Co  Co10  1  0.500000  0.750000  0.250000  1
  Co  Co11  1  0.500000  0.250000  0.750000  1
  S  S12  1  0.825657  0.249413  0.342008  1
  S  S13  1  0.825657  0.750587  0.657992  1
  S  S14  1  0.174343  0.749413  0.157992  1
  S  S15  1  0.174343  0.250587  0.842008  1
  S  S16  1  0.174343  0.250587  0.157992  1
  S  S17  1  0.174343  0.749413  0.842008  1
  S  S18  1  0.825657  0.750587  0.342008  1
  S  S19  1  0.825657  0.249413  0.657992  1
  S  S20  1  0.656947  0.000000  0.160617  1
  S  S21  1  0.656947  0.000000  0.839383  1
  S  S22  1  0.343053  0.500000  0.339383  1
  S  S23  1  0.343053  0.500000  0.660617  1
  S  S24  1  0.339711  0.000000  0.337425  1
  S  S25  1  0.339711  0.000000  0.662575  1
  S  S26  1  0.660289  0.500000  0.162575  1
  S  S27  1  0.660289  0.500000  0.837425  1
