# generated using pymatgen
data_CsRbNi(PdSe2)2
_symmetry_space_group_name_H-M   'P 1'
_cell_length_a   9.17427114
_cell_length_b   8.12563818
_cell_length_c   6.35150405
_cell_angle_alpha   77.57989409
_cell_angle_beta   59.87933731
_cell_angle_gamma   42.54077005
_symmetry_Int_Tables_number   1
_chemical_formula_structural   CsRbNi(PdSe2)2
_chemical_formula_sum   'Cs1 Rb1 Ni1 Pd2 Se4'
_cell_volume   267.04385622
_cell_formula_units_Z   1
loop_
 _symmetry_equiv_pos_site_id
 _symmetry_equiv_pos_as_xyz
  1  'x, y, z'
loop_
 _atom_site_type_symbol
 _atom_site_label
 _atom_site_symmetry_multiplicity
 _atom_site_fract_x
 _atom_site_fract_y
 _atom_site_fract_z
 _atom_site_occupancy
  Cs  Cs0  1  0.654124  0.654124  0.345876  1
  Rb  Rb1  1  0.352492  0.352492  0.647508  1
  Ni  Ni2  1  0.998941  0.998941  0.001059  1
  Pd  Pd3  1  0.999149  0.999149  0.500851  1
  Pd  Pd4  1  0.499149  0.499149  0.000851  1
  Se  Se5  1  0.946323  0.265147  0.734853  1
  Se  Se6  1  0.052617  0.732057  0.267943  1
  Se  Se7  1  0.732057  0.052617  0.947383  1
  Se  Se8  1  0.265147  0.946323  0.053677  1
