# generated using pymatgen
data_Dy20PtRh11
_symmetry_space_group_name_H-M   'P 1'
_cell_length_a   10.95451842
_cell_length_b   10.95451744
_cell_length_c   6.35500816
_cell_angle_alpha   89.97683400
_cell_angle_beta   89.97682820
_cell_angle_gamma   89.75497618
_symmetry_Int_Tables_number   1
_chemical_formula_structural   Dy20PtRh11
_chemical_formula_sum   'Dy20 Pt1 Rh11'
_cell_volume   762.60317961
_cell_formula_units_Z   1
loop_
 _symmetry_equiv_pos_site_id
 _symmetry_equiv_pos_as_xyz
  1  'x, y, z'
loop_
 _atom_site_type_symbol
 _atom_site_label
 _atom_site_symmetry_multiplicity
 _atom_site_fract_x
 _atom_site_fract_y
 _atom_site_fract_z
 _atom_site_occupancy
  Dy  Dy0  1  0.290939  0.090177  0.379123  1
  Dy  Dy1  1  0.291062  0.913085  0.879513  1
  Dy  Dy2  1  0.708939  0.089336  0.879080  1
  Dy  Dy3  1  0.708825  0.910535  0.379222  1
  Dy  Dy4  1  0.591242  0.792005  0.880266  1
  Dy  Dy5  1  0.589883  0.208365  0.378516  1
  Dy  Dy6  1  0.411799  0.792656  0.375803  1
  Dy  Dy7  1  0.410141  0.209380  0.879107  1
  Dy  Dy8  1  0.207995  0.408758  0.619734  1
  Dy  Dy9  1  0.207344  0.588201  0.124197  1
  Dy  Dy10  1  0.791635  0.410117  0.121484  1
  Dy  Dy11  1  0.790620  0.589859  0.620893  1
  Dy  Dy12  1  0.909823  0.709061  0.120877  1
  Dy  Dy13  1  0.910664  0.291061  0.620920  1
  Dy  Dy14  1  0.086915  0.708938  0.620487  1
  Dy  Dy15  1  0.089465  0.291175  0.120778  1
  Dy  Dy16  1  0.999821  0.000172  0.499837  1
  Dy  Dy17  1  0.999828  0.000179  0.000163  1
  Dy  Dy18  1  0.501593  0.498514  0.000437  1
  Dy  Dy19  1  0.501486  0.498407  0.499563  1
  Pt  Pt20  1  0.345411  0.654589  0.750000  1
  Rh  Rh21  1  0.845800  0.154200  0.250000  1
  Rh  Rh22  1  0.846065  0.845900  0.749841  1
  Rh  Rh23  1  0.154100  0.153935  0.750159  1
  Rh  Rh24  1  0.154943  0.845057  0.250000  1
  Rh  Rh25  1  0.654838  0.345162  0.750000  1
  Rh  Rh26  1  0.653827  0.654332  0.249743  1
  Rh  Rh27  1  0.345668  0.346173  0.250257  1
  Rh  Rh28  1  0.499623  0.000191  0.125009  1
  Rh  Rh29  1  0.500170  0.000271  0.626136  1
  Rh  Rh30  1  0.999729  0.499830  0.873864  1
  Rh  Rh31  1  0.999809  0.500377  0.374991  1
