# generated using pymatgen
data_Dy2Zr3Si12Ir19
_symmetry_space_group_name_H-M   'P 1'
_cell_length_a   12.78023300
_cell_length_b   12.78023237
_cell_length_c   3.94504100
_cell_angle_alpha   90.00000000
_cell_angle_beta   90.00000000
_cell_angle_gamma   119.99999905
_symmetry_Int_Tables_number   1
_chemical_formula_structural   Dy2Zr3Si12Ir19
_chemical_formula_sum   'Dy2 Zr3 Si12 Ir19'
_cell_volume   558.03273837
_cell_formula_units_Z   1
loop_
 _symmetry_equiv_pos_site_id
 _symmetry_equiv_pos_as_xyz
  1  'x, y, z'
loop_
 _atom_site_type_symbol
 _atom_site_label
 _atom_site_symmetry_multiplicity
 _atom_site_fract_x
 _atom_site_fract_y
 _atom_site_fract_z
 _atom_site_occupancy
  Dy  Dy0  1  0.333333  0.666667  0.500000  1
  Dy  Dy1  1  0.666667  0.333333  0.500000  1
  Zr  Zr2  1  0.000000  0.814423  0.000000  1
  Zr  Zr3  1  0.185577  0.185577  0.000000  1
  Zr  Zr4  1  0.814423  0.000000  0.000000  1
  Si  Si5  1  0.000000  0.634480  0.500000  1
  Si  Si6  1  0.365520  0.365520  0.500000  1
  Si  Si7  1  0.634480  0.000000  0.500000  1
  Si  Si8  1  0.519050  0.686618  0.000000  1
  Si  Si9  1  0.313382  0.832432  0.000000  1
  Si  Si10  1  0.167568  0.480950  0.000000  1
  Si  Si11  1  0.480950  0.167568  0.000000  1
  Si  Si12  1  0.686618  0.519050  0.000000  1
  Si  Si13  1  0.832432  0.313382  0.000000  1
  Si  Si14  1  0.000000  0.177377  0.500000  1
  Si  Si15  1  0.822623  0.822623  0.500000  1
  Si  Si16  1  0.177377  0.000000  0.500000  1
  Ir  Ir17  1  0.513710  0.873125  0.000000  1
  Ir  Ir18  1  0.126875  0.640585  0.000000  1
  Ir  Ir19  1  0.359415  0.486290  0.000000  1
  Ir  Ir20  1  0.486290  0.359415  0.000000  1
  Ir  Ir21  1  0.873125  0.513710  0.000000  1
  Ir  Ir22  1  0.640585  0.126875  0.000000  1
  Ir  Ir23  1  0.000000  0.446931  0.500000  1
  Ir  Ir24  1  0.553069  0.553069  0.500000  1
  Ir  Ir25  1  0.446931  0.000000  0.500000  1
  Ir  Ir26  1  0.000000  0.279866  0.000000  1
  Ir  Ir27  1  0.720134  0.720134  0.000000  1
  Ir  Ir28  1  0.279866  0.000000  0.000000  1
  Ir  Ir29  1  0.628266  0.809241  0.500000  1
  Ir  Ir30  1  0.190759  0.819024  0.500000  1
  Ir  Ir31  1  0.180976  0.371734  0.500000  1
  Ir  Ir32  1  0.371734  0.180976  0.500000  1
  Ir  Ir33  1  0.809241  0.628266  0.500000  1
  Ir  Ir34  1  0.819024  0.190759  0.500000  1
  Ir  Ir35  1  0.000000  0.000000  0.500000  1
