# generated using pymatgen
data_Er2Mn3Cr(CoP)6
_symmetry_space_group_name_H-M   'P 1'
_cell_length_a   3.61043800
_cell_length_b   10.34469700
_cell_length_c   12.00768600
_cell_angle_alpha   90.00000000
_cell_angle_beta   90.00000000
_cell_angle_gamma   90.00000000
_symmetry_Int_Tables_number   1
_chemical_formula_structural   Er2Mn3Cr(CoP)6
_chemical_formula_sum   'Er4 Mn6 Cr2 Co12 P12'
_cell_volume   448.47370931
_cell_formula_units_Z   2
loop_
 _symmetry_equiv_pos_site_id
 _symmetry_equiv_pos_as_xyz
  1  'x, y, z'
loop_
 _atom_site_type_symbol
 _atom_site_label
 _atom_site_symmetry_multiplicity
 _atom_site_fract_x
 _atom_site_fract_y
 _atom_site_fract_z
 _atom_site_occupancy
  Er  Er0  1  0.250000  0.583916  0.709342  1
  Er  Er1  1  0.250000  0.916084  0.209342  1
  Er  Er2  1  0.750000  0.417430  0.290457  1
  Er  Er3  1  0.750000  0.082570  0.790457  1
  Mn  Mn4  1  0.750000  0.285719  0.009376  1
  Mn  Mn5  1  0.750000  0.214281  0.509376  1
  Mn  Mn6  1  0.250000  0.406067  0.491276  1
  Mn  Mn7  1  0.250000  0.093933  0.991276  1
  Mn  Mn8  1  0.750000  0.591249  0.508991  1
  Mn  Mn9  1  0.750000  0.908751  0.008991  1
  Cr  Cr10  1  0.250000  0.710866  0.990717  1
  Cr  Cr11  1  0.250000  0.789134  0.490717  1
  Co  Co12  1  0.250000  0.221826  0.177235  1
  Co  Co13  1  0.250000  0.278174  0.677235  1
  Co  Co14  1  0.750000  0.778191  0.822608  1
  Co  Co15  1  0.750000  0.721809  0.322608  1
  Co  Co16  1  0.250000  0.883610  0.696615  1
  Co  Co17  1  0.250000  0.616390  0.196615  1
  Co  Co18  1  0.750000  0.116944  0.304210  1
  Co  Co19  1  0.750000  0.383056  0.804210  1
  Co  Co20  1  0.250000  0.465554  0.932975  1
  Co  Co21  1  0.250000  0.034446  0.432975  1
  Co  Co22  1  0.750000  0.533954  0.065991  1
  Co  Co23  1  0.750000  0.966046  0.565991  1
  P  P24  1  0.250000  0.419122  0.111703  1
  P  P25  1  0.250000  0.080878  0.611703  1
  P  P26  1  0.750000  0.581406  0.888205  1
  P  P27  1  0.750000  0.918594  0.388205  1
  P  P28  1  0.250000  0.268542  0.867212  1
  P  P29  1  0.250000  0.231458  0.367212  1
  P  P30  1  0.750000  0.731581  0.131789  1
  P  P31  1  0.750000  0.768419  0.631789  1
  P  P32  1  0.250000  0.599115  0.384006  1
  P  P33  1  0.250000  0.900885  0.884006  1
  P  P34  1  0.750000  0.401072  0.617293  1
  P  P35  1  0.750000  0.098928  0.117293  1
