# generated using pymatgen
data_Yb(Al5Ir)2
_symmetry_space_group_name_H-M   'P 1'
_cell_length_a   6.87379634
_cell_length_b   6.87379553
_cell_length_c   9.12231200
_cell_angle_alpha   90.00000000
_cell_angle_beta   90.00000000
_cell_angle_gamma   96.87706542
_symmetry_Int_Tables_number   1
_chemical_formula_structural   Yb(Al5Ir)2
_chemical_formula_sum   'Yb2 Al20 Ir4'
_cell_volume   427.91972026
_cell_formula_units_Z   2
loop_
 _symmetry_equiv_pos_site_id
 _symmetry_equiv_pos_as_xyz
  1  'x, y, z'
loop_
 _atom_site_type_symbol
 _atom_site_label
 _atom_site_symmetry_multiplicity
 _atom_site_fract_x
 _atom_site_fract_y
 _atom_site_fract_z
 _atom_site_occupancy
  Yb  Yb0  1  0.872790  0.127210  0.750000  1
  Yb  Yb1  1  0.127210  0.872790  0.250000  1
  Al  Al2  1  0.415589  0.146666  0.750000  1
  Al  Al3  1  0.146666  0.415589  0.250000  1
  Al  Al4  1  0.584411  0.853334  0.250000  1
  Al  Al5  1  0.853334  0.584411  0.750000  1
  Al  Al6  1  0.518926  0.775740  0.750000  1
  Al  Al7  1  0.775740  0.518926  0.250000  1
  Al  Al8  1  0.481074  0.224260  0.250000  1
  Al  Al9  1  0.224260  0.481074  0.750000  1
  Al  Al10  1  0.844058  0.155942  0.397126  1
  Al  Al11  1  0.155942  0.844058  0.602874  1
  Al  Al12  1  0.844058  0.155942  0.102874  1
  Al  Al13  1  0.155942  0.844058  0.897126  1
  Al  Al14  1  0.621766  0.378234  0.550871  1
  Al  Al15  1  0.378234  0.621766  0.449129  1
  Al  Al16  1  0.621766  0.378234  0.949129  1
  Al  Al17  1  0.378234  0.621766  0.050871  1
  Al  Al18  1  0.777060  0.777060  0.000000  1
  Al  Al19  1  0.777060  0.777060  0.500000  1
  Al  Al20  1  0.222940  0.222940  0.000000  1
  Al  Al21  1  0.222940  0.222940  0.500000  1
  Ir  Ir22  1  0.500000  0.000000  0.000000  1
  Ir  Ir23  1  0.000000  0.500000  0.000000  1
  Ir  Ir24  1  0.500000  0.000000  0.500000  1
  Ir  Ir25  1  0.000000  0.500000  0.500000  1
