# generated using pymatgen
data_Tb3DyTh4(ReB6)4
_symmetry_space_group_name_H-M   'P 1'
_cell_length_a   3.78035000
_cell_length_b   9.28651801
_cell_length_c   11.70611501
_cell_angle_alpha   90.00552946
_cell_angle_beta   90.00000000
_cell_angle_gamma   90.00000000
_symmetry_Int_Tables_number   1
_chemical_formula_structural   Tb3DyTh4(ReB6)4
_chemical_formula_sum   'Tb3 Dy1 Th4 Re4 B24'
_cell_volume   410.95824736
_cell_formula_units_Z   1
loop_
 _symmetry_equiv_pos_site_id
 _symmetry_equiv_pos_as_xyz
  1  'x, y, z'
loop_
 _atom_site_type_symbol
 _atom_site_label
 _atom_site_symmetry_multiplicity
 _atom_site_fract_x
 _atom_site_fract_y
 _atom_site_fract_z
 _atom_site_occupancy
  Tb  Tb0  1  0.000000  0.944710  0.372588  1
  Tb  Tb1  1  0.000000  0.055290  0.627441  1
  Tb  Tb2  1  0.000000  0.444755  0.127301  1
  Dy  Dy3  1  0.000000  0.555293  0.872518  1
  Th  Th4  1  0.000000  0.322565  0.413960  1
  Th  Th5  1  0.000000  0.677418  0.586120  1
  Th  Th6  1  0.000000  0.822497  0.086001  1
  Th  Th7  1  0.000000  0.177542  0.913912  1
  Re  Re8  1  0.000000  0.638832  0.320476  1
  Re  Re9  1  0.000000  0.361356  0.679693  1
  Re  Re10  1  0.000000  0.138887  0.179473  1
  Re  Re11  1  0.000000  0.860798  0.820542  1
  B  B12  1  0.500000  0.556053  0.430166  1
  B  B13  1  0.500000  0.443966  0.569879  1
  B  B14  1  0.500000  0.056044  0.069827  1
  B  B15  1  0.500000  0.943905  0.930154  1
  B  B16  1  0.500000  0.748940  0.417388  1
  B  B17  1  0.500000  0.251075  0.582620  1
  B  B18  1  0.500000  0.248958  0.082612  1
  B  B19  1  0.500000  0.750803  0.917384  1
  B  B20  1  0.500000  0.790434  0.267060  1
  B  B21  1  0.500000  0.209631  0.732959  1
  B  B22  1  0.500000  0.290433  0.232932  1
  B  B23  1  0.500000  0.709325  0.767125  1
  B  B24  1  0.500000  0.631024  0.186816  1
  B  B25  1  0.500000  0.369176  0.813297  1
  B  B26  1  0.500000  0.131044  0.313175  1
  B  B27  1  0.500000  0.868915  0.686850  1
  B  B28  1  0.500000  0.985744  0.213534  1
  B  B29  1  0.500000  0.014243  0.786470  1
  B  B30  1  0.500000  0.485745  0.286458  1
  B  B31  1  0.500000  0.514395  0.713716  1
  B  B32  1  0.500000  0.604345  0.028609  1
  B  B33  1  0.500000  0.395862  0.970935  1
  B  B34  1  0.500000  0.104449  0.471111  1
  B  B35  1  0.500000  0.895547  0.528898  1
