# generated using pymatgen
data_Zr11MnOs3
_symmetry_space_group_name_H-M   'P 1'
_cell_length_a   9.51465444
_cell_length_b   9.51465493
_cell_length_c   9.51465400
_cell_angle_alpha   59.99999629
_cell_angle_beta   59.99999457
_cell_angle_gamma   59.99999811
_symmetry_Int_Tables_number   1
_chemical_formula_structural   Zr11MnOs3
_chemical_formula_sum   'Zr22 Mn2 Os6'
_cell_volume   609.06553932
_cell_formula_units_Z   2
loop_
 _symmetry_equiv_pos_site_id
 _symmetry_equiv_pos_as_xyz
  1  'x, y, z'
loop_
 _atom_site_type_symbol
 _atom_site_label
 _atom_site_symmetry_multiplicity
 _atom_site_fract_x
 _atom_site_fract_y
 _atom_site_fract_z
 _atom_site_occupancy
  Zr  Zr0  1  0.803281  0.803281  0.196719  1
  Zr  Zr1  1  0.196719  0.803281  0.196719  1
  Zr  Zr2  1  0.803281  0.196719  0.196719  1
  Zr  Zr3  1  0.196719  0.196719  0.803281  1
  Zr  Zr4  1  0.803281  0.196719  0.803281  1
  Zr  Zr5  1  0.196719  0.803281  0.803281  1
  Zr  Zr6  1  0.614949  0.614949  0.155152  1
  Zr  Zr7  1  0.614949  0.155152  0.614949  1
  Zr  Zr8  1  0.155152  0.614949  0.614949  1
  Zr  Zr9  1  0.614949  0.614949  0.614949  1
  Zr  Zr10  1  0.385051  0.385051  0.844848  1
  Zr  Zr11  1  0.385051  0.844848  0.385051  1
  Zr  Zr12  1  0.844848  0.385051  0.385051  1
  Zr  Zr13  1  0.385051  0.385051  0.385051  1
  Zr  Zr14  1  0.837241  0.837241  0.488276  1
  Zr  Zr15  1  0.837241  0.488276  0.837241  1
  Zr  Zr16  1  0.488276  0.837241  0.837241  1
  Zr  Zr17  1  0.837241  0.837241  0.837241  1
  Zr  Zr18  1  0.162759  0.162759  0.511724  1
  Zr  Zr19  1  0.162759  0.511724  0.162759  1
  Zr  Zr20  1  0.511724  0.162759  0.162759  1
  Zr  Zr21  1  0.162759  0.162759  0.162759  1
  Mn  Mn22  1  0.000000  0.000000  0.000000  1
  Mn  Mn23  1  0.500000  0.500000  0.500000  1
  Os  Os24  1  0.000000  0.000000  0.500000  1
  Os  Os25  1  0.500000  0.000000  0.500000  1
  Os  Os26  1  0.000000  0.500000  0.500000  1
  Os  Os27  1  0.500000  0.500000  0.000000  1
  Os  Os28  1  0.000000  0.500000  0.000000  1
  Os  Os29  1  0.500000  0.000000  0.000000  1
