# generated using pymatgen
data_Li12GdEr3(BO3)8
_symmetry_space_group_name_H-M   'P 1'
_cell_length_a   6.46180222
_cell_length_b   8.67440819
_cell_length_c   9.90417915
_cell_angle_alpha   114.76395220
_cell_angle_beta   89.85170251
_cell_angle_gamma   89.93354242
_symmetry_Int_Tables_number   1
_chemical_formula_structural   Li12GdEr3(BO3)8
_chemical_formula_sum   'Li12 Gd1 Er3 B8 O24'
_cell_volume   504.09776965
_cell_formula_units_Z   1
loop_
 _symmetry_equiv_pos_site_id
 _symmetry_equiv_pos_as_xyz
  1  'x, y, z'
loop_
 _atom_site_type_symbol
 _atom_site_label
 _atom_site_symmetry_multiplicity
 _atom_site_fract_x
 _atom_site_fract_y
 _atom_site_fract_z
 _atom_site_occupancy
  Li  Li0  1  0.439241  0.038717  0.333014  1
  Li  Li1  1  0.746024  0.124536  0.521033  1
  Li  Li2  1  0.754929  0.626539  0.020799  1
  Li  Li3  1  0.244901  0.373162  0.977375  1
  Li  Li4  1  0.220138  0.294324  0.459765  1
  Li  Li5  1  0.939273  0.460016  0.165341  1
  Li  Li6  1  0.560206  0.961467  0.667169  1
  Li  Li7  1  0.781714  0.704422  0.541413  1
  Li  Li8  1  0.253342  0.877262  0.479747  1
  Li  Li9  1  0.720675  0.202345  0.040356  1
  Li  Li10  1  0.279669  0.796454  0.959316  1
  Li  Li11  1  0.059703  0.540422  0.833658  1
  Gd  Gd12  1  0.473296  0.482407  0.301027  1
  Er  Er13  1  0.026540  0.982536  0.800687  1
  Er  Er14  1  0.528641  0.516702  0.700024  1
  Er  Er15  1  0.973446  0.016951  0.198185  1
  B  B16  1  0.337998  0.220323  0.680340  1
  B  B17  1  0.325281  0.159904  0.106257  1
  B  B18  1  0.664839  0.783382  0.320250  1
  B  B19  1  0.159240  0.720212  0.178527  1
  B  B20  1  0.829425  0.336465  0.392869  1
  B  B21  1  0.672850  0.836976  0.891137  1
  B  B22  1  0.838053  0.279690  0.819899  1
  B  B23  1  0.172512  0.663331  0.611206  1
  O  O24  1  0.286521  0.072919  0.694136  1
  O  O25  1  0.561215  0.787724  0.446956  1
  O  O26  1  0.205367  0.026091  0.013146  1
  O  O27  1  0.712007  0.930943  0.305643  1
  O  O28  1  0.175880  0.705950  0.762743  1
  O  O29  1  0.788110  0.427720  0.806543  1
  O  O30  1  0.443325  0.216245  0.554461  1
  O  O31  1  0.294521  0.383284  0.789002  1
  O  O32  1  0.055312  0.719865  0.053809  1
  O  O33  1  0.941989  0.282679  0.945610  1
  O  O34  1  0.714179  0.472867  0.489335  1
  O  O35  1  0.791034  0.971974  0.984840  1
  O  O36  1  0.561267  0.732313  0.937056  1
  O  O37  1  0.208615  0.571022  0.189565  1
  O  O38  1  0.204086  0.881722  0.288289  1
  O  O39  1  0.063974  0.767176  0.562785  1
  O  O40  1  0.679186  0.797493  0.739707  1
  O  O41  1  0.437670  0.262394  0.058766  1
  O  O42  1  0.820409  0.298062  0.241296  1
  O  O43  1  0.710925  0.621235  0.211652  1
  O  O44  1  0.794436  0.117191  0.711193  1
  O  O45  1  0.290505  0.526019  0.519605  1
  O  O46  1  0.940179  0.230161  0.436737  1
  O  O47  1  0.317353  0.198405  0.257733  1
