# generated using pymatgen
data_Dy5InBiTe
_symmetry_space_group_name_H-M   'P 1'
_cell_length_a   8.15503900
_cell_length_b   9.57008800
_cell_length_c   11.84982300
_cell_angle_alpha   90.00000000
_cell_angle_beta   90.00000000
_cell_angle_gamma   90.00000000
_symmetry_Int_Tables_number   1
_chemical_formula_structural   Dy5InBiTe
_chemical_formula_sum   'Dy20 In4 Bi4 Te4'
_cell_volume   924.81281048
_cell_formula_units_Z   4
loop_
 _symmetry_equiv_pos_site_id
 _symmetry_equiv_pos_as_xyz
  1  'x, y, z'
loop_
 _atom_site_type_symbol
 _atom_site_label
 _atom_site_symmetry_multiplicity
 _atom_site_fract_x
 _atom_site_fract_y
 _atom_site_fract_z
 _atom_site_occupancy
  Dy  Dy0  1  0.348966  0.751997  0.217421  1
  Dy  Dy1  1  0.848966  0.748003  0.282579  1
  Dy  Dy2  1  0.651034  0.251997  0.782579  1
  Dy  Dy3  1  0.151034  0.248003  0.717421  1
  Dy  Dy4  1  0.693075  0.559182  0.056151  1
  Dy  Dy5  1  0.193075  0.940818  0.443849  1
  Dy  Dy6  1  0.306925  0.059182  0.943849  1
  Dy  Dy7  1  0.806925  0.440818  0.556151  1
  Dy  Dy8  1  0.308814  0.438679  0.940394  1
  Dy  Dy9  1  0.808814  0.061321  0.559606  1
  Dy  Dy10  1  0.691186  0.938679  0.059606  1
  Dy  Dy11  1  0.191186  0.561321  0.440394  1
  Dy  Dy12  1  0.478896  0.248686  0.491464  1
  Dy  Dy13  1  0.978896  0.251314  0.008536  1
  Dy  Dy14  1  0.521104  0.748686  0.508536  1
  Dy  Dy15  1  0.021104  0.751314  0.991464  1
  Dy  Dy16  1  0.312534  0.250851  0.219784  1
  Dy  Dy17  1  0.812534  0.249149  0.280216  1
  Dy  Dy18  1  0.687466  0.750851  0.780216  1
  Dy  Dy19  1  0.187466  0.749149  0.719784  1
  In  In20  1  0.559084  0.998572  0.324098  1
  In  In21  1  0.059084  0.501428  0.175902  1
  In  In22  1  0.440916  0.498572  0.675902  1
  In  In23  1  0.940916  0.001428  0.824098  1
  Bi  Bi24  1  0.438927  0.001779  0.676344  1
  Bi  Bi25  1  0.938927  0.498221  0.823656  1
  Bi  Bi26  1  0.561073  0.501779  0.323656  1
  Bi  Bi27  1  0.061073  0.998221  0.176344  1
  Te  Te28  1  0.406579  0.749133  0.958552  1
  Te  Te29  1  0.906579  0.750867  0.541448  1
  Te  Te30  1  0.593421  0.249133  0.041448  1
  Te  Te31  1  0.093421  0.250867  0.458552  1
