# generated using pymatgen
data_LaNd(TcO4)6
_symmetry_space_group_name_H-M   'P 1'
_cell_length_a   10.15202700
_cell_length_b   10.15202884
_cell_length_c   6.45686200
_cell_angle_alpha   90.00000000
_cell_angle_beta   90.00000000
_cell_angle_gamma   119.99999855
_symmetry_Int_Tables_number   1
_chemical_formula_structural   LaNd(TcO4)6
_chemical_formula_sum   'La1 Nd1 Tc6 O24'
_cell_volume   576.31211509
_cell_formula_units_Z   1
loop_
 _symmetry_equiv_pos_site_id
 _symmetry_equiv_pos_as_xyz
  1  'x, y, z'
loop_
 _atom_site_type_symbol
 _atom_site_label
 _atom_site_symmetry_multiplicity
 _atom_site_fract_x
 _atom_site_fract_y
 _atom_site_fract_z
 _atom_site_occupancy
  La  La0  1  0.333333  0.666667  0.250000  1
  Nd  Nd1  1  0.666667  0.333333  0.750000  1
  Tc  Tc2  1  0.610162  0.703881  0.750000  1
  Tc  Tc3  1  0.397030  0.295473  0.250000  1
  Tc  Tc4  1  0.093719  0.389838  0.750000  1
  Tc  Tc5  1  0.898443  0.602970  0.250000  1
  Tc  Tc6  1  0.296119  0.906281  0.750000  1
  Tc  Tc7  1  0.704527  0.101557  0.250000  1
  O  O8  1  0.951432  0.439007  0.750000  1
  O  O9  1  0.040906  0.554200  0.250000  1
  O  O10  1  0.487577  0.048568  0.750000  1
  O  O11  1  0.513293  0.959094  0.250000  1
  O  O12  1  0.560993  0.512423  0.750000  1
  O  O13  1  0.445800  0.486707  0.250000  1
  O  O14  1  0.803140  0.815165  0.750000  1
  O  O15  1  0.204081  0.183567  0.250000  1
  O  O16  1  0.012025  0.196860  0.750000  1
  O  O17  1  0.979485  0.795919  0.250000  1
  O  O18  1  0.184835  0.987975  0.750000  1
  O  O19  1  0.816433  0.020515  0.250000  1
  O  O20  1  0.534732  0.743622  0.970478  1
  O  O21  1  0.471746  0.255922  0.028684  1
  O  O22  1  0.208890  0.465268  0.970478  1
  O  O23  1  0.471746  0.255922  0.471316  1
  O  O24  1  0.784177  0.528254  0.028684  1
  O  O25  1  0.534732  0.743622  0.529522  1
  O  O26  1  0.256378  0.791110  0.970478  1
  O  O27  1  0.784177  0.528254  0.471316  1
  O  O28  1  0.744078  0.215823  0.028684  1
  O  O29  1  0.208890  0.465268  0.529522  1
  O  O30  1  0.744078  0.215823  0.471316  1
  O  O31  1  0.256378  0.791110  0.529522  1
