# generated using pymatgen
data_Sm3Th(CuP)8
_symmetry_space_group_name_H-M   'P 1'
_cell_length_a   3.83985200
_cell_length_b   8.96657845
_cell_length_c   9.87638435
_cell_angle_alpha   89.86228601
_cell_angle_beta   90.00000000
_cell_angle_gamma   90.00000000
_symmetry_Int_Tables_number   1
_chemical_formula_structural   Sm3Th(CuP)8
_chemical_formula_sum   'Sm3 Th1 Cu8 P8'
_cell_volume   340.04623182
_cell_formula_units_Z   1
loop_
 _symmetry_equiv_pos_site_id
 _symmetry_equiv_pos_as_xyz
  1  'x, y, z'
loop_
 _atom_site_type_symbol
 _atom_site_label
 _atom_site_symmetry_multiplicity
 _atom_site_fract_x
 _atom_site_fract_y
 _atom_site_fract_z
 _atom_site_occupancy
  Sm  Sm0  1  0.250000  0.251256  0.684608  1
  Sm  Sm1  1  0.750000  0.749440  0.314282  1
  Sm  Sm2  1  0.250000  0.752064  0.814954  1
  Th  Th3  1  0.750000  0.247935  0.183578  1
  Cu  Cu4  1  0.750000  0.074781  0.454102  1
  Cu  Cu5  1  0.250000  0.924768  0.548390  1
  Cu  Cu6  1  0.750000  0.575162  0.048431  1
  Cu  Cu7  1  0.250000  0.424478  0.948535  1
  Cu  Cu8  1  0.250000  0.944490  0.102648  1
  Cu  Cu9  1  0.750000  0.050412  0.898727  1
  Cu  Cu10  1  0.250000  0.452772  0.402941  1
  Cu  Cu11  1  0.750000  0.551414  0.599114  1
  P  P12  1  0.250000  0.169441  0.970090  1
  P  P13  1  0.750000  0.828865  0.031799  1
  P  P14  1  0.250000  0.672128  0.532086  1
  P  P15  1  0.750000  0.329656  0.467339  1
  P  P16  1  0.250000  0.517130  0.177000  1
  P  P17  1  0.750000  0.479038  0.822025  1
  P  P18  1  0.250000  0.026064  0.322246  1
  P  P19  1  0.750000  0.978710  0.677103  1
