# generated using pymatgen
data_K4NdUSe6
_symmetry_space_group_name_H-M   'P 1'
_cell_length_a   7.64032073
_cell_length_b   7.64032106
_cell_length_c   8.05074251
_cell_angle_alpha   80.74029260
_cell_angle_beta   80.74029463
_cell_angle_gamma   119.95016451
_symmetry_Int_Tables_number   1
_chemical_formula_structural   K4NdUSe6
_chemical_formula_sum   'K4 Nd1 U1 Se6'
_cell_volume   385.57077230
_cell_formula_units_Z   1
loop_
 _symmetry_equiv_pos_site_id
 _symmetry_equiv_pos_as_xyz
  1  'x, y, z'
loop_
 _atom_site_type_symbol
 _atom_site_label
 _atom_site_symmetry_multiplicity
 _atom_site_fract_x
 _atom_site_fract_y
 _atom_site_fract_z
 _atom_site_occupancy
  K  K0  1  0.343773  0.656227  0.500000  1
  K  K1  1  0.655224  0.344776  0.500000  1
  K  K2  1  0.000564  0.999436  0.500000  1
  K  K3  1  0.499969  0.500031  0.000000  1
  Nd  Nd4  1  0.167862  0.832138  0.000000  1
  U  U5  1  0.832330  0.167670  0.000000  1
  Se  Se6  1  0.789883  0.808949  0.208029  1
  Se  Se7  1  0.448217  0.067211  0.211241  1
  Se  Se8  1  0.046348  0.408010  0.210000  1
  Se  Se9  1  0.591990  0.953652  0.790000  1
  Se  Se10  1  0.932789  0.551783  0.788759  1
  Se  Se11  1  0.191051  0.210117  0.791971  1
