# generated using pymatgen
data_HoEr19(IrRh2)4
_symmetry_space_group_name_H-M   'P 1'
_cell_length_a   10.80464801
_cell_length_b   10.80400702
_cell_length_c   6.32686302
_cell_angle_alpha   89.99297563
_cell_angle_beta   90.00494334
_cell_angle_gamma   89.99741227
_symmetry_Int_Tables_number   1
_chemical_formula_structural   HoEr19(IrRh2)4
_chemical_formula_sum   'Ho1 Er19 Ir4 Rh8'
_cell_volume   738.55681082
_cell_formula_units_Z   1
loop_
 _symmetry_equiv_pos_site_id
 _symmetry_equiv_pos_as_xyz
  1  'x, y, z'
loop_
 _atom_site_type_symbol
 _atom_site_label
 _atom_site_symmetry_multiplicity
 _atom_site_fract_x
 _atom_site_fract_y
 _atom_site_fract_z
 _atom_site_occupancy
  Ho  Ho0  1  0.291094  0.089617  0.377889  1
  Er  Er1  1  0.291528  0.910379  0.877976  1
  Er  Er2  1  0.708482  0.089529  0.878052  1
  Er  Er3  1  0.708575  0.910471  0.378063  1
  Er  Er4  1  0.587214  0.790053  0.878614  1
  Er  Er5  1  0.587377  0.209937  0.378753  1
  Er  Er6  1  0.412822  0.789945  0.378772  1
  Er  Er7  1  0.412858  0.210045  0.878717  1
  Er  Er8  1  0.209943  0.412781  0.621299  1
  Er  Er9  1  0.209964  0.587265  0.121257  1
  Er  Er10  1  0.790115  0.412741  0.121219  1
  Er  Er11  1  0.790086  0.587221  0.621264  1
  Er  Er12  1  0.910508  0.708562  0.121949  1
  Er  Er13  1  0.910476  0.291446  0.621980  1
  Er  Er14  1  0.089540  0.708496  0.622038  1
  Er  Er15  1  0.089439  0.291499  0.121871  1
  Er  Er16  1  0.999861  0.000040  0.500139  1
  Er  Er17  1  0.999991  0.000090  0.999902  1
  Er  Er18  1  0.499898  0.499911  0.999934  1
  Er  Er19  1  0.499970  0.499916  0.500092  1
  Ir  Ir20  1  0.654614  0.345401  0.749992  1
  Ir  Ir21  1  0.654596  0.654626  0.250007  1
  Ir  Ir22  1  0.345450  0.345660  0.249875  1
  Ir  Ir23  1  0.345385  0.654616  0.749979  1
  Rh  Rh24  1  0.846521  0.153465  0.250044  1
  Rh  Rh25  1  0.846546  0.846522  0.749964  1
  Rh  Rh26  1  0.153322  0.153576  0.750399  1
  Rh  Rh27  1  0.153396  0.846370  0.249899  1
  Rh  Rh28  1  0.500186  0.999928  0.122673  1
  Rh  Rh29  1  0.500227  0.999930  0.622968  1
  Rh  Rh30  1  0.999998  0.499975  0.877198  1
  Rh  Rh31  1  0.000018  0.499987  0.377221  1
