# generated using pymatgen
data_Ba2LuFeO5
_symmetry_space_group_name_H-M   'P 1'
_cell_length_a   6.07600600
_cell_length_b   7.87382089
_cell_length_c   12.64763809
_cell_angle_alpha   91.85278073
_cell_angle_beta   90.00000000
_cell_angle_gamma   90.00000000
_symmetry_Int_Tables_number   1
_chemical_formula_structural   Ba2LuFeO5
_chemical_formula_sum   'Ba8 Lu4 Fe4 O20'
_cell_volume   604.76416171
_cell_formula_units_Z   4
loop_
 _symmetry_equiv_pos_site_id
 _symmetry_equiv_pos_as_xyz
  1  'x, y, z'
loop_
 _atom_site_type_symbol
 _atom_site_label
 _atom_site_symmetry_multiplicity
 _atom_site_fract_x
 _atom_site_fract_y
 _atom_site_fract_z
 _atom_site_occupancy
  Ba  Ba0  1  0.755915  0.488932  0.352501  1
  Ba  Ba1  1  0.744085  0.988932  0.852501  1
  Ba  Ba2  1  0.244085  0.511068  0.647499  1
  Ba  Ba3  1  0.255915  0.011068  0.147499  1
  Ba  Ba4  1  0.753708  0.993876  0.380030  1
  Ba  Ba5  1  0.746292  0.493876  0.880030  1
  Ba  Ba6  1  0.246292  0.006124  0.619970  1
  Ba  Ba7  1  0.253708  0.506124  0.119970  1
  Lu  Lu8  1  0.750691  0.263511  0.632003  1
  Lu  Lu9  1  0.749309  0.763511  0.132003  1
  Lu  Lu10  1  0.249309  0.736489  0.367997  1
  Lu  Lu11  1  0.250691  0.236489  0.867997  1
  Fe  Fe12  1  0.737994  0.743541  0.583091  1
  Fe  Fe13  1  0.762006  0.243541  0.083091  1
  Fe  Fe14  1  0.262006  0.256459  0.416909  1
  Fe  Fe15  1  0.237994  0.756459  0.916909  1
  O  O16  1  0.758921  0.974013  0.633809  1
  O  O17  1  0.741079  0.474013  0.133809  1
  O  O18  1  0.241079  0.025987  0.366191  1
  O  O19  1  0.258921  0.525987  0.866191  1
  O  O20  1  0.738082  0.055448  0.172223  1
  O  O21  1  0.761918  0.555448  0.672223  1
  O  O22  1  0.261918  0.944552  0.827777  1
  O  O23  1  0.238082  0.444552  0.327777  1
  O  O24  1  0.534590  0.747240  0.268251  1
  O  O25  1  0.965410  0.247240  0.768251  1
  O  O26  1  0.465410  0.252760  0.731749  1
  O  O27  1  0.034590  0.752760  0.231749  1
  O  O28  1  0.537907  0.226645  0.977223  1
  O  O29  1  0.962093  0.726645  0.477223  1
  O  O30  1  0.462093  0.773355  0.022777  1
  O  O31  1  0.037907  0.273355  0.522777  1
  O  O32  1  0.039161  0.231760  0.012286  1
  O  O33  1  0.460839  0.731760  0.512286  1
  O  O34  1  0.960839  0.768240  0.987714  1
  O  O35  1  0.539161  0.268240  0.487714  1
