# generated using pymatgen
data_Ce3Lu5(ReB6)4
_symmetry_space_group_name_H-M   'P 1'
_cell_length_a   3.67877500
_cell_length_b   9.12135926
_cell_length_c   11.51174658
_cell_angle_alpha   90.06009908
_cell_angle_beta   90.00000000
_cell_angle_gamma   90.00000000
_symmetry_Int_Tables_number   1
_chemical_formula_structural   Ce3Lu5(ReB6)4
_chemical_formula_sum   'Ce3 Lu5 Re4 B24'
_cell_volume   386.28137563
_cell_formula_units_Z   1
loop_
 _symmetry_equiv_pos_site_id
 _symmetry_equiv_pos_as_xyz
  1  'x, y, z'
loop_
 _atom_site_type_symbol
 _atom_site_label
 _atom_site_symmetry_multiplicity
 _atom_site_fract_x
 _atom_site_fract_y
 _atom_site_fract_z
 _atom_site_occupancy
  Ce  Ce0  1  0.000000  0.321161  0.414389  1
  Ce  Ce1  1  0.000000  0.678324  0.586539  1
  Ce  Ce2  1  0.000000  0.823328  0.085394  1
  Lu  Lu3  1  0.000000  0.177877  0.913912  1
  Lu  Lu4  1  0.000000  0.945139  0.372230  1
  Lu  Lu5  1  0.000000  0.055874  0.628616  1
  Lu  Lu6  1  0.000000  0.443271  0.127264  1
  Lu  Lu7  1  0.000000  0.555184  0.871965  1
  Re  Re8  1  0.000000  0.639346  0.320151  1
  Re  Re9  1  0.000000  0.360829  0.680093  1
  Re  Re10  1  0.000000  0.139526  0.179335  1
  Re  Re11  1  0.000000  0.860966  0.820441  1
  B  B12  1  0.500000  0.554916  0.431529  1
  B  B13  1  0.500000  0.444816  0.568851  1
  B  B14  1  0.500000  0.055045  0.066565  1
  B  B15  1  0.500000  0.946592  0.932309  1
  B  B16  1  0.500000  0.751120  0.418336  1
  B  B17  1  0.500000  0.248649  0.582563  1
  B  B18  1  0.500000  0.250460  0.079605  1
  B  B19  1  0.500000  0.749993  0.918213  1
  B  B20  1  0.500000  0.792763  0.265602  1
  B  B21  1  0.500000  0.206233  0.735642  1
  B  B22  1  0.500000  0.292451  0.233015  1
  B  B23  1  0.500000  0.707687  0.766237  1
  B  B24  1  0.500000  0.630544  0.184919  1
  B  B25  1  0.500000  0.368015  0.816144  1
  B  B26  1  0.500000  0.130905  0.314235  1
  B  B27  1  0.500000  0.870137  0.685939  1
  B  B28  1  0.500000  0.983664  0.212419  1
  B  B29  1  0.500000  0.018851  0.787594  1
  B  B30  1  0.500000  0.482941  0.286298  1
  B  B31  1  0.500000  0.516263  0.714068  1
  B  B32  1  0.500000  0.599982  0.027605  1
  B  B33  1  0.500000  0.397019  0.971298  1
  B  B34  1  0.500000  0.101969  0.472186  1
  B  B35  1  0.500000  0.898160  0.528500  1
