# generated using pymatgen
data_Sr2LiCo2N3
_symmetry_space_group_name_H-M   'P 1'
_cell_length_a   6.48883609
_cell_length_b   6.48883556
_cell_length_c   6.48605487
_cell_angle_alpha   88.74892582
_cell_angle_beta   88.74893075
_cell_angle_gamma   120.28960944
_symmetry_Int_Tables_number   1
_chemical_formula_structural   Sr2LiCo2N3
_chemical_formula_sum   'Sr4 Li2 Co4 N6'
_cell_volume   235.58731096
_cell_formula_units_Z   2
loop_
 _symmetry_equiv_pos_site_id
 _symmetry_equiv_pos_as_xyz
  1  'x, y, z'
loop_
 _atom_site_type_symbol
 _atom_site_label
 _atom_site_symmetry_multiplicity
 _atom_site_fract_x
 _atom_site_fract_y
 _atom_site_fract_z
 _atom_site_occupancy
  Sr  Sr0  1  0.821325  0.682937  0.903126  1
  Sr  Sr1  1  0.317063  0.178675  0.596874  1
  Sr  Sr2  1  0.178675  0.317063  0.096874  1
  Sr  Sr3  1  0.682937  0.821325  0.403126  1
  Li  Li4  1  0.809868  0.190132  0.750000  1
  Li  Li5  1  0.190132  0.809868  0.250000  1
  Co  Co6  1  0.569598  0.159025  0.107128  1
  Co  Co7  1  0.430402  0.840975  0.892872  1
  Co  Co8  1  0.840975  0.430402  0.392872  1
  Co  Co9  1  0.159025  0.569598  0.607128  1
  N  N10  1  0.408614  0.591386  0.750000  1
  N  N11  1  0.591386  0.408614  0.250000  1
  N  N12  1  0.001046  0.725538  0.517017  1
  N  N13  1  0.725538  0.001046  0.017017  1
  N  N14  1  0.998954  0.274462  0.482983  1
  N  N15  1  0.274462  0.998954  0.982983  1
