# generated using pymatgen
data_Tb12Pr4Cd4CoRh3
_symmetry_space_group_name_H-M   'P 1'
_cell_length_a   9.79667531
_cell_length_b   9.77203822
_cell_length_c   9.77203800
_cell_angle_alpha   60.22216997
_cell_angle_beta   60.01816228
_cell_angle_gamma   60.01816824
_symmetry_Int_Tables_number   1
_chemical_formula_structural   Tb12Pr4Cd4CoRh3
_chemical_formula_sum   'Tb12 Pr4 Cd4 Co1 Rh3'
_cell_volume   662.79238702
_cell_formula_units_Z   1
loop_
 _symmetry_equiv_pos_site_id
 _symmetry_equiv_pos_as_xyz
  1  'x, y, z'
loop_
 _atom_site_type_symbol
 _atom_site_label
 _atom_site_symmetry_multiplicity
 _atom_site_fract_x
 _atom_site_fract_y
 _atom_site_fract_z
 _atom_site_occupancy
  Tb  Tb0  1  0.349586  0.348117  0.348117  1
  Tb  Tb1  1  0.343326  0.345191  0.960710  1
  Tb  Tb2  1  0.343326  0.960710  0.345191  1
  Tb  Tb3  1  0.958318  0.344455  0.344455  1
  Tb  Tb4  1  0.817538  0.186812  0.186812  1
  Tb  Tb5  1  0.185925  0.813140  0.813140  1
  Tb  Tb6  1  0.188510  0.816502  0.187666  1
  Tb  Tb7  1  0.811871  0.186655  0.811964  1
  Tb  Tb8  1  0.188510  0.187666  0.816502  1
  Tb  Tb9  1  0.811871  0.811964  0.186655  1
  Tb  Tb10  1  0.942873  0.555628  0.555628  1
  Tb  Tb11  1  0.556153  0.943049  0.943049  1
  Pr  Pr12  1  0.562079  0.936350  0.561836  1
  Pr  Pr13  1  0.937770  0.562559  0.935865  1
  Pr  Pr14  1  0.562079  0.561836  0.936350  1
  Pr  Pr15  1  0.937770  0.935865  0.562559  1
  Cd  Cd16  1  0.582697  0.577925  0.577925  1
  Cd  Cd17  1  0.579459  0.583968  0.259254  1
  Cd  Cd18  1  0.579459  0.259254  0.583968  1
  Cd  Cd19  1  0.260209  0.579560  0.579560  1
  Co  Co20  1  0.144700  0.139545  0.139545  1
  Rh  Rh21  1  0.140734  0.147655  0.574509  1
  Rh  Rh22  1  0.140734  0.574509  0.147655  1
  Rh  Rh23  1  0.574501  0.141083  0.141083  1
