# generated using pymatgen
data_Sr2Zn2Sb2O
_symmetry_space_group_name_H-M   'P 1'
_cell_length_a   4.48957600
_cell_length_b   4.48957342
_cell_length_c   19.94514000
_cell_angle_alpha   90.00002348
_cell_angle_beta   90.00004978
_cell_angle_gamma   59.99986901
_symmetry_Int_Tables_number   1
_chemical_formula_structural   Sr2Zn2Sb2O
_chemical_formula_sum   'Sr4 Zn4 Sb4 O2'
_cell_volume   348.15894144
_cell_formula_units_Z   2
loop_
 _symmetry_equiv_pos_site_id
 _symmetry_equiv_pos_as_xyz
  1  'x, y, z'
loop_
 _atom_site_type_symbol
 _atom_site_label
 _atom_site_symmetry_multiplicity
 _atom_site_fract_x
 _atom_site_fract_y
 _atom_site_fract_z
 _atom_site_occupancy
  Sr  Sr0  1  0.000001  0.000001  0.499998  1
  Sr  Sr1  1  0.999999  0.999999  0.999997  1
  Sr  Sr2  1  0.000002  0.000002  0.749999  1
  Sr  Sr3  1  0.999999  0.000000  0.250000  1
  Zn  Zn4  1  0.333333  0.333332  0.353121  1
  Zn  Zn5  1  0.666666  0.666668  0.853120  1
  Zn  Zn6  1  0.333332  0.333331  0.146884  1
  Zn  Zn7  1  0.666670  0.666667  0.646883  1
  Sb  Sb8  1  0.333335  0.333335  0.608969  1
  Sb  Sb9  1  0.333333  0.333333  0.891030  1
  Sb  Sb10  1  0.666665  0.666666  0.391031  1
  Sb  Sb11  1  0.666665  0.666666  0.108969  1
  O  O12  1  0.333333  0.333333  0.249998  1
  O  O13  1  0.666668  0.666668  0.749998  1
