# generated using pymatgen
data_HoErB6Ru
_symmetry_space_group_name_H-M   'P 1'
_cell_length_a   3.63801300
_cell_length_b   9.10459500
_cell_length_c   11.47619400
_cell_angle_alpha   90.00000000
_cell_angle_beta   90.00000000
_cell_angle_gamma   90.00000000
_symmetry_Int_Tables_number   1
_chemical_formula_structural   HoErB6Ru
_chemical_formula_sum   'Ho4 Er4 B24 Ru4'
_cell_volume   380.12178470
_cell_formula_units_Z   4
loop_
 _symmetry_equiv_pos_site_id
 _symmetry_equiv_pos_as_xyz
  1  'x, y, z'
loop_
 _atom_site_type_symbol
 _atom_site_label
 _atom_site_symmetry_multiplicity
 _atom_site_fract_x
 _atom_site_fract_y
 _atom_site_fract_z
 _atom_site_occupancy
  Ho  Ho0  1  0.000000  0.322481  0.414111  1
  Ho  Ho1  1  0.000000  0.677519  0.585889  1
  Ho  Ho2  1  0.000000  0.822481  0.085889  1
  Ho  Ho3  1  0.000000  0.177519  0.914111  1
  Er  Er4  1  0.000000  0.944260  0.372384  1
  Er  Er5  1  0.000000  0.055740  0.627616  1
  Er  Er6  1  0.000000  0.444260  0.127616  1
  Er  Er7  1  0.000000  0.555740  0.872384  1
  B  B8  1  0.500000  0.554384  0.433175  1
  B  B9  1  0.500000  0.445616  0.566825  1
  B  B10  1  0.500000  0.054384  0.066825  1
  B  B11  1  0.500000  0.945616  0.933175  1
  B  B12  1  0.500000  0.748696  0.419875  1
  B  B13  1  0.500000  0.251304  0.580125  1
  B  B14  1  0.500000  0.248696  0.080125  1
  B  B15  1  0.500000  0.751304  0.919875  1
  B  B16  1  0.500000  0.792034  0.266106  1
  B  B17  1  0.500000  0.207966  0.733894  1
  B  B18  1  0.500000  0.292034  0.233894  1
  B  B19  1  0.500000  0.707966  0.766106  1
  B  B20  1  0.500000  0.632189  0.184967  1
  B  B21  1  0.500000  0.367811  0.815033  1
  B  B22  1  0.500000  0.132189  0.315033  1
  B  B23  1  0.500000  0.867811  0.684967  1
  B  B24  1  0.500000  0.983746  0.212923  1
  B  B25  1  0.500000  0.016254  0.787077  1
  B  B26  1  0.500000  0.483746  0.287077  1
  B  B27  1  0.500000  0.516254  0.712923  1
  B  B28  1  0.500000  0.607714  0.029672  1
  B  B29  1  0.500000  0.392286  0.970328  1
  B  B30  1  0.500000  0.107714  0.470328  1
  B  B31  1  0.500000  0.892286  0.529672  1
  Ru  Ru32  1  0.000000  0.638326  0.320986  1
  Ru  Ru33  1  0.000000  0.361674  0.679014  1
  Ru  Ru34  1  0.000000  0.138326  0.179014  1
  Ru  Ru35  1  0.000000  0.861674  0.820986  1
