# generated using pymatgen
data_DyPa3Ge4(IrPt)2
_symmetry_space_group_name_H-M   'P 1'
_cell_length_a   4.35248900
_cell_length_b   7.02605370
_cell_length_c   7.66972387
_cell_angle_alpha   89.83250310
_cell_angle_beta   90.00000000
_cell_angle_gamma   90.00000000
_symmetry_Int_Tables_number   1
_chemical_formula_structural   DyPa3Ge4(IrPt)2
_chemical_formula_sum   'Dy1 Pa3 Ge4 Ir2 Pt2'
_cell_volume   234.54545395
_cell_formula_units_Z   1
loop_
 _symmetry_equiv_pos_site_id
 _symmetry_equiv_pos_as_xyz
  1  'x, y, z'
loop_
 _atom_site_type_symbol
 _atom_site_label
 _atom_site_symmetry_multiplicity
 _atom_site_fract_x
 _atom_site_fract_y
 _atom_site_fract_z
 _atom_site_occupancy
  Dy  Dy0  1  0.250000  0.491823  0.202575  1
  Pa  Pa1  1  0.750000  0.501128  0.795030  1
  Pa  Pa2  1  0.250000  0.991988  0.296551  1
  Pa  Pa3  1  0.750000  0.003478  0.706706  1
  Ge  Ge4  1  0.250000  0.812016  0.914265  1
  Ge  Ge5  1  0.250000  0.316803  0.586271  1
  Ge  Ge6  1  0.750000  0.186345  0.088027  1
  Ge  Ge7  1  0.750000  0.687732  0.412391  1
  Ir  Ir8  1  0.250000  0.730087  0.586984  1
  Ir  Ir9  1  0.250000  0.218115  0.908582  1
  Pt  Pt10  1  0.750000  0.780784  0.084680  1
  Pt  Pt11  1  0.750000  0.279703  0.417937  1
