# generated using pymatgen
data_NaHg2BrO2
_symmetry_space_group_name_H-M   'P 1'
_cell_length_a   6.69611300
_cell_length_b   6.69611241
_cell_length_c   10.15763400
_cell_angle_alpha   90.00000000
_cell_angle_beta   90.00000000
_cell_angle_gamma   120.00000783
_symmetry_Int_Tables_number   1
_chemical_formula_structural   NaHg2BrO2
_chemical_formula_sum   'Na3 Hg6 Br3 O6'
_cell_volume   394.42884483
_cell_formula_units_Z   3
loop_
 _symmetry_equiv_pos_site_id
 _symmetry_equiv_pos_as_xyz
  1  'x, y, z'
loop_
 _atom_site_type_symbol
 _atom_site_label
 _atom_site_symmetry_multiplicity
 _atom_site_fract_x
 _atom_site_fract_y
 _atom_site_fract_z
 _atom_site_occupancy
  Na  Na0  1  0.000000  0.000000  0.166667  1
  Na  Na1  1  0.000000  0.000000  0.833333  1
  Na  Na2  1  0.000000  0.000000  0.500000  1
  Hg  Hg3  1  0.500000  0.500000  0.004875  1
  Hg  Hg4  1  0.000000  0.500000  0.338208  1
  Hg  Hg5  1  0.500000  0.000000  0.671541  1
  Hg  Hg6  1  0.000000  0.500000  0.995125  1
  Hg  Hg7  1  0.500000  0.500000  0.661792  1
  Hg  Hg8  1  0.500000  0.000000  0.328459  1
  Br  Br9  1  0.500000  0.000000  0.000000  1
  Br  Br10  1  0.500000  0.500000  0.333333  1
  Br  Br11  1  0.000000  0.500000  0.666667  1
  O  O12  1  0.853307  0.706613  0.000000  1
  O  O13  1  0.146693  0.853307  0.333333  1
  O  O14  1  0.706613  0.853307  0.666667  1
  O  O15  1  0.293387  0.146693  0.666667  1
  O  O16  1  0.146693  0.293387  0.000000  1
  O  O17  1  0.853307  0.146693  0.333333  1
