# generated using pymatgen
data_LaZn3In
_symmetry_space_group_name_H-M   'P 1'
_cell_length_a   6.32339702
_cell_length_b   6.32339774
_cell_length_c   6.22158800
_cell_angle_alpha   90.00000000
_cell_angle_beta   90.00000000
_cell_angle_gamma   120.35235577
_symmetry_Int_Tables_number   1
_chemical_formula_structural   LaZn3In
_chemical_formula_sum   'La2 Zn6 In2'
_cell_volume   214.67420363
_cell_formula_units_Z   2
loop_
 _symmetry_equiv_pos_site_id
 _symmetry_equiv_pos_as_xyz
  1  'x, y, z'
loop_
 _atom_site_type_symbol
 _atom_site_label
 _atom_site_symmetry_multiplicity
 _atom_site_fract_x
 _atom_site_fract_y
 _atom_site_fract_z
 _atom_site_occupancy
  La  La0  1  0.253058  0.750710  0.750000  1
  La  La1  1  0.750710  0.253058  0.250000  1
  Zn  Zn2  1  0.882755  0.166426  0.750000  1
  Zn  Zn3  1  0.166426  0.882755  0.250000  1
  Zn  Zn4  1  0.609897  0.339916  0.750000  1
  Zn  Zn5  1  0.339916  0.609897  0.250000  1
  Zn  Zn6  1  0.244677  0.244677  0.000000  1
  Zn  Zn7  1  0.244677  0.244677  0.500000  1
  In  In8  1  0.753943  0.753943  0.000000  1
  In  In9  1  0.753943  0.753943  0.500000  1
