# generated using pymatgen
data_PrSmBi2O7
_symmetry_space_group_name_H-M   'P 1'
_cell_length_a   6.73238136
_cell_length_b   6.84202818
_cell_length_c   7.93976455
_cell_angle_alpha   106.46189420
_cell_angle_beta   89.69009700
_cell_angle_gamma   97.59298931
_symmetry_Int_Tables_number   1
_chemical_formula_structural   PrSmBi2O7
_chemical_formula_sum   'Pr2 Sm2 Bi4 O14'
_cell_volume   347.46578366
_cell_formula_units_Z   2
loop_
 _symmetry_equiv_pos_site_id
 _symmetry_equiv_pos_as_xyz
  1  'x, y, z'
loop_
 _atom_site_type_symbol
 _atom_site_label
 _atom_site_symmetry_multiplicity
 _atom_site_fract_x
 _atom_site_fract_y
 _atom_site_fract_z
 _atom_site_occupancy
  Pr  Pr0  1  0.257362  0.535713  0.883420  1
  Pr  Pr1  1  0.742638  0.464287  0.116580  1
  Sm  Sm2  1  0.457326  0.004343  0.251611  1
  Sm  Sm3  1  0.542674  0.995657  0.748389  1
  Bi  Bi4  1  0.000000  0.000000  0.500000  1
  Bi  Bi5  1  0.000000  0.000000  0.000000  1
  Bi  Bi6  1  0.722537  0.457877  0.609833  1
  Bi  Bi7  1  0.277463  0.542123  0.390167  1
  O  O8  1  0.440163  0.648639  0.172239  1
  O  O9  1  0.559837  0.351361  0.827761  1
  O  O10  1  0.300563  0.927993  0.950344  1
  O  O11  1  0.699437  0.072007  0.049656  1
  O  O12  1  0.297664  0.914811  0.509431  1
  O  O13  1  0.702336  0.085189  0.490569  1
  O  O14  1  0.540218  0.360905  0.348858  1
  O  O15  1  0.459782  0.639095  0.651142  1
  O  O16  1  0.931886  0.679378  0.965248  1
  O  O17  1  0.068114  0.320622  0.034752  1
  O  O18  1  0.091417  0.316130  0.623052  1
  O  O19  1  0.908583  0.683870  0.376948  1
  O  O20  1  0.884371  0.926731  0.732732  1
  O  O21  1  0.115629  0.073269  0.267268  1
