# generated using pymatgen
data_Dy5Y3(RuC2)4
_symmetry_space_group_name_H-M   'P 1'
_cell_length_a   5.12065600
_cell_length_b   6.46252802
_cell_length_c   9.79624803
_cell_angle_alpha   90.00962466
_cell_angle_beta   90.00000000
_cell_angle_gamma   90.00000000
_symmetry_Int_Tables_number   1
_chemical_formula_structural   Dy5Y3(RuC2)4
_chemical_formula_sum   'Dy5 Y3 Ru4 C8'
_cell_volume   324.18118632
_cell_formula_units_Z   1
loop_
 _symmetry_equiv_pos_site_id
 _symmetry_equiv_pos_as_xyz
  1  'x, y, z'
loop_
 _atom_site_type_symbol
 _atom_site_label
 _atom_site_symmetry_multiplicity
 _atom_site_fract_x
 _atom_site_fract_y
 _atom_site_fract_z
 _atom_site_occupancy
  Dy  Dy0  1  0.750000  0.820958  0.054718  1
  Dy  Dy1  1  0.250000  0.678736  0.554637  1
  Dy  Dy2  1  0.750000  0.321645  0.445587  1
  Dy  Dy3  1  0.250000  0.178509  0.945127  1
  Dy  Dy4  1  0.750000  0.473877  0.783081  1
  Y  Y5  1  0.250000  0.026851  0.283160  1
  Y  Y6  1  0.750000  0.973106  0.716813  1
  Y  Y7  1  0.250000  0.526755  0.216831  1
  Ru  Ru8  1  0.750000  0.279271  0.134769  1
  Ru  Ru9  1  0.250000  0.220672  0.634789  1
  Ru  Ru10  1  0.750000  0.779318  0.365207  1
  Ru  Ru11  1  0.250000  0.720323  0.865060  1
  C  C12  1  0.750000  0.174988  0.947276  1
  C  C13  1  0.250000  0.825610  0.052521  1
  C  C14  1  0.750000  0.673937  0.552896  1
  C  C15  1  0.250000  0.325687  0.447414  1
  C  C16  1  0.750000  0.043134  0.256902  1
  C  C17  1  0.250000  0.456684  0.756828  1
  C  C18  1  0.750000  0.543095  0.243234  1
  C  C19  1  0.250000  0.956844  0.743152  1
