# generated using pymatgen
data_Dy10C4Cl17
_symmetry_space_group_name_H-M   'P 1'
_cell_length_a   8.50028955
_cell_length_b   9.19755691
_cell_length_c   11.48441427
_cell_angle_alpha   104.90771893
_cell_angle_beta   96.06594395
_cell_angle_gamma   110.08628865
_symmetry_Int_Tables_number   1
_chemical_formula_structural   Dy10C4Cl17
_chemical_formula_sum   'Dy10 C4 Cl17'
_cell_volume   796.03864339
_cell_formula_units_Z   1
loop_
 _symmetry_equiv_pos_site_id
 _symmetry_equiv_pos_as_xyz
  1  'x, y, z'
loop_
 _atom_site_type_symbol
 _atom_site_label
 _atom_site_symmetry_multiplicity
 _atom_site_fract_x
 _atom_site_fract_y
 _atom_site_fract_z
 _atom_site_occupancy
  Dy  Dy0  1  0.651485  0.489074  0.438167  1
  Dy  Dy1  1  0.348515  0.510926  0.561833  1
  Dy  Dy2  1  0.084057  0.424712  0.271596  1
  Dy  Dy3  1  0.915943  0.575288  0.728404  1
  Dy  Dy4  1  0.408993  0.369726  0.139531  1
  Dy  Dy5  1  0.591008  0.630274  0.860469  1
  Dy  Dy6  1  0.489511  0.781069  0.342356  1
  Dy  Dy7  1  0.510489  0.218932  0.657644  1
  Dy  Dy8  1  0.210214  0.099691  0.308227  1
  Dy  Dy9  1  0.789787  0.900310  0.691773  1
  C  C10  1  0.397729  0.530686  0.345111  1
  C  C11  1  0.602271  0.469316  0.654889  1
  C  C12  1  0.327934  0.362559  0.339501  1
  C  C13  1  0.672066  0.637441  0.660498  1
  Cl  Cl14  1  0.103319  0.349495  0.040549  1
  Cl  Cl15  1  0.896682  0.650505  0.959451  1
  Cl  Cl16  1  0.810958  0.821438  0.443784  1
  Cl  Cl17  1  0.189042  0.178561  0.556215  1
  Cl  Cl18  1  0.000000  0.500000  0.500000  1
  Cl  Cl19  1  0.298435  0.045214  0.093550  1
  Cl  Cl20  1  0.701566  0.954786  0.906451  1
  Cl  Cl21  1  0.906897  0.106096  0.247802  1
  Cl  Cl22  1  0.093103  0.893904  0.752198  1
  Cl  Cl23  1  0.545577  0.128737  0.409968  1
  Cl  Cl24  1  0.454424  0.871265  0.590032  1
  Cl  Cl25  1  0.739061  0.413765  0.211768  1
  Cl  Cl26  1  0.260939  0.586235  0.788233  1
  Cl  Cl27  1  0.163740  0.756602  0.285475  1
  Cl  Cl28  1  0.836260  0.243400  0.714525  1
  Cl  Cl29  1  0.534414  0.683935  0.111383  1
  Cl  Cl30  1  0.465587  0.316064  0.888616  1
