# generated using pymatgen
data_Ca10ScTcN10
_symmetry_space_group_name_H-M   'P 1'
_cell_length_a   7.00350677
_cell_length_b   7.00350632
_cell_length_c   8.88301235
_cell_angle_alpha   80.60326449
_cell_angle_beta   80.60325799
_cell_angle_gamma   59.96130005
_symmetry_Int_Tables_number   1
_chemical_formula_structural   Ca10ScTcN10
_chemical_formula_sum   'Ca10 Sc1 Tc1 N10'
_cell_volume   370.42228197
_cell_formula_units_Z   1
loop_
 _symmetry_equiv_pos_site_id
 _symmetry_equiv_pos_as_xyz
  1  'x, y, z'
loop_
 _atom_site_type_symbol
 _atom_site_label
 _atom_site_symmetry_multiplicity
 _atom_site_fract_x
 _atom_site_fract_y
 _atom_site_fract_z
 _atom_site_occupancy
  Ca  Ca0  1  0.876825  0.358759  0.826791  1
  Ca  Ca1  1  0.873844  0.873844  0.814028  1
  Ca  Ca2  1  0.735889  0.735889  0.535139  1
  Ca  Ca3  1  0.741737  0.258794  0.516766  1
  Ca  Ca4  1  0.621796  0.141960  0.144401  1
  Ca  Ca5  1  0.358759  0.876825  0.826791  1
  Ca  Ca6  1  0.258794  0.741737  0.516766  1
  Ca  Ca7  1  0.241653  0.241653  0.505544  1
  Ca  Ca8  1  0.142996  0.142996  0.158817  1
  Ca  Ca9  1  0.141960  0.621796  0.144401  1
  Sc  Sc10  1  0.369395  0.369395  0.778782  1
  Tc  Tc11  1  0.632667  0.632667  0.228247  1
  N  N12  1  0.901700  0.475217  0.315550  1
  N  N13  1  0.992567  0.992567  0.027589  1
  N  N14  1  0.675650  0.675650  0.023061  1
  N  N15  1  0.547055  0.547055  0.686896  1
  N  N16  1  0.475217  0.901700  0.315550  1
  N  N17  1  0.548703  0.071669  0.664383  1
  N  N18  1  0.477486  0.477486  0.295411  1
  N  N19  1  0.316025  0.316025  0.011613  1
  N  N20  1  0.059901  0.059901  0.644895  1
  N  N21  1  0.071669  0.548703  0.664383  1
