# generated using pymatgen
data_Pr5Pu(BO3)6
_symmetry_space_group_name_H-M   'P 1'
_cell_length_a   6.83502126
_cell_length_b   6.85130469
_cell_length_c   9.92166100
_cell_angle_alpha   70.16884109
_cell_angle_beta   70.15715685
_cell_angle_gamma   59.99276000
_symmetry_Int_Tables_number   1
_chemical_formula_structural   Pr5Pu(BO3)6
_chemical_formula_sum   'Pr5 Pu1 B6 O18'
_cell_volume   370.17104603
_cell_formula_units_Z   1
loop_
 _symmetry_equiv_pos_site_id
 _symmetry_equiv_pos_as_xyz
  1  'x, y, z'
loop_
 _atom_site_type_symbol
 _atom_site_label
 _atom_site_symmetry_multiplicity
 _atom_site_fract_x
 _atom_site_fract_y
 _atom_site_fract_z
 _atom_site_occupancy
  Pr  Pr0  1  0.998461  0.500749  0.500032  1
  Pr  Pr1  1  0.500624  0.999856  0.999609  1
  Pr  Pr2  1  0.829114  0.342976  0.000691  1
  Pr  Pr3  1  0.654510  0.172340  0.499213  1
  Pr  Pr4  1  0.171742  0.656270  0.999623  1
  Pu  Pu5  1  0.338773  0.830889  0.500777  1
  B  B6  1  0.083621  0.149159  0.252780  1
  B  B7  1  0.848061  0.918036  0.247833  1
  B  B8  1  0.918790  0.849635  0.747201  1
  B  B9  1  0.150579  0.081955  0.752632  1
  B  B10  1  0.316428  0.684127  0.250110  1
  B  B11  1  0.682611  0.317209  0.749416  1
  O  O12  1  0.040835  0.209776  0.390653  1
  O  O13  1  0.785257  0.964546  0.110338  1
  O  O14  1  0.969008  0.785217  0.609408  1
  O  O15  1  0.215009  0.036386  0.889433  1
  O  O16  1  0.128960  0.304883  0.115725  1
  O  O17  1  0.693324  0.871169  0.385830  1
  O  O18  1  0.870817  0.695184  0.884245  1
  O  O19  1  0.304691  0.127853  0.614484  1
  O  O20  1  0.473346  0.619512  0.113422  1
  O  O21  1  0.379045  0.529029  0.387643  1
  O  O22  1  0.526832  0.379398  0.886807  1
  O  O23  1  0.618897  0.473917  0.612149  1
  O  O24  1  0.083193  0.709691  0.247943  1
  O  O25  1  0.291886  0.915593  0.251681  1
  O  O26  1  0.915824  0.290913  0.752080  1
  O  O27  1  0.709460  0.083823  0.746919  1
  O  O28  1  0.874075  0.125769  0.250543  1
  O  O29  1  0.126229  0.874143  0.750785  1
