# generated using pymatgen
data_Sm(PdO2)2
_symmetry_space_group_name_H-M   'P 1'
_cell_length_a   6.59186071
_cell_length_b   6.59186022
_cell_length_c   6.59186083
_cell_angle_alpha   126.88063043
_cell_angle_beta   126.88062906
_cell_angle_gamma   78.44551188
_symmetry_Int_Tables_number   1
_chemical_formula_structural   Sm(PdO2)2
_chemical_formula_sum   'Sm2 Pd4 O8'
_cell_volume   177.45211243
_cell_formula_units_Z   2
loop_
 _symmetry_equiv_pos_site_id
 _symmetry_equiv_pos_as_xyz
  1  'x, y, z'
loop_
 _atom_site_type_symbol
 _atom_site_label
 _atom_site_symmetry_multiplicity
 _atom_site_fract_x
 _atom_site_fract_y
 _atom_site_fract_z
 _atom_site_occupancy
  Sm  Sm0  1  0.000000  0.000000  0.000000  1
  Sm  Sm1  1  0.750000  0.250000  0.500000  1
  Pd  Pd2  1  0.375000  0.125000  0.750000  1
  Pd  Pd3  1  0.375000  0.625000  0.750000  1
  Pd  Pd4  1  0.875000  0.625000  0.250000  1
  Pd  Pd5  1  0.375000  0.625000  0.250000  1
  O  O6  1  0.353080  0.394322  0.349962  1
  O  O7  1  0.753118  0.603080  0.458758  1
  O  O8  1  0.144322  0.294360  0.541242  1
  O  O9  1  0.044360  0.003118  0.650038  1
  O  O10  1  0.396920  0.855678  0.150038  1
  O  O11  1  0.996882  0.646920  0.041242  1
  O  O12  1  0.705640  0.246882  0.849962  1
  O  O13  1  0.605678  0.955640  0.958758  1
