# generated using pymatgen
data_CsY(PSe3)2
_symmetry_space_group_name_H-M   'P 1'
_cell_length_a   7.61523400
_cell_length_b   6.90673069
_cell_length_c   11.08677500
_cell_angle_alpha   85.80220845
_cell_angle_beta   90.00000000
_cell_angle_gamma   90.00000000
_symmetry_Int_Tables_number   1
_chemical_formula_structural   CsY(PSe3)2
_chemical_formula_sum   'Cs2 Y2 P4 Se12'
_cell_volume   581.55977682
_cell_formula_units_Z   2
loop_
 _symmetry_equiv_pos_site_id
 _symmetry_equiv_pos_as_xyz
  1  'x, y, z'
loop_
 _atom_site_type_symbol
 _atom_site_label
 _atom_site_symmetry_multiplicity
 _atom_site_fract_x
 _atom_site_fract_y
 _atom_site_fract_z
 _atom_site_occupancy
  Cs  Cs0  1  0.684909  0.204379  0.995203  1
  Cs  Cs1  1  0.184909  0.795621  0.004797  1
  Y  Y2  1  0.887144  0.281410  0.500075  1
  Y  Y3  1  0.387144  0.718590  0.499925  1
  P  P4  1  0.151697  0.285506  0.771368  1
  P  P5  1  0.651697  0.714494  0.228632  1
  P  P6  1  0.878358  0.823759  0.337356  1
  P  P7  1  0.378358  0.176241  0.662644  1
  Se  Se8  1  0.077357  0.585570  0.339971  1
  Se  Se9  1  0.945363  0.074035  0.742505  1
  Se  Se10  1  0.577357  0.414430  0.660029  1
  Se  Se11  1  0.226774  0.308534  0.956797  1
  Se  Se12  1  0.573257  0.447426  0.343868  1
  Se  Se13  1  0.073257  0.552574  0.656132  1
  Se  Se14  1  0.753276  0.867703  0.516970  1
  Se  Se15  1  0.253276  0.132297  0.483030  1
  Se  Se16  1  0.473666  0.892006  0.736594  1
  Se  Se17  1  0.973666  0.107994  0.263406  1
  Se  Se18  1  0.726774  0.691466  0.043203  1
  Se  Se19  1  0.445363  0.925965  0.257495  1
