# generated using pymatgen
data_Nd4Lu4Tc(B8Os)3
_symmetry_space_group_name_H-M   'P 1'
_cell_length_a   3.68026100
_cell_length_b   9.18161996
_cell_length_c   11.62861700
_cell_angle_alpha   89.94717321
_cell_angle_beta   90.00000000
_cell_angle_gamma   90.00000000
_symmetry_Int_Tables_number   1
_chemical_formula_structural   Nd4Lu4Tc(B8Os)3
_chemical_formula_sum   'Nd4 Lu4 Tc1 B24 Os3'
_cell_volume   392.93961437
_cell_formula_units_Z   1
loop_
 _symmetry_equiv_pos_site_id
 _symmetry_equiv_pos_as_xyz
  1  'x, y, z'
loop_
 _atom_site_type_symbol
 _atom_site_label
 _atom_site_symmetry_multiplicity
 _atom_site_fract_x
 _atom_site_fract_y
 _atom_site_fract_z
 _atom_site_occupancy
  Nd  Nd0  1  0.000000  0.323328  0.413118  1
  Nd  Nd1  1  0.000000  0.677755  0.583892  1
  Nd  Nd2  1  0.000000  0.820514  0.087364  1
  Nd  Nd3  1  0.000000  0.177725  0.914942  1
  Lu  Lu4  1  0.000000  0.943045  0.372309  1
  Lu  Lu5  1  0.000000  0.056479  0.627749  1
  Lu  Lu6  1  0.000000  0.445132  0.128531  1
  Lu  Lu7  1  0.000000  0.556173  0.871810  1
  Tc  Tc8  1  0.000000  0.639475  0.318988  1
  B  B9  1  0.500000  0.555261  0.430157  1
  B  B10  1  0.500000  0.444120  0.569896  1
  B  B11  1  0.500000  0.056045  0.069828  1
  B  B12  1  0.500000  0.943741  0.930548  1
  B  B13  1  0.500000  0.750536  0.416713  1
  B  B14  1  0.500000  0.249559  0.583150  1
  B  B15  1  0.500000  0.250535  0.082919  1
  B  B16  1  0.500000  0.749436  0.917028  1
  B  B17  1  0.500000  0.791382  0.266800  1
  B  B18  1  0.500000  0.208855  0.733406  1
  B  B19  1  0.500000  0.291225  0.232811  1
  B  B20  1  0.500000  0.709182  0.766542  1
  B  B21  1  0.500000  0.629544  0.185811  1
  B  B22  1  0.500000  0.370248  0.814793  1
  B  B23  1  0.500000  0.129534  0.314216  1
  B  B24  1  0.500000  0.870712  0.685347  1
  B  B25  1  0.500000  0.984174  0.214582  1
  B  B26  1  0.500000  0.015651  0.785912  1
  B  B27  1  0.500000  0.483669  0.285373  1
  B  B28  1  0.500000  0.515603  0.714557  1
  B  B29  1  0.500000  0.599766  0.026722  1
  B  B30  1  0.500000  0.400148  0.972434  1
  B  B31  1  0.500000  0.100350  0.472866  1
  B  B32  1  0.500000  0.900780  0.527704  1
  Os  Os33  1  0.000000  0.360226  0.681640  1
  Os  Os34  1  0.000000  0.139451  0.180711  1
  Os  Os35  1  0.000000  0.860638  0.818828  1
