# generated using pymatgen
data_HoTm7Sc12Si15Ru
_symmetry_space_group_name_H-M   'P 1'
_cell_length_a   7.02773302
_cell_length_b   7.40205715
_cell_length_c   13.86098622
_cell_angle_alpha   90.01982235
_cell_angle_beta   90.00567629
_cell_angle_gamma   90.21032163
_symmetry_Int_Tables_number   1
_chemical_formula_structural   HoTm7Sc12Si15Ru
_chemical_formula_sum   'Ho1 Tm7 Sc12 Si15 Ru1'
_cell_volume   721.03918344
_cell_formula_units_Z   1
loop_
 _symmetry_equiv_pos_site_id
 _symmetry_equiv_pos_as_xyz
  1  'x, y, z'
loop_
 _atom_site_type_symbol
 _atom_site_label
 _atom_site_symmetry_multiplicity
 _atom_site_fract_x
 _atom_site_fract_y
 _atom_site_fract_z
 _atom_site_occupancy
  Ho  Ho0  1  0.010984  0.179138  0.095443  1
  Tm  Tm1  1  0.991371  0.826562  0.905082  1
  Tm  Tm2  1  0.489418  0.677963  0.904702  1
  Tm  Tm3  1  0.991421  0.826641  0.594834  1
  Tm  Tm4  1  0.510863  0.321814  0.095818  1
  Tm  Tm5  1  0.011135  0.179511  0.404217  1
  Tm  Tm6  1  0.510956  0.321753  0.404232  1
  Tm  Tm7  1  0.489361  0.677929  0.595236  1
  Sc  Sc8  1  0.158556  0.504568  0.749989  1
  Sc  Sc9  1  0.837670  0.494444  0.250148  1
  Sc  Sc10  1  0.339268  0.006278  0.250121  1
  Sc  Sc11  1  0.670009  0.997247  0.749996  1
  Sc  Sc12  1  0.316113  0.171821  0.627915  1
  Sc  Sc13  1  0.671631  0.825448  0.374217  1
  Sc  Sc14  1  0.171107  0.677927  0.374218  1
  Sc  Sc15  1  0.671581  0.825338  0.125876  1
  Sc  Sc16  1  0.838123  0.319911  0.627649  1
  Sc  Sc17  1  0.316303  0.171763  0.871962  1
  Sc  Sc18  1  0.837954  0.320133  0.872230  1
  Sc  Sc19  1  0.171140  0.677901  0.125887  1
  Si  Si20  1  0.968704  0.886907  0.250152  1
  Si  Si21  1  0.469424  0.611918  0.250043  1
  Si  Si22  1  0.529437  0.390051  0.749969  1
  Si  Si23  1  0.286714  0.864566  0.749982  1
  Si  Si24  1  0.713191  0.131621  0.250284  1
  Si  Si25  1  0.214380  0.369195  0.250296  1
  Si  Si26  1  0.779776  0.629104  0.749974  1
  Si  Si27  1  0.161460  0.468655  0.537349  1
  Si  Si28  1  0.842142  0.535060  0.461644  1
  Si  Si29  1  0.342641  0.966516  0.460311  1
  Si  Si30  1  0.841938  0.535579  0.038212  1
  Si  Si31  1  0.657238  0.034513  0.538715  1
  Si  Si32  1  0.161569  0.469114  0.962481  1
  Si  Si33  1  0.657083  0.034418  0.961215  1
  Si  Si34  1  0.343325  0.966149  0.039580  1
  Ru  Ru35  1  0.026010  0.102545  0.750023  1
