# generated using pymatgen
data_CaTa2Cd3(SbO7)2
_symmetry_space_group_name_H-M   'P 1'
_cell_length_a   7.34070453
_cell_length_b   7.45424589
_cell_length_c   7.39124123
_cell_angle_alpha   60.60650618
_cell_angle_beta   60.22593019
_cell_angle_gamma   60.50260625
_symmetry_Int_Tables_number   1
_chemical_formula_structural   CaTa2Cd3(SbO7)2
_chemical_formula_sum   'Ca1 Ta2 Cd3 Sb2 O14'
_cell_volume   288.85593838
_cell_formula_units_Z   1
loop_
 _symmetry_equiv_pos_site_id
 _symmetry_equiv_pos_as_xyz
  1  'x, y, z'
loop_
 _atom_site_type_symbol
 _atom_site_label
 _atom_site_symmetry_multiplicity
 _atom_site_fract_x
 _atom_site_fract_y
 _atom_site_fract_z
 _atom_site_occupancy
  Ca  Ca0  1  0.125000  0.625000  0.125000  1
  Ta  Ta1  1  0.625000  0.125000  0.625000  1
  Ta  Ta2  1  0.625000  0.625000  0.125000  1
  Cd  Cd3  1  0.625000  0.125000  0.125000  1
  Cd  Cd4  1  0.125000  0.125000  0.625000  1
  Cd  Cd5  1  0.125000  0.125000  0.125000  1
  Sb  Sb6  1  0.125000  0.625000  0.625000  1
  Sb  Sb7  1  0.625000  0.625000  0.625000  1
  O  O8  1  0.699766  0.690968  0.305506  1
  O  O9  1  0.305605  0.309113  0.692814  1
  O  O10  1  0.692468  0.309113  0.692814  1
  O  O11  1  0.303760  0.690968  0.305506  1
  O  O12  1  0.298296  0.697803  0.705605  1
  O  O13  1  0.687258  0.313941  0.311543  1
  O  O14  1  0.550234  0.559032  0.944494  1
  O  O15  1  0.944395  0.940887  0.557186  1
  O  O16  1  0.557532  0.940887  0.557186  1
  O  O17  1  0.946240  0.559032  0.944494  1
  O  O18  1  0.951704  0.552197  0.544395  1
  O  O19  1  0.562742  0.936059  0.938457  1
  O  O20  1  0.256446  0.235185  0.251924  1
  O  O21  1  0.993554  0.014815  0.998076  1
