# generated using pymatgen
data_Nd4PdRhAu2
_symmetry_space_group_name_H-M   'P 1'
_cell_length_a   4.77693300
_cell_length_b   5.78788247
_cell_length_c   7.35728026
_cell_angle_alpha   88.41764422
_cell_angle_beta   90.00000000
_cell_angle_gamma   90.00000000
_symmetry_Int_Tables_number   1
_chemical_formula_structural   Nd4PdRhAu2
_chemical_formula_sum   'Nd4 Pd1 Rh1 Au2'
_cell_volume   203.33891928
_cell_formula_units_Z   1
loop_
 _symmetry_equiv_pos_site_id
 _symmetry_equiv_pos_as_xyz
  1  'x, y, z'
loop_
 _atom_site_type_symbol
 _atom_site_label
 _atom_site_symmetry_multiplicity
 _atom_site_fract_x
 _atom_site_fract_y
 _atom_site_fract_z
 _atom_site_occupancy
  Nd  Nd0  1  0.250000  0.361637  0.674874  1
  Nd  Nd1  1  0.250000  0.138899  0.196754  1
  Nd  Nd2  1  0.750000  0.649856  0.327827  1
  Nd  Nd3  1  0.750000  0.858689  0.800964  1
  Pd  Pd4  1  0.750000  0.153985  0.457562  1
  Rh  Rh5  1  0.250000  0.836221  0.540279  1
  Au  Au6  1  0.250000  0.652154  0.039789  1
  Au  Au7  1  0.750000  0.348560  0.961950  1
