# generated using pymatgen
data_BaY(AgPb)2
_symmetry_space_group_name_H-M   'P 1'
_cell_length_a   4.98645100
_cell_length_b   4.98645104
_cell_length_c   8.22139600
_cell_angle_alpha   90.00000000
_cell_angle_beta   90.00000000
_cell_angle_gamma   120.00000636
_symmetry_Int_Tables_number   1
_chemical_formula_structural   BaY(AgPb)2
_chemical_formula_sum   'Ba1 Y1 Ag2 Pb2'
_cell_volume   177.03506157
_cell_formula_units_Z   1
loop_
 _symmetry_equiv_pos_site_id
 _symmetry_equiv_pos_as_xyz
  1  'x, y, z'
loop_
 _atom_site_type_symbol
 _atom_site_label
 _atom_site_symmetry_multiplicity
 _atom_site_fract_x
 _atom_site_fract_y
 _atom_site_fract_z
 _atom_site_occupancy
  Ba  Ba0  1  0.000000  0.000000  0.016017  1
  Y  Y1  1  0.000000  0.000000  0.516651  1
  Ag  Ag2  1  0.333333  0.666667  0.695297  1
  Ag  Ag3  1  0.666667  0.333333  0.345717  1
  Pb  Pb4  1  0.333333  0.666667  0.301977  1
  Pb  Pb5  1  0.666667  0.333333  0.727340  1
