# generated using pymatgen
data_La3Ga(Ni6B)2
_symmetry_space_group_name_H-M   'P 1'
_cell_length_a   5.10527400
_cell_length_b   5.04865939
_cell_length_c   11.06184700
_cell_angle_alpha   90.00000000
_cell_angle_beta   90.00000000
_cell_angle_gamma   120.37163458
_symmetry_Int_Tables_number   1
_chemical_formula_structural   La3Ga(Ni6B)2
_chemical_formula_sum   'La3 Ga1 Ni12 B2'
_cell_volume   245.98851624
_cell_formula_units_Z   1
loop_
 _symmetry_equiv_pos_site_id
 _symmetry_equiv_pos_as_xyz
  1  'x, y, z'
loop_
 _atom_site_type_symbol
 _atom_site_label
 _atom_site_symmetry_multiplicity
 _atom_site_fract_x
 _atom_site_fract_y
 _atom_site_fract_z
 _atom_site_occupancy
  La  La0  1  0.000000  0.000000  0.000000  1
  La  La1  1  0.000000  0.000000  0.319575  1
  La  La2  1  0.000000  0.000000  0.680425  1
  Ga  Ga3  1  0.500000  0.000000  0.500000  1
  Ni  Ni4  1  0.500000  0.500000  0.500000  1
  Ni  Ni5  1  0.000000  0.500000  0.500000  1
  Ni  Ni6  1  0.333205  0.666410  0.316634  1
  Ni  Ni7  1  0.666795  0.333590  0.316634  1
  Ni  Ni8  1  0.666795  0.333590  0.683366  1
  Ni  Ni9  1  0.333205  0.666410  0.683366  1
  Ni  Ni10  1  0.500000  0.000000  0.130305  1
  Ni  Ni11  1  0.500000  0.500000  0.131033  1
  Ni  Ni12  1  0.000000  0.500000  0.131033  1
  Ni  Ni13  1  0.500000  0.000000  0.869695  1
  Ni  Ni14  1  0.500000  0.500000  0.868967  1
  Ni  Ni15  1  0.000000  0.500000  0.868967  1
  B  B16  1  0.333076  0.666154  0.000000  1
  B  B17  1  0.666924  0.333846  0.000000  1
