# generated using pymatgen
data_Tb2YIn3Pd2Pt
_symmetry_space_group_name_H-M   'P 1'
_cell_length_a   7.81186300
_cell_length_b   7.81078098
_cell_length_c   3.77541000
_cell_angle_alpha   90.00000000
_cell_angle_beta   90.00000000
_cell_angle_gamma   120.00362727
_symmetry_Int_Tables_number   1
_chemical_formula_structural   Tb2YIn3Pd2Pt
_chemical_formula_sum   'Tb2 Y1 In3 Pd2 Pt1'
_cell_volume   199.49313582
_cell_formula_units_Z   1
loop_
 _symmetry_equiv_pos_site_id
 _symmetry_equiv_pos_as_xyz
  1  'x, y, z'
loop_
 _atom_site_type_symbol
 _atom_site_label
 _atom_site_symmetry_multiplicity
 _atom_site_fract_x
 _atom_site_fract_y
 _atom_site_fract_z
 _atom_site_occupancy
  Tb  Tb0  1  0.405615  0.994120  0.500000  1
  Tb  Tb1  1  0.005627  0.411265  0.500000  1
  Y  Y2  1  0.588969  0.594635  0.500000  1
  In  In3  1  0.739640  0.002851  0.000000  1
  In  In4  1  0.263736  0.260512  0.000000  1
  In  In5  1  0.996461  0.736419  0.000000  1
  Pd  Pd6  1  0.000262  0.000238  0.500000  1
  Pd  Pd7  1  0.666702  0.333172  0.000000  1
  Pt  Pt8  1  0.332987  0.666787  0.000000  1
