# generated using pymatgen
data_Ta2SiNiRu4
_symmetry_space_group_name_H-M   'P 1'
_cell_length_a   4.04818400
_cell_length_b   5.32142559
_cell_length_c   10.59597790
_cell_angle_alpha   88.01496022
_cell_angle_beta   90.00000000
_cell_angle_gamma   90.00000000
_symmetry_Int_Tables_number   1
_chemical_formula_structural   Ta2SiNiRu4
_chemical_formula_sum   'Ta4 Si2 Ni2 Ru8'
_cell_volume   228.12274335
_cell_formula_units_Z   2
loop_
 _symmetry_equiv_pos_site_id
 _symmetry_equiv_pos_as_xyz
  1  'x, y, z'
loop_
 _atom_site_type_symbol
 _atom_site_label
 _atom_site_symmetry_multiplicity
 _atom_site_fract_x
 _atom_site_fract_y
 _atom_site_fract_z
 _atom_site_occupancy
  Ta  Ta0  1  0.500000  0.833605  0.359004  1
  Ta  Ta1  1  0.500000  0.166395  0.640996  1
  Ta  Ta2  1  0.500000  0.329606  0.138611  1
  Ta  Ta3  1  0.500000  0.670394  0.861389  1
  Si  Si4  1  0.000000  0.500000  0.500000  1
  Si  Si5  1  0.000000  0.000000  0.000000  1
  Ni  Ni6  1  0.000000  0.580101  0.252003  1
  Ni  Ni7  1  0.000000  0.419899  0.747997  1
  Ru  Ru8  1  0.000000  0.500000  0.000000  1
  Ru  Ru9  1  0.000000  0.000000  0.500000  1
  Ru  Ru10  1  0.000000  0.085937  0.244328  1
  Ru  Ru11  1  0.000000  0.914063  0.755672  1
  Ru  Ru12  1  0.500000  0.819753  0.108734  1
  Ru  Ru13  1  0.500000  0.180247  0.891266  1
  Ru  Ru14  1  0.500000  0.330090  0.391715  1
  Ru  Ru15  1  0.500000  0.669910  0.608285  1
