# generated using pymatgen
data_Ho4Lu4B24Mo3Rh
_symmetry_space_group_name_H-M   'P 1'
_cell_length_a   3.61591800
_cell_length_b   9.16967994
_cell_length_c   11.55949470
_cell_angle_alpha   90.14078029
_cell_angle_beta   90.00000000
_cell_angle_gamma   90.00000000
_symmetry_Int_Tables_number   1
_chemical_formula_structural   Ho4Lu4B24Mo3Rh
_chemical_formula_sum   'Ho4 Lu4 B24 Mo3 Rh1'
_cell_volume   383.27482110
_cell_formula_units_Z   1
loop_
 _symmetry_equiv_pos_site_id
 _symmetry_equiv_pos_as_xyz
  1  'x, y, z'
loop_
 _atom_site_type_symbol
 _atom_site_label
 _atom_site_symmetry_multiplicity
 _atom_site_fract_x
 _atom_site_fract_y
 _atom_site_fract_z
 _atom_site_occupancy
  Ho  Ho0  1  0.500000  0.318647  0.414777  1
  Ho  Ho1  1  0.500000  0.678888  0.588336  1
  Ho  Ho2  1  0.500000  0.178269  0.913608  1
  Ho  Ho3  1  0.500000  0.824163  0.083079  1
  Lu  Lu4  1  0.500000  0.443646  0.129075  1
  Lu  Lu5  1  0.500000  0.555865  0.872582  1
  Lu  Lu6  1  0.500000  0.054829  0.627768  1
  Lu  Lu7  1  0.500000  0.943213  0.370925  1
  B  B8  1  0.000000  0.097976  0.472200  1
  B  B9  1  0.000000  0.897440  0.526520  1
  B  B10  1  0.000000  0.400245  0.973238  1
  B  B11  1  0.000000  0.601214  0.029403  1
  B  B12  1  0.000000  0.130999  0.318340  1
  B  B13  1  0.000000  0.868193  0.682730  1
  B  B14  1  0.000000  0.369848  0.816255  1
  B  B15  1  0.000000  0.631526  0.183739  1
  B  B16  1  0.000000  0.052578  0.065908  1
  B  B17  1  0.000000  0.948087  0.934210  1
  B  B18  1  0.000000  0.448454  0.564328  1
  B  B19  1  0.000000  0.555373  0.432796  1
  B  B20  1  0.000000  0.484023  0.287380  1
  B  B21  1  0.000000  0.520908  0.712858  1
  B  B22  1  0.000000  0.020229  0.786267  1
  B  B23  1  0.000000  0.978907  0.213096  1
  B  B24  1  0.000000  0.253052  0.079999  1
  B  B25  1  0.000000  0.747889  0.920946  1
  B  B26  1  0.000000  0.246168  0.579043  1
  B  B27  1  0.000000  0.750642  0.419294  1
  B  B28  1  0.000000  0.296315  0.237280  1
  B  B29  1  0.000000  0.704351  0.765023  1
  B  B30  1  0.000000  0.204935  0.735031  1
  B  B31  1  0.000000  0.792158  0.264696  1
  Mo  Mo32  1  0.500000  0.140392  0.181549  1
  Mo  Mo33  1  0.500000  0.859899  0.819384  1
  Mo  Mo34  1  0.500000  0.361100  0.678229  1
  Rh  Rh35  1  0.500000  0.639578  0.320108  1
