# generated using pymatgen
data_Zr8Ta11Si16Pd
_symmetry_space_group_name_H-M   'P 1'
_cell_length_a   6.87950251
_cell_length_b   6.87950251
_cell_length_c   12.69553143
_cell_angle_alpha   89.72311001
_cell_angle_beta   90.27688999
_cell_angle_gamma   89.95687553
_symmetry_Int_Tables_number   1
_chemical_formula_structural   Zr8Ta11Si16Pd
_chemical_formula_sum   'Zr8 Ta11 Si16 Pd1'
_cell_volume   600.83424613
_cell_formula_units_Z   1
loop_
 _symmetry_equiv_pos_site_id
 _symmetry_equiv_pos_as_xyz
  1  'x, y, z'
loop_
 _atom_site_type_symbol
 _atom_site_label
 _atom_site_symmetry_multiplicity
 _atom_site_fract_x
 _atom_site_fract_y
 _atom_site_fract_z
 _atom_site_occupancy
  Zr  Zr0  1  0.001336  0.659792  0.030686  1
  Zr  Zr1  1  0.998960  0.340202  0.532310  1
  Zr  Zr2  1  0.659792  0.001336  0.969314  1
  Zr  Zr3  1  0.159371  0.500899  0.780075  1
  Zr  Zr4  1  0.842023  0.494882  0.280994  1
  Zr  Zr5  1  0.500899  0.159371  0.219925  1
  Zr  Zr6  1  0.494882  0.842023  0.719006  1
  Zr  Zr7  1  0.340202  0.998960  0.467690  1
  Ta  Ta8  1  0.343173  0.502679  0.376341  1
  Ta  Ta9  1  0.849306  0.999644  0.372282  1
  Ta  Ta10  1  0.003278  0.152904  0.127192  1
  Ta  Ta11  1  0.999644  0.849306  0.627718  1
  Ta  Ta12  1  0.651818  0.495783  0.876396  1
  Ta  Ta13  1  0.502679  0.343173  0.623659  1
  Ta  Ta14  1  0.495783  0.651818  0.123604  1
  Ta  Ta15  1  0.152904  0.003278  0.872808  1
  Ta  Ta16  1  0.829870  0.171595  0.748903  1
  Ta  Ta17  1  0.171595  0.829870  0.251097  1
  Ta  Ta18  1  0.329951  0.329951  0.000000  1
  Si  Si19  1  0.046994  0.705945  0.438740  1
  Si  Si20  1  0.955787  0.298080  0.936408  1
  Si  Si21  1  0.705945  0.046994  0.561260  1
  Si  Si22  1  0.202516  0.455112  0.187293  1
  Si  Si23  1  0.795189  0.548233  0.683898  1
  Si  Si24  1  0.455112  0.202516  0.812707  1
  Si  Si25  1  0.548233  0.795189  0.316102  1
  Si  Si26  1  0.298080  0.955787  0.063592  1
  Si  Si27  1  0.862342  0.791575  0.821853  1
  Si  Si28  1  0.136285  0.208094  0.323408  1
  Si  Si29  1  0.791575  0.862342  0.178147  1
  Si  Si30  1  0.288871  0.631448  0.572159  1
  Si  Si31  1  0.708233  0.364613  0.073354  1
  Si  Si32  1  0.631448  0.288871  0.427841  1
  Si  Si33  1  0.364613  0.708233  0.926646  1
  Si  Si34  1  0.208094  0.136285  0.676592  1
  Pd  Pd35  1  0.673216  0.673216  0.500000  1
