# generated using pymatgen
data_Ba2Cd8Pt3Au
_symmetry_space_group_name_H-M   'P 1'
_cell_length_a   8.59098966
_cell_length_b   8.59098966
_cell_length_c   4.55797100
_cell_angle_alpha   90.00000000
_cell_angle_beta   90.00000000
_cell_angle_gamma   90.36950584
_symmetry_Int_Tables_number   1
_chemical_formula_structural   Ba2Cd8Pt3Au
_chemical_formula_sum   'Ba2 Cd8 Pt3 Au1'
_cell_volume   336.39452534
_cell_formula_units_Z   1
loop_
 _symmetry_equiv_pos_site_id
 _symmetry_equiv_pos_as_xyz
  1  'x, y, z'
loop_
 _atom_site_type_symbol
 _atom_site_label
 _atom_site_symmetry_multiplicity
 _atom_site_fract_x
 _atom_site_fract_y
 _atom_site_fract_z
 _atom_site_occupancy
  Ba  Ba0  1  0.496504  0.503496  0.500000  1
  Ba  Ba1  1  0.005226  0.994774  0.000000  1
  Cd  Cd2  1  0.339596  0.088414  0.500000  1
  Cd  Cd3  1  0.654441  0.905871  0.500000  1
  Cd  Cd4  1  0.842981  0.416951  0.000000  1
  Cd  Cd5  1  0.158292  0.588898  0.000000  1
  Cd  Cd6  1  0.094129  0.345559  0.500000  1
  Cd  Cd7  1  0.911586  0.660404  0.500000  1
  Cd  Cd8  1  0.411102  0.841708  0.000000  1
  Cd  Cd9  1  0.583049  0.157019  0.000000  1
  Pt  Pt10  1  0.220268  0.779732  0.500000  1
  Pt  Pt11  1  0.279448  0.279699  0.000000  1
  Pt  Pt12  1  0.720301  0.720552  0.000000  1
  Au  Au13  1  0.783077  0.216923  0.500000  1
