# generated using pymatgen
data_Hf4Zr(ReTc)12
_symmetry_space_group_name_H-M   'P 1'
_cell_length_a   8.45146092
_cell_length_b   8.45146081
_cell_length_c   8.45146100
_cell_angle_alpha   109.47121631
_cell_angle_beta   109.47121602
_cell_angle_gamma   109.47122553
_symmetry_Int_Tables_number   1
_chemical_formula_structural   Hf4Zr(ReTc)12
_chemical_formula_sum   'Hf4 Zr1 Re12 Tc12'
_cell_volume   464.70087709
_cell_formula_units_Z   1
loop_
 _symmetry_equiv_pos_site_id
 _symmetry_equiv_pos_as_xyz
  1  'x, y, z'
loop_
 _atom_site_type_symbol
 _atom_site_label
 _atom_site_symmetry_multiplicity
 _atom_site_fract_x
 _atom_site_fract_y
 _atom_site_fract_z
 _atom_site_occupancy
  Hf  Hf0  1  0.625363  0.000000  0.000000  1
  Hf  Hf1  1  0.000000  0.625363  0.000000  1
  Hf  Hf2  1  0.000000  0.000000  0.625363  1
  Hf  Hf3  1  0.374637  0.374637  0.374637  1
  Zr  Zr4  1  0.000000  0.000000  0.000000  1
  Re  Re5  1  0.376436  0.194462  0.000000  1
  Re  Re6  1  0.181975  0.805538  0.805538  1
  Re  Re7  1  0.376436  0.000000  0.194462  1
  Re  Re8  1  0.194462  0.376436  0.000000  1
  Re  Re9  1  0.000000  0.376436  0.194462  1
  Re  Re10  1  0.805538  0.181975  0.805538  1
  Re  Re11  1  0.805538  0.805538  0.181975  1
  Re  Re12  1  0.000000  0.194462  0.376436  1
  Re  Re13  1  0.194462  0.000000  0.376436  1
  Re  Re14  1  0.623564  0.623564  0.818025  1
  Re  Re15  1  0.818025  0.623564  0.623564  1
  Re  Re16  1  0.623564  0.818025  0.623564  1
  Tc  Tc17  1  0.396603  0.676574  0.000000  1
  Tc  Tc18  1  0.720031  0.323426  0.323426  1
  Tc  Tc19  1  0.396603  0.000000  0.676574  1
  Tc  Tc20  1  0.676574  0.396603  0.000000  1
  Tc  Tc21  1  0.000000  0.396603  0.676574  1
  Tc  Tc22  1  0.323426  0.720031  0.323426  1
  Tc  Tc23  1  0.323426  0.323426  0.720031  1
  Tc  Tc24  1  0.000000  0.676574  0.396603  1
  Tc  Tc25  1  0.676574  0.000000  0.396603  1
  Tc  Tc26  1  0.603397  0.603397  0.279969  1
  Tc  Tc27  1  0.279969  0.603397  0.603397  1
  Tc  Tc28  1  0.603397  0.279969  0.603397  1
