# generated using pymatgen
data_Tb2Nd2GaBr6
_symmetry_space_group_name_H-M   'P 1'
_cell_length_a   4.11344900
_cell_length_b   13.72003200
_cell_length_c   14.45189700
_cell_angle_alpha   90.00000000
_cell_angle_beta   90.00000000
_cell_angle_gamma   90.00000000
_symmetry_Int_Tables_number   1
_chemical_formula_structural   Tb2Nd2GaBr6
_chemical_formula_sum   'Tb4 Nd4 Ga2 Br12'
_cell_volume   815.61668043
_cell_formula_units_Z   2
loop_
 _symmetry_equiv_pos_site_id
 _symmetry_equiv_pos_as_xyz
  1  'x, y, z'
loop_
 _atom_site_type_symbol
 _atom_site_label
 _atom_site_symmetry_multiplicity
 _atom_site_fract_x
 _atom_site_fract_y
 _atom_site_fract_z
 _atom_site_occupancy
  Tb  Tb0  1  0.500000  0.117679  0.340652  1
  Tb  Tb1  1  0.500000  0.882321  0.659348  1
  Tb  Tb2  1  0.500000  0.617679  0.159348  1
  Tb  Tb3  1  0.500000  0.382321  0.840652  1
  Nd  Nd4  1  0.000000  0.124502  0.582958  1
  Nd  Nd5  1  0.000000  0.875498  0.417042  1
  Nd  Nd6  1  0.000000  0.624502  0.917042  1
  Nd  Nd7  1  0.000000  0.375498  0.082958  1
  Ga  Ga8  1  0.500000  0.000000  0.500000  1
  Ga  Ga9  1  0.500000  0.500000  0.000000  1
  Br  Br10  1  0.500000  0.240407  0.168884  1
  Br  Br11  1  0.500000  0.759593  0.831116  1
  Br  Br12  1  0.500000  0.740407  0.331116  1
  Br  Br13  1  0.500000  0.259593  0.668884  1
  Br  Br14  1  0.000000  0.251492  0.406647  1
  Br  Br15  1  0.000000  0.748508  0.593353  1
  Br  Br16  1  0.000000  0.751492  0.093353  1
  Br  Br17  1  0.000000  0.248508  0.906647  1
  Br  Br18  1  0.000000  0.007057  0.244052  1
  Br  Br19  1  0.000000  0.992943  0.755948  1
  Br  Br20  1  0.000000  0.507057  0.255948  1
  Br  Br21  1  0.000000  0.492943  0.744052  1
