# generated using pymatgen
data_Nb3Si7Ni16Ru3
_symmetry_space_group_name_H-M   'P 1'
_cell_length_a   7.91267773
_cell_length_b   7.88610510
_cell_length_c   7.87911951
_cell_angle_alpha   60.25227204
_cell_angle_beta   59.91743182
_cell_angle_gamma   59.84034667
_symmetry_Int_Tables_number   1
_chemical_formula_structural   Nb3Si7Ni16Ru3
_chemical_formula_sum   'Nb3 Si7 Ni16 Ru3'
_cell_volume   347.67142628
_cell_formula_units_Z   1
loop_
 _symmetry_equiv_pos_site_id
 _symmetry_equiv_pos_as_xyz
  1  'x, y, z'
loop_
 _atom_site_type_symbol
 _atom_site_label
 _atom_site_symmetry_multiplicity
 _atom_site_fract_x
 _atom_site_fract_y
 _atom_site_fract_z
 _atom_site_occupancy
  Nb  Nb0  1  0.179239  0.833999  0.820764  1
  Nb  Nb1  1  0.798918  0.798923  0.201076  1
  Nb  Nb2  1  0.833998  0.179237  0.165998  1
  Si  Si3  1  0.495660  0.010318  0.504346  1
  Si  Si4  1  0.498967  0.498977  0.001032  1
  Si  Si5  1  0.502352  0.502355  0.497651  1
  Si  Si6  1  0.998921  0.998918  0.501081  1
  Si  Si7  1  0.010314  0.495664  0.989680  1
  Si  Si8  1  0.006601  0.492387  0.507685  1
  Si  Si9  1  0.492389  0.006596  0.993326  1
  Ni  Ni10  1  0.617007  0.615339  0.148170  1
  Ni  Ni11  1  0.165316  0.494472  0.169498  1
  Ni  Ni12  1  0.851799  0.380636  0.382914  1
  Ni  Ni13  1  0.511263  0.829198  0.830337  1
  Ni  Ni14  1  0.494473  0.165320  0.170718  1
  Ni  Ni15  1  0.829218  0.830528  0.505507  1
  Ni  Ni16  1  0.169619  0.170814  0.488760  1
  Ni  Ni17  1  0.150952  0.620110  0.613463  1
  Ni  Ni18  1  0.170805  0.169627  0.170804  1
  Ni  Ni19  1  0.386489  0.384538  0.849042  1
  Ni  Ni20  1  0.615340  0.617016  0.619469  1
  Ni  Ni21  1  0.380632  0.851804  0.384647  1
  Ni  Ni22  1  0.384540  0.386479  0.379941  1
  Ni  Ni23  1  0.830526  0.829211  0.834753  1
  Ni  Ni24  1  0.620112  0.150957  0.615476  1
  Ni  Ni25  1  0.829196  0.511251  0.829210  1
  Ru  Ru26  1  0.178532  0.178526  0.821468  1
  Ru  Ru27  1  0.826131  0.170674  0.829267  1
  Ru  Ru28  1  0.170692  0.826128  0.173919  1
