# generated using pymatgen
data_Zr2ZnIn4Ni
_symmetry_space_group_name_H-M   'P 1'
_cell_length_a   10.00888100
_cell_length_b   10.00888100
_cell_length_c   6.70239800
_cell_angle_alpha   89.99996573
_cell_angle_beta   89.99996573
_cell_angle_gamma   89.99659965
_symmetry_Int_Tables_number   1
_chemical_formula_structural   Zr2ZnIn4Ni
_chemical_formula_sum   'Zr8 Zn4 In16 Ni4'
_cell_volume   671.43080797
_cell_formula_units_Z   4
loop_
 _symmetry_equiv_pos_site_id
 _symmetry_equiv_pos_as_xyz
  1  'x, y, z'
loop_
 _atom_site_type_symbol
 _atom_site_label
 _atom_site_symmetry_multiplicity
 _atom_site_fract_x
 _atom_site_fract_y
 _atom_site_fract_z
 _atom_site_occupancy
  Zr  Zr0  1  0.799411  0.200596  0.999999  1
  Zr  Zr1  1  0.339586  0.339586  0.999999  1
  Zr  Zr2  1  0.660210  0.660210  0.000000  1
  Zr  Zr3  1  0.200596  0.799411  0.999999  1
  Zr  Zr4  1  0.839717  0.160386  0.500000  1
  Zr  Zr5  1  0.299419  0.299419  0.500000  1
  Zr  Zr6  1  0.700655  0.700655  0.500000  1
  Zr  Zr7  1  0.160386  0.839717  0.500000  1
  Zn  Zn8  1  0.000038  0.000038  0.189368  1
  Zn  Zn9  1  0.499962  0.499962  0.310596  1
  Zn  Zn10  1  0.499962  0.499962  0.689403  1
  Zn  Zn11  1  0.000038  0.000038  0.810630  1
  In  In12  1  0.291260  0.056222  0.223327  1
  In  In13  1  0.056222  0.291260  0.223327  1
  In  In14  1  0.943900  0.708705  0.223292  1
  In  In15  1  0.708705  0.943900  0.223292  1
  In  In16  1  0.556119  0.208722  0.276775  1
  In  In17  1  0.791333  0.443797  0.276699  1
  In  In18  1  0.208722  0.556119  0.276775  1
  In  In19  1  0.443797  0.791333  0.276699  1
  In  In20  1  0.556119  0.208722  0.723225  1
  In  In21  1  0.791333  0.443797  0.723300  1
  In  In22  1  0.208722  0.556119  0.723225  1
  In  In23  1  0.443797  0.791333  0.723300  1
  In  In24  1  0.291260  0.056222  0.776673  1
  In  In25  1  0.056222  0.291260  0.776673  1
  In  In26  1  0.943900  0.708705  0.776707  1
  In  In27  1  0.708705  0.943900  0.776707  1
  Ni  Ni28  1  0.601060  0.398724  0.000000  1
  Ni  Ni29  1  0.398724  0.601060  0.000000  1
  Ni  Ni30  1  0.101166  0.101166  0.499999  1
  Ni  Ni31  1  0.898948  0.898948  0.499999  1
