# generated using pymatgen
data_CaNd6PdBr12
_symmetry_space_group_name_H-M   'P 1'
_cell_length_a   9.54874513
_cell_length_b   9.54828552
_cell_length_c   9.55031500
_cell_angle_alpha   107.00485353
_cell_angle_beta   106.99719599
_cell_angle_gamma   106.98571992
_symmetry_Int_Tables_number   1
_chemical_formula_structural   CaNd6PdBr12
_chemical_formula_sum   'Ca1 Nd6 Pd1 Br12'
_cell_volume   725.24272424
_cell_formula_units_Z   1
loop_
 _symmetry_equiv_pos_site_id
 _symmetry_equiv_pos_as_xyz
  1  'x, y, z'
loop_
 _atom_site_type_symbol
 _atom_site_label
 _atom_site_symmetry_multiplicity
 _atom_site_fract_x
 _atom_site_fract_y
 _atom_site_fract_z
 _atom_site_occupancy
  Ca  Ca0  1  0.500000  0.500000  0.500000  1
  Nd  Nd1  1  0.321184  0.107266  0.027171  1
  Nd  Nd2  1  0.027161  0.321236  0.107338  1
  Nd  Nd3  1  0.107268  0.027137  0.321193  1
  Nd  Nd4  1  0.892732  0.972863  0.678808  1
  Nd  Nd5  1  0.972839  0.678765  0.892663  1
  Nd  Nd6  1  0.678817  0.892734  0.972830  1
  Pd  Pd7  1  0.000000  0.000000  0.000000  1
  Br  Br8  1  0.682513  0.220867  0.068820  1
  Br  Br9  1  0.380534  0.457272  0.165927  1
  Br  Br10  1  0.068843  0.682457  0.220723  1
  Br  Br11  1  0.779166  0.931137  0.317423  1
  Br  Br12  1  0.457310  0.165860  0.380454  1
  Br  Br13  1  0.165861  0.380572  0.457248  1
  Br  Br14  1  0.834139  0.619429  0.542752  1
  Br  Br15  1  0.542690  0.834141  0.619546  1
  Br  Br16  1  0.220835  0.068864  0.682577  1
  Br  Br17  1  0.931157  0.317543  0.779278  1
  Br  Br18  1  0.619467  0.542728  0.834073  1
  Br  Br19  1  0.317488  0.779133  0.931180  1
