# generated using pymatgen
data_Zn3Fe(NO3)8
_symmetry_space_group_name_H-M   'P 1'
_cell_length_a   7.58492561
_cell_length_b   7.59143818
_cell_length_c   7.59102784
_cell_angle_alpha   90.51107603
_cell_angle_beta   90.49923838
_cell_angle_gamma   90.47103829
_symmetry_Int_Tables_number   1
_chemical_formula_structural   Zn3Fe(NO3)8
_chemical_formula_sum   'Zn3 Fe1 N8 O24'
_cell_volume   437.04609836
_cell_formula_units_Z   1
loop_
 _symmetry_equiv_pos_site_id
 _symmetry_equiv_pos_as_xyz
  1  'x, y, z'
loop_
 _atom_site_type_symbol
 _atom_site_label
 _atom_site_symmetry_multiplicity
 _atom_site_fract_x
 _atom_site_fract_y
 _atom_site_fract_z
 _atom_site_occupancy
  Zn  Zn0  1  0.000000  0.500000  0.500000  1
  Zn  Zn1  1  0.500000  0.500000  0.000000  1
  Zn  Zn2  1  0.500000  0.000000  0.500000  1
  Fe  Fe3  1  0.000000  0.000000  0.000000  1
  N  N4  1  0.336382  0.336344  0.336396  1
  N  N5  1  0.841184  0.160094  0.650150  1
  N  N6  1  0.160045  0.650102  0.841050  1
  N  N7  1  0.650213  0.841174  0.160077  1
  N  N8  1  0.158816  0.839906  0.349850  1
  N  N9  1  0.663618  0.663656  0.663604  1
  N  N10  1  0.349787  0.158826  0.839923  1
  N  N11  1  0.839955  0.349898  0.158950  1
  O  O12  1  0.982007  0.248897  0.632873  1
  O  O13  1  0.017993  0.751103  0.367127  1
  O  O14  1  0.632931  0.981963  0.248846  1
  O  O15  1  0.248975  0.632854  0.981913  1
  O  O16  1  0.331789  0.221521  0.456061  1
  O  O17  1  0.456092  0.331706  0.221572  1
  O  O18  1  0.221460  0.455988  0.331820  1
  O  O19  1  0.668211  0.778479  0.543939  1
  O  O20  1  0.543908  0.668294  0.778428  1
  O  O21  1  0.778540  0.544012  0.668180  1
  O  O22  1  0.717710  0.174722  0.538004  1
  O  O23  1  0.538029  0.717874  0.174757  1
  O  O24  1  0.175001  0.537859  0.717675  1
  O  O25  1  0.282290  0.825278  0.461996  1
  O  O26  1  0.461971  0.282126  0.825243  1
  O  O27  1  0.824999  0.462141  0.282325  1
  O  O28  1  0.175142  0.943854  0.221508  1
  O  O29  1  0.221323  0.175438  0.943994  1
  O  O30  1  0.944274  0.221915  0.175389  1
  O  O31  1  0.824858  0.056146  0.778492  1
  O  O32  1  0.778677  0.824562  0.056006  1
  O  O33  1  0.055726  0.778085  0.824611  1
  O  O34  1  0.367069  0.018037  0.751154  1
  O  O35  1  0.751025  0.367146  0.018087  1
