# generated using pymatgen
data_Nd4DySn4
_symmetry_space_group_name_H-M   'P 1'
_cell_length_a   8.19507300
_cell_length_b   8.35376900
_cell_length_c   15.89614200
_cell_angle_alpha   90.00000000
_cell_angle_beta   90.00000000
_cell_angle_gamma   90.00000000
_symmetry_Int_Tables_number   1
_chemical_formula_structural   Nd4DySn4
_chemical_formula_sum   'Nd16 Dy4 Sn16'
_cell_volume   1088.24585610
_cell_formula_units_Z   4
loop_
 _symmetry_equiv_pos_site_id
 _symmetry_equiv_pos_as_xyz
  1  'x, y, z'
loop_
 _atom_site_type_symbol
 _atom_site_label
 _atom_site_symmetry_multiplicity
 _atom_site_fract_x
 _atom_site_fract_y
 _atom_site_fract_z
 _atom_site_occupancy
  Nd  Nd0  1  0.018494  0.180813  0.401938  1
  Nd  Nd1  1  0.365603  0.838496  0.121077  1
  Nd  Nd2  1  0.134397  0.338496  0.621077  1
  Nd  Nd3  1  0.481506  0.680813  0.901938  1
  Nd  Nd4  1  0.865603  0.661504  0.121077  1
  Nd  Nd5  1  0.134397  0.338496  0.878923  1
  Nd  Nd6  1  0.481506  0.680813  0.598062  1
  Nd  Nd7  1  0.634397  0.161504  0.621077  1
  Nd  Nd8  1  0.865603  0.661504  0.378923  1
  Nd  Nd9  1  0.018494  0.180813  0.098062  1
  Nd  Nd10  1  0.981506  0.819187  0.901938  1
  Nd  Nd11  1  0.634397  0.161504  0.878923  1
  Nd  Nd12  1  0.518494  0.319187  0.098062  1
  Nd  Nd13  1  0.365603  0.838496  0.378923  1
  Nd  Nd14  1  0.981506  0.819187  0.598062  1
  Nd  Nd15  1  0.518494  0.319187  0.401938  1
  Dy  Dy16  1  0.197631  0.502349  0.250000  1
  Dy  Dy17  1  0.697631  0.997651  0.250000  1
  Dy  Dy18  1  0.302369  0.002349  0.750000  1
  Dy  Dy19  1  0.802369  0.497651  0.750000  1
  Sn  Sn20  1  0.793295  0.465387  0.544455  1
  Sn  Sn21  1  0.706705  0.965387  0.455545  1
  Sn  Sn22  1  0.675515  0.852046  0.750000  1
  Sn  Sn23  1  0.206705  0.534613  0.455545  1
  Sn  Sn24  1  0.293295  0.034613  0.955545  1
  Sn  Sn25  1  0.824485  0.352046  0.250000  1
  Sn  Sn26  1  0.793295  0.465387  0.955545  1
  Sn  Sn27  1  0.562823  0.615897  0.250000  1
  Sn  Sn28  1  0.206705  0.534613  0.044455  1
  Sn  Sn29  1  0.437177  0.384103  0.750000  1
  Sn  Sn30  1  0.175515  0.647954  0.750000  1
  Sn  Sn31  1  0.937177  0.115897  0.750000  1
  Sn  Sn32  1  0.293295  0.034613  0.544455  1
  Sn  Sn33  1  0.706705  0.965387  0.044455  1
  Sn  Sn34  1  0.324485  0.147954  0.250000  1
  Sn  Sn35  1  0.062823  0.884103  0.250000  1
