# generated using pymatgen
data_Tb2Y12Th2CdHg3Pt4
_symmetry_space_group_name_H-M   'P 1'
_cell_length_a   9.74246519
_cell_length_b   9.75448870
_cell_length_c   9.72847900
_cell_angle_alpha   60.08789812
_cell_angle_beta   60.04723665
_cell_angle_gamma   60.15923108
_symmetry_Int_Tables_number   1
_chemical_formula_structural   Tb2Y12Th2CdHg3Pt4
_chemical_formula_sum   'Tb2 Y12 Th2 Cd1 Hg3 Pt4'
_cell_volume   655.18955181
_cell_formula_units_Z   1
loop_
 _symmetry_equiv_pos_site_id
 _symmetry_equiv_pos_as_xyz
  1  'x, y, z'
loop_
 _atom_site_type_symbol
 _atom_site_label
 _atom_site_symmetry_multiplicity
 _atom_site_fract_x
 _atom_site_fract_y
 _atom_site_fract_z
 _atom_site_occupancy
  Tb  Tb0  1  0.355928  0.935376  0.354350  1
  Tb  Tb1  1  0.932254  0.356753  0.355498  1
  Y  Y2  1  0.811289  0.190304  0.189072  1
  Y  Y3  1  0.189321  0.811946  0.809786  1
  Y  Y4  1  0.189320  0.811945  0.188946  1
  Y  Y5  1  0.811290  0.190305  0.809334  1
  Y  Y6  1  0.186603  0.187525  0.812937  1
  Y  Y7  1  0.810112  0.809997  0.189947  1
  Y  Y8  1  0.936037  0.564781  0.565327  1
  Y  Y9  1  0.564099  0.936345  0.934352  1
  Y  Y10  1  0.564099  0.936345  0.565203  1
  Y  Y11  1  0.936036  0.564782  0.933856  1
  Y  Y12  1  0.565346  0.565621  0.934515  1
  Y  Y13  1  0.935761  0.937354  0.563442  1
  Th  Th14  1  0.351837  0.351370  0.354475  1
  Th  Th15  1  0.351836  0.351368  0.942318  1
  Cd  Cd16  1  0.250672  0.584954  0.582187  1
  Hg  Hg17  1  0.586923  0.589370  0.586606  1
  Hg  Hg18  1  0.586921  0.589368  0.237106  1
  Hg  Hg19  1  0.587829  0.236319  0.587927  1
  Pt  Pt20  1  0.142143  0.142936  0.147376  1
  Pt  Pt21  1  0.142143  0.142936  0.567543  1
  Pt  Pt22  1  0.143510  0.568545  0.143973  1
  Pt  Pt23  1  0.568691  0.143454  0.143927  1
