# generated using pymatgen
data_Dy2U(AlRu)3
_symmetry_space_group_name_H-M   'P 1'
_cell_length_a   6.85381358
_cell_length_b   6.85381468
_cell_length_c   4.05850700
_cell_angle_alpha   90.00000000
_cell_angle_beta   90.00000000
_cell_angle_gamma   116.51321212
_symmetry_Int_Tables_number   1
_chemical_formula_structural   Dy2U(AlRu)3
_chemical_formula_sum   'Dy2 U1 Al3 Ru3'
_cell_volume   170.59731145
_cell_formula_units_Z   1
loop_
 _symmetry_equiv_pos_site_id
 _symmetry_equiv_pos_as_xyz
  1  'x, y, z'
loop_
 _atom_site_type_symbol
 _atom_site_label
 _atom_site_symmetry_multiplicity
 _atom_site_fract_x
 _atom_site_fract_y
 _atom_site_fract_z
 _atom_site_occupancy
  Dy  Dy0  1  0.419195  0.008630  0.500000  1
  Dy  Dy1  1  0.008630  0.419195  0.500000  1
  U  U2  1  0.606583  0.606583  0.500000  1
  Al  Al3  1  0.753696  0.022482  0.000000  1
  Al  Al4  1  0.022482  0.753696  0.000000  1
  Al  Al5  1  0.210014  0.210014  0.000000  1
  Ru  Ru6  1  0.379732  0.637694  0.000000  1
  Ru  Ru7  1  0.637694  0.379732  0.000000  1
  Ru  Ru8  1  0.961975  0.961975  0.500000  1
