# generated using pymatgen
data_Th7CdRh12
_symmetry_space_group_name_H-M   'P 1'
_cell_length_a   5.91363900
_cell_length_b   7.82711508
_cell_length_c   9.04752600
_cell_angle_alpha   90.85087610
_cell_angle_beta   90.00000000
_cell_angle_gamma   90.00000000
_symmetry_Int_Tables_number   1
_chemical_formula_structural   Th7CdRh12
_chemical_formula_sum   'Th7 Cd1 Rh12'
_cell_volume   418.73424216
_cell_formula_units_Z   1
loop_
 _symmetry_equiv_pos_site_id
 _symmetry_equiv_pos_as_xyz
  1  'x, y, z'
loop_
 _atom_site_type_symbol
 _atom_site_label
 _atom_site_symmetry_multiplicity
 _atom_site_fract_x
 _atom_site_fract_y
 _atom_site_fract_z
 _atom_site_occupancy
  Th  Th0  1  0.750000  0.894325  0.864298  1
  Th  Th1  1  0.750000  0.414450  0.646394  1
  Th  Th2  1  0.250000  0.095191  0.135397  1
  Th  Th3  1  0.250000  0.590126  0.353061  1
  Th  Th4  1  0.750000  0.931641  0.398941  1
  Th  Th5  1  0.750000  0.446070  0.077409  1
  Th  Th6  1  0.250000  0.078073  0.613635  1
  Cd  Cd7  1  0.250000  0.549486  0.918564  1
  Rh  Rh8  1  0.750000  0.576098  0.360152  1
  Rh  Rh9  1  0.750000  0.098594  0.136674  1
  Rh  Rh10  1  0.250000  0.423831  0.636213  1
  Rh  Rh11  1  0.250000  0.892104  0.868507  1
  Rh  Rh12  1  0.998714  0.257062  0.384062  1
  Rh  Rh13  1  0.501483  0.764645  0.126438  1
  Rh  Rh14  1  0.495463  0.750729  0.610477  1
  Rh  Rh15  1  0.002267  0.232567  0.874401  1
  Rh  Rh16  1  0.004537  0.750729  0.610477  1
  Rh  Rh17  1  0.497733  0.232567  0.874401  1
  Rh  Rh18  1  0.501286  0.257062  0.384062  1
  Rh  Rh19  1  0.998517  0.764645  0.126438  1
