# generated using pymatgen
data_Er3Tm5Lu4Co4BiRh
_symmetry_space_group_name_H-M   'P 1'
_cell_length_a   8.20602475
_cell_length_b   8.20840150
_cell_length_c   8.20277361
_cell_angle_alpha   110.86381949
_cell_angle_beta   111.09674597
_cell_angle_gamma   106.53272090
_symmetry_Int_Tables_number   1
_chemical_formula_structural   Er3Tm5Lu4Co4BiRh
_chemical_formula_sum   'Er3 Tm5 Lu4 Co4 Bi1 Rh1'
_cell_volume   424.28217465
_cell_formula_units_Z   1
loop_
 _symmetry_equiv_pos_site_id
 _symmetry_equiv_pos_as_xyz
  1  'x, y, z'
loop_
 _atom_site_type_symbol
 _atom_site_label
 _atom_site_symmetry_multiplicity
 _atom_site_fract_x
 _atom_site_fract_y
 _atom_site_fract_z
 _atom_site_occupancy
  Er  Er0  1  0.288385  0.185295  0.473107  1
  Er  Er1  1  0.712652  0.815596  0.528598  1
  Er  Er2  1  0.287740  0.815068  0.102186  1
  Tm  Tm3  1  0.996954  0.687551  0.308183  1
  Tm  Tm4  1  0.210324  0.407725  0.196862  1
  Tm  Tm5  1  0.787093  0.588262  0.801377  1
  Tm  Tm6  1  0.213488  0.014743  0.802287  1
  Tm  Tm7  1  0.788686  0.987037  0.196982  1
  Lu  Lu8  1  0.712645  0.183497  0.896485  1
  Lu  Lu9  1  0.621792  0.311426  0.309199  1
  Lu  Lu10  1  0.378804  0.688472  0.690305  1
  Lu  Lu11  1  0.001651  0.311437  0.690227  1
  Co  Co12  1  0.999380  0.376446  0.376340  1
  Co  Co13  1  0.000036  0.624925  0.625480  1
  Co  Co14  1  0.389154  0.889648  0.502162  1
  Co  Co15  1  0.612845  0.113560  0.501876  1
  Bi  Bi16  1  0.499652  0.500730  0.000590  1
  Rh  Rh17  1  0.998722  0.998580  0.997751  1
