# generated using pymatgen
data_YbSm2Co9(SiB2)2
_symmetry_space_group_name_H-M   'P 1'
_cell_length_a   5.16998300
_cell_length_b   5.16998172
_cell_length_c   9.25900500
_cell_angle_alpha   90.00000000
_cell_angle_beta   90.00000000
_cell_angle_gamma   119.99998901
_symmetry_Int_Tables_number   1
_chemical_formula_structural   YbSm2Co9(SiB2)2
_chemical_formula_sum   'Yb1 Sm2 Co9 Si2 B4'
_cell_volume   214.32514230
_cell_formula_units_Z   1
loop_
 _symmetry_equiv_pos_site_id
 _symmetry_equiv_pos_as_xyz
  1  'x, y, z'
loop_
 _atom_site_type_symbol
 _atom_site_label
 _atom_site_symmetry_multiplicity
 _atom_site_fract_x
 _atom_site_fract_y
 _atom_site_fract_z
 _atom_site_occupancy
  Yb  Yb0  1  0.000000  0.000000  0.662467  1
  Sm  Sm1  1  0.000000  0.000000  0.995181  1
  Sm  Sm2  1  0.000000  0.000000  0.344767  1
  Co  Co3  1  0.500000  0.500000  0.502081  1
  Co  Co4  1  0.500000  0.000000  0.502081  1
  Co  Co5  1  0.000000  0.500000  0.502081  1
  Co  Co6  1  0.500000  0.500000  0.800753  1
  Co  Co7  1  0.500000  0.000000  0.800753  1
  Co  Co8  1  0.000000  0.500000  0.800753  1
  Co  Co9  1  0.500000  0.500000  0.196557  1
  Co  Co10  1  0.500000  0.000000  0.196557  1
  Co  Co11  1  0.000000  0.500000  0.196557  1
  Si  Si12  1  0.666667  0.333333  0.998888  1
  Si  Si13  1  0.333333  0.666667  0.998888  1
  B  B14  1  0.666667  0.333333  0.654039  1
  B  B15  1  0.333333  0.666667  0.654039  1
  B  B16  1  0.333333  0.666667  0.346779  1
  B  B17  1  0.666667  0.333333  0.346779  1
