# generated using pymatgen
data_BaNa2(SnP)6
_symmetry_space_group_name_H-M   'P 1'
_cell_length_a   6.93173656
_cell_length_b   6.93173784
_cell_length_c   9.65493801
_cell_angle_alpha   83.00055474
_cell_angle_beta   83.00056561
_cell_angle_gamma   120.12888476
_symmetry_Int_Tables_number   1
_chemical_formula_structural   BaNa2(SnP)6
_chemical_formula_sum   'Ba1 Na2 Sn6 P6'
_cell_volume   389.08804975
_cell_formula_units_Z   1
loop_
 _symmetry_equiv_pos_site_id
 _symmetry_equiv_pos_as_xyz
  1  'x, y, z'
loop_
 _atom_site_type_symbol
 _atom_site_label
 _atom_site_symmetry_multiplicity
 _atom_site_fract_x
 _atom_site_fract_y
 _atom_site_fract_z
 _atom_site_occupancy
  Ba  Ba0  1  0.000000  0.000000  0.000000  1
  Na  Na1  1  0.666721  0.333279  0.000000  1
  Na  Na2  1  0.333279  0.666721  0.000000  1
  Sn  Sn3  1  0.546859  0.877430  0.366872  1
  Sn  Sn4  1  0.207854  0.207854  0.365198  1
  Sn  Sn5  1  0.877430  0.546859  0.366872  1
  Sn  Sn6  1  0.453141  0.122570  0.633128  1
  Sn  Sn7  1  0.122570  0.453141  0.633128  1
  Sn  Sn8  1  0.792146  0.792146  0.634802  1
  P  P9  1  0.416505  0.416505  0.773664  1
  P  P10  1  0.073984  0.733462  0.773297  1
  P  P11  1  0.733462  0.073984  0.773297  1
  P  P12  1  0.583495  0.583495  0.226336  1
  P  P13  1  0.266538  0.926016  0.226703  1
  P  P14  1  0.926016  0.266538  0.226703  1
