# generated using pymatgen
data_Cs16ZrSn3Se16
_symmetry_space_group_name_H-M   'P 1'
_cell_length_a   9.24027339
_cell_length_b   11.05438700
_cell_length_c   16.19433682
_cell_angle_alpha   90.00000000
_cell_angle_beta   90.15472057
_cell_angle_gamma   90.00000000
_symmetry_Int_Tables_number   1
_chemical_formula_structural   Cs16ZrSn3Se16
_chemical_formula_sum   'Cs16 Zr1 Sn3 Se16'
_cell_volume   1654.17354020
_cell_formula_units_Z   1
loop_
 _symmetry_equiv_pos_site_id
 _symmetry_equiv_pos_as_xyz
  1  'x, y, z'
loop_
 _atom_site_type_symbol
 _atom_site_label
 _atom_site_symmetry_multiplicity
 _atom_site_fract_x
 _atom_site_fract_y
 _atom_site_fract_z
 _atom_site_occupancy
  Cs  Cs0  1  0.999959  0.998565  0.000000  1
  Cs  Cs1  1  0.500551  0.002017  0.499237  1
  Cs  Cs2  1  0.999959  0.501435  0.000000  1
  Cs  Cs3  1  0.500551  0.497983  0.499237  1
  Cs  Cs4  1  0.989250  0.750000  0.422633  1
  Cs  Cs5  1  0.488234  0.250000  0.077300  1
  Cs  Cs6  1  0.010181  0.250000  0.575534  1
  Cs  Cs7  1  0.512813  0.750000  0.922875  1
  Cs  Cs8  1  0.837998  0.051910  0.275574  1
  Cs  Cs9  1  0.337864  0.948342  0.224430  1
  Cs  Cs10  1  0.163375  0.551199  0.723862  1
  Cs  Cs11  1  0.661595  0.444231  0.776877  1
  Cs  Cs12  1  0.163375  0.948801  0.723862  1
  Cs  Cs13  1  0.661595  0.055769  0.776877  1
  Cs  Cs14  1  0.837998  0.448090  0.275574  1
  Cs  Cs15  1  0.337864  0.551658  0.224430  1
  Zr  Zr16  1  0.760665  0.750000  0.664812  1
  Sn  Sn17  1  0.237526  0.250000  0.335859  1
  Sn  Sn18  1  0.736841  0.750000  0.163810  1
  Sn  Sn19  1  0.263117  0.250000  0.836277  1
  Se  Se20  1  0.984049  0.250000  0.826971  1
  Se  Se21  1  0.516871  0.250000  0.327024  1
  Se  Se22  1  0.483284  0.750000  0.672894  1
  Se  Se23  1  0.016010  0.750000  0.173405  1
  Se  Se24  1  0.649353  0.560082  0.088376  1
  Se  Se25  1  0.151009  0.439980  0.411003  1
  Se  Se26  1  0.350439  0.060118  0.911751  1
  Se  Se27  1  0.847276  0.939093  0.589879  1
  Se  Se28  1  0.350439  0.439882  0.911751  1
  Se  Se29  1  0.847276  0.560907  0.589879  1
  Se  Se30  1  0.649353  0.939918  0.088376  1
  Se  Se31  1  0.151009  0.060020  0.411003  1
  Se  Se32  1  0.634104  0.750000  0.312772  1
  Se  Se33  1  0.133700  0.250000  0.186866  1
  Se  Se34  1  0.366558  0.250000  0.687388  1
  Se  Se35  1  0.867956  0.750000  0.811603  1
