# generated using pymatgen
data_Dy3UIn2IrRu2
_symmetry_space_group_name_H-M   'P 1'
_cell_length_a   7.67111323
_cell_length_b   7.44541646
_cell_length_c   4.01459500
_cell_angle_alpha   90.00000000
_cell_angle_beta   90.00000000
_cell_angle_gamma   120.36343083
_symmetry_Int_Tables_number   1
_chemical_formula_structural   Dy3UIn2IrRu2
_chemical_formula_sum   'Dy3 U1 In2 Ir1 Ru2'
_cell_volume   197.84160281
_cell_formula_units_Z   1
loop_
 _symmetry_equiv_pos_site_id
 _symmetry_equiv_pos_as_xyz
  1  'x, y, z'
loop_
 _atom_site_type_symbol
 _atom_site_label
 _atom_site_symmetry_multiplicity
 _atom_site_fract_x
 _atom_site_fract_y
 _atom_site_fract_z
 _atom_site_occupancy
  Dy  Dy0  1  0.557227  0.598467  0.000000  1
  Dy  Dy1  1  0.424072  0.012272  0.000000  1
  Dy  Dy2  1  0.014187  0.382044  0.000000  1
  U  U3  1  0.977653  0.725129  0.500000  1
  In  In4  1  0.263271  0.245715  0.500000  1
  In  In5  1  0.746111  0.004559  0.500000  1
  Ir  Ir6  1  0.309824  0.675859  0.500000  1
  Ru  Ru7  1  0.998732  0.965269  0.000000  1
  Ru  Ru8  1  0.708922  0.390686  0.500000  1
