# generated using pymatgen
data_Dy6Al24Os7Au
_symmetry_space_group_name_H-M   'P 1'
_cell_length_a   8.86689480
_cell_length_b   8.86689556
_cell_length_c   9.55589668
_cell_angle_alpha   89.74858806
_cell_angle_beta   90.25140994
_cell_angle_gamma   119.96310012
_symmetry_Int_Tables_number   1
_chemical_formula_structural   Dy6Al24Os7Au
_chemical_formula_sum   'Dy6 Al24 Os7 Au1'
_cell_volume   650.88012792
_cell_formula_units_Z   1
loop_
 _symmetry_equiv_pos_site_id
 _symmetry_equiv_pos_as_xyz
  1  'x, y, z'
loop_
 _atom_site_type_symbol
 _atom_site_label
 _atom_site_symmetry_multiplicity
 _atom_site_fract_x
 _atom_site_fract_y
 _atom_site_fract_z
 _atom_site_occupancy
  Dy  Dy0  1  0.190321  0.386447  0.251366  1
  Dy  Dy1  1  0.809679  0.613553  0.748634  1
  Dy  Dy2  1  0.613553  0.809679  0.251366  1
  Dy  Dy3  1  0.386447  0.190321  0.748634  1
  Dy  Dy4  1  0.194347  0.805653  0.253615  1
  Dy  Dy5  1  0.805653  0.194347  0.746385  1
  Al  Al6  1  0.328611  0.671389  0.020520  1
  Al  Al7  1  0.671389  0.328611  0.979480  1
  Al  Al8  1  0.666288  0.333712  0.517310  1
  Al  Al9  1  0.333712  0.666288  0.482690  1
  Al  Al10  1  0.162604  0.325827  0.575364  1
  Al  Al11  1  0.837396  0.674173  0.424636  1
  Al  Al12  1  0.674173  0.837396  0.575364  1
  Al  Al13  1  0.848318  0.677733  0.079206  1
  Al  Al14  1  0.325827  0.162604  0.424636  1
  Al  Al15  1  0.151682  0.322267  0.920794  1
  Al  Al16  1  0.163171  0.836829  0.575024  1
  Al  Al17  1  0.322267  0.151682  0.079206  1
  Al  Al18  1  0.836829  0.163171  0.424976  1
  Al  Al19  1  0.677733  0.848318  0.920794  1
  Al  Al20  1  0.836850  0.163150  0.075602  1
  Al  Al21  1  0.163150  0.836850  0.924398  1
  Al  Al22  1  0.560785  0.121312  0.249352  1
  Al  Al23  1  0.439215  0.878688  0.750648  1
  Al  Al24  1  0.878688  0.439215  0.249352  1
  Al  Al25  1  0.121312  0.560785  0.750648  1
  Al  Al26  1  0.563627  0.436373  0.255852  1
  Al  Al27  1  0.436373  0.563627  0.744148  1
  Al  Al28  1  0.999406  0.000594  0.250415  1
  Al  Al29  1  0.000594  0.999406  0.749585  1
  Os  Os30  1  0.500000  0.000000  0.000000  1
  Os  Os31  1  0.000000  0.500000  0.000000  1
  Os  Os32  1  0.500000  0.000000  0.500000  1
  Os  Os33  1  0.000000  0.500000  0.500000  1
  Os  Os34  1  0.500000  0.500000  0.500000  1
  Os  Os35  1  0.000000  0.000000  0.000000  1
  Os  Os36  1  0.000000  0.000000  0.500000  1
  Au  Au37  1  0.500000  0.500000  0.000000  1
