# generated using pymatgen
data_Pr11Nd(BCl3)4
_symmetry_space_group_name_H-M   'P 1'
_cell_length_a   9.93596520
_cell_length_b   9.93591196
_cell_length_c   9.93622711
_cell_angle_alpha   109.46282004
_cell_angle_beta   109.48852641
_cell_angle_gamma   109.46522223
_symmetry_Int_Tables_number   1
_chemical_formula_structural   Pr11Nd(BCl3)4
_chemical_formula_sum   'Pr11 Nd1 B4 Cl12'
_cell_volume   755.09538172
_cell_formula_units_Z   1
loop_
 _symmetry_equiv_pos_site_id
 _symmetry_equiv_pos_as_xyz
  1  'x, y, z'
loop_
 _atom_site_type_symbol
 _atom_site_label
 _atom_site_symmetry_multiplicity
 _atom_site_fract_x
 _atom_site_fract_y
 _atom_site_fract_z
 _atom_site_occupancy
  Pr  Pr0  1  0.749993  0.237454  0.262846  1
  Pr  Pr1  1  0.750033  0.012583  0.487175  1
  Pr  Pr2  1  0.237314  0.474428  0.486960  1
  Pr  Pr3  1  0.262941  0.749764  0.237173  1
  Pr  Pr4  1  0.026416  0.263209  0.013204  1
  Pr  Pr5  1  0.013281  0.025983  0.263032  1
  Pr  Pr6  1  0.487246  0.749856  0.013065  1
  Pr  Pr7  1  0.487176  0.237372  0.474147  1
  Pr  Pr8  1  0.013273  0.487331  0.750297  1
  Pr  Pr9  1  0.262970  0.013164  0.025783  1
  Pr  Pr10  1  0.237303  0.262857  0.750288  1
  Nd  Nd11  1  0.472124  0.486033  0.236066  1
  B  B12  1  0.250921  0.250950  0.250010  1
  B  B13  1  0.499938  0.999951  0.249929  1
  B  B14  1  0.000151  0.250016  0.500050  1
  B  B15  1  0.250868  0.500006  0.000951  1
  Cl  Cl16  1  0.250152  0.754421  0.745800  1
  Cl  Cl17  1  0.508802  0.504408  0.754391  1
  Cl  Cl18  1  0.991399  0.745711  0.995687  1
  Cl  Cl19  1  0.745711  0.249970  0.754363  1
  Cl  Cl20  1  0.995733  0.991365  0.745851  1
  Cl  Cl21  1  0.250173  0.995734  0.504370  1
  Cl  Cl22  1  0.752685  0.508713  0.502695  1
  Cl  Cl23  1  0.504618  0.251988  0.997537  1
  Cl  Cl24  1  0.752711  0.743991  0.250027  1
  Cl  Cl25  1  0.745723  0.995763  0.991344  1
  Cl  Cl26  1  0.995715  0.504378  0.249889  1
  Cl  Cl27  1  0.504633  0.752600  0.507069  1
