# generated using pymatgen
data_Dy2Zn5Si
_symmetry_space_group_name_H-M   'P 1'
_cell_length_a   8.13419277
_cell_length_b   8.13419197
_cell_length_c   8.74943700
_cell_angle_alpha   90.00000000
_cell_angle_beta   90.00000000
_cell_angle_gamma   149.42189914
_symmetry_Int_Tables_number   1
_chemical_formula_structural   Dy2Zn5Si
_chemical_formula_sum   'Dy4 Zn10 Si2'
_cell_volume   294.49729083
_cell_formula_units_Z   2
loop_
 _symmetry_equiv_pos_site_id
 _symmetry_equiv_pos_as_xyz
  1  'x, y, z'
loop_
 _atom_site_type_symbol
 _atom_site_label
 _atom_site_symmetry_multiplicity
 _atom_site_fract_x
 _atom_site_fract_y
 _atom_site_fract_z
 _atom_site_occupancy
  Dy  Dy0  1  0.199047  0.800953  0.250000  1
  Dy  Dy1  1  0.800953  0.199047  0.750000  1
  Dy  Dy2  1  0.000000  0.000000  0.500000  1
  Dy  Dy3  1  0.000000  0.000000  0.000000  1
  Zn  Zn4  1  0.812885  0.187115  0.393297  1
  Zn  Zn5  1  0.187115  0.812885  0.606703  1
  Zn  Zn6  1  0.812885  0.187115  0.106703  1
  Zn  Zn7  1  0.187115  0.812885  0.893297  1
  Zn  Zn8  1  0.648202  0.351798  0.474283  1
  Zn  Zn9  1  0.351798  0.648202  0.525717  1
  Zn  Zn10  1  0.648202  0.351798  0.025717  1
  Zn  Zn11  1  0.351798  0.648202  0.974283  1
  Zn  Zn12  1  0.402281  0.597719  0.250000  1
  Zn  Zn13  1  0.597719  0.402281  0.750000  1
  Si  Si14  1  0.555255  0.444745  0.250000  1
  Si  Si15  1  0.444745  0.555255  0.750000  1
