# generated using pymatgen
data_Cs2PrNp3O12
_symmetry_space_group_name_H-M   'P 1'
_cell_length_a   7.71087870
_cell_length_b   7.71087930
_cell_length_c   7.71087900
_cell_angle_alpha   63.91290580
_cell_angle_beta   63.91291186
_cell_angle_gamma   63.91290080
_symmetry_Int_Tables_number   1
_chemical_formula_structural   Cs2PrNp3O12
_chemical_formula_sum   'Cs2 Pr1 Np3 O12'
_cell_volume   352.14525164
_cell_formula_units_Z   1
loop_
 _symmetry_equiv_pos_site_id
 _symmetry_equiv_pos_as_xyz
  1  'x, y, z'
loop_
 _atom_site_type_symbol
 _atom_site_label
 _atom_site_symmetry_multiplicity
 _atom_site_fract_x
 _atom_site_fract_y
 _atom_site_fract_z
 _atom_site_occupancy
  Cs  Cs0  1  0.376017  0.376017  0.376017  1
  Cs  Cs1  1  0.623983  0.623983  0.623983  1
  Pr  Pr2  1  0.000000  0.000000  0.000000  1
  Np  Np3  1  0.500000  0.000000  0.000000  1
  Np  Np4  1  0.000000  0.000000  0.500000  1
  Np  Np5  1  0.000000  0.500000  0.000000  1
  O  O6  1  0.927731  0.297747  0.297747  1
  O  O7  1  0.362449  0.911566  0.911566  1
  O  O8  1  0.297747  0.297747  0.927731  1
  O  O9  1  0.911566  0.911566  0.362449  1
  O  O10  1  0.911566  0.362449  0.911566  1
  O  O11  1  0.297747  0.927731  0.297747  1
  O  O12  1  0.072269  0.702253  0.702253  1
  O  O13  1  0.637551  0.088434  0.088434  1
  O  O14  1  0.702253  0.702253  0.072269  1
  O  O15  1  0.088434  0.088434  0.637551  1
  O  O16  1  0.088434  0.637551  0.088434  1
  O  O17  1  0.702253  0.072269  0.702253  1
