# generated using pymatgen
data_PbCl30
_symmetry_space_group_name_H-M   'P 1'
_cell_length_a   13.43439058
_cell_length_b   13.43439110
_cell_length_c   16.07712137
_cell_angle_alpha   83.59896343
_cell_angle_beta   83.59896301
_cell_angle_gamma   123.91494553
_symmetry_Int_Tables_number   1
_chemical_formula_structural   PbCl30
_chemical_formula_sum   'Pb1 Cl30'
_cell_volume   2339.29087072
_cell_formula_units_Z   1
loop_
 _symmetry_equiv_pos_site_id
 _symmetry_equiv_pos_as_xyz
  1  'x, y, z'
loop_
 _atom_site_type_symbol
 _atom_site_label
 _atom_site_symmetry_multiplicity
 _atom_site_fract_x
 _atom_site_fract_y
 _atom_site_fract_z
 _atom_site_occupancy
  Pb  Pb0  1  0.000000  0.000000  0.000000  1
  Cl  Cl1  1  0.937061  0.937061  0.174166  1
  Cl  Cl2  1  0.062939  0.062939  0.825834  1
  Cl  Cl3  1  0.066547  0.213958  0.005908  1
  Cl  Cl4  1  0.933453  0.786042  0.994092  1
  Cl  Cl5  1  0.213958  0.066547  0.005908  1
  Cl  Cl6  1  0.786042  0.933453  0.994092  1
  Cl  Cl7  1  0.202810  0.742629  0.063701  1
  Cl  Cl8  1  0.797190  0.257371  0.936299  1
  Cl  Cl9  1  0.701387  0.079319  0.258870  1
  Cl  Cl10  1  0.257371  0.797190  0.936299  1
  Cl  Cl11  1  0.298613  0.920681  0.741130  1
  Cl  Cl12  1  0.742629  0.202810  0.063701  1
  Cl  Cl13  1  0.984065  0.195820  0.775047  1
  Cl  Cl14  1  0.920681  0.298613  0.741130  1
  Cl  Cl15  1  0.015935  0.804180  0.224953  1
  Cl  Cl16  1  0.079319  0.701387  0.258870  1
  Cl  Cl17  1  0.804180  0.015935  0.224953  1
  Cl  Cl18  1  0.195820  0.984065  0.775047  1
  Cl  Cl19  1  0.464572  0.548368  0.259958  1
  Cl  Cl20  1  0.535428  0.451632  0.740042  1
  Cl  Cl21  1  0.507421  0.205615  0.450626  1
  Cl  Cl22  1  0.451632  0.535428  0.740042  1
  Cl  Cl23  1  0.492579  0.794385  0.549374  1
  Cl  Cl24  1  0.548368  0.464572  0.259958  1
  Cl  Cl25  1  0.239640  0.428567  0.544800  1
  Cl  Cl26  1  0.794385  0.492579  0.549374  1
  Cl  Cl27  1  0.760360  0.571433  0.455200  1
  Cl  Cl28  1  0.205615  0.507421  0.450626  1
  Cl  Cl29  1  0.571433  0.760360  0.455200  1
  Cl  Cl30  1  0.428567  0.239640  0.544800  1
