# generated using pymatgen
data_Y4ErCo19SiP11
_symmetry_space_group_name_H-M   'P 1'
_cell_length_a   12.00555517
_cell_length_b   12.01388255
_cell_length_c   3.67873600
_cell_angle_alpha   90.00000000
_cell_angle_beta   90.00000000
_cell_angle_gamma   120.02294332
_symmetry_Int_Tables_number   1
_chemical_formula_structural   Y4ErCo19SiP11
_chemical_formula_sum   'Y4 Er1 Co19 Si1 P11'
_cell_volume   459.40363995
_cell_formula_units_Z   1
loop_
 _symmetry_equiv_pos_site_id
 _symmetry_equiv_pos_as_xyz
  1  'x, y, z'
loop_
 _atom_site_type_symbol
 _atom_site_label
 _atom_site_symmetry_multiplicity
 _atom_site_fract_x
 _atom_site_fract_y
 _atom_site_fract_z
 _atom_site_occupancy
  Y  Y0  1  0.332481  0.666216  0.500000  1
  Y  Y1  1  0.667519  0.333734  0.500000  1
  Y  Y2  1  0.812027  0.812269  0.000000  1
  Y  Y3  1  0.187973  0.000242  0.000000  1
  Er  Er4  1  0.000000  0.185052  0.000000  1
  Co  Co5  1  0.621746  0.821584  0.500000  1
  Co  Co6  1  0.178313  0.801108  0.500000  1
  Co  Co7  1  0.203179  0.377624  0.500000  1
  Co  Co8  1  0.378254  0.199838  0.500000  1
  Co  Co9  1  0.821687  0.622795  0.500000  1
  Co  Co10  1  0.796821  0.174445  0.500000  1
  Co  Co11  1  0.000000  0.557718  0.500000  1
  Co  Co12  1  0.448272  0.446357  0.500000  1
  Co  Co13  1  0.551728  0.998085  0.500000  1
  Co  Co14  1  0.516318  0.640953  0.000000  1
  Co  Co15  1  0.358536  0.874787  0.000000  1
  Co  Co16  1  0.126839  0.485606  0.000000  1
  Co  Co17  1  0.483682  0.124636  0.000000  1
  Co  Co18  1  0.641464  0.516251  0.000000  1
  Co  Co19  1  0.873161  0.358767  0.000000  1
  Co  Co20  1  0.000000  0.716152  0.000000  1
  Co  Co21  1  0.285831  0.284907  0.000000  1
  Co  Co22  1  0.714169  0.999075  0.000000  1
  Co  Co23  1  0.000000  0.000751  0.500000  1
  Si  Si24  1  0.000000  0.368870  0.500000  1
  P  P25  1  0.631112  0.631142  0.500000  1
  P  P26  1  0.368888  0.000031  0.500000  1
  P  P27  1  0.519772  0.833436  0.000000  1
  P  P28  1  0.165060  0.686186  0.000000  1
  P  P29  1  0.313310  0.479512  0.000000  1
  P  P30  1  0.480228  0.313665  0.000000  1
  P  P31  1  0.834940  0.521126  0.000000  1
  P  P32  1  0.686690  0.166204  0.000000  1
  P  P33  1  0.000000  0.819479  0.500000  1
  P  P34  1  0.181065  0.181231  0.500000  1
  P  P35  1  0.818935  0.000166  0.500000  1
