# generated using pymatgen
data_Tb2Th2Ga5Co9
_symmetry_space_group_name_H-M   'P 1'
_cell_length_a   5.19489685
_cell_length_b   5.19489767
_cell_length_c   11.88865400
_cell_angle_alpha   77.38015187
_cell_angle_beta   77.38014985
_cell_angle_gamma   60.00000042
_symmetry_Int_Tables_number   1
_chemical_formula_structural   Tb2Th2Ga5Co9
_chemical_formula_sum   'Tb2 Th2 Ga5 Co9'
_cell_volume   268.86694341
_cell_formula_units_Z   1
loop_
 _symmetry_equiv_pos_site_id
 _symmetry_equiv_pos_as_xyz
  1  'x, y, z'
loop_
 _atom_site_type_symbol
 _atom_site_label
 _atom_site_symmetry_multiplicity
 _atom_site_fract_x
 _atom_site_fract_y
 _atom_site_fract_z
 _atom_site_occupancy
  Tb  Tb0  1  0.954109  0.954109  0.137671  1
  Tb  Tb1  1  0.045891  0.045891  0.862329  1
  Th  Th2  1  0.858076  0.858076  0.425773  1
  Th  Th3  1  0.141924  0.141924  0.574228  1
  Ga  Ga4  1  0.500000  0.500000  0.500000  1
  Ga  Ga5  1  0.721834  0.721834  0.834497  1
  Ga  Ga6  1  0.278166  0.278166  0.165503  1
  Ga  Ga7  1  0.611034  0.611034  0.166900  1
  Ga  Ga8  1  0.388966  0.388966  0.833100  1
  Co  Co9  1  0.000000  0.500000  0.000000  1
  Co  Co10  1  0.500000  0.000000  0.000000  1
  Co  Co11  1  0.500000  0.500000  0.000000  1
  Co  Co12  1  0.386411  0.386411  0.332266  1
  Co  Co13  1  0.894911  0.386411  0.332266  1
  Co  Co14  1  0.386411  0.894911  0.332266  1
  Co  Co15  1  0.613589  0.613589  0.667734  1
  Co  Co16  1  0.105089  0.613589  0.667734  1
  Co  Co17  1  0.613589  0.105089  0.667734  1
