# generated using pymatgen
data_Tb5Dy5Ir4
_symmetry_space_group_name_H-M   'P 1'
_cell_length_a   6.49115772
_cell_length_b   7.21685906
_cell_length_c   8.60561586
_cell_angle_alpha   96.70184112
_cell_angle_beta   112.12865647
_cell_angle_gamma   89.97876566
_symmetry_Int_Tables_number   1
_chemical_formula_structural   Tb5Dy5Ir4
_chemical_formula_sum   'Tb5 Dy5 Ir4'
_cell_volume   370.47350156
_cell_formula_units_Z   1
loop_
 _symmetry_equiv_pos_site_id
 _symmetry_equiv_pos_as_xyz
  1  'x, y, z'
loop_
 _atom_site_type_symbol
 _atom_site_label
 _atom_site_symmetry_multiplicity
 _atom_site_fract_x
 _atom_site_fract_y
 _atom_site_fract_z
 _atom_site_occupancy
  Tb  Tb0  1  0.792174  0.083245  0.814462  1
  Tb  Tb1  1  0.977619  0.416741  0.185587  1
  Tb  Tb2  1  0.207956  0.916584  0.185531  1
  Tb  Tb3  1  0.022265  0.583383  0.814386  1
  Tb  Tb4  1  0.209860  0.184417  0.560890  1
  Dy  Dy5  1  0.648808  0.315751  0.438866  1
  Dy  Dy6  1  0.789952  0.815527  0.438862  1
  Dy  Dy7  1  0.351192  0.684335  0.561051  1
  Dy  Dy8  1  0.429326  0.250020  0.000170  1
  Dy  Dy9  1  0.570802  0.750038  0.000034  1
  Ir  Ir10  1  0.600547  0.425869  0.777495  1
  Ir  Ir11  1  0.822598  0.074274  0.222435  1
  Ir  Ir12  1  0.399800  0.574357  0.222740  1
  Ir  Ir13  1  0.177103  0.925459  0.777490  1
