# generated using pymatgen
data_Sr4InPd4Pb
_symmetry_space_group_name_H-M   'P 1'
_cell_length_a   6.09116408
_cell_length_b   6.09116304
_cell_length_c   8.57628909
_cell_angle_alpha   78.17384317
_cell_angle_beta   78.17384653
_cell_angle_gamma   59.99227200
_symmetry_Int_Tables_number   1
_chemical_formula_structural   Sr4InPd4Pb
_chemical_formula_sum   'Sr4 In1 Pd4 Pb1'
_cell_volume   267.72150395
_cell_formula_units_Z   1
loop_
 _symmetry_equiv_pos_site_id
 _symmetry_equiv_pos_as_xyz
  1  'x, y, z'
loop_
 _atom_site_type_symbol
 _atom_site_label
 _atom_site_symmetry_multiplicity
 _atom_site_fract_x
 _atom_site_fract_y
 _atom_site_fract_z
 _atom_site_occupancy
  Sr  Sr0  1  0.507616  0.789684  0.351326  1
  Sr  Sr1  1  0.210316  0.492384  0.148674  1
  Sr  Sr2  1  0.493010  0.208955  0.647826  1
  Sr  Sr3  1  0.791045  0.506990  0.852174  1
  In  In4  1  0.132450  0.867550  0.750000  1
  Pd  Pd5  1  0.728296  0.999896  0.996979  1
  Pd  Pd6  1  0.000104  0.271704  0.503021  1
  Pd  Pd7  1  0.275090  0.994138  0.993347  1
  Pd  Pd8  1  0.005862  0.724910  0.506653  1
  Pb  Pb9  1  0.856210  0.143790  0.250000  1
