# generated using pymatgen
data_Dy4Ho2CdIn9
_symmetry_space_group_name_H-M   'P 1'
_cell_length_a   6.38416443
_cell_length_b   6.38416530
_cell_length_c   10.42209700
_cell_angle_alpha   90.00000000
_cell_angle_beta   90.00000000
_cell_angle_gamma   102.17770450
_symmetry_Int_Tables_number   1
_chemical_formula_structural   Dy4Ho2CdIn9
_chemical_formula_sum   'Dy4 Ho2 Cd1 In9'
_cell_volume   415.22089397
_cell_formula_units_Z   1
loop_
 _symmetry_equiv_pos_site_id
 _symmetry_equiv_pos_as_xyz
  1  'x, y, z'
loop_
 _atom_site_type_symbol
 _atom_site_label
 _atom_site_symmetry_multiplicity
 _atom_site_fract_x
 _atom_site_fract_y
 _atom_site_fract_z
 _atom_site_occupancy
  Dy  Dy0  1  0.201784  0.794500  0.502592  1
  Dy  Dy1  1  0.201784  0.794500  0.997408  1
  Dy  Dy2  1  0.794500  0.201784  0.502592  1
  Dy  Dy3  1  0.794500  0.201784  0.997408  1
  Ho  Ho4  1  0.619246  0.619246  0.250000  1
  Ho  Ho5  1  0.381294  0.381294  0.750000  1
  Cd  Cd6  1  0.009132  0.009132  0.250000  1
  In  In7  1  0.994788  0.994788  0.750000  1
  In  In8  1  0.306649  0.306649  0.044126  1
  In  In9  1  0.691118  0.691118  0.955755  1
  In  In10  1  0.306649  0.306649  0.455874  1
  In  In11  1  0.691118  0.691118  0.544245  1
  In  In12  1  0.513037  0.073629  0.250000  1
  In  In13  1  0.928197  0.492575  0.750000  1
  In  In14  1  0.492575  0.928197  0.750000  1
  In  In15  1  0.073629  0.513037  0.250000  1
