# generated using pymatgen
data_LiLa7PaAl7Rh8
_symmetry_space_group_name_H-M   'P 1'
_cell_length_a   4.21092800
_cell_length_b   7.37396309
_cell_length_c   16.38656284
_cell_angle_alpha   89.00715198
_cell_angle_beta   90.00000000
_cell_angle_gamma   90.00000000
_symmetry_Int_Tables_number   1
_chemical_formula_structural   LiLa7PaAl7Rh8
_chemical_formula_sum   'Li1 La7 Pa1 Al7 Rh8'
_cell_volume   508.74650156
_cell_formula_units_Z   1
loop_
 _symmetry_equiv_pos_site_id
 _symmetry_equiv_pos_as_xyz
  1  'x, y, z'
loop_
 _atom_site_type_symbol
 _atom_site_label
 _atom_site_symmetry_multiplicity
 _atom_site_fract_x
 _atom_site_fract_y
 _atom_site_fract_z
 _atom_site_occupancy
  Li  Li0  1  0.250000  0.652530  0.350714  1
  La  La1  1  0.750000  0.478375  0.217294  1
  La  La2  1  0.750000  0.977462  0.282048  1
  La  La3  1  0.250000  0.027159  0.722043  1
  La  La4  1  0.250000  0.656232  0.560951  1
  La  La5  1  0.750000  0.334051  0.441068  1
  La  La6  1  0.750000  0.849157  0.058409  1
  La  La7  1  0.250000  0.167362  0.936677  1
  Pa  Pa8  1  0.250000  0.527400  0.780002  1
  Al  Al9  1  0.750000  0.349501  0.649806  1
  Al  Al10  1  0.750000  0.838098  0.850070  1
  Al  Al11  1  0.250000  0.150890  0.148020  1
  Al  Al12  1  0.250000  0.506026  0.058800  1
  Al  Al13  1  0.750000  0.497785  0.940131  1
  Al  Al14  1  0.750000  0.992646  0.564555  1
  Al  Al15  1  0.250000  0.997761  0.440512  1
  Rh  Rh16  1  0.250000  0.772777  0.169872  1
  Rh  Rh17  1  0.750000  0.282240  0.813729  1
  Rh  Rh18  1  0.750000  0.704882  0.695618  1
  Rh  Rh19  1  0.250000  0.248189  0.317777  1
  Rh  Rh20  1  0.250000  0.708170  0.919871  1
  Rh  Rh21  1  0.750000  0.285123  0.073907  1
  Rh  Rh22  1  0.750000  0.787162  0.437071  1
  Rh  Rh23  1  0.250000  0.209022  0.571055  1
