# generated using pymatgen
data_Tm6ZrNi17As12
_symmetry_space_group_name_H-M   'P 1'
_cell_length_a   3.88420900
_cell_length_b   10.93803800
_cell_length_c   12.74122800
_cell_angle_alpha   90.00000000
_cell_angle_beta   90.00000000
_cell_angle_gamma   90.00000000
_symmetry_Int_Tables_number   1
_chemical_formula_structural   Tm6ZrNi17As12
_chemical_formula_sum   'Tm6 Zr1 Ni17 As12'
_cell_volume   541.31904303
_cell_formula_units_Z   1
loop_
 _symmetry_equiv_pos_site_id
 _symmetry_equiv_pos_as_xyz
  1  'x, y, z'
loop_
 _atom_site_type_symbol
 _atom_site_label
 _atom_site_symmetry_multiplicity
 _atom_site_fract_x
 _atom_site_fract_y
 _atom_site_fract_z
 _atom_site_occupancy
  Tm  Tm0  1  0.000000  0.500000  0.531587  1
  Tm  Tm1  1  0.500000  0.000000  0.476007  1
  Tm  Tm2  1  0.500000  0.822785  0.209233  1
  Tm  Tm3  1  0.500000  0.177215  0.209233  1
  Tm  Tm4  1  0.000000  0.682153  0.796175  1
  Tm  Tm5  1  0.000000  0.317847  0.796175  1
  Zr  Zr6  1  0.500000  0.500000  0.151878  1
  Ni  Ni7  1  0.000000  0.000000  0.838726  1
  Ni  Ni8  1  0.500000  0.500000  0.701446  1
  Ni  Ni9  1  0.000000  0.000000  0.301104  1
  Ni  Ni10  1  0.000000  0.500000  0.982965  1
  Ni  Ni11  1  0.500000  0.000000  0.018826  1
  Ni  Ni12  1  0.500000  0.324501  0.989001  1
  Ni  Ni13  1  0.500000  0.675499  0.989001  1
  Ni  Ni14  1  0.000000  0.157508  0.999103  1
  Ni  Ni15  1  0.000000  0.842492  0.999103  1
  Ni  Ni16  1  0.500000  0.300250  0.431515  1
  Ni  Ni17  1  0.500000  0.699750  0.431515  1
  Ni  Ni18  1  0.000000  0.198028  0.571162  1
  Ni  Ni19  1  0.000000  0.801972  0.571162  1
  Ni  Ni20  1  0.500000  0.879209  0.705260  1
  Ni  Ni21  1  0.500000  0.120791  0.705260  1
  Ni  Ni22  1  0.000000  0.622262  0.294433  1
  Ni  Ni23  1  0.000000  0.377738  0.294433  1
  As  As24  1  0.500000  0.500000  0.879528  1
  As  As25  1  0.000000  0.000000  0.124597  1
  As  As26  1  0.500000  0.500000  0.360991  1
  As  As27  1  0.000000  0.000000  0.650441  1
  As  As28  1  0.500000  0.314003  0.617734  1
  As  As29  1  0.500000  0.685997  0.617734  1
  As  As30  1  0.000000  0.184271  0.386514  1
  As  As31  1  0.000000  0.815729  0.386514  1
  As  As32  1  0.500000  0.851972  0.885499  1
  As  As33  1  0.500000  0.148028  0.885499  1
  As  As34  1  0.000000  0.667690  0.105322  1
  As  As35  1  0.000000  0.332310  0.105322  1
