# generated using pymatgen
data_Yb3Dy(MnB4)4
_symmetry_space_group_name_H-M   'P 1'
_cell_length_a   5.90084216
_cell_length_b   11.41302931
_cell_length_c   3.36893800
_cell_angle_alpha   90.00000000
_cell_angle_beta   90.00000000
_cell_angle_gamma   90.02665012
_symmetry_Int_Tables_number   1
_chemical_formula_structural   Yb3Dy(MnB4)4
_chemical_formula_sum   'Yb3 Dy1 Mn4 B16'
_cell_volume   226.88610630
_cell_formula_units_Z   1
loop_
 _symmetry_equiv_pos_site_id
 _symmetry_equiv_pos_as_xyz
  1  'x, y, z'
loop_
 _atom_site_type_symbol
 _atom_site_label
 _atom_site_symmetry_multiplicity
 _atom_site_fract_x
 _atom_site_fract_y
 _atom_site_fract_z
 _atom_site_occupancy
  Yb  Yb0  1  0.625696  0.348777  0.000000  1
  Yb  Yb1  1  0.374622  0.650463  0.000000  1
  Yb  Yb2  1  0.125994  0.151540  0.000000  1
  Dy  Dy3  1  0.874039  0.848951  0.000000  1
  Mn  Mn4  1  0.623544  0.079505  0.000000  1
  Mn  Mn5  1  0.377301  0.919585  0.000000  1
  Mn  Mn6  1  0.124031  0.419777  0.000000  1
  Mn  Mn7  1  0.876717  0.580547  0.000000  1
  B  B8  1  0.779154  0.183202  0.500000  1
  B  B9  1  0.220537  0.816984  0.500000  1
  B  B10  1  0.280490  0.316870  0.500000  1
  B  B11  1  0.719367  0.682433  0.500000  1
  B  B12  1  0.861374  0.032941  0.500000  1
  B  B13  1  0.138597  0.967854  0.500000  1
  B  B14  1  0.362267  0.467504  0.500000  1
  B  B15  1  0.637738  0.532546  0.500000  1
  B  B16  1  0.886058  0.453739  0.500000  1
  B  B17  1  0.113024  0.547143  0.500000  1
  B  B18  1  0.386834  0.046997  0.500000  1
  B  B19  1  0.611704  0.953380  0.500000  1
  B  B20  1  0.975997  0.309078  0.500000  1
  B  B21  1  0.024219  0.690539  0.500000  1
  B  B22  1  0.476967  0.190819  0.500000  1
  B  B23  1  0.523729  0.808828  0.500000  1
