# generated using pymatgen
data_Y2(HoBi)3
_symmetry_space_group_name_H-M   'P 1'
_cell_length_a   8.25586100
_cell_length_b   9.50176400
_cell_length_c   12.08003900
_cell_angle_alpha   90.00000000
_cell_angle_beta   90.00000000
_cell_angle_gamma   90.00000000
_symmetry_Int_Tables_number   1
_chemical_formula_structural   Y2(HoBi)3
_chemical_formula_sum   'Y8 Ho12 Bi12'
_cell_volume   947.62159286
_cell_formula_units_Z   4
loop_
 _symmetry_equiv_pos_site_id
 _symmetry_equiv_pos_as_xyz
  1  'x, y, z'
loop_
 _atom_site_type_symbol
 _atom_site_label
 _atom_site_symmetry_multiplicity
 _atom_site_fract_x
 _atom_site_fract_y
 _atom_site_fract_z
 _atom_site_occupancy
  Y  Y0  1  0.186244  0.750000  0.718991  1
  Y  Y1  1  0.686244  0.750000  0.781009  1
  Y  Y2  1  0.813756  0.250000  0.281009  1
  Y  Y3  1  0.313756  0.250000  0.218991  1
  Y  Y4  1  0.353809  0.750000  0.215196  1
  Y  Y5  1  0.853809  0.750000  0.284804  1
  Y  Y6  1  0.646191  0.250000  0.784804  1
  Y  Y7  1  0.146191  0.250000  0.715196  1
  Ho  Ho8  1  0.026188  0.750000  0.989069  1
  Ho  Ho9  1  0.526188  0.750000  0.510931  1
  Ho  Ho10  1  0.973812  0.250000  0.010931  1
  Ho  Ho11  1  0.473812  0.250000  0.489069  1
  Ho  Ho12  1  0.306187  0.436702  0.940006  1
  Ho  Ho13  1  0.806187  0.063298  0.559994  1
  Ho  Ho14  1  0.693813  0.936702  0.059994  1
  Ho  Ho15  1  0.193813  0.563298  0.440006  1
  Ho  Ho16  1  0.693813  0.563298  0.059994  1
  Ho  Ho17  1  0.193813  0.936702  0.440006  1
  Ho  Ho18  1  0.306187  0.063298  0.940006  1
  Ho  Ho19  1  0.806187  0.436702  0.559994  1
  Bi  Bi20  1  0.433676  0.003703  0.673599  1
  Bi  Bi21  1  0.933676  0.496297  0.826401  1
  Bi  Bi22  1  0.566324  0.503703  0.326401  1
  Bi  Bi23  1  0.066324  0.996297  0.173599  1
  Bi  Bi24  1  0.566324  0.996297  0.326401  1
  Bi  Bi25  1  0.066324  0.503703  0.173599  1
  Bi  Bi26  1  0.433676  0.496297  0.673599  1
  Bi  Bi27  1  0.933676  0.003703  0.826401  1
  Bi  Bi28  1  0.409624  0.750000  0.958165  1
  Bi  Bi29  1  0.909624  0.750000  0.541835  1
  Bi  Bi30  1  0.590376  0.250000  0.041835  1
  Bi  Bi31  1  0.090376  0.250000  0.458165  1
