# generated using pymatgen
data_Er6IO12
_symmetry_space_group_name_H-M   'P 1'
_cell_length_a   6.46204816
_cell_length_b   6.46250459
_cell_length_c   6.46178426
_cell_angle_alpha   98.67236993
_cell_angle_beta   98.67537062
_cell_angle_gamma   98.67591045
_symmetry_Int_Tables_number   1
_chemical_formula_structural   Er6IO12
_chemical_formula_sum   'Er6 I1 O12'
_cell_volume   259.51959978
_cell_formula_units_Z   1
loop_
 _symmetry_equiv_pos_site_id
 _symmetry_equiv_pos_as_xyz
  1  'x, y, z'
loop_
 _atom_site_type_symbol
 _atom_site_label
 _atom_site_symmetry_multiplicity
 _atom_site_fract_x
 _atom_site_fract_y
 _atom_site_fract_z
 _atom_site_occupancy
  Er  Er0  1  0.611191  0.319338  0.145550  1
  Er  Er1  1  0.145551  0.611194  0.319335  1
  Er  Er2  1  0.680682  0.854450  0.388816  1
  Er  Er3  1  0.319318  0.145550  0.611183  1
  Er  Er4  1  0.854449  0.388805  0.680664  1
  Er  Er5  1  0.388809  0.680662  0.854450  1
  I  I6  1  0.000000  0.000000  0.000000  1
  O  O7  1  0.692698  0.929836  0.038531  1
  O  O8  1  0.961484  0.307315  0.070194  1
  O  O9  1  0.431226  0.591333  0.177407  1
  O  O10  1  0.070189  0.961487  0.307330  1
  O  O11  1  0.822588  0.568771  0.408664  1
  O  O12  1  0.591337  0.177403  0.431231  1
  O  O13  1  0.408663  0.822597  0.568769  1
  O  O14  1  0.177412  0.431228  0.591336  1
  O  O15  1  0.929811  0.038513  0.692670  1
  O  O16  1  0.568774  0.408667  0.822593  1
  O  O17  1  0.038516  0.692685  0.929806  1
  O  O18  1  0.307302  0.070164  0.961469  1
