# generated using pymatgen
data_Yb8Tl3Ag7PtPb
_symmetry_space_group_name_H-M   'P 1'
_cell_length_a   8.04421696
_cell_length_b   8.03839173
_cell_length_c   7.68007932
_cell_angle_alpha   90.08169829
_cell_angle_beta   89.90865445
_cell_angle_gamma   90.15447637
_symmetry_Int_Tables_number   1
_chemical_formula_structural   Yb8Tl3Ag7PtPb
_chemical_formula_sum   'Yb8 Tl3 Ag7 Pt1 Pb1'
_cell_volume   496.61070620
_cell_formula_units_Z   1
loop_
 _symmetry_equiv_pos_site_id
 _symmetry_equiv_pos_as_xyz
  1  'x, y, z'
loop_
 _atom_site_type_symbol
 _atom_site_label
 _atom_site_symmetry_multiplicity
 _atom_site_fract_x
 _atom_site_fract_y
 _atom_site_fract_z
 _atom_site_occupancy
  Yb  Yb0  1  0.669197  0.692713  0.993201  1
  Yb  Yb1  1  0.329646  0.347144  0.507810  1
  Yb  Yb2  1  0.814240  0.183307  0.497966  1
  Yb  Yb3  1  0.651127  0.672239  0.508008  1
  Yb  Yb4  1  0.309562  0.328523  0.993340  1
  Yb  Yb5  1  0.196568  0.805461  0.508580  1
  Yb  Yb6  1  0.837263  0.161223  0.002962  1
  Yb  Yb7  1  0.178510  0.823360  0.990276  1
  Tl  Tl8  1  0.499449  0.005035  0.749915  1
  Tl  Tl9  1  0.500168  0.006700  0.250786  1
  Tl  Tl10  1  0.995661  0.500629  0.750073  1
  Ag  Ag11  1  0.879598  0.875251  0.728260  1
  Ag  Ag12  1  0.125726  0.119781  0.728253  1
  Ag  Ag13  1  0.626107  0.372812  0.773242  1
  Ag  Ag14  1  0.621069  0.376834  0.228822  1
  Ag  Ag15  1  0.379182  0.622276  0.230496  1
  Ag  Ag16  1  0.129736  0.115618  0.271942  1
  Ag  Ag17  1  0.882449  0.871632  0.271803  1
  Pt  Pt18  1  0.381231  0.619048  0.763862  1
  Pb  Pb19  1  0.993510  0.500415  0.250402  1
