# generated using pymatgen
data_Er3Hg3IrAu
_symmetry_space_group_name_H-M   'P 1'
_cell_length_a   7.79516000
_cell_length_b   7.79516036
_cell_length_c   3.56437700
_cell_angle_alpha   90.00000000
_cell_angle_beta   90.00000000
_cell_angle_gamma   119.99999848
_symmetry_Int_Tables_number   1
_chemical_formula_structural   Er3Hg3IrAu
_chemical_formula_sum   'Er3 Hg3 Ir1 Au1'
_cell_volume   187.57042326
_cell_formula_units_Z   1
loop_
 _symmetry_equiv_pos_site_id
 _symmetry_equiv_pos_as_xyz
  1  'x, y, z'
loop_
 _atom_site_type_symbol
 _atom_site_label
 _atom_site_symmetry_multiplicity
 _atom_site_fract_x
 _atom_site_fract_y
 _atom_site_fract_z
 _atom_site_occupancy
  Er  Er0  1  0.570364  0.981813  0.500000  1
  Er  Er1  1  0.411449  0.429637  0.500000  1
  Er  Er2  1  0.018187  0.588552  0.500000  1
  Hg  Hg3  1  0.228924  0.997489  0.000000  1
  Hg  Hg4  1  0.002511  0.231435  0.000000  1
  Hg  Hg5  1  0.768565  0.771077  0.000000  1
  Ir  Ir6  1  0.333333  0.666666  0.000000  1
  Au  Au7  1  0.666667  0.333333  0.000000  1
