# generated using pymatgen
data_ZnPd2F12
_symmetry_space_group_name_H-M   'P 1'
_cell_length_a   5.47603708
_cell_length_b   10.89743741
_cell_length_c   5.48844653
_cell_angle_alpha   56.91449289
_cell_angle_beta   57.16472620
_cell_angle_gamma   57.20113782
_symmetry_Int_Tables_number   1
_chemical_formula_structural   ZnPd2F12
_chemical_formula_sum   'Zn1 Pd2 F12'
_cell_volume   216.07561682
_cell_formula_units_Z   1
loop_
 _symmetry_equiv_pos_site_id
 _symmetry_equiv_pos_as_xyz
  1  'x, y, z'
loop_
 _atom_site_type_symbol
 _atom_site_label
 _atom_site_symmetry_multiplicity
 _atom_site_fract_x
 _atom_site_fract_y
 _atom_site_fract_z
 _atom_site_occupancy
  Zn  Zn0  1  0.000000  0.500000  0.000000  1
  Pd  Pd1  1  0.497674  0.246580  0.505480  1
  Pd  Pd2  1  0.502326  0.753420  0.494520  1
  F  F3  1  0.145766  0.186589  0.738202  1
  F  F4  1  0.138602  0.687724  0.740745  1
  F  F5  1  0.374181  0.372613  0.137344  1
  F  F6  1  0.374499  0.869230  0.148312  1
  F  F7  1  0.735910  0.074591  0.372315  1
  F  F8  1  0.742196  0.567427  0.376782  1
  F  F9  1  0.257804  0.432573  0.623218  1
  F  F10  1  0.264090  0.925409  0.627685  1
  F  F11  1  0.625501  0.130770  0.851688  1
  F  F12  1  0.625819  0.627387  0.862656  1
  F  F13  1  0.861398  0.312276  0.259255  1
  F  F14  1  0.854234  0.813411  0.261798  1
