# generated using pymatgen
data_NdGd5CuRh17
_symmetry_space_group_name_H-M   'P 1'
_cell_length_a   5.26695300
_cell_length_b   5.26696760
_cell_length_c   17.42557200
_cell_angle_alpha   90.00000000
_cell_angle_beta   90.00000000
_cell_angle_gamma   120.00132147
_symmetry_Int_Tables_number   1
_chemical_formula_structural   NdGd5CuRh17
_chemical_formula_sum   'Nd1 Gd5 Cu1 Rh17'
_cell_volume   418.63157421
_cell_formula_units_Z   1
loop_
 _symmetry_equiv_pos_site_id
 _symmetry_equiv_pos_as_xyz
  1  'x, y, z'
loop_
 _atom_site_type_symbol
 _atom_site_label
 _atom_site_symmetry_multiplicity
 _atom_site_fract_x
 _atom_site_fract_y
 _atom_site_fract_z
 _atom_site_occupancy
  Nd  Nd0  1  0.666954  0.333233  0.250000  1
  Gd  Gd1  1  0.333133  0.666181  0.540042  1
  Gd  Gd2  1  0.666415  0.333337  0.041413  1
  Gd  Gd3  1  0.666415  0.333337  0.458587  1
  Gd  Gd4  1  0.333133  0.666181  0.959958  1
  Gd  Gd5  1  0.333358  0.667326  0.750000  1
  Cu  Cu6  1  0.000213  0.000068  0.250000  1
  Rh  Rh7  1  0.167106  0.334230  0.126139  1
  Rh  Rh8  1  0.832634  0.665228  0.625680  1
  Rh  Rh9  1  0.665883  0.833020  0.126148  1
  Rh  Rh10  1  0.167159  0.832970  0.126126  1
  Rh  Rh11  1  0.832545  0.167333  0.625652  1
  Rh  Rh12  1  0.334816  0.167370  0.625666  1
  Rh  Rh13  1  0.832634  0.665228  0.874320  1
  Rh  Rh14  1  0.832545  0.167333  0.874348  1
  Rh  Rh15  1  0.334816  0.167370  0.874334  1
  Rh  Rh16  1  0.665883  0.833020  0.373852  1
  Rh  Rh17  1  0.167159  0.832970  0.373874  1
  Rh  Rh18  1  0.167106  0.334230  0.373861  1
  Rh  Rh19  1  0.000205  0.000128  0.750000  1
  Rh  Rh20  1  0.333405  0.666629  0.250000  1
  Rh  Rh21  1  0.666649  0.333365  0.750000  1
  Rh  Rh22  1  0.999917  0.999957  0.001004  1
  Rh  Rh23  1  0.999917  0.999957  0.498996  1
