# generated using pymatgen
data_V9Re(SiB2)2
_symmetry_space_group_name_H-M   'P 1'
_cell_length_a   6.74780083
_cell_length_b   6.75334246
_cell_length_c   6.75927142
_cell_angle_alpha   129.20211672
_cell_angle_beta   129.17985942
_cell_angle_gamma   74.60669581
_symmetry_Int_Tables_number   1
_chemical_formula_structural   V9Re(SiB2)2
_chemical_formula_sum   'V9 Re1 Si2 B4'
_cell_volume   180.37347058
_cell_formula_units_Z   1
loop_
 _symmetry_equiv_pos_site_id
 _symmetry_equiv_pos_as_xyz
  1  'x, y, z'
loop_
 _atom_site_type_symbol
 _atom_site_label
 _atom_site_symmetry_multiplicity
 _atom_site_fract_x
 _atom_site_fract_y
 _atom_site_fract_z
 _atom_site_occupancy
  V  V0  1  0.030786  0.529996  0.837441  1
  V  V1  1  0.693345  0.192555  0.162559  1
  V  V2  1  0.970003  0.469183  0.163551  1
  V  V3  1  0.193195  0.030879  0.500000  1
  V  V4  1  0.469497  0.307611  0.500000  1
  V  V5  1  0.806345  0.970725  0.500000  1
  V  V6  1  0.306451  0.805632  0.836449  1
  V  V7  1  0.001261  0.001513  0.002195  1
  V  V8  1  0.499066  0.499317  0.997805  1
  Re  Re9  1  0.530115  0.692259  0.500000  1
  Si  Si10  1  0.247076  0.244896  0.994625  1
  Si  Si11  1  0.752451  0.750271  0.005375  1
  B  B12  1  0.617135  0.119950  0.734221  1
  B  B13  1  0.114607  0.384169  0.500000  1
  B  B14  1  0.885753  0.615316  0.500000  1
  B  B15  1  0.382914  0.885729  0.265779  1
