# generated using pymatgen
data_Pr4NdP12Pd3Ru16
_symmetry_space_group_name_H-M   'P 1'
_cell_length_a   12.72313100
_cell_length_b   12.72313118
_cell_length_c   4.02935500
_cell_angle_alpha   90.00000000
_cell_angle_beta   90.00000000
_cell_angle_gamma   120.00000734
_symmetry_Int_Tables_number   1
_chemical_formula_structural   Pr4NdP12Pd3Ru16
_chemical_formula_sum   'Pr4 Nd1 P12 Pd3 Ru16'
_cell_volume   564.87731619
_cell_formula_units_Z   1
loop_
 _symmetry_equiv_pos_site_id
 _symmetry_equiv_pos_as_xyz
  1  'x, y, z'
loop_
 _atom_site_type_symbol
 _atom_site_label
 _atom_site_symmetry_multiplicity
 _atom_site_fract_x
 _atom_site_fract_y
 _atom_site_fract_z
 _atom_site_occupancy
  Pr  Pr0  1  0.000018  0.181884  0.500000  1
  Pr  Pr1  1  0.818116  0.818134  0.500000  1
  Pr  Pr2  1  0.181866  0.999982  0.500000  1
  Pr  Pr3  1  0.666667  0.333333  0.000000  1
  Nd  Nd4  1  0.333333  0.666667  0.000000  1
  P  P5  1  0.000055  0.811056  0.000000  1
  P  P6  1  0.188944  0.188999  0.000000  1
  P  P7  1  0.811001  0.999945  0.000000  1
  P  P8  1  0.700870  0.178480  0.500000  1
  P  P9  1  0.821520  0.522390  0.500000  1
  P  P10  1  0.477610  0.299130  0.500000  1
  P  P11  1  0.178915  0.700704  0.500000  1
  P  P12  1  0.521789  0.821085  0.500000  1
  P  P13  1  0.299296  0.478211  0.500000  1
  P  P14  1  0.999987  0.369111  0.000000  1
  P  P15  1  0.630889  0.630876  0.000000  1
  P  P16  1  0.369124  0.000013  0.000000  1
  Pd  Pd17  1  0.000003  0.553564  0.000000  1
  Pd  Pd18  1  0.446436  0.446440  0.000000  1
  Pd  Pd19  1  0.553560  0.999997  0.000000  1
  Ru  Ru20  1  0.000089  0.710335  0.500000  1
  Ru  Ru21  1  0.289665  0.289754  0.500000  1
  Ru  Ru22  1  0.710246  0.999911  0.500000  1
  Ru  Ru23  1  0.805648  0.185434  0.000000  1
  Ru  Ru24  1  0.814566  0.620214  0.000000  1
  Ru  Ru25  1  0.379786  0.194352  0.000000  1
  Ru  Ru26  1  0.185635  0.805493  0.000000  1
  Ru  Ru27  1  0.619859  0.814365  0.000000  1
  Ru  Ru28  1  0.194507  0.380141  0.000000  1
  Ru  Ru29  1  0.877799  0.369477  0.500000  1
  Ru  Ru30  1  0.630523  0.508322  0.500000  1
  Ru  Ru31  1  0.491678  0.122201  0.500000  1
  Ru  Ru32  1  0.369551  0.877340  0.500000  1
  Ru  Ru33  1  0.507789  0.630449  0.500000  1
  Ru  Ru34  1  0.122660  0.492211  0.500000  1
  Ru  Ru35  1  0.000000  0.000000  0.000000  1
