# generated using pymatgen
data_AcY(MgIr)2
_symmetry_space_group_name_H-M   'P 1'
_cell_length_a   4.23592900
_cell_length_b   7.30516700
_cell_length_c   8.72494400
_cell_angle_alpha   90.00000000
_cell_angle_beta   90.00000000
_cell_angle_gamma   90.00000000
_symmetry_Int_Tables_number   1
_chemical_formula_structural   AcY(MgIr)2
_chemical_formula_sum   'Ac2 Y2 Mg4 Ir4'
_cell_volume   269.98613943
_cell_formula_units_Z   2
loop_
 _symmetry_equiv_pos_site_id
 _symmetry_equiv_pos_as_xyz
  1  'x, y, z'
loop_
 _atom_site_type_symbol
 _atom_site_label
 _atom_site_symmetry_multiplicity
 _atom_site_fract_x
 _atom_site_fract_y
 _atom_site_fract_z
 _atom_site_occupancy
  Ac  Ac0  1  0.250000  0.034468  0.324784  1
  Ac  Ac1  1  0.250000  0.534468  0.175216  1
  Y  Y2  1  0.750000  0.959838  0.680132  1
  Y  Y3  1  0.750000  0.459838  0.819868  1
  Mg  Mg4  1  0.250000  0.134240  0.931829  1
  Mg  Mg5  1  0.250000  0.634240  0.568171  1
  Mg  Mg6  1  0.750000  0.869377  0.044218  1
  Mg  Mg7  1  0.750000  0.369377  0.455782  1
  Ir  Ir8  1  0.250000  0.258175  0.633528  1
  Ir  Ir9  1  0.250000  0.758175  0.866472  1
  Ir  Ir10  1  0.750000  0.743901  0.384861  1
  Ir  Ir11  1  0.750000  0.243901  0.115139  1
