# generated using pymatgen
data_Ce3ZrZn2Ir3
_symmetry_space_group_name_H-M   'P 1'
_cell_length_a   7.33987300
_cell_length_b   7.12562337
_cell_length_c   4.11014400
_cell_angle_alpha   90.00000000
_cell_angle_beta   90.00000000
_cell_angle_gamma   119.03900141
_symmetry_Int_Tables_number   1
_chemical_formula_structural   Ce3ZrZn2Ir3
_chemical_formula_sum   'Ce3 Zr1 Zn2 Ir3'
_cell_volume   187.94194028
_cell_formula_units_Z   1
loop_
 _symmetry_equiv_pos_site_id
 _symmetry_equiv_pos_as_xyz
  1  'x, y, z'
loop_
 _atom_site_type_symbol
 _atom_site_label
 _atom_site_symmetry_multiplicity
 _atom_site_fract_x
 _atom_site_fract_y
 _atom_site_fract_z
 _atom_site_occupancy
  Ce  Ce0  1  0.437750  0.425037  0.000000  1
  Ce  Ce1  1  0.562250  0.987287  0.000000  1
  Ce  Ce2  1  0.000000  0.610086  0.000000  1
  Zr  Zr3  1  0.000000  0.234463  0.500000  1
  Zn  Zn4  1  0.752010  0.756814  0.500000  1
  Zn  Zn5  1  0.247990  0.004804  0.500000  1
  Ir  Ir6  1  0.000000  0.002669  0.000000  1
  Ir  Ir7  1  0.673115  0.325976  0.500000  1
  Ir  Ir8  1  0.326885  0.652862  0.500000  1
