# generated using pymatgen
data_Zr8Tc4PdRu3
_symmetry_space_group_name_H-M   'P 1'
_cell_length_a   6.56946600
_cell_length_b   6.57346200
_cell_length_c   6.63130000
_cell_angle_alpha   90.00000000
_cell_angle_beta   90.00192715
_cell_angle_gamma   90.00000000
_symmetry_Int_Tables_number   1
_chemical_formula_structural   Zr8Tc4PdRu3
_chemical_formula_sum   'Zr8 Tc4 Pd1 Ru3'
_cell_volume   286.36695508
_cell_formula_units_Z   1
loop_
 _symmetry_equiv_pos_site_id
 _symmetry_equiv_pos_as_xyz
  1  'x, y, z'
loop_
 _atom_site_type_symbol
 _atom_site_label
 _atom_site_symmetry_multiplicity
 _atom_site_fract_x
 _atom_site_fract_y
 _atom_site_fract_z
 _atom_site_occupancy
  Zr  Zr0  1  0.001914  0.498169  0.252502  1
  Zr  Zr1  1  0.001914  0.001832  0.252502  1
  Zr  Zr2  1  0.498708  0.001923  0.252506  1
  Zr  Zr3  1  0.498708  0.498076  0.252506  1
  Zr  Zr4  1  0.498096  0.498179  0.747505  1
  Zr  Zr5  1  0.498096  0.001822  0.747505  1
  Zr  Zr6  1  0.001282  0.001922  0.747487  1
  Zr  Zr7  1  0.001282  0.498077  0.747487  1
  Tc  Tc8  1  0.249945  0.750000  0.000238  1
  Tc  Tc9  1  0.749956  0.250000  0.499760  1
  Tc  Tc10  1  0.250043  0.750000  0.500237  1
  Tc  Tc11  1  0.750047  0.250000  0.999754  1
  Pd  Pd12  1  0.750039  0.750000  0.000111  1
  Ru  Ru13  1  0.250023  0.250000  0.499894  1
  Ru  Ru14  1  0.749970  0.750000  0.500099  1
  Ru  Ru15  1  0.249976  0.250000  0.999905  1
