# generated using pymatgen
data_Ce6Sc4OsRu5
_symmetry_space_group_name_H-M   'P 1'
_cell_length_a   6.34866600
_cell_length_b   7.90328418
_cell_length_c   7.90328325
_cell_angle_alpha   120.06439540
_cell_angle_beta   90.00000000
_cell_angle_gamma   90.00000000
_symmetry_Int_Tables_number   1
_chemical_formula_structural   Ce6Sc4OsRu5
_chemical_formula_sum   'Ce6 Sc4 Os1 Ru5'
_cell_volume   343.19905339
_cell_formula_units_Z   1
loop_
 _symmetry_equiv_pos_site_id
 _symmetry_equiv_pos_as_xyz
  1  'x, y, z'
loop_
 _atom_site_type_symbol
 _atom_site_label
 _atom_site_symmetry_multiplicity
 _atom_site_fract_x
 _atom_site_fract_y
 _atom_site_fract_z
 _atom_site_occupancy
  Ce  Ce0  1  0.750000  0.751795  0.751795  1
  Ce  Ce1  1  0.250000  0.248613  0.248613  1
  Ce  Ce2  1  0.750000  0.996269  0.247461  1
  Ce  Ce3  1  0.250000  0.000997  0.751591  1
  Ce  Ce4  1  0.750000  0.247461  0.996269  1
  Ce  Ce5  1  0.250000  0.751591  0.000997  1
  Sc  Sc6  1  0.998863  0.663447  0.333077  1
  Sc  Sc7  1  0.998863  0.333077  0.663447  1
  Sc  Sc8  1  0.501137  0.333077  0.663447  1
  Sc  Sc9  1  0.501137  0.663447  0.333077  1
  Os  Os10  1  0.750000  0.388066  0.388066  1
  Ru  Ru11  1  0.250000  0.622772  0.622772  1
  Ru  Ru12  1  0.750000  0.001312  0.623229  1
  Ru  Ru13  1  0.250000  0.998765  0.376082  1
  Ru  Ru14  1  0.750000  0.623229  0.001312  1
  Ru  Ru15  1  0.250000  0.376082  0.998765  1
