# generated using pymatgen
data_Y5Zr3Ni(As4Pd5)3
_symmetry_space_group_name_H-M   'P 1'
_cell_length_a   13.55522787
_cell_length_b   13.55522700
_cell_length_c   4.08024600
_cell_angle_alpha   90.00000000
_cell_angle_beta   90.00000000
_cell_angle_gamma   120.20585984
_symmetry_Int_Tables_number   1
_chemical_formula_structural   Y5Zr3Ni(As4Pd5)3
_chemical_formula_sum   'Y5 Zr3 Ni1 As12 Pd15'
_cell_volume   647.92682741
_cell_formula_units_Z   1
loop_
 _symmetry_equiv_pos_site_id
 _symmetry_equiv_pos_as_xyz
  1  'x, y, z'
loop_
 _atom_site_type_symbol
 _atom_site_label
 _atom_site_symmetry_multiplicity
 _atom_site_fract_x
 _atom_site_fract_y
 _atom_site_fract_z
 _atom_site_occupancy
  Y  Y0  1  0.188765  0.188765  0.500000  1
  Y  Y1  1  0.810421  0.998230  0.500000  1
  Y  Y2  1  0.998230  0.810421  0.500000  1
  Y  Y3  1  0.334800  0.667285  0.000000  1
  Y  Y4  1  0.667285  0.334800  0.000000  1
  Zr  Zr5  1  0.559788  0.559788  0.000000  1
  Zr  Zr6  1  0.443430  0.000096  0.000000  1
  Zr  Zr7  1  0.000096  0.443430  0.000000  1
  Ni  Ni8  1  0.719533  0.719533  0.500000  1
  As  As9  1  0.817083  0.817083  0.000000  1
  As  As10  1  0.171423  0.999553  0.000000  1
  As  As11  1  0.999553  0.171423  0.000000  1
  As  As12  1  0.168079  0.484233  0.500000  1
  As  As13  1  0.524525  0.685029  0.500000  1
  As  As14  1  0.317265  0.833033  0.500000  1
  As  As15  1  0.685029  0.524525  0.500000  1
  As  As16  1  0.833033  0.317265  0.500000  1
  As  As17  1  0.484233  0.168079  0.500000  1
  As  As18  1  0.359707  0.359707  0.000000  1
  As  As19  1  0.642207  0.000501  0.000000  1
  As  As20  1  0.000501  0.642207  0.000000  1
  Pd  Pd21  1  0.277506  0.000251  0.500000  1
  Pd  Pd22  1  0.000251  0.277506  0.500000  1
  Pd  Pd23  1  0.181072  0.371233  0.000000  1
  Pd  Pd24  1  0.628734  0.809720  0.000000  1
  Pd  Pd25  1  0.190640  0.819473  0.000000  1
  Pd  Pd26  1  0.809720  0.628734  0.000000  1
  Pd  Pd27  1  0.819473  0.190640  0.000000  1
  Pd  Pd28  1  0.371233  0.181072  0.000000  1
  Pd  Pd29  1  0.359487  0.487752  0.500000  1
  Pd  Pd30  1  0.515337  0.869523  0.500000  1
  Pd  Pd31  1  0.127546  0.642974  0.500000  1
  Pd  Pd32  1  0.869523  0.515337  0.500000  1
  Pd  Pd33  1  0.642974  0.127546  0.500000  1
  Pd  Pd34  1  0.487752  0.359487  0.500000  1
  Pd  Pd35  1  0.993767  0.993767  0.000000  1
