# generated using pymatgen
data_Zr5CrCo15(MoP4)3
_symmetry_space_group_name_H-M   'P 1'
_cell_length_a   11.97819981
_cell_length_b   11.95508827
_cell_length_c   3.66074500
_cell_angle_alpha   90.00000000
_cell_angle_beta   90.00000000
_cell_angle_gamma   119.91710059
_symmetry_Int_Tables_number   1
_chemical_formula_structural   Zr5CrCo15(MoP4)3
_chemical_formula_sum   'Zr5 Cr1 Co15 Mo3 P12'
_cell_volume   454.36684303
_cell_formula_units_Z   1
loop_
 _symmetry_equiv_pos_site_id
 _symmetry_equiv_pos_as_xyz
  1  'x, y, z'
loop_
 _atom_site_type_symbol
 _atom_site_label
 _atom_site_symmetry_multiplicity
 _atom_site_fract_x
 _atom_site_fract_y
 _atom_site_fract_z
 _atom_site_occupancy
  Zr  Zr0  1  0.667168  0.334398  0.000000  1
  Zr  Zr1  1  0.333286  0.668409  0.000000  1
  Zr  Zr2  1  0.819943  0.820099  0.500000  1
  Zr  Zr3  1  0.180275  0.000051  0.500000  1
  Zr  Zr4  1  0.999187  0.178204  0.500000  1
  Cr  Cr5  1  0.125434  0.477820  0.500000  1
  Co  Co6  1  0.195901  0.369978  0.000000  1
  Co  Co7  1  0.178728  0.807160  0.000000  1
  Co  Co8  1  0.820526  0.626796  0.000000  1
  Co  Co9  1  0.803421  0.176462  0.000000  1
  Co  Co10  1  0.373267  0.195115  0.000000  1
  Co  Co11  1  0.355654  0.873948  0.500000  1
  Co  Co12  1  0.520184  0.646942  0.500000  1
  Co  Co13  1  0.645221  0.516559  0.500000  1
  Co  Co14  1  0.868208  0.354731  0.500000  1
  Co  Co15  1  0.483591  0.129556  0.500000  1
  Co  Co16  1  0.999461  0.000128  0.000000  1
  Co  Co17  1  0.719070  0.998904  0.500000  1
  Co  Co18  1  0.000057  0.721416  0.500000  1
  Co  Co19  1  0.627400  0.822632  0.000000  1
  Co  Co20  1  0.281296  0.279457  0.500000  1
  Mo  Mo21  1  0.448237  0.447641  0.000000  1
  Mo  Mo22  1  0.551563  0.000174  0.000000  1
  Mo  Mo23  1  0.001101  0.553185  0.000000  1
  P  P24  1  0.643296  0.643106  0.000000  1
  P  P25  1  0.356815  0.999996  0.000000  1
  P  P26  1  0.996334  0.351984  0.000000  1
  P  P27  1  0.482108  0.314478  0.500000  1
  P  P28  1  0.685109  0.166827  0.500000  1
  P  P29  1  0.833035  0.520576  0.500000  1
  P  P30  1  0.517996  0.832526  0.500000  1
  P  P31  1  0.168727  0.689173  0.500000  1
  P  P32  1  0.823078  0.999140  0.000000  1
  P  P33  1  0.999803  0.823859  0.000000  1
  P  P34  1  0.319082  0.483628  0.500000  1
  P  P35  1  0.176438  0.174943  0.000000  1
