# generated using pymatgen
data_Nd6Al24CoOs7
_symmetry_space_group_name_H-M   'P 1'
_cell_length_a   8.89540300
_cell_length_b   8.89540241
_cell_length_c   9.64772800
_cell_angle_alpha   90.00000000
_cell_angle_beta   90.00000000
_cell_angle_gamma   120.00000593
_symmetry_Int_Tables_number   1
_chemical_formula_structural   Nd6Al24CoOs7
_chemical_formula_sum   'Nd6 Al24 Co1 Os7'
_cell_volume   661.13002982
_cell_formula_units_Z   1
loop_
 _symmetry_equiv_pos_site_id
 _symmetry_equiv_pos_as_xyz
  1  'x, y, z'
loop_
 _atom_site_type_symbol
 _atom_site_label
 _atom_site_symmetry_multiplicity
 _atom_site_fract_x
 _atom_site_fract_y
 _atom_site_fract_z
 _atom_site_occupancy
  Nd  Nd0  1  0.192234  0.384469  0.250006  1
  Nd  Nd1  1  0.807766  0.615531  0.749994  1
  Nd  Nd2  1  0.615531  0.807766  0.250006  1
  Nd  Nd3  1  0.384469  0.192234  0.749994  1
  Nd  Nd4  1  0.192234  0.807766  0.250006  1
  Nd  Nd5  1  0.807766  0.192234  0.749994  1
  Al  Al6  1  0.333333  0.666667  0.009371  1
  Al  Al7  1  0.666667  0.333333  0.990629  1
  Al  Al8  1  0.666667  0.333333  0.511369  1
  Al  Al9  1  0.333333  0.666667  0.488631  1
  Al  Al10  1  0.162439  0.324879  0.575722  1
  Al  Al11  1  0.837561  0.675121  0.424278  1
  Al  Al12  1  0.675121  0.837561  0.575722  1
  Al  Al13  1  0.839486  0.678973  0.074586  1
  Al  Al14  1  0.324879  0.162439  0.424278  1
  Al  Al15  1  0.160514  0.321027  0.925414  1
  Al  Al16  1  0.162439  0.837561  0.575722  1
  Al  Al17  1  0.321027  0.160514  0.074586  1
  Al  Al18  1  0.837561  0.162439  0.424278  1
  Al  Al19  1  0.678973  0.839486  0.925414  1
  Al  Al20  1  0.839486  0.160514  0.074586  1
  Al  Al21  1  0.160514  0.839486  0.925414  1
  Al  Al22  1  0.561886  0.123771  0.250095  1
  Al  Al23  1  0.438114  0.876229  0.749905  1
  Al  Al24  1  0.876229  0.438114  0.250095  1
  Al  Al25  1  0.123771  0.561886  0.749905  1
  Al  Al26  1  0.561886  0.438114  0.250095  1
  Al  Al27  1  0.438114  0.561886  0.749905  1
  Al  Al28  1  0.000000  0.000000  0.242362  1
  Al  Al29  1  0.000000  0.000000  0.757638  1
  Co  Co30  1  0.000000  0.000000  0.000000  1
  Os  Os31  1  0.500000  0.000000  0.000000  1
  Os  Os32  1  0.000000  0.500000  0.000000  1
  Os  Os33  1  0.500000  0.000000  0.500000  1
  Os  Os34  1  0.500000  0.500000  0.000000  1
  Os  Os35  1  0.000000  0.500000  0.500000  1
  Os  Os36  1  0.500000  0.500000  0.500000  1
  Os  Os37  1  0.000000  0.000000  0.500000  1
