# generated using pymatgen
data_AsPIr
_symmetry_space_group_name_H-M   'P 1'
_cell_length_a   5.98827300
_cell_length_b   5.98458193
_cell_length_c   6.06116548
_cell_angle_alpha   68.38347824
_cell_angle_beta   90.00000000
_cell_angle_gamma   90.00000000
_symmetry_Int_Tables_number   1
_chemical_formula_structural   AsPIr
_chemical_formula_sum   'As4 P4 Ir4'
_cell_volume   201.93914062
_cell_formula_units_Z   4
loop_
 _symmetry_equiv_pos_site_id
 _symmetry_equiv_pos_as_xyz
  1  'x, y, z'
loop_
 _atom_site_type_symbol
 _atom_site_label
 _atom_site_symmetry_multiplicity
 _atom_site_fract_x
 _atom_site_fract_y
 _atom_site_fract_z
 _atom_site_occupancy
  As  As0  1  0.122116  0.842339  0.867942  1
  As  As1  1  0.622116  0.157661  0.632058  1
  As  As2  1  0.877884  0.157661  0.132058  1
  As  As3  1  0.377884  0.842339  0.367942  1
  P  P4  1  0.628725  0.658681  0.182684  1
  P  P5  1  0.128725  0.341319  0.317316  1
  P  P6  1  0.371275  0.341319  0.817316  1
  P  P7  1  0.871275  0.658681  0.682684  1
  Ir  Ir8  1  0.509161  0.717747  0.795300  1
  Ir  Ir9  1  0.009161  0.282253  0.704700  1
  Ir  Ir10  1  0.490839  0.282253  0.204700  1
  Ir  Ir11  1  0.990839  0.717747  0.295300  1
