# generated using pymatgen
data_La7Pr(SeO6)4
_symmetry_space_group_name_H-M   'P 1'
_cell_length_a   10.57918973
_cell_length_b   10.56979485
_cell_length_c   5.67942632
_cell_angle_alpha   72.77508332
_cell_angle_beta   72.69965216
_cell_angle_gamma   68.65800851
_symmetry_Int_Tables_number   1
_chemical_formula_structural   La7Pr(SeO6)4
_chemical_formula_sum   'La7 Pr1 Se4 O24'
_cell_volume   552.01107093
_cell_formula_units_Z   1
loop_
 _symmetry_equiv_pos_site_id
 _symmetry_equiv_pos_as_xyz
  1  'x, y, z'
loop_
 _atom_site_type_symbol
 _atom_site_label
 _atom_site_symmetry_multiplicity
 _atom_site_fract_x
 _atom_site_fract_y
 _atom_site_fract_z
 _atom_site_occupancy
  La  La0  1  0.641257  0.358735  0.749683  1
  La  La1  1  0.357765  0.640927  0.250993  1
  La  La2  1  0.111009  0.887485  0.750547  1
  La  La3  1  0.888920  0.110513  0.249979  1
  La  La4  1  0.717438  0.948586  0.881980  1
  La  La5  1  0.282817  0.050173  0.118172  1
  La  La6  1  0.050388  0.282797  0.617909  1
  Pr  Pr7  1  0.948180  0.717085  0.380848  1
  Se  Se8  1  0.535574  0.788609  0.562880  1
  Se  Se9  1  0.465122  0.211026  0.436720  1
  Se  Se10  1  0.210060  0.466040  0.937962  1
  Se  Se11  1  0.789702  0.535416  0.062073  1
  O  O12  1  0.721457  0.159724  0.621779  1
  O  O13  1  0.278990  0.839995  0.378818  1
  O  O14  1  0.839952  0.279423  0.878419  1
  O  O15  1  0.159756  0.720916  0.122183  1
  O  O16  1  0.404587  0.827472  0.811765  1
  O  O17  1  0.596392  0.172377  0.187987  1
  O  O18  1  0.171368  0.596934  0.688783  1
  O  O19  1  0.828725  0.403490  0.309345  1
  O  O20  1  0.682241  0.786584  0.625029  1
  O  O21  1  0.319060  0.213172  0.372778  1
  O  O22  1  0.212090  0.319731  0.874381  1
  O  O23  1  0.788730  0.680526  0.129555  1
  O  O24  1  0.480896  0.090839  0.706660  1
  O  O25  1  0.519542  0.908860  0.293017  1
  O  O26  1  0.908969  0.521639  0.789582  1
  O  O27  1  0.089594  0.482211  0.208334  1
  O  O28  1  0.543903  0.633460  0.525422  1
  O  O29  1  0.456498  0.366272  0.474390  1
  O  O30  1  0.365447  0.457055  0.974535  1
  O  O31  1  0.634365  0.544641  0.025330  1
  O  O32  1  0.884001  0.922815  0.087588  1
  O  O33  1  0.115067  0.076034  0.913583  1
  O  O34  1  0.076013  0.115122  0.413454  1
  O  O35  1  0.924124  0.883319  0.587538  1
