# generated using pymatgen
data_Pr5AgIrO12
_symmetry_space_group_name_H-M   'P 1'
_cell_length_a   7.15778450
_cell_length_b   7.15778362
_cell_length_c   7.66853326
_cell_angle_alpha   74.43666736
_cell_angle_beta   74.43667181
_cell_angle_gamma   52.08549368
_symmetry_Int_Tables_number   1
_chemical_formula_structural   Pr5AgIrO12
_chemical_formula_sum   'Pr5 Ag1 Ir1 O12'
_cell_volume   295.81785161
_cell_formula_units_Z   1
loop_
 _symmetry_equiv_pos_site_id
 _symmetry_equiv_pos_as_xyz
  1  'x, y, z'
loop_
 _atom_site_type_symbol
 _atom_site_label
 _atom_site_symmetry_multiplicity
 _atom_site_fract_x
 _atom_site_fract_y
 _atom_site_fract_z
 _atom_site_occupancy
  Pr  Pr0  1  0.306476  0.301202  0.358760  1
  Pr  Pr1  1  0.698798  0.693524  0.641240  1
  Pr  Pr2  1  0.693534  0.694364  0.167002  1
  Pr  Pr3  1  0.305636  0.306466  0.832998  1
  Pr  Pr4  1  0.008945  0.991055  0.500000  1
  Ag  Ag5  1  0.752226  0.247774  0.000000  1
  Ir  Ir6  1  0.243056  0.756944  0.000000  1
  O  O7  1  0.096428  0.594732  0.575973  1
  O  O8  1  0.033634  0.964939  0.182396  1
  O  O9  1  0.405268  0.903572  0.424027  1
  O  O10  1  0.464067  0.537089  0.182498  1
  O  O11  1  0.101760  0.579186  0.080231  1
  O  O12  1  0.905887  0.401170  0.422533  1
  O  O13  1  0.035061  0.966366  0.817604  1
  O  O14  1  0.598830  0.094112  0.577467  1
  O  O15  1  0.462911  0.535933  0.817502  1
  O  O16  1  0.567486  0.100816  0.081189  1
  O  O17  1  0.420814  0.898240  0.919769  1
  O  O18  1  0.899184  0.432514  0.918811  1
