# generated using pymatgen
data_Ce20Os7Pt5
_symmetry_space_group_name_H-M   'P 1'
_cell_length_a   10.92979196
_cell_length_b   10.92979209
_cell_length_c   6.45544900
_cell_angle_alpha   90.04879408
_cell_angle_beta   90.04878884
_cell_angle_gamma   89.72799398
_symmetry_Int_Tables_number   1
_chemical_formula_structural   Ce20Os7Pt5
_chemical_formula_sum   'Ce20 Os7 Pt5'
_cell_volume   771.16097444
_cell_formula_units_Z   1
loop_
 _symmetry_equiv_pos_site_id
 _symmetry_equiv_pos_as_xyz
  1  'x, y, z'
loop_
 _atom_site_type_symbol
 _atom_site_label
 _atom_site_symmetry_multiplicity
 _atom_site_fract_x
 _atom_site_fract_y
 _atom_site_fract_z
 _atom_site_occupancy
  Ce  Ce0  1  0.292980  0.092230  0.360813  1
  Ce  Ce1  1  0.293923  0.906983  0.859628  1
  Ce  Ce2  1  0.705777  0.085003  0.861155  1
  Ce  Ce3  1  0.704798  0.906383  0.360142  1
  Ce  Ce4  1  0.585863  0.783771  0.867706  1
  Ce  Ce5  1  0.582121  0.210906  0.363118  1
  Ce  Ce6  1  0.414252  0.787317  0.368565  1
  Ce  Ce7  1  0.410087  0.210644  0.870317  1
  Ce  Ce8  1  0.216229  0.414137  0.632294  1
  Ce  Ce9  1  0.212683  0.585748  0.131435  1
  Ce  Ce10  1  0.789094  0.417879  0.136882  1
  Ce  Ce11  1  0.789356  0.589913  0.629683  1
  Ce  Ce12  1  0.907770  0.707020  0.139187  1
  Ce  Ce13  1  0.914997  0.294223  0.638845  1
  Ce  Ce14  1  0.093017  0.706077  0.640372  1
  Ce  Ce15  1  0.093617  0.295202  0.139858  1
  Ce  Ce16  1  0.998457  0.999248  0.491303  1
  Ce  Ce17  1  0.000752  0.001543  0.008697  1
  Ce  Ce18  1  0.495219  0.503522  0.002361  1
  Ce  Ce19  1  0.496478  0.504781  0.497639  1
  Os  Os20  1  0.657131  0.652389  0.248682  1
  Os  Os21  1  0.347611  0.342869  0.251318  1
  Os  Os22  1  0.343024  0.656976  0.750000  1
  Os  Os23  1  0.499827  0.998884  0.106149  1
  Os  Os24  1  0.500157  0.000432  0.608003  1
  Os  Os25  1  0.999568  0.499843  0.891997  1
  Os  Os26  1  0.001116  0.500173  0.393851  1
  Pt  Pt27  1  0.840632  0.159368  0.250000  1
  Pt  Pt28  1  0.846568  0.846880  0.750926  1
  Pt  Pt29  1  0.153120  0.153432  0.749074  1
  Pt  Pt30  1  0.157460  0.842540  0.250000  1
  Pt  Pt31  1  0.656315  0.343685  0.750000  1
