# generated using pymatgen
data_K3Ta2Ag3Te8
_symmetry_space_group_name_H-M   'P 1'
_cell_length_a   13.87781336
_cell_length_b   13.87781276
_cell_length_c   15.79963949
_cell_angle_alpha   61.51925352
_cell_angle_beta   61.51925531
_cell_angle_gamma   26.70847144
_symmetry_Int_Tables_number   1
_chemical_formula_structural   K3Ta2Ag3Te8
_chemical_formula_sum   'K6 Ta4 Ag6 Te16'
_cell_volume   1192.11309843
_cell_formula_units_Z   2
loop_
 _symmetry_equiv_pos_site_id
 _symmetry_equiv_pos_as_xyz
  1  'x, y, z'
loop_
 _atom_site_type_symbol
 _atom_site_label
 _atom_site_symmetry_multiplicity
 _atom_site_fract_x
 _atom_site_fract_y
 _atom_site_fract_z
 _atom_site_occupancy
  K  K0  1  0.226867  0.380500  0.607979  1
  K  K1  1  0.773133  0.619500  0.392021  1
  K  K2  1  0.380500  0.226867  0.107979  1
  K  K3  1  0.000000  0.000000  0.500000  1
  K  K4  1  0.619500  0.773133  0.892021  1
  K  K5  1  0.000000  0.000000  0.000000  1
  Ta  Ta6  1  0.178774  0.567873  0.280942  1
  Ta  Ta7  1  0.567873  0.178774  0.780942  1
  Ta  Ta8  1  0.432127  0.821226  0.219058  1
  Ta  Ta9  1  0.821226  0.432127  0.719058  1
  Ag  Ag10  1  0.305357  0.694643  0.250000  1
  Ag  Ag11  1  0.066214  0.677964  0.788613  1
  Ag  Ag12  1  0.694643  0.305357  0.750000  1
  Ag  Ag13  1  0.677964  0.066214  0.288613  1
  Ag  Ag14  1  0.322036  0.933786  0.711387  1
  Ag  Ag15  1  0.933786  0.322036  0.211387  1
  Te  Te16  1  0.741362  0.690489  0.099727  1
  Te  Te17  1  0.581227  0.504565  0.351017  1
  Te  Te18  1  0.180809  0.010757  0.109104  1
  Te  Te19  1  0.418773  0.495435  0.648983  1
  Te  Te20  1  0.010757  0.180809  0.609104  1
  Te  Te21  1  0.089107  0.230705  0.819946  1
  Te  Te22  1  0.690489  0.741362  0.599727  1
  Te  Te23  1  0.495435  0.418773  0.148983  1
  Te  Te24  1  0.504565  0.581227  0.851017  1
  Te  Te25  1  0.309511  0.258638  0.400273  1
  Te  Te26  1  0.769295  0.910893  0.680054  1
  Te  Te27  1  0.819191  0.989243  0.890896  1
  Te  Te28  1  0.258638  0.309511  0.900273  1
  Te  Te29  1  0.989243  0.819191  0.390896  1
  Te  Te30  1  0.910893  0.769295  0.180054  1
  Te  Te31  1  0.230705  0.089107  0.319946  1
