# generated using pymatgen
data_Er(PaPd4)3
_symmetry_space_group_name_H-M   'P 1'
_cell_length_a   5.79796300
_cell_length_b   5.79796254
_cell_length_c   9.79798900
_cell_angle_alpha   90.00000000
_cell_angle_beta   90.00000000
_cell_angle_gamma   119.99999695
_symmetry_Int_Tables_number   1
_chemical_formula_structural   Er(PaPd4)3
_chemical_formula_sum   'Er1 Pa3 Pd12'
_cell_volume   285.24526035
_cell_formula_units_Z   1
loop_
 _symmetry_equiv_pos_site_id
 _symmetry_equiv_pos_as_xyz
  1  'x, y, z'
loop_
 _atom_site_type_symbol
 _atom_site_label
 _atom_site_symmetry_multiplicity
 _atom_site_fract_x
 _atom_site_fract_y
 _atom_site_fract_z
 _atom_site_occupancy
  Er  Er0  1  0.000000  0.000000  0.500000  1
  Pa  Pa1  1  0.000000  0.000000  0.000000  1
  Pa  Pa2  1  0.333333  0.666667  0.742329  1
  Pa  Pa3  1  0.666667  0.333333  0.257671  1
  Pd  Pd4  1  0.500000  0.500000  0.500000  1
  Pd  Pd5  1  0.500000  0.000000  0.500000  1
  Pd  Pd6  1  0.000000  0.500000  0.500000  1
  Pd  Pd7  1  0.500000  0.500000  0.000000  1
  Pd  Pd8  1  0.500000  0.000000  0.000000  1
  Pd  Pd9  1  0.000000  0.500000  0.000000  1
  Pd  Pd10  1  0.169785  0.830215  0.248084  1
  Pd  Pd11  1  0.169785  0.339571  0.248084  1
  Pd  Pd12  1  0.660429  0.830215  0.248084  1
  Pd  Pd13  1  0.830215  0.169785  0.751916  1
  Pd  Pd14  1  0.830215  0.660429  0.751916  1
  Pd  Pd15  1  0.339571  0.169785  0.751916  1
