# generated using pymatgen
data_PaReB4
_symmetry_space_group_name_H-M   'P 1'
_cell_length_a   3.67293600
_cell_length_b   5.97729700
_cell_length_c   11.59136700
_cell_angle_alpha   90.00000000
_cell_angle_beta   90.00000000
_cell_angle_gamma   90.00000000
_symmetry_Int_Tables_number   1
_chemical_formula_structural   PaReB4
_chemical_formula_sum   'Pa4 Re4 B16'
_cell_volume   254.47952941
_cell_formula_units_Z   4
loop_
 _symmetry_equiv_pos_site_id
 _symmetry_equiv_pos_as_xyz
  1  'x, y, z'
loop_
 _atom_site_type_symbol
 _atom_site_label
 _atom_site_symmetry_multiplicity
 _atom_site_fract_x
 _atom_site_fract_y
 _atom_site_fract_z
 _atom_site_occupancy
  Pa  Pa0  1  0.000000  0.628246  0.149655  1
  Pa  Pa1  1  0.000000  0.371754  0.850345  1
  Pa  Pa2  1  0.000000  0.128246  0.350345  1
  Pa  Pa3  1  0.000000  0.871754  0.649655  1
  Re  Re4  1  0.000000  0.639186  0.405540  1
  Re  Re5  1  0.000000  0.360814  0.594460  1
  Re  Re6  1  0.000000  0.139186  0.094460  1
  Re  Re7  1  0.000000  0.860814  0.905540  1
  B  B8  1  0.500000  0.972800  0.191246  1
  B  B9  1  0.500000  0.027200  0.808754  1
  B  B10  1  0.500000  0.472800  0.308754  1
  B  B11  1  0.500000  0.527200  0.691246  1
  B  B12  1  0.500000  0.789609  0.312375  1
  B  B13  1  0.500000  0.210391  0.687625  1
  B  B14  1  0.500000  0.289609  0.187625  1
  B  B15  1  0.500000  0.710391  0.812375  1
  B  B16  1  0.500000  0.864455  0.467886  1
  B  B17  1  0.500000  0.135545  0.532114  1
  B  B18  1  0.500000  0.364455  0.032114  1
  B  B19  1  0.500000  0.635545  0.967886  1
  B  B20  1  0.500000  0.887071  0.045987  1
  B  B21  1  0.500000  0.112929  0.954013  1
  B  B22  1  0.500000  0.387071  0.454013  1
  B  B23  1  0.500000  0.612929  0.545987  1
