# generated using pymatgen
data_Ho3MgIn2Ga2Ag
_symmetry_space_group_name_H-M   'P 1'
_cell_length_a   7.23965900
_cell_length_b   7.24762019
_cell_length_c   4.48928200
_cell_angle_alpha   90.00000000
_cell_angle_beta   90.00000000
_cell_angle_gamma   119.96366548
_symmetry_Int_Tables_number   1
_chemical_formula_structural   Ho3MgIn2Ga2Ag
_chemical_formula_sum   'Ho3 Mg1 In2 Ga2 Ag1'
_cell_volume   204.07036790
_cell_formula_units_Z   1
loop_
 _symmetry_equiv_pos_site_id
 _symmetry_equiv_pos_as_xyz
  1  'x, y, z'
loop_
 _atom_site_type_symbol
 _atom_site_label
 _atom_site_symmetry_multiplicity
 _atom_site_fract_x
 _atom_site_fract_y
 _atom_site_fract_z
 _atom_site_occupancy
  Ho  Ho0  1  0.000649  0.574193  0.000000  1
  Ho  Ho1  1  0.426456  0.425807  0.000000  1
  Ho  Ho2  1  0.574031  0.000000  0.000000  1
  Mg  Mg3  1  0.242451  0.000000  0.500000  1
  In  In4  1  0.003164  0.251993  0.500000  1
  In  In5  1  0.751171  0.748007  0.500000  1
  Ga  Ga6  1  0.661571  0.326929  0.500000  1
  Ga  Ga7  1  0.334641  0.673071  0.500000  1
  Ag  Ag8  1  0.005865  0.000000  0.000000  1
