# generated using pymatgen
data_Yb6Co11Ni3C4
_symmetry_space_group_name_H-M   'P 1'
_cell_length_a   5.04114800
_cell_length_b   5.03307580
_cell_length_c   13.62569264
_cell_angle_alpha   89.97011324
_cell_angle_beta   90.00000000
_cell_angle_gamma   120.05308160
_symmetry_Int_Tables_number   1
_chemical_formula_structural   Yb6Co11Ni3C4
_chemical_formula_sum   'Yb6 Co11 Ni3 C4'
_cell_volume   299.23990884
_cell_formula_units_Z   1
loop_
 _symmetry_equiv_pos_site_id
 _symmetry_equiv_pos_as_xyz
  1  'x, y, z'
loop_
 _atom_site_type_symbol
 _atom_site_label
 _atom_site_symmetry_multiplicity
 _atom_site_fract_x
 _atom_site_fract_y
 _atom_site_fract_z
 _atom_site_occupancy
  Yb  Yb0  1  0.666042  0.332083  0.534481  1
  Yb  Yb1  1  0.332846  0.665694  0.464472  1
  Yb  Yb2  1  0.333188  0.666377  0.035561  1
  Yb  Yb3  1  0.666702  0.333402  0.749296  1
  Yb  Yb4  1  0.666277  0.332554  0.964712  1
  Yb  Yb5  1  0.333651  0.667304  0.250088  1
  Co  Co6  1  0.328837  0.164949  0.344203  1
  Co  Co7  1  0.328214  0.164372  0.155765  1
  Co  Co8  1  0.163546  0.835314  0.844840  1
  Co  Co9  1  0.836337  0.672674  0.344102  1
  Co  Co10  1  0.836159  0.164372  0.155765  1
  Co  Co11  1  0.672182  0.836820  0.656906  1
  Co  Co12  1  0.671768  0.835314  0.844840  1
  Co  Co13  1  0.164638  0.836820  0.656906  1
  Co  Co14  1  0.836082  0.672164  0.156312  1
  Co  Co15  1  0.164673  0.329345  0.842592  1
  Co  Co16  1  0.836112  0.164949  0.344203  1
  Ni  Ni17  1  0.166358  0.332716  0.652487  1
  Ni  Ni18  1  0.998884  0.997768  0.000456  1
  Ni  Ni19  1  0.996943  0.993886  0.499546  1
  C  C20  1  0.665671  0.331342  0.250057  1
  C  C21  1  0.997254  0.994507  0.751090  1
  C  C22  1  0.336731  0.673462  0.751218  1
  C  C23  1  0.000905  0.001810  0.250101  1
