# generated using pymatgen
data_Rb2BiSbPt
_symmetry_space_group_name_H-M   'P 1'
_cell_length_a   8.21599868
_cell_length_b   8.21599881
_cell_length_c   7.05251700
_cell_angle_alpha   90.00000000
_cell_angle_beta   90.00000000
_cell_angle_gamma   125.34921314
_symmetry_Int_Tables_number   1
_chemical_formula_structural   Rb2BiSbPt
_chemical_formula_sum   'Rb4 Bi2 Sb2 Pt2'
_cell_volume   388.29687118
_cell_formula_units_Z   2
loop_
 _symmetry_equiv_pos_site_id
 _symmetry_equiv_pos_as_xyz
  1  'x, y, z'
loop_
 _atom_site_type_symbol
 _atom_site_label
 _atom_site_symmetry_multiplicity
 _atom_site_fract_x
 _atom_site_fract_y
 _atom_site_fract_z
 _atom_site_occupancy
  Rb  Rb0  1  0.580872  0.372050  0.750000  1
  Rb  Rb1  1  0.372050  0.580872  0.250000  1
  Rb  Rb2  1  0.186344  0.796850  0.750000  1
  Rb  Rb3  1  0.796850  0.186344  0.250000  1
  Bi  Bi4  1  0.708837  0.897635  0.750000  1
  Bi  Bi5  1  0.897635  0.708837  0.250000  1
  Sb  Sb6  1  0.299746  0.089129  0.250000  1
  Sb  Sb7  1  0.089129  0.299746  0.750000  1
  Pt  Pt8  1  0.034268  0.034268  0.000000  1
  Pt  Pt9  1  0.034268  0.034268  0.500000  1
