# generated using pymatgen
data_Cs4AlGa7Au12
_symmetry_space_group_name_H-M   'P 1'
_cell_length_a   5.77843557
_cell_length_b   7.25461190
_cell_length_c   13.68798936
_cell_angle_alpha   89.94456994
_cell_angle_beta   89.88730999
_cell_angle_gamma   89.81508266
_symmetry_Int_Tables_number   1
_chemical_formula_structural   Cs4AlGa7Au12
_chemical_formula_sum   'Cs4 Al1 Ga7 Au12'
_cell_volume   573.80035875
_cell_formula_units_Z   1
loop_
 _symmetry_equiv_pos_site_id
 _symmetry_equiv_pos_as_xyz
  1  'x, y, z'
loop_
 _atom_site_type_symbol
 _atom_site_label
 _atom_site_symmetry_multiplicity
 _atom_site_fract_x
 _atom_site_fract_y
 _atom_site_fract_z
 _atom_site_occupancy
  Cs  Cs0  1  0.249600  0.094531  0.070525  1
  Cs  Cs1  1  0.251274  0.405853  0.570172  1
  Cs  Cs2  1  0.749323  0.904830  0.930024  1
  Cs  Cs3  1  0.749438  0.594008  0.429188  1
  Al  Al4  1  0.998008  0.910775  0.657926  1
  Ga  Ga5  1  0.502676  0.593731  0.156616  1
  Ga  Ga6  1  0.498420  0.092870  0.343821  1
  Ga  Ga7  1  0.002088  0.406545  0.843222  1
  Ga  Ga8  1  0.002480  0.092619  0.343298  1
  Ga  Ga9  1  0.497583  0.406613  0.842404  1
  Ga  Ga10  1  0.502629  0.905869  0.656621  1
  Ga  Ga11  1  0.997190  0.593385  0.156456  1
  Au  Au12  1  0.247958  0.120044  0.782792  1
  Au  Au13  1  0.250123  0.378925  0.283897  1
  Au  Au14  1  0.749687  0.878918  0.215924  1
  Au  Au15  1  0.755063  0.625001  0.715001  1
  Au  Au16  1  0.245654  0.712116  0.790206  1
  Au  Au17  1  0.250766  0.789199  0.292385  1
  Au  Au18  1  0.749824  0.288514  0.208133  1
  Au  Au19  1  0.753074  0.209122  0.708328  1
  Au  Au20  1  0.250254  0.580085  0.994201  1
  Au  Au21  1  0.243696  0.919273  0.497300  1
  Au  Au22  1  0.750257  0.419336  0.005108  1
  Au  Au23  1  0.752935  0.077838  0.506452  1
