# generated using pymatgen
data_Zr2VReW2
_symmetry_space_group_name_H-M   'P 1'
_cell_length_a   5.34098219
_cell_length_b   5.33501404
_cell_length_c   5.33501443
_cell_angle_alpha   119.43436563
_cell_angle_beta   120.37954149
_cell_angle_gamma   90.13062255
_symmetry_Int_Tables_number   1
_chemical_formula_structural   Zr2VReW2
_chemical_formula_sum   'Zr2 V1 Re1 W2'
_cell_volume   107.66449658
_cell_formula_units_Z   1
loop_
 _symmetry_equiv_pos_site_id
 _symmetry_equiv_pos_as_xyz
  1  'x, y, z'
loop_
 _atom_site_type_symbol
 _atom_site_label
 _atom_site_symmetry_multiplicity
 _atom_site_fract_x
 _atom_site_fract_y
 _atom_site_fract_z
 _atom_site_occupancy
  Zr  Zr0  1  0.125838  0.874547  0.251291  1
  Zr  Zr1  1  0.874162  0.125453  0.748709  1
  V  V2  1  0.000000  0.500000  0.500000  1
  Re  Re3  1  0.500000  0.500000  0.000000  1
  W  W4  1  0.500000  0.000000  0.000000  1
  W  W5  1  0.500000  0.500000  0.500000  1
