# generated using pymatgen
data_HoEr15Cd4OsPt3
_symmetry_space_group_name_H-M   'P 1'
_cell_length_a   9.62828699
_cell_length_b   9.62828785
_cell_length_c   9.62828810
_cell_angle_alpha   59.49398608
_cell_angle_beta   59.49397942
_cell_angle_gamma   59.47831577
_symmetry_Int_Tables_number   1
_chemical_formula_structural   HoEr15Cd4OsPt3
_chemical_formula_sum   'Ho1 Er15 Cd4 Os1 Pt3'
_cell_volume   623.81051644
_cell_formula_units_Z   1
loop_
 _symmetry_equiv_pos_site_id
 _symmetry_equiv_pos_as_xyz
  1  'x, y, z'
loop_
 _atom_site_type_symbol
 _atom_site_label
 _atom_site_symmetry_multiplicity
 _atom_site_fract_x
 _atom_site_fract_y
 _atom_site_fract_z
 _atom_site_occupancy
  Ho  Ho0  1  0.187497  0.187497  0.808611  1
  Er  Er1  1  0.601656  0.601656  0.601460  1
  Er  Er2  1  0.600230  0.600230  0.197518  1
  Er  Er3  1  0.600355  0.197512  0.600117  1
  Er  Er4  1  0.197512  0.600355  0.600117  1
  Er  Er5  1  0.064331  0.439025  0.438783  1
  Er  Er6  1  0.438975  0.059782  0.059919  1
  Er  Er7  1  0.439025  0.064331  0.438783  1
  Er  Er8  1  0.059782  0.438975  0.059919  1
  Er  Er9  1  0.438908  0.438908  0.064471  1
  Er  Er10  1  0.059863  0.059863  0.438763  1
  Er  Er11  1  0.185225  0.815555  0.815740  1
  Er  Er12  1  0.808222  0.187605  0.187805  1
  Er  Er13  1  0.815555  0.185225  0.815740  1
  Er  Er14  1  0.187605  0.808222  0.187805  1
  Er  Er15  1  0.815827  0.815827  0.185215  1
  Cd  Cd16  1  0.830676  0.830676  0.830607  1
  Cd  Cd17  1  0.831179  0.831179  0.504007  1
  Cd  Cd18  1  0.831015  0.504169  0.831182  1
  Cd  Cd19  1  0.504169  0.831015  0.831182  1
  Os  Os20  1  0.393307  0.393307  0.393233  1
  Pt  Pt21  1  0.393356  0.393356  0.822465  1
  Pt  Pt22  1  0.393304  0.822429  0.393280  1
  Pt  Pt23  1  0.822429  0.393304  0.393280  1
