# generated using pymatgen
data_Ta12RuPt3
_symmetry_space_group_name_H-M   'P 1'
_cell_length_a   5.19006100
_cell_length_b   5.19200300
_cell_length_c   10.37648000
_cell_angle_alpha   90.00000000
_cell_angle_beta   90.00000000
_cell_angle_gamma   90.00000000
_symmetry_Int_Tables_number   1
_chemical_formula_structural   Ta12RuPt3
_chemical_formula_sum   'Ta12 Ru1 Pt3'
_cell_volume   279.61305871
_cell_formula_units_Z   1
loop_
 _symmetry_equiv_pos_site_id
 _symmetry_equiv_pos_as_xyz
  1  'x, y, z'
loop_
 _atom_site_type_symbol
 _atom_site_label
 _atom_site_symmetry_multiplicity
 _atom_site_fract_x
 _atom_site_fract_y
 _atom_site_fract_z
 _atom_site_occupancy
  Ta  Ta0  1  0.000000  0.500000  0.375351  1
  Ta  Ta1  1  0.000000  0.500000  0.875118  1
  Ta  Ta2  1  0.500000  0.250542  0.000000  1
  Ta  Ta3  1  0.500000  0.248577  0.500000  1
  Ta  Ta4  1  0.750681  0.000000  0.253381  1
  Ta  Ta5  1  0.750681  0.000000  0.746619  1
  Ta  Ta6  1  0.000000  0.500000  0.124882  1
  Ta  Ta7  1  0.000000  0.500000  0.624649  1
  Ta  Ta8  1  0.500000  0.749458  0.000000  1
  Ta  Ta9  1  0.500000  0.751423  0.500000  1
  Ta  Ta10  1  0.249319  0.000000  0.253381  1
  Ta  Ta11  1  0.249319  0.000000  0.746619  1
  Ru  Ru12  1  0.000000  0.000000  0.500000  1
  Pt  Pt13  1  0.500000  0.500000  0.248415  1
  Pt  Pt14  1  0.500000  0.500000  0.751585  1
  Pt  Pt15  1  0.000000  0.000000  0.000000  1
