# generated using pymatgen
data_Dy2BC
_symmetry_space_group_name_H-M   'P 1'
_cell_length_a   6.37935510
_cell_length_b   6.37935435
_cell_length_c   9.17805948
_cell_angle_alpha   51.94343923
_cell_angle_beta   51.94344659
_cell_angle_gamma   31.86829210
_symmetry_Int_Tables_number   1
_chemical_formula_structural   Dy2BC
_chemical_formula_sum   'Dy4 B2 C2'
_cell_volume   151.34936652
_cell_formula_units_Z   2
loop_
 _symmetry_equiv_pos_site_id
 _symmetry_equiv_pos_as_xyz
  1  'x, y, z'
loop_
 _atom_site_type_symbol
 _atom_site_label
 _atom_site_symmetry_multiplicity
 _atom_site_fract_x
 _atom_site_fract_y
 _atom_site_fract_z
 _atom_site_occupancy
  Dy  Dy0  1  0.202503  0.202503  0.885633  1
  Dy  Dy1  1  0.797497  0.797497  0.114367  1
  Dy  Dy2  1  0.562456  0.562456  0.639434  1
  Dy  Dy3  1  0.437544  0.437544  0.360566  1
  B  B4  1  0.919052  0.919052  0.608741  1
  B  B5  1  0.080948  0.080948  0.391259  1
  C  C6  1  0.126517  0.126517  0.194799  1
  C  C7  1  0.873483  0.873483  0.805201  1
