# generated using pymatgen
data_HoEr3Lu4(ReB6)4
_symmetry_space_group_name_H-M   'P 1'
_cell_length_a   3.63521100
_cell_length_b   9.09161300
_cell_length_c   11.46666500
_cell_angle_alpha   90.00065249
_cell_angle_beta   90.00000000
_cell_angle_gamma   90.00000000
_symmetry_Int_Tables_number   1
_chemical_formula_structural   HoEr3Lu4(ReB6)4
_chemical_formula_sum   'Ho1 Er3 Lu4 Re4 B24'
_cell_volume   378.97249375
_cell_formula_units_Z   1
loop_
 _symmetry_equiv_pos_site_id
 _symmetry_equiv_pos_as_xyz
  1  'x, y, z'
loop_
 _atom_site_type_symbol
 _atom_site_label
 _atom_site_symmetry_multiplicity
 _atom_site_fract_x
 _atom_site_fract_y
 _atom_site_fract_z
 _atom_site_occupancy
  Ho  Ho0  1  0.000000  0.323124  0.413932  1
  Er  Er1  1  0.000000  0.676821  0.586059  1
  Er  Er2  1  0.000000  0.823197  0.086031  1
  Er  Er3  1  0.000000  0.176781  0.913986  1
  Lu  Lu4  1  0.000000  0.943511  0.370364  1
  Lu  Lu5  1  0.000000  0.056402  0.629658  1
  Lu  Lu6  1  0.000000  0.443575  0.129556  1
  Lu  Lu7  1  0.000000  0.556447  0.870429  1
  Re  Re8  1  0.000000  0.639533  0.320205  1
  Re  Re9  1  0.000000  0.360644  0.679889  1
  Re  Re10  1  0.000000  0.139281  0.179623  1
  Re  Re11  1  0.000000  0.860644  0.820259  1
  B  B12  1  0.500000  0.553650  0.433053  1
  B  B13  1  0.500000  0.446566  0.567077  1
  B  B14  1  0.500000  0.053468  0.066911  1
  B  B15  1  0.500000  0.946511  0.933075  1
  B  B16  1  0.500000  0.750968  0.418993  1
  B  B17  1  0.500000  0.249032  0.581216  1
  B  B18  1  0.500000  0.250923  0.081000  1
  B  B19  1  0.500000  0.749082  0.918974  1
  B  B20  1  0.500000  0.793451  0.265214  1
  B  B21  1  0.500000  0.206540  0.734803  1
  B  B22  1  0.500000  0.293366  0.234622  1
  B  B23  1  0.500000  0.706558  0.765241  1
  B  B24  1  0.500000  0.630575  0.184597  1
  B  B25  1  0.500000  0.369464  0.815385  1
  B  B26  1  0.500000  0.130409  0.315246  1
  B  B27  1  0.500000  0.869452  0.684648  1
  B  B28  1  0.500000  0.981540  0.212441  1
  B  B29  1  0.500000  0.018440  0.787556  1
  B  B30  1  0.500000  0.481719  0.287433  1
  B  B31  1  0.500000  0.518493  0.712487  1
  B  B32  1  0.500000  0.598662  0.027431  1
  B  B33  1  0.500000  0.401354  0.972555  1
  B  B34  1  0.500000  0.098452  0.472615  1
  B  B35  1  0.500000  0.901366  0.527440  1
