# generated using pymatgen
data_Gd12In2Si3Tc
_symmetry_space_group_name_H-M   'P 1'
_cell_length_a   8.67784419
_cell_length_b   8.67784442
_cell_length_c   8.67784400
_cell_angle_alpha   112.70967225
_cell_angle_beta   112.61489832
_cell_angle_gamma   103.26191092
_symmetry_Int_Tables_number   1
_chemical_formula_structural   Gd12In2Si3Tc
_chemical_formula_sum   'Gd12 In2 Si3 Tc1'
_cell_volume   498.68713401
_cell_formula_units_Z   1
loop_
 _symmetry_equiv_pos_site_id
 _symmetry_equiv_pos_as_xyz
  1  'x, y, z'
loop_
 _atom_site_type_symbol
 _atom_site_label
 _atom_site_symmetry_multiplicity
 _atom_site_fract_x
 _atom_site_fract_y
 _atom_site_fract_z
 _atom_site_occupancy
  Gd  Gd0  1  0.185803  0.288333  0.468637  1
  Gd  Gd1  1  0.819696  0.717166  0.531363  1
  Gd  Gd2  1  0.185803  0.717166  0.897469  1
  Gd  Gd3  1  0.819696  0.288333  0.102531  1
  Gd  Gd4  1  0.314814  0.622847  0.308033  1
  Gd  Gd5  1  0.677886  0.379644  0.701758  1
  Gd  Gd6  1  0.314814  0.006779  0.691967  1
  Gd  Gd7  1  0.677886  0.976128  0.298242  1
  Gd  Gd8  1  0.447446  0.243956  0.203491  1
  Gd  Gd9  1  0.547282  0.758447  0.788834  1
  Gd  Gd10  1  0.040464  0.243956  0.796509  1
  Gd  Gd11  1  0.969611  0.758447  0.211166  1
  In  In12  1  0.503201  0.503201  0.000000  1
  In  In13  1  0.992288  0.992288  0.000000  1
  Si  Si14  1  0.876948  0.376948  0.500000  1
  Si  Si15  1  0.362988  0.004541  0.358447  1
  Si  Si16  1  0.646093  0.004541  0.641553  1
  Tc  Tc17  1  0.117281  0.617281  0.500000  1
