# generated using pymatgen
data_Ho12Co4SnOs
_symmetry_space_group_name_H-M   'P 1'
_cell_length_a   8.26624154
_cell_length_b   8.26624122
_cell_length_c   8.26624101
_cell_angle_alpha   111.84784267
_cell_angle_beta   110.51645824
_cell_angle_gamma   106.10393297
_symmetry_Int_Tables_number   1
_chemical_formula_structural   Ho12Co4SnOs
_chemical_formula_sum   'Ho12 Co4 Sn1 Os1'
_cell_volume   433.63253763
_cell_formula_units_Z   1
loop_
 _symmetry_equiv_pos_site_id
 _symmetry_equiv_pos_as_xyz
  1  'x, y, z'
loop_
 _atom_site_type_symbol
 _atom_site_label
 _atom_site_symmetry_multiplicity
 _atom_site_fract_x
 _atom_site_fract_y
 _atom_site_fract_z
 _atom_site_occupancy
  Ho  Ho0  1  0.411375  0.218217  0.193158  1
  Ho  Ho1  1  0.588625  0.781783  0.806842  1
  Ho  Ho2  1  0.025059  0.218217  0.806842  1
  Ho  Ho3  1  0.974941  0.781783  0.193158  1
  Ho  Ho4  1  0.181607  0.282520  0.464128  1
  Ho  Ho5  1  0.818393  0.717480  0.535872  1
  Ho  Ho6  1  0.181607  0.717480  0.899087  1
  Ho  Ho7  1  0.818393  0.282520  0.100913  1
  Ho  Ho8  1  0.315054  0.623200  0.308147  1
  Ho  Ho9  1  0.684946  0.376800  0.691853  1
  Ho  Ho10  1  0.315054  0.006907  0.691853  1
  Ho  Ho11  1  0.684946  0.993093  0.308147  1
  Co  Co12  1  0.375258  0.000000  0.375258  1
  Co  Co13  1  0.624742  0.000000  0.624742  1
  Co  Co14  1  0.111347  0.611347  0.500000  1
  Co  Co15  1  0.888653  0.388653  0.500000  1
  Sn  Sn16  1  0.500000  0.500000  0.000000  1
  Os  Os17  1  0.000000  0.000000  0.000000  1
