# generated using pymatgen
data_Y2Tm3Pd4
_symmetry_space_group_name_H-M   'P 1'
_cell_length_a   7.46097700
_cell_length_b   7.53198400
_cell_length_c   14.63027900
_cell_angle_alpha   90.00000000
_cell_angle_beta   90.00000000
_cell_angle_gamma   90.00000000
_symmetry_Int_Tables_number   1
_chemical_formula_structural   Y2Tm3Pd4
_chemical_formula_sum   'Y8 Tm12 Pd16'
_cell_volume   822.16256452
_cell_formula_units_Z   4
loop_
 _symmetry_equiv_pos_site_id
 _symmetry_equiv_pos_as_xyz
  1  'x, y, z'
loop_
 _atom_site_type_symbol
 _atom_site_label
 _atom_site_symmetry_multiplicity
 _atom_site_fract_x
 _atom_site_fract_y
 _atom_site_fract_z
 _atom_site_occupancy
  Y  Y0  1  0.999952  0.822358  0.407463  1
  Y  Y1  1  0.499952  0.677642  0.092537  1
  Y  Y2  1  0.500048  0.322358  0.592537  1
  Y  Y3  1  0.000048  0.177642  0.907463  1
  Y  Y4  1  0.000048  0.177642  0.592537  1
  Y  Y5  1  0.500048  0.322358  0.907463  1
  Y  Y6  1  0.499952  0.677642  0.407463  1
  Y  Y7  1  0.999952  0.822358  0.092537  1
  Tm  Tm8  1  0.680059  0.988559  0.250000  1
  Tm  Tm9  1  0.180059  0.511441  0.250000  1
  Tm  Tm10  1  0.819941  0.488559  0.750000  1
  Tm  Tm11  1  0.319941  0.011441  0.750000  1
  Tm  Tm12  1  0.658657  0.833720  0.622275  1
  Tm  Tm13  1  0.158657  0.666280  0.877725  1
  Tm  Tm14  1  0.841343  0.333720  0.377725  1
  Tm  Tm15  1  0.341343  0.166280  0.122275  1
  Tm  Tm16  1  0.341343  0.166280  0.377725  1
  Tm  Tm17  1  0.841343  0.333720  0.122275  1
  Tm  Tm18  1  0.158657  0.666280  0.622275  1
  Tm  Tm19  1  0.658657  0.833720  0.877725  1
  Pd  Pd20  1  0.814998  0.641070  0.250000  1
  Pd  Pd21  1  0.314998  0.858930  0.250000  1
  Pd  Pd22  1  0.685002  0.141070  0.750000  1
  Pd  Pd23  1  0.185002  0.358930  0.750000  1
  Pd  Pd24  1  0.546234  0.385696  0.250000  1
  Pd  Pd25  1  0.046234  0.114304  0.250000  1
  Pd  Pd26  1  0.953766  0.885696  0.750000  1
  Pd  Pd27  1  0.453766  0.614304  0.750000  1
  Pd  Pd28  1  0.819651  0.534423  0.541669  1
  Pd  Pd29  1  0.319651  0.965577  0.958331  1
  Pd  Pd30  1  0.680349  0.034423  0.458331  1
  Pd  Pd31  1  0.180349  0.465577  0.041669  1
  Pd  Pd32  1  0.180349  0.465577  0.458331  1
  Pd  Pd33  1  0.680349  0.034423  0.041669  1
  Pd  Pd34  1  0.319651  0.965577  0.541669  1
  Pd  Pd35  1  0.819651  0.534423  0.958331  1
