# generated using pymatgen
data_YHo3Er4(B6Ru)4
_symmetry_space_group_name_H-M   'P 1'
_cell_length_a   3.63838300
_cell_length_b   9.10534000
_cell_length_c   11.47827100
_cell_angle_alpha   89.99925936
_cell_angle_beta   90.00000000
_cell_angle_gamma   90.00000000
_symmetry_Int_Tables_number   1
_chemical_formula_structural   YHo3Er4(B6Ru)4
_chemical_formula_sum   'Y1 Ho3 Er4 B24 Ru4'
_cell_volume   380.26036020
_cell_formula_units_Z   1
loop_
 _symmetry_equiv_pos_site_id
 _symmetry_equiv_pos_as_xyz
  1  'x, y, z'
loop_
 _atom_site_type_symbol
 _atom_site_label
 _atom_site_symmetry_multiplicity
 _atom_site_fract_x
 _atom_site_fract_y
 _atom_site_fract_z
 _atom_site_occupancy
  Y  Y0  1  0.000000  0.322368  0.414112  1
  Ho  Ho1  1  0.000000  0.677565  0.585908  1
  Ho  Ho2  1  0.000000  0.822505  0.085873  1
  Ho  Ho3  1  0.000000  0.177520  0.914126  1
  Er  Er4  1  0.000000  0.943817  0.372264  1
  Er  Er5  1  0.000000  0.055875  0.627851  1
  Er  Er6  1  0.000000  0.444025  0.127561  1
  Er  Er7  1  0.000000  0.555985  0.872341  1
  B  B8  1  0.500000  0.554746  0.433122  1
  B  B9  1  0.500000  0.445846  0.567189  1
  B  B10  1  0.500000  0.054327  0.066829  1
  B  B11  1  0.500000  0.945648  0.933117  1
  B  B12  1  0.500000  0.748578  0.419806  1
  B  B13  1  0.500000  0.251385  0.580622  1
  B  B14  1  0.500000  0.248493  0.080126  1
  B  B15  1  0.500000  0.751539  0.919780  1
  B  B16  1  0.500000  0.791835  0.266036  1
  B  B17  1  0.500000  0.208168  0.734015  1
  B  B18  1  0.500000  0.291683  0.233592  1
  B  B19  1  0.500000  0.708230  0.766088  1
  B  B20  1  0.500000  0.632023  0.184836  1
  B  B21  1  0.500000  0.368074  0.815136  1
  B  B22  1  0.500000  0.131600  0.314874  1
  B  B23  1  0.500000  0.868033  0.684921  1
  B  B24  1  0.500000  0.983400  0.212946  1
  B  B25  1  0.500000  0.016489  0.787026  1
  B  B26  1  0.500000  0.483866  0.286773  1
  B  B27  1  0.500000  0.516578  0.713079  1
  B  B28  1  0.500000  0.607393  0.029580  1
  B  B29  1  0.500000  0.392639  0.970394  1
  B  B30  1  0.500000  0.106890  0.470535  1
  B  B31  1  0.500000  0.892659  0.529588  1
  Ru  Ru32  1  0.000000  0.638583  0.320816  1
  Ru  Ru33  1  0.000000  0.361793  0.679330  1
  Ru  Ru34  1  0.000000  0.138059  0.178828  1
  Ru  Ru35  1  0.000000  0.861782  0.820981  1
