# generated using pymatgen
data_Tb13Er3In4NiRh3
_symmetry_space_group_name_H-M   'P 1'
_cell_length_a   9.66050712
_cell_length_b   9.65208793
_cell_length_c   9.66588717
_cell_angle_alpha   60.00902800
_cell_angle_beta   60.04950015
_cell_angle_gamma   59.96883914
_symmetry_Int_Tables_number   1
_chemical_formula_structural   Tb13Er3In4NiRh3
_chemical_formula_sum   'Tb13 Er3 In4 Ni1 Rh3'
_cell_volume   637.43704273
_cell_formula_units_Z   1
loop_
 _symmetry_equiv_pos_site_id
 _symmetry_equiv_pos_as_xyz
  1  'x, y, z'
loop_
 _atom_site_type_symbol
 _atom_site_label
 _atom_site_symmetry_multiplicity
 _atom_site_fract_x
 _atom_site_fract_y
 _atom_site_fract_z
 _atom_site_occupancy
  Tb  Tb0  1  0.650118  0.050296  0.649607  1
  Tb  Tb1  1  0.061779  0.061267  0.438713  1
  Tb  Tb2  1  0.437667  0.437815  0.061736  1
  Tb  Tb3  1  0.653727  0.648333  0.651495  1
  Tb  Tb4  1  0.811115  0.189991  0.186915  1
  Tb  Tb5  1  0.188655  0.812153  0.810007  1
  Tb  Tb6  1  0.045733  0.648137  0.652574  1
  Tb  Tb7  1  0.439881  0.061039  0.060559  1
  Tb  Tb8  1  0.438964  0.060784  0.438325  1
  Tb  Tb9  1  0.062779  0.438184  0.062214  1
  Tb  Tb10  1  0.652118  0.648507  0.048228  1
  Tb  Tb11  1  0.188885  0.811560  0.189386  1
  Tb  Tb12  1  0.062995  0.437486  0.435983  1
  Er  Er13  1  0.809465  0.811632  0.189489  1
  Er  Er14  1  0.811157  0.190210  0.811390  1
  Er  Er15  1  0.187274  0.190745  0.810677  1
  In  In16  1  0.416667  0.417952  0.417458  1
  In  In17  1  0.417226  0.418033  0.747485  1
  In  In18  1  0.418052  0.746191  0.417969  1
  In  In19  1  0.747935  0.418104  0.417393  1
  Ni  Ni20  1  0.858115  0.424724  0.859077  1
  Rh  Rh21  1  0.856561  0.859311  0.859410  1
  Rh  Rh22  1  0.857222  0.857867  0.426158  1
  Rh  Rh23  1  0.425907  0.859677  0.857754  1
