# generated using pymatgen
data_YGaNi3Sn
_symmetry_space_group_name_H-M   'P 1'
_cell_length_a   4.05953700
_cell_length_b   9.16919346
_cell_length_c   9.16765410
_cell_angle_alpha   120.00555650
_cell_angle_beta   90.00000000
_cell_angle_gamma   90.00000000
_symmetry_Int_Tables_number   1
_chemical_formula_structural   YGaNi3Sn
_chemical_formula_sum   'Y3 Ga3 Ni9 Sn3'
_cell_volume   295.50999266
_cell_formula_units_Z   3
loop_
 _symmetry_equiv_pos_site_id
 _symmetry_equiv_pos_as_xyz
  1  'x, y, z'
loop_
 _atom_site_type_symbol
 _atom_site_label
 _atom_site_symmetry_multiplicity
 _atom_site_fract_x
 _atom_site_fract_y
 _atom_site_fract_z
 _atom_site_occupancy
  Y  Y0  1  0.500000  0.333215  0.666702  1
  Y  Y1  1  0.500000  0.666514  0.333298  1
  Y  Y2  1  0.000000  0.000076  0.000000  1
  Ga  Ga3  1  0.500000  0.742024  0.000000  1
  Ga  Ga4  1  0.500000  0.257327  0.257503  1
  Ga  Ga5  1  0.500000  0.999824  0.742497  1
  Ni  Ni6  1  0.000000  0.208212  0.368598  1
  Ni  Ni7  1  0.000000  0.160457  0.791792  1
  Ni  Ni8  1  0.000000  0.632268  0.839888  1
  Ni  Ni9  1  0.000000  0.839614  0.631402  1
  Ni  Ni10  1  0.000000  0.368664  0.208208  1
  Ni  Ni11  1  0.000000  0.792380  0.160112  1
  Ni  Ni12  1  0.500000  0.278408  0.000000  1
  Ni  Ni13  1  0.500000  0.721045  0.721294  1
  Ni  Ni14  1  0.500000  0.999751  0.278706  1
  Sn  Sn15  1  0.000000  0.469124  0.000000  1
  Sn  Sn16  1  0.000000  0.530947  0.530896  1
  Sn  Sn17  1  0.000000  0.000051  0.469104  1
