# generated using pymatgen
data_Hf2Sc2Si6Ir6Rh
_symmetry_space_group_name_H-M   'P 1'
_cell_length_a   6.99533407
_cell_length_b   6.98071180
_cell_length_c   6.98071226
_cell_angle_alpha   109.39612083
_cell_angle_beta   109.49324780
_cell_angle_gamma   109.43947400
_symmetry_Int_Tables_number   1
_chemical_formula_structural   Hf2Sc2Si6Ir6Rh
_chemical_formula_sum   'Hf2 Sc2 Si6 Ir6 Rh1'
_cell_volume   262.68759208
_cell_formula_units_Z   1
loop_
 _symmetry_equiv_pos_site_id
 _symmetry_equiv_pos_as_xyz
  1  'x, y, z'
loop_
 _atom_site_type_symbol
 _atom_site_label
 _atom_site_symmetry_multiplicity
 _atom_site_fract_x
 _atom_site_fract_y
 _atom_site_fract_z
 _atom_site_occupancy
  Hf  Hf0  1  0.000200  0.999870  0.500066  1
  Hf  Hf1  1  0.000200  0.500134  0.000330  1
  Sc  Sc2  1  0.499960  0.999875  0.999829  1
  Sc  Sc3  1  0.499960  0.500131  0.500085  1
  Si  Si4  1  0.678706  0.682290  0.996416  1
  Si  Si5  1  0.321951  0.003629  0.318323  1
  Si  Si6  1  0.999749  0.318175  0.318431  1
  Si  Si7  1  0.321079  0.317702  0.003377  1
  Si  Si8  1  0.678553  0.996863  0.681690  1
  Si  Si9  1  0.999749  0.681318  0.681574  1
  Ir  Ir10  1  0.751309  0.501258  0.250052  1
  Ir  Ir11  1  0.500460  0.250072  0.749821  1
  Ir  Ir12  1  0.247807  0.498047  0.749759  1
  Ir  Ir13  1  0.248564  0.750001  0.498563  1
  Ir  Ir14  1  0.500460  0.750639  0.250388  1
  Ir  Ir15  1  0.000014  0.999987  0.000027  1
  Rh  Rh16  1  0.751277  0.250010  0.501268  1
