# generated using pymatgen
data_Y7Tm9Cd4(NiIr)2
_symmetry_space_group_name_H-M   'P 1'
_cell_length_a   9.53696908
_cell_length_b   9.53696931
_cell_length_c   9.56879200
_cell_angle_alpha   59.88956588
_cell_angle_beta   59.88956511
_cell_angle_gamma   59.71698067
_symmetry_Int_Tables_number   1
_chemical_formula_structural   Y7Tm9Cd4(NiIr)2
_chemical_formula_sum   'Y7 Tm9 Cd4 Ni2 Ir2'
_cell_volume   613.05788628
_cell_formula_units_Z   1
loop_
 _symmetry_equiv_pos_site_id
 _symmetry_equiv_pos_as_xyz
  1  'x, y, z'
loop_
 _atom_site_type_symbol
 _atom_site_label
 _atom_site_symmetry_multiplicity
 _atom_site_fract_x
 _atom_site_fract_y
 _atom_site_fract_z
 _atom_site_occupancy
  Y  Y0  1  0.061800  0.061800  0.438200  1
  Y  Y1  1  0.189581  0.808609  0.814884  1
  Y  Y2  1  0.808609  0.189581  0.186926  1
  Y  Y3  1  0.808609  0.189581  0.814884  1
  Y  Y4  1  0.189581  0.808609  0.186926  1
  Y  Y5  1  0.813921  0.813921  0.186079  1
  Y  Y6  1  0.190973  0.190973  0.809027  1
  Tm  Tm7  1  0.599817  0.599817  0.593423  1
  Tm  Tm8  1  0.599817  0.599817  0.206943  1
  Tm  Tm9  1  0.601294  0.205114  0.596796  1
  Tm  Tm10  1  0.205114  0.601294  0.596796  1
  Tm  Tm11  1  0.059992  0.437288  0.439502  1
  Tm  Tm12  1  0.437288  0.059992  0.063217  1
  Tm  Tm13  1  0.437288  0.059992  0.439502  1
  Tm  Tm14  1  0.059992  0.437288  0.063217  1
  Tm  Tm15  1  0.438053  0.438053  0.061947  1
  Cd  Cd16  1  0.829095  0.829095  0.832480  1
  Cd  Cd17  1  0.829095  0.829095  0.509329  1
  Cd  Cd18  1  0.829844  0.507282  0.831436  1
  Cd  Cd19  1  0.507282  0.829844  0.831436  1
  Ni  Ni20  1  0.392645  0.824700  0.391327  1
  Ni  Ni21  1  0.824700  0.392645  0.391327  1
  Ir  Ir22  1  0.392805  0.392805  0.391341  1
  Ir  Ir23  1  0.392805  0.392805  0.823050  1
