# generated using pymatgen
data_Dy5Er2Lu3(In2Pt)4
_symmetry_space_group_name_H-M   'P 1'
_cell_length_a   3.61077900
_cell_length_b   8.12355021
_cell_length_c   18.10451908
_cell_angle_alpha   89.88931951
_cell_angle_beta   90.00000000
_cell_angle_gamma   90.00000000
_symmetry_Int_Tables_number   1
_chemical_formula_structural   Dy5Er2Lu3(In2Pt)4
_chemical_formula_sum   'Dy5 Er2 Lu3 In8 Pt4'
_cell_volume   531.04700017
_cell_formula_units_Z   1
loop_
 _symmetry_equiv_pos_site_id
 _symmetry_equiv_pos_as_xyz
  1  'x, y, z'
loop_
 _atom_site_type_symbol
 _atom_site_label
 _atom_site_symmetry_multiplicity
 _atom_site_fract_x
 _atom_site_fract_y
 _atom_site_fract_z
 _atom_site_occupancy
  Dy  Dy0  1  0.000000  0.757742  0.780339  1
  Dy  Dy1  1  0.000000  0.257444  0.719141  1
  Dy  Dy2  1  0.000000  0.742119  0.281104  1
  Dy  Dy3  1  0.000000  0.999552  0.999584  1
  Dy  Dy4  1  0.000000  0.500218  0.500138  1
  Er  Er5  1  0.000000  0.617164  0.084763  1
  Er  Er6  1  0.000000  0.243322  0.220138  1
  Lu  Lu7  1  0.000000  0.116888  0.414206  1
  Lu  Lu8  1  0.000000  0.883223  0.585941  1
  Lu  Lu9  1  0.000000  0.383189  0.913774  1
  In  In10  1  0.500000  0.420186  0.351637  1
  In  In11  1  0.500000  0.579423  0.648874  1
  In  In12  1  0.500000  0.079053  0.850960  1
  In  In13  1  0.500000  0.923462  0.149599  1
  In  In14  1  0.500000  0.293640  0.065046  1
  In  In15  1  0.500000  0.704332  0.933528  1
  In  In16  1  0.500000  0.202994  0.564676  1
  In  In17  1  0.500000  0.797240  0.435527  1
  Pt  Pt18  1  0.500000  0.027151  0.305166  1
  Pt  Pt19  1  0.500000  0.973658  0.694759  1
  Pt  Pt20  1  0.500000  0.473054  0.804743  1
  Pt  Pt21  1  0.500000  0.524948  0.196354  1
