# generated using pymatgen
data_CePr2Sn3IrRh2
_symmetry_space_group_name_H-M   'P 1'
_cell_length_a   7.66380523
_cell_length_b   7.57632552
_cell_length_c   4.07255200
_cell_angle_alpha   90.00000000
_cell_angle_beta   90.00000000
_cell_angle_gamma   120.35460373
_symmetry_Int_Tables_number   1
_chemical_formula_structural   CePr2Sn3IrRh2
_chemical_formula_sum   'Ce1 Pr2 Sn3 Ir1 Rh2'
_cell_volume   204.05037996
_cell_formula_units_Z   1
loop_
 _symmetry_equiv_pos_site_id
 _symmetry_equiv_pos_as_xyz
  1  'x, y, z'
loop_
 _atom_site_type_symbol
 _atom_site_label
 _atom_site_symmetry_multiplicity
 _atom_site_fract_x
 _atom_site_fract_y
 _atom_site_fract_z
 _atom_site_occupancy
  Ce  Ce0  1  0.417789  0.001421  0.000000  1
  Pr  Pr1  1  0.998014  0.411776  0.000000  1
  Pr  Pr2  1  0.587810  0.586722  0.000000  1
  Sn  Sn3  1  0.252656  0.256724  0.500000  1
  Sn  Sn4  1  0.997221  0.744153  0.500000  1
  Sn  Sn5  1  0.752211  0.998951  0.500000  1
  Ir  Ir6  1  0.647617  0.309577  0.500000  1
  Rh  Rh7  1  0.337611  0.690047  0.500000  1
  Rh  Rh8  1  0.009070  0.000630  0.000000  1
