# generated using pymatgen
data_Tb2Si7(NiRu)6
_symmetry_space_group_name_H-M   'P 1'
_cell_length_a   9.43653100
_cell_length_b   9.43653335
_cell_length_c   3.75843400
_cell_angle_alpha   90.00000000
_cell_angle_beta   90.00000000
_cell_angle_gamma   119.99999525
_symmetry_Int_Tables_number   1
_chemical_formula_structural   Tb2Si7(NiRu)6
_chemical_formula_sum   'Tb2 Si7 Ni6 Ru6'
_cell_volume   289.84274291
_cell_formula_units_Z   1
loop_
 _symmetry_equiv_pos_site_id
 _symmetry_equiv_pos_as_xyz
  1  'x, y, z'
loop_
 _atom_site_type_symbol
 _atom_site_label
 _atom_site_symmetry_multiplicity
 _atom_site_fract_x
 _atom_site_fract_y
 _atom_site_fract_z
 _atom_site_occupancy
  Tb  Tb0  1  0.666667  0.333333  0.000000  1
  Tb  Tb1  1  0.333333  0.666667  0.500000  1
  Si  Si2  1  0.287615  0.887369  0.000000  1
  Si  Si3  1  0.599756  0.712385  0.000000  1
  Si  Si4  1  0.112631  0.400244  0.000000  1
  Si  Si5  1  0.398492  0.284594  0.500000  1
  Si  Si6  1  0.886103  0.601508  0.500000  1
  Si  Si7  1  0.715406  0.113897  0.500000  1
  Si  Si8  1  0.000000  0.000000  0.000000  1
  Ni  Ni9  1  0.059612  0.629546  0.000000  1
  Ni  Ni10  1  0.569932  0.940388  0.000000  1
  Ni  Ni11  1  0.370454  0.430068  0.000000  1
  Ni  Ni12  1  0.277922  0.123540  0.000000  1
  Ni  Ni13  1  0.845618  0.722078  0.000000  1
  Ni  Ni14  1  0.876460  0.154382  0.000000  1
  Ru  Ru15  1  0.437308  0.047746  0.500000  1
  Ru  Ru16  1  0.610438  0.562692  0.500000  1
  Ru  Ru17  1  0.952254  0.389562  0.500000  1
  Ru  Ru18  1  0.095604  0.881557  0.500000  1
  Ru  Ru19  1  0.785954  0.904396  0.500000  1
  Ru  Ru20  1  0.118443  0.214046  0.500000  1
