# generated using pymatgen
data_HoAl10RuRh
_symmetry_space_group_name_H-M   'P 1'
_cell_length_a   6.84446863
_cell_length_b   6.84216189
_cell_length_c   9.15389000
_cell_angle_alpha   90.00000000
_cell_angle_beta   90.00000000
_cell_angle_gamma   97.01463184
_symmetry_Int_Tables_number   1
_chemical_formula_structural   HoAl10RuRh
_chemical_formula_sum   'Ho2 Al20 Ru2 Rh2'
_cell_volume   425.47676704
_cell_formula_units_Z   2
loop_
 _symmetry_equiv_pos_site_id
 _symmetry_equiv_pos_as_xyz
  1  'x, y, z'
loop_
 _atom_site_type_symbol
 _atom_site_label
 _atom_site_symmetry_multiplicity
 _atom_site_fract_x
 _atom_site_fract_y
 _atom_site_fract_z
 _atom_site_occupancy
  Ho  Ho0  1  0.869725  0.125326  0.750000  1
  Ho  Ho1  1  0.130275  0.874674  0.250000  1
  Al  Al2  1  0.621417  0.375277  0.550121  1
  Al  Al3  1  0.378583  0.624723  0.449879  1
  Al  Al4  1  0.378583  0.624723  0.050121  1
  Al  Al5  1  0.621417  0.375277  0.949879  1
  Al  Al6  1  0.225279  0.223461  0.499170  1
  Al  Al7  1  0.774721  0.776539  0.500830  1
  Al  Al8  1  0.774721  0.776539  0.999170  1
  Al  Al9  1  0.225279  0.223461  0.000830  1
  Al  Al10  1  0.844825  0.153882  0.101232  1
  Al  Al11  1  0.155175  0.846118  0.898768  1
  Al  Al12  1  0.155175  0.846118  0.601232  1
  Al  Al13  1  0.844825  0.153882  0.398768  1
  Al  Al14  1  0.856915  0.588341  0.750000  1
  Al  Al15  1  0.143085  0.411659  0.250000  1
  Al  Al16  1  0.413128  0.140983  0.750000  1
  Al  Al17  1  0.586872  0.859017  0.250000  1
  Al  Al18  1  0.224916  0.480499  0.750000  1
  Al  Al19  1  0.775084  0.519501  0.250000  1
  Al  Al20  1  0.519272  0.777391  0.750000  1
  Al  Al21  1  0.480728  0.222609  0.250000  1
  Ru  Ru22  1  0.500000  0.000000  0.000000  1
  Ru  Ru23  1  0.500000  0.000000  0.500000  1
  Rh  Rh24  1  0.000000  0.500000  0.500000  1
  Rh  Rh25  1  0.000000  0.500000  0.000000  1
