# generated using pymatgen
data_Dy12Co4AgRu
_symmetry_space_group_name_H-M   'P 1'
_cell_length_a   8.25982333
_cell_length_b   8.25982379
_cell_length_c   8.25982300
_cell_angle_alpha   111.04104175
_cell_angle_beta   110.14779572
_cell_angle_gamma   107.24873154
_symmetry_Int_Tables_number   1
_chemical_formula_structural   Dy12Co4AgRu
_chemical_formula_sum   'Dy12 Co4 Ag1 Ru1'
_cell_volume   433.28622678
_cell_formula_units_Z   1
loop_
 _symmetry_equiv_pos_site_id
 _symmetry_equiv_pos_as_xyz
  1  'x, y, z'
loop_
 _atom_site_type_symbol
 _atom_site_label
 _atom_site_symmetry_multiplicity
 _atom_site_fract_x
 _atom_site_fract_y
 _atom_site_fract_z
 _atom_site_occupancy
  Dy  Dy0  1  0.821066  0.723261  0.544327  1
  Dy  Dy1  1  0.178934  0.276739  0.455673  1
  Dy  Dy2  1  0.178934  0.723261  0.902196  1
  Dy  Dy3  1  0.821066  0.276739  0.097804  1
  Dy  Dy4  1  0.678497  0.364478  0.685981  1
  Dy  Dy5  1  0.321503  0.635522  0.314019  1
  Dy  Dy6  1  0.678497  0.992517  0.314019  1
  Dy  Dy7  1  0.321503  0.007483  0.685981  1
  Dy  Dy8  1  0.582092  0.772183  0.809911  1
  Dy  Dy9  1  0.417908  0.227817  0.190089  1
  Dy  Dy10  1  0.962273  0.772183  0.190089  1
  Dy  Dy11  1  0.037727  0.227817  0.809911  1
  Co  Co12  1  0.657309  0.000000  0.657309  1
  Co  Co13  1  0.342691  0.000000  0.342691  1
  Co  Co14  1  0.113370  0.613370  0.500000  1
  Co  Co15  1  0.886630  0.386630  0.500000  1
  Ag  Ag16  1  0.500000  0.500000  0.000000  1
  Ru  Ru17  1  0.000000  0.000000  0.000000  1
