# generated using pymatgen
data_Ba2Li3AgBi4
_symmetry_space_group_name_H-M   'P 1'
_cell_length_a   4.90075700
_cell_length_b   4.90075700
_cell_length_c   12.11611900
_cell_angle_alpha   90.00000000
_cell_angle_beta   90.00000000
_cell_angle_gamma   90.00000000
_symmetry_Int_Tables_number   1
_chemical_formula_structural   Ba2Li3AgBi4
_chemical_formula_sum   'Ba2 Li3 Ag1 Bi4'
_cell_volume   290.99790877
_cell_formula_units_Z   1
loop_
 _symmetry_equiv_pos_site_id
 _symmetry_equiv_pos_as_xyz
  1  'x, y, z'
loop_
 _atom_site_type_symbol
 _atom_site_label
 _atom_site_symmetry_multiplicity
 _atom_site_fract_x
 _atom_site_fract_y
 _atom_site_fract_z
 _atom_site_occupancy
  Ba  Ba0  1  0.000000  0.500001  0.241903  1
  Ba  Ba1  1  0.500001  0.000000  0.758097  1
  Li  Li2  1  0.000000  0.000000  0.000000  1
  Li  Li3  1  0.500001  0.000000  0.366087  1
  Li  Li4  1  0.000000  0.500001  0.633913  1
  Ag  Ag5  1  0.500001  0.500001  0.000000  1
  Bi  Bi6  1  0.500001  0.000000  0.134442  1
  Bi  Bi7  1  0.000000  0.000000  0.500000  1
  Bi  Bi8  1  0.500001  0.500001  0.500000  1
  Bi  Bi9  1  0.000000  0.500001  0.865558  1
