# generated using pymatgen
data_Dy16Sc4Si15Hg
_symmetry_space_group_name_H-M   'P 1'
_cell_length_a   7.39602969
_cell_length_b   7.68243897
_cell_length_c   14.62703700
_cell_angle_alpha   89.97315859
_cell_angle_beta   89.37169631
_cell_angle_gamma   90.12415025
_symmetry_Int_Tables_number   1
_chemical_formula_structural   Dy16Sc4Si15Hg
_chemical_formula_sum   'Dy16 Sc4 Si15 Hg1'
_cell_volume   831.04958961
_cell_formula_units_Z   1
loop_
 _symmetry_equiv_pos_site_id
 _symmetry_equiv_pos_as_xyz
  1  'x, y, z'
loop_
 _atom_site_type_symbol
 _atom_site_label
 _atom_site_symmetry_multiplicity
 _atom_site_fract_x
 _atom_site_fract_y
 _atom_site_fract_z
 _atom_site_occupancy
  Dy  Dy0  1  0.976843  0.820636  0.103139  1
  Dy  Dy1  1  0.471878  0.684858  0.400133  1
  Dy  Dy2  1  0.517877  0.311934  0.897361  1
  Dy  Dy3  1  0.029085  0.183400  0.599165  1
  Dy  Dy4  1  0.027545  0.177955  0.898217  1
  Dy  Dy5  1  0.529103  0.315476  0.599375  1
  Dy  Dy6  1  0.476576  0.682994  0.102201  1
  Dy  Dy7  1  0.971032  0.815281  0.399858  1
  Dy  Dy8  1  0.673164  0.830426  0.871926  1
  Dy  Dy9  1  0.183087  0.678181  0.622958  1
  Dy  Dy10  1  0.822443  0.322069  0.127973  1
  Dy  Dy11  1  0.317694  0.176957  0.375991  1
  Dy  Dy12  1  0.322409  0.176642  0.126217  1
  Dy  Dy13  1  0.818394  0.322652  0.376122  1
  Dy  Dy14  1  0.182746  0.674399  0.875843  1
  Dy  Dy15  1  0.683178  0.823657  0.623195  1
  Sc  Sc16  1  0.650326  0.988120  0.250775  1
  Sc  Sc17  1  0.152906  0.512885  0.249326  1
  Sc  Sc18  1  0.848798  0.488319  0.746832  1
  Sc  Sc19  1  0.347388  0.013410  0.748180  1
  Si  Si20  1  0.771383  0.634909  0.251876  1
  Si  Si21  1  0.271239  0.865756  0.251607  1
  Si  Si22  1  0.730726  0.134801  0.748117  1
  Si  Si23  1  0.226372  0.366383  0.747697  1
  Si  Si24  1  0.016219  0.097613  0.251914  1
  Si  Si25  1  0.517216  0.401084  0.252130  1
  Si  Si26  1  0.483293  0.598423  0.747580  1
  Si  Si27  1  0.984574  0.897936  0.748055  1
  Si  Si28  1  0.355114  0.973197  0.541513  1
  Si  Si29  1  0.650763  0.028903  0.042491  1
  Si  Si30  1  0.145880  0.472136  0.458599  1
  Si  Si31  1  0.160208  0.472153  0.045334  1
  Si  Si32  1  0.644991  0.026988  0.457520  1
  Si  Si33  1  0.349706  0.969606  0.960972  1
  Si  Si34  1  0.855100  0.527953  0.540931  1
  Hg  Hg35  1  0.834746  0.531906  0.958878  1
