# generated using pymatgen
data_Tb15Dy4TmSn16
_symmetry_space_group_name_H-M   'P 1'
_cell_length_a   8.05323204
_cell_length_b   8.20508857
_cell_length_c   15.51043401
_cell_angle_alpha   90.00286580
_cell_angle_beta   90.00256232
_cell_angle_gamma   89.95997465
_symmetry_Int_Tables_number   1
_chemical_formula_structural   Tb15Dy4TmSn16
_chemical_formula_sum   'Tb15 Dy4 Tm1 Sn16'
_cell_volume   1024.89017428
_cell_formula_units_Z   1
loop_
 _symmetry_equiv_pos_site_id
 _symmetry_equiv_pos_as_xyz
  1  'x, y, z'
loop_
 _atom_site_type_symbol
 _atom_site_label
 _atom_site_symmetry_multiplicity
 _atom_site_fract_x
 _atom_site_fract_y
 _atom_site_fract_z
 _atom_site_occupancy
  Tb  Tb0  1  0.867845  0.663412  0.622040  1
  Tb  Tb1  1  0.632553  0.163783  0.378298  1
  Tb  Tb2  1  0.132560  0.336228  0.121349  1
  Tb  Tb3  1  0.632566  0.163805  0.121712  1
  Tb  Tb4  1  0.132554  0.336223  0.378631  1
  Tb  Tb5  1  0.367182  0.836086  0.622087  1
  Tb  Tb6  1  0.867878  0.663411  0.877973  1
  Tb  Tb7  1  0.519822  0.320552  0.901955  1
  Tb  Tb8  1  0.020250  0.179986  0.598062  1
  Tb  Tb9  1  0.480079  0.679779  0.402386  1
  Tb  Tb10  1  0.979947  0.820147  0.097813  1
  Tb  Tb11  1  0.480056  0.679790  0.097577  1
  Tb  Tb12  1  0.979960  0.820165  0.402188  1
  Tb  Tb13  1  0.519825  0.320580  0.598055  1
  Tb  Tb14  1  0.020278  0.179975  0.901936  1
  Dy  Dy15  1  0.367139  0.836107  0.877913  1
  Dy  Dy16  1  0.698603  0.998028  0.750021  1
  Dy  Dy17  1  0.800980  0.497736  0.249999  1
  Dy  Dy18  1  0.300959  0.002201  0.249994  1
  Tm  Tm19  1  0.199367  0.502518  0.750034  1
  Sn  Sn20  1  0.292525  0.035110  0.041653  1
  Sn  Sn21  1  0.792334  0.464402  0.458253  1
  Sn  Sn22  1  0.707521  0.964568  0.542211  1
  Sn  Sn23  1  0.207659  0.535358  0.957149  1
  Sn  Sn24  1  0.707342  0.964518  0.957762  1
  Sn  Sn25  1  0.207544  0.535186  0.542816  1
  Sn  Sn26  1  0.292488  0.035221  0.458249  1
  Sn  Sn27  1  0.792328  0.464402  0.041750  1
  Sn  Sn28  1  0.564229  0.618234  0.750045  1
  Sn  Sn29  1  0.065658  0.880691  0.750053  1
  Sn  Sn30  1  0.434465  0.381552  0.249996  1
  Sn  Sn31  1  0.934657  0.118521  0.249998  1
  Sn  Sn32  1  0.328000  0.148237  0.750039  1
  Sn  Sn33  1  0.829189  0.353936  0.750005  1
  Sn  Sn34  1  0.671696  0.853737  0.249999  1
  Sn  Sn35  1  0.171962  0.645817  0.250001  1
