# generated using pymatgen
data_Hf9Sc3Si12Ru3Rh
_symmetry_space_group_name_H-M   'P 1'
_cell_length_a   3.93265700
_cell_length_b   10.26408679
_cell_length_c   11.64244920
_cell_angle_alpha   90.04470306
_cell_angle_beta   90.00000000
_cell_angle_gamma   90.00000000
_symmetry_Int_Tables_number   1
_chemical_formula_structural   Hf9Sc3Si12Ru3Rh
_chemical_formula_sum   'Hf9 Sc3 Si12 Ru3 Rh1'
_cell_volume   469.94886465
_cell_formula_units_Z   1
loop_
 _symmetry_equiv_pos_site_id
 _symmetry_equiv_pos_as_xyz
  1  'x, y, z'
loop_
 _atom_site_type_symbol
 _atom_site_label
 _atom_site_symmetry_multiplicity
 _atom_site_fract_x
 _atom_site_fract_y
 _atom_site_fract_z
 _atom_site_occupancy
  Hf  Hf0  1  0.250000  0.873657  0.019993  1
  Hf  Hf1  1  0.250000  0.625469  0.520214  1
  Hf  Hf2  1  0.750000  0.123837  0.976953  1
  Hf  Hf3  1  0.750000  0.374271  0.480103  1
  Hf  Hf4  1  0.250000  0.924164  0.597418  1
  Hf  Hf5  1  0.250000  0.576427  0.094893  1
  Hf  Hf6  1  0.750000  0.076462  0.405472  1
  Hf  Hf7  1  0.750000  0.424991  0.902212  1
  Hf  Hf8  1  0.250000  0.658104  0.802580  1
  Sc  Sc9  1  0.250000  0.842626  0.302633  1
  Sc  Sc10  1  0.750000  0.342556  0.197392  1
  Sc  Sc11  1  0.750000  0.157310  0.697740  1
  Si  Si12  1  0.250000  0.016202  0.826035  1
  Si  Si13  1  0.250000  0.482990  0.324056  1
  Si  Si14  1  0.750000  0.982645  0.174138  1
  Si  Si15  1  0.750000  0.517460  0.674458  1
  Si  Si16  1  0.250000  0.251206  0.839082  1
  Si  Si17  1  0.250000  0.248168  0.341212  1
  Si  Si18  1  0.750000  0.748347  0.161455  1
  Si  Si19  1  0.750000  0.752075  0.659659  1
  Si  Si20  1  0.250000  0.192552  0.544293  1
  Si  Si21  1  0.250000  0.308087  0.042310  1
  Si  Si22  1  0.750000  0.807966  0.456745  1
  Si  Si23  1  0.750000  0.691458  0.956977  1
  Ru  Ru24  1  0.250000  0.390267  0.675910  1
  Ru  Ru25  1  0.750000  0.610843  0.325450  1
  Ru  Ru26  1  0.750000  0.887178  0.824052  1
  Rh  Rh27  1  0.250000  0.112681  0.176564  1
