# generated using pymatgen
data_Ce5U(Co3Sb4)2
_symmetry_space_group_name_H-M   'P 1'
_cell_length_a   8.18682784
_cell_length_b   8.18682891
_cell_length_c   8.18682770
_cell_angle_alpha   109.89479612
_cell_angle_beta   108.62735204
_cell_angle_gamma   109.89479540
_symmetry_Int_Tables_number   1
_chemical_formula_structural   Ce5U(Co3Sb4)2
_chemical_formula_sum   'Ce5 U1 Co6 Sb8'
_cell_volume   422.33258853
_cell_formula_units_Z   1
loop_
 _symmetry_equiv_pos_site_id
 _symmetry_equiv_pos_as_xyz
  1  'x, y, z'
loop_
 _atom_site_type_symbol
 _atom_site_label
 _atom_site_symmetry_multiplicity
 _atom_site_fract_x
 _atom_site_fract_y
 _atom_site_fract_z
 _atom_site_occupancy
  Ce  Ce0  1  0.754008  0.878434  0.128048  1
  Ce  Ce1  1  0.249614  0.621566  0.375575  1
  Ce  Ce2  1  0.624425  0.374039  0.245992  1
  Ce  Ce3  1  0.871952  0.125961  0.750386  1
  Ce  Ce4  1  0.125000  0.750000  0.875000  1
  U  U5  1  0.375000  0.250000  0.625000  1
  Co  Co6  1  0.146800  0.909162  0.283966  1
  Co  Co7  1  0.625000  0.750000  0.375000  1
  Co  Co8  1  0.875000  0.250000  0.125000  1
  Co  Co9  1  0.262362  0.137165  0.853200  1
  Co  Co10  1  0.716034  0.362835  0.625196  1
  Co  Co11  1  0.374804  0.590838  0.737638  1
  Sb  Sb12  1  0.994518  0.338406  0.500056  1
  Sb  Sb13  1  0.843887  0.505537  0.005482  1
  Sb  Sb14  1  0.499944  0.994463  0.838349  1
  Sb  Sb15  1  0.662276  0.661282  0.659638  1
  Sb  Sb16  1  0.161651  0.161594  0.156113  1
  Sb  Sb17  1  0.340362  0.502638  0.001644  1
  Sb  Sb18  1  0.499006  0.997362  0.337724  1
  Sb  Sb19  1  0.998356  0.838718  0.500994  1
