# generated using pymatgen
data_Ce3Th(AlRh)4
_symmetry_space_group_name_H-M   'P 1'
_cell_length_a   4.18681100
_cell_length_b   7.20476400
_cell_length_c   15.97554504
_cell_angle_alpha   90.00503414
_cell_angle_beta   90.00000000
_cell_angle_gamma   90.00000000
_symmetry_Int_Tables_number   1
_chemical_formula_structural   Ce3Th(AlRh)4
_chemical_formula_sum   'Ce6 Th2 Al8 Rh8'
_cell_volume   481.90207749
_cell_formula_units_Z   2
loop_
 _symmetry_equiv_pos_site_id
 _symmetry_equiv_pos_as_xyz
  1  'x, y, z'
loop_
 _atom_site_type_symbol
 _atom_site_label
 _atom_site_symmetry_multiplicity
 _atom_site_fract_x
 _atom_site_fract_y
 _atom_site_fract_z
 _atom_site_occupancy
  Ce  Ce0  1  0.250000  0.652372  0.942543  1
  Ce  Ce1  1  0.750000  0.347628  0.057457  1
  Ce  Ce2  1  0.250000  0.026552  0.782924  1
  Ce  Ce3  1  0.750000  0.973448  0.217076  1
  Ce  Ce4  1  0.250000  0.530768  0.721893  1
  Ce  Ce5  1  0.750000  0.469232  0.278107  1
  Th  Th6  1  0.250000  0.157382  0.562266  1
  Th  Th7  1  0.750000  0.842618  0.437734  1
  Al  Al8  1  0.250000  0.145531  0.347193  1
  Al  Al9  1  0.750000  0.854469  0.652807  1
  Al  Al10  1  0.250000  0.643116  0.149298  1
  Al  Al11  1  0.750000  0.356884  0.850702  1
  Al  Al12  1  0.250000  0.006357  0.060753  1
  Al  Al13  1  0.750000  0.993643  0.939247  1
  Al  Al14  1  0.250000  0.500354  0.437034  1
  Al  Al15  1  0.750000  0.499646  0.562966  1
  Rh  Rh16  1  0.750000  0.273443  0.428902  1
  Rh  Rh17  1  0.250000  0.726557  0.571098  1
  Rh  Rh18  1  0.750000  0.779341  0.072999  1
  Rh  Rh19  1  0.250000  0.220659  0.927001  1
  Rh  Rh20  1  0.750000  0.735035  0.820225  1
  Rh  Rh21  1  0.250000  0.264965  0.179775  1
  Rh  Rh22  1  0.750000  0.239850  0.681765  1
  Rh  Rh23  1  0.250000  0.760150  0.318235  1
