# generated using pymatgen
data_Sm7YSi12(IrRh)2
_symmetry_space_group_name_H-M   'P 1'
_cell_length_a   8.24328305
_cell_length_b   8.23494559
_cell_length_c   8.17623700
_cell_angle_alpha   90.00000696
_cell_angle_beta   89.99374446
_cell_angle_gamma   119.96654554
_symmetry_Int_Tables_number   1
_chemical_formula_structural   Sm7YSi12(IrRh)2
_chemical_formula_sum   'Sm7 Y1 Si12 Ir2 Rh2'
_cell_volume   480.82977394
_cell_formula_units_Z   1
loop_
 _symmetry_equiv_pos_site_id
 _symmetry_equiv_pos_as_xyz
  1  'x, y, z'
loop_
 _atom_site_type_symbol
 _atom_site_label
 _atom_site_symmetry_multiplicity
 _atom_site_fract_x
 _atom_site_fract_y
 _atom_site_fract_z
 _atom_site_occupancy
  Sm  Sm0  1  0.999924  0.999962  0.248170  1
  Sm  Sm1  1  0.000166  0.000083  0.751972  1
  Sm  Sm2  1  0.506670  0.493555  0.250313  1
  Sm  Sm3  1  0.506670  0.013115  0.250313  1
  Sm  Sm4  1  0.987422  0.493711  0.250269  1
  Sm  Sm5  1  0.492626  0.507082  0.749905  1
  Sm  Sm6  1  0.492626  0.985544  0.749905  1
  Y  Y7  1  0.012547  0.506273  0.749039  1
  Si  Si8  1  0.166444  0.832724  0.502443  1
  Si  Si9  1  0.166444  0.333721  0.502443  1
  Si  Si10  1  0.666549  0.833276  0.500329  1
  Si  Si11  1  0.833349  0.167178  0.500166  1
  Si  Si12  1  0.833349  0.666169  0.500166  1
  Si  Si13  1  0.334149  0.167075  0.499688  1
  Si  Si14  1  0.833155  0.167767  0.001412  1
  Si  Si15  1  0.833155  0.665388  0.001412  1
  Si  Si16  1  0.334461  0.167230  0.001852  1
  Si  Si17  1  0.166465  0.832147  0.996220  1
  Si  Si18  1  0.166465  0.334319  0.996220  1
  Si  Si19  1  0.666357  0.833179  0.998008  1
  Ir  Ir20  1  0.332810  0.666406  0.479553  1
  Ir  Ir21  1  0.667678  0.333839  0.525651  1
  Rh  Rh22  1  0.667697  0.333849  0.967071  1
  Rh  Rh23  1  0.332820  0.666411  0.027480  1
