# generated using pymatgen
data_Er2Ge(PRh2)6
_symmetry_space_group_name_H-M   'P 1'
_cell_length_a   9.67228200
_cell_length_b   9.67228070
_cell_length_c   3.86173600
_cell_angle_alpha   90.00000000
_cell_angle_beta   90.00000000
_cell_angle_gamma   119.99999761
_symmetry_Int_Tables_number   1
_chemical_formula_structural   Er2Ge(PRh2)6
_chemical_formula_sum   'Er2 Ge1 P6 Rh12'
_cell_volume   312.87514561
_cell_formula_units_Z   1
loop_
 _symmetry_equiv_pos_site_id
 _symmetry_equiv_pos_as_xyz
  1  'x, y, z'
loop_
 _atom_site_type_symbol
 _atom_site_label
 _atom_site_symmetry_multiplicity
 _atom_site_fract_x
 _atom_site_fract_y
 _atom_site_fract_z
 _atom_site_occupancy
  Er  Er0  1  0.333333  0.666667  0.748477  1
  Er  Er1  1  0.666667  0.333333  0.251523  1
  Ge  Ge2  1  0.000000  0.000000  0.500000  1
  P  P3  1  0.404465  0.285878  0.751065  1
  P  P4  1  0.714122  0.118587  0.751065  1
  P  P5  1  0.881413  0.595535  0.751065  1
  P  P6  1  0.595535  0.714122  0.248935  1
  P  P7  1  0.285878  0.881413  0.248935  1
  P  P8  1  0.118587  0.404465  0.248935  1
  Rh  Rh9  1  0.453288  0.068892  0.751177  1
  Rh  Rh10  1  0.931108  0.384394  0.751177  1
  Rh  Rh11  1  0.615606  0.546712  0.751177  1
  Rh  Rh12  1  0.546712  0.931108  0.248823  1
  Rh  Rh13  1  0.068892  0.615606  0.248823  1
  Rh  Rh14  1  0.384394  0.453288  0.248823  1
  Rh  Rh15  1  0.155543  0.275627  0.750825  1
  Rh  Rh16  1  0.724373  0.879917  0.750825  1
  Rh  Rh17  1  0.120083  0.844457  0.750825  1
  Rh  Rh18  1  0.844457  0.724373  0.249175  1
  Rh  Rh19  1  0.275627  0.120083  0.249175  1
  Rh  Rh20  1  0.879917  0.155543  0.249175  1
