# generated using pymatgen
data_SrPr7(Y3Sn4)4
_symmetry_space_group_name_H-M   'P 1'
_cell_length_a   8.14058720
_cell_length_b   8.30559721
_cell_length_c   15.68152300
_cell_angle_alpha   90.00345613
_cell_angle_beta   89.98719736
_cell_angle_gamma   89.98758356
_symmetry_Int_Tables_number   1
_chemical_formula_structural   SrPr7(Y3Sn4)4
_chemical_formula_sum   'Sr1 Pr7 Y12 Sn16'
_cell_volume   1060.26595400
_cell_formula_units_Z   1
loop_
 _symmetry_equiv_pos_site_id
 _symmetry_equiv_pos_as_xyz
  1  'x, y, z'
loop_
 _atom_site_type_symbol
 _atom_site_label
 _atom_site_symmetry_multiplicity
 _atom_site_fract_x
 _atom_site_fract_y
 _atom_site_fract_z
 _atom_site_occupancy
  Sr  Sr0  1  0.003762  0.175610  0.908285  1
  Pr  Pr1  1  0.505814  0.325615  0.903296  1
  Pr  Pr2  1  0.003590  0.178689  0.593349  1
  Pr  Pr3  1  0.493283  0.676530  0.403571  1
  Pr  Pr4  1  0.995910  0.820705  0.097531  1
  Pr  Pr5  1  0.491095  0.673714  0.099426  1
  Pr  Pr6  1  0.994479  0.821718  0.403442  1
  Pr  Pr7  1  0.504844  0.323042  0.593557  1
  Y  Y8  1  0.343286  0.836014  0.871979  1
  Y  Y9  1  0.845703  0.663288  0.621488  1
  Y  Y10  1  0.653654  0.164168  0.374788  1
  Y  Y11  1  0.155611  0.335586  0.123241  1
  Y  Y12  1  0.655576  0.170067  0.127884  1
  Y  Y13  1  0.151463  0.333059  0.376399  1
  Y  Y14  1  0.349205  0.834195  0.623876  1
  Y  Y15  1  0.848099  0.664160  0.876641  1
  Y  Y16  1  0.180575  0.499087  0.748346  1
  Y  Y17  1  0.681654  0.000412  0.748708  1
  Y  Y18  1  0.819518  0.501237  0.250877  1
  Y  Y19  1  0.321316  0.000530  0.252598  1
  Sn  Sn20  1  0.329401  0.035770  0.043748  1
  Sn  Sn21  1  0.812989  0.458706  0.457017  1
  Sn  Sn22  1  0.685061  0.959304  0.540103  1
  Sn  Sn23  1  0.188633  0.548157  0.959813  1
  Sn  Sn24  1  0.668995  0.955370  0.962560  1
  Sn  Sn25  1  0.185718  0.540920  0.540647  1
  Sn  Sn26  1  0.314448  0.039717  0.459022  1
  Sn  Sn27  1  0.812719  0.465839  0.045097  1
  Sn  Sn28  1  0.546994  0.622783  0.749167  1
  Sn  Sn29  1  0.043440  0.874982  0.747162  1
  Sn  Sn30  1  0.452581  0.378191  0.252287  1
  Sn  Sn31  1  0.958497  0.121636  0.248304  1
  Sn  Sn32  1  0.315930  0.143212  0.746778  1
  Sn  Sn33  1  0.811059  0.358420  0.747737  1
  Sn  Sn34  1  0.688413  0.856903  0.250826  1
  Sn  Sn35  1  0.186687  0.642669  0.250446  1
