# generated using pymatgen
data_TbPa3(GeIr)4
_symmetry_space_group_name_H-M   'P 1'
_cell_length_a   4.32582700
_cell_length_b   6.97181207
_cell_length_c   7.68666458
_cell_angle_alpha   90.37699403
_cell_angle_beta   90.00000000
_cell_angle_gamma   90.00000000
_symmetry_Int_Tables_number   1
_chemical_formula_structural   TbPa3(GeIr)4
_chemical_formula_sum   'Tb1 Pa3 Ge4 Ir4'
_cell_volume   231.81596799
_cell_formula_units_Z   1
loop_
 _symmetry_equiv_pos_site_id
 _symmetry_equiv_pos_as_xyz
  1  'x, y, z'
loop_
 _atom_site_type_symbol
 _atom_site_label
 _atom_site_symmetry_multiplicity
 _atom_site_fract_x
 _atom_site_fract_y
 _atom_site_fract_z
 _atom_site_occupancy
  Tb  Tb0  1  0.250000  0.490641  0.202404  1
  Pa  Pa1  1  0.750000  0.505854  0.794954  1
  Pa  Pa2  1  0.250000  0.991574  0.299690  1
  Pa  Pa3  1  0.750000  0.006859  0.703278  1
  Ge  Ge4  1  0.250000  0.811204  0.919935  1
  Ge  Ge5  1  0.250000  0.321418  0.581184  1
  Ge  Ge6  1  0.750000  0.186126  0.085396  1
  Ge  Ge7  1  0.750000  0.681125  0.409777  1
  Ir  Ir8  1  0.250000  0.728439  0.591299  1
  Ir  Ir9  1  0.250000  0.221583  0.905125  1
  Ir  Ir10  1  0.750000  0.790749  0.088900  1
  Ir  Ir11  1  0.750000  0.264428  0.418057  1
