# generated using pymatgen
data_YTm3AgRh
_symmetry_space_group_name_H-M   'P 1'
_cell_length_a   9.44206794
_cell_length_b   9.43736035
_cell_length_c   9.43821910
_cell_angle_alpha   60.02898210
_cell_angle_beta   59.98128006
_cell_angle_gamma   59.98862336
_symmetry_Int_Tables_number   1
_chemical_formula_structural   YTm3AgRh
_chemical_formula_sum   'Y4 Tm12 Ag4 Rh4'
_cell_volume   594.68760111
_cell_formula_units_Z   4
loop_
 _symmetry_equiv_pos_site_id
 _symmetry_equiv_pos_as_xyz
  1  'x, y, z'
loop_
 _atom_site_type_symbol
 _atom_site_label
 _atom_site_symmetry_multiplicity
 _atom_site_fract_x
 _atom_site_fract_y
 _atom_site_fract_z
 _atom_site_occupancy
  Y  Y0  1  0.814331  0.185679  0.814320  1
  Y  Y1  1  0.185656  0.814330  0.185688  1
  Y  Y2  1  0.814209  0.814204  0.185794  1
  Y  Y3  1  0.185798  0.185804  0.814200  1
  Tm  Tm4  1  0.602842  0.603576  0.603636  1
  Tm  Tm5  1  0.603583  0.602795  0.189991  1
  Tm  Tm6  1  0.603664  0.189965  0.602798  1
  Tm  Tm7  1  0.189925  0.603648  0.603585  1
  Tm  Tm8  1  0.063129  0.436880  0.436877  1
  Tm  Tm9  1  0.436884  0.063120  0.063112  1
  Tm  Tm10  1  0.436801  0.063204  0.436795  1
  Tm  Tm11  1  0.063209  0.436796  0.063204  1
  Tm  Tm12  1  0.436936  0.436937  0.063063  1
  Tm  Tm13  1  0.063052  0.063059  0.436947  1
  Tm  Tm14  1  0.186998  0.812999  0.813008  1
  Tm  Tm15  1  0.812999  0.187004  0.186986  1
  Ag  Ag16  1  0.832457  0.831299  0.831294  1
  Ag  Ag17  1  0.831295  0.832460  0.504946  1
  Ag  Ag18  1  0.831277  0.504972  0.832454  1
  Ag  Ag19  1  0.504953  0.831280  0.831310  1
  Rh  Rh20  1  0.394612  0.393436  0.393578  1
  Rh  Rh21  1  0.393441  0.394618  0.818361  1
  Rh  Rh22  1  0.393558  0.818376  0.394607  1
  Rh  Rh23  1  0.818393  0.393558  0.393450  1
