# generated using pymatgen
data_SrLa(Sn2Ir)2
_symmetry_space_group_name_H-M   'P 1'
_cell_length_a   8.99844303
_cell_length_b   8.99844192
_cell_length_c   9.75100100
_cell_angle_alpha   90.00000000
_cell_angle_beta   90.00000000
_cell_angle_gamma   149.00876835
_symmetry_Int_Tables_number   1
_chemical_formula_structural   SrLa(Sn2Ir)2
_chemical_formula_sum   'Sr2 La2 Sn8 Ir4'
_cell_volume   406.54871656
_cell_formula_units_Z   2
loop_
 _symmetry_equiv_pos_site_id
 _symmetry_equiv_pos_as_xyz
  1  'x, y, z'
loop_
 _atom_site_type_symbol
 _atom_site_label
 _atom_site_symmetry_multiplicity
 _atom_site_fract_x
 _atom_site_fract_y
 _atom_site_fract_z
 _atom_site_occupancy
  Sr  Sr0  1  0.500000  0.500000  0.500000  1
  Sr  Sr1  1  0.500000  0.500000  0.000000  1
  La  La2  1  0.296320  0.703680  0.250000  1
  La  La3  1  0.703680  0.296320  0.750000  1
  Sn  Sn4  1  0.906954  0.093046  0.750000  1
  Sn  Sn5  1  0.922600  0.077400  0.250000  1
  Sn  Sn6  1  0.093046  0.906954  0.250000  1
  Sn  Sn7  1  0.077400  0.922600  0.750000  1
  Sn  Sn8  1  0.697239  0.302761  0.409663  1
  Sn  Sn9  1  0.302761  0.697239  0.590337  1
  Sn  Sn10  1  0.302761  0.697239  0.909663  1
  Sn  Sn11  1  0.697239  0.302761  0.090337  1
  Ir  Ir12  1  0.150885  0.849115  0.503289  1
  Ir  Ir13  1  0.849115  0.150885  0.003289  1
  Ir  Ir14  1  0.150885  0.849115  0.996711  1
  Ir  Ir15  1  0.849115  0.150885  0.496711  1
