# generated using pymatgen
data_DyEr5(SiIr)4
_symmetry_space_group_name_H-M   'P 1'
_cell_length_a   5.54752864
_cell_length_b   5.54752803
_cell_length_c   13.21430300
_cell_angle_alpha   89.92827902
_cell_angle_beta   90.07172019
_cell_angle_gamma   136.79921790
_symmetry_Int_Tables_number   1
_chemical_formula_structural   DyEr5(SiIr)4
_chemical_formula_sum   'Dy1 Er5 Si4 Ir4'
_cell_volume   278.38932395
_cell_formula_units_Z   1
loop_
 _symmetry_equiv_pos_site_id
 _symmetry_equiv_pos_as_xyz
  1  'x, y, z'
loop_
 _atom_site_type_symbol
 _atom_site_label
 _atom_site_symmetry_multiplicity
 _atom_site_fract_x
 _atom_site_fract_y
 _atom_site_fract_z
 _atom_site_occupancy
  Dy  Dy0  1  0.774487  0.225513  0.604164  1
  Er  Er1  1  0.517706  0.482294  0.249936  1
  Er  Er2  1  0.225771  0.774229  0.395471  1
  Er  Er3  1  0.774424  0.225576  0.895844  1
  Er  Er4  1  0.482436  0.517564  0.750301  1
  Er  Er5  1  0.225688  0.774312  0.104321  1
  Si  Si6  1  0.062238  0.937762  0.590261  1
  Si  Si7  1  0.062069  0.937931  0.909681  1
  Si  Si8  1  0.938192  0.061808  0.409165  1
  Si  Si9  1  0.937802  0.062198  0.090513  1
  Ir  Ir10  1  0.810623  0.189377  0.250010  1
  Ir  Ir11  1  0.188886  0.811114  0.750573  1
  Ir  Ir12  1  0.499862  0.500138  0.000124  1
  Ir  Ir13  1  0.499815  0.500185  0.499637  1
