# generated using pymatgen
data_Er8Lu4Co4OsPb
_symmetry_space_group_name_H-M   'P 1'
_cell_length_a   8.20148669
_cell_length_b   8.20152575
_cell_length_c   8.20148492
_cell_angle_alpha   111.70879464
_cell_angle_beta   110.47053318
_cell_angle_gamma   106.28298754
_symmetry_Int_Tables_number   1
_chemical_formula_structural   Er8Lu4Co4OsPb
_chemical_formula_sum   'Er8 Lu4 Co4 Os1 Pb1'
_cell_volume   423.64545407
_cell_formula_units_Z   1
loop_
 _symmetry_equiv_pos_site_id
 _symmetry_equiv_pos_as_xyz
  1  'x, y, z'
loop_
 _atom_site_type_symbol
 _atom_site_label
 _atom_site_symmetry_multiplicity
 _atom_site_fract_x
 _atom_site_fract_y
 _atom_site_fract_z
 _atom_site_occupancy
  Er  Er0  1  0.417289  0.221570  0.195716  1
  Er  Er1  1  0.582711  0.778430  0.804284  1
  Er  Er2  1  0.025854  0.221570  0.804282  1
  Er  Er3  1  0.974146  0.778430  0.195718  1
  Er  Er4  1  0.180774  0.277496  0.458276  1
  Er  Er5  1  0.819226  0.722504  0.541724  1
  Er  Er6  1  0.180779  0.722504  0.903278  1
  Er  Er7  1  0.819221  0.277496  0.096722  1
  Lu  Lu8  1  0.314680  0.623862  0.309182  1
  Lu  Lu9  1  0.685320  0.376138  0.690818  1
  Lu  Lu10  1  0.314681  0.005498  0.690817  1
  Lu  Lu11  1  0.685319  0.994502  0.309183  1
  Co  Co12  1  0.375487  0.000000  0.375487  1
  Co  Co13  1  0.624513  0.000000  0.624513  1
  Co  Co14  1  0.112052  0.612053  0.500001  1
  Co  Co15  1  0.887948  0.387947  0.499999  1
  Os  Os16  1  0.000000  0.000000  0.000000  1
  Pb  Pb17  1  0.500000  0.500000  0.000000  1
