# generated using pymatgen
data_Sb2Pb6O13
_symmetry_space_group_name_H-M   'P 1'
_cell_length_a   7.73572956
_cell_length_b   7.73573102
_cell_length_c   7.73573055
_cell_angle_alpha   119.87255947
_cell_angle_beta   120.47976840
_cell_angle_gamma   89.69604564
_symmetry_Int_Tables_number   1
_chemical_formula_structural   Sb2Pb6O13
_chemical_formula_sum   'Sb2 Pb6 O13'
_cell_volume   326.44401651
_cell_formula_units_Z   1
loop_
 _symmetry_equiv_pos_site_id
 _symmetry_equiv_pos_as_xyz
  1  'x, y, z'
loop_
 _atom_site_type_symbol
 _atom_site_label
 _atom_site_symmetry_multiplicity
 _atom_site_fract_x
 _atom_site_fract_y
 _atom_site_fract_z
 _atom_site_occupancy
  Sb  Sb0  1  0.749444  0.999114  0.249670  1
  Sb  Sb1  1  0.749444  0.499774  0.750330  1
  Pb  Pb2  1  0.250804  0.500143  0.750662  1
  Pb  Pb3  1  0.749480  0.500142  0.249339  1
  Pb  Pb4  1  0.749079  0.998379  0.750700  1
  Pb  Pb5  1  0.247680  0.998379  0.249300  1
  Pb  Pb6  1  0.251002  0.504920  0.253917  1
  Pb  Pb7  1  0.251002  0.997085  0.746082  1
  O  O8  1  0.092515  0.592515  0.500000  1
  O  O9  1  0.689174  0.189174  0.500000  1
  O  O10  1  0.064882  0.156517  0.477452  1
  O  O11  1  0.679066  0.587430  0.522549  1
  O  O12  1  0.679065  0.156517  0.091635  1
  O  O13  1  0.064881  0.587430  0.908365  1
  O  O14  1  0.409110  0.409109  0.000000  1
  O  O15  1  0.809218  0.809218  0.000000  1
  O  O16  1  0.436079  0.840912  0.022493  1
  O  O17  1  0.818418  0.413586  0.977506  1
  O  O18  1  0.818419  0.840912  0.404832  1
  O  O19  1  0.436079  0.413586  0.595167  1
  O  O20  1  0.380157  0.880157  0.500000  1
