# generated using pymatgen
data_Y10In8Pt3Au
_symmetry_space_group_name_H-M   'P 1'
_cell_length_a   3.64217300
_cell_length_b   8.18532739
_cell_length_c   18.31748200
_cell_angle_alpha   90.03342412
_cell_angle_beta   90.00000000
_cell_angle_gamma   90.00000000
_symmetry_Int_Tables_number   1
_chemical_formula_structural   Y10In8Pt3Au
_chemical_formula_sum   'Y10 In8 Pt3 Au1'
_cell_volume   546.08761228
_cell_formula_units_Z   1
loop_
 _symmetry_equiv_pos_site_id
 _symmetry_equiv_pos_as_xyz
  1  'x, y, z'
loop_
 _atom_site_type_symbol
 _atom_site_label
 _atom_site_symmetry_multiplicity
 _atom_site_fract_x
 _atom_site_fract_y
 _atom_site_fract_z
 _atom_site_occupancy
  Y  Y0  1  0.000000  0.120507  0.420284  1
  Y  Y1  1  0.000000  0.883428  0.585425  1
  Y  Y2  1  0.000000  0.383703  0.915105  1
  Y  Y3  1  0.000000  0.616754  0.082988  1
  Y  Y4  1  0.000000  0.251914  0.216895  1
  Y  Y5  1  0.000000  0.756084  0.780131  1
  Y  Y6  1  0.000000  0.256525  0.720504  1
  Y  Y7  1  0.000000  0.731317  0.279715  1
  Y  Y8  1  0.000000  0.999524  0.999113  1
  Y  Y9  1  0.000000  0.499440  0.500561  1
  In  In10  1  0.500000  0.422702  0.352301  1
  In  In11  1  0.500000  0.575694  0.648902  1
  In  In12  1  0.500000  0.075856  0.851265  1
  In  In13  1  0.500000  0.922573  0.147476  1
  In  In14  1  0.500000  0.291622  0.065818  1
  In  In15  1  0.500000  0.708056  0.932671  1
  In  In16  1  0.500000  0.208488  0.568167  1
  In  In17  1  0.500000  0.791226  0.433770  1
  Pt  Pt18  1  0.500000  0.974472  0.697227  1
  Pt  Pt19  1  0.500000  0.474761  0.803201  1
  Pt  Pt20  1  0.500000  0.527350  0.196308  1
  Au  Au21  1  0.500000  0.028007  0.302173  1
