# generated using pymatgen
data_Li2Tm4Co3(P4Rh5)3
_symmetry_space_group_name_H-M   'P 1'
_cell_length_a   3.84434800
_cell_length_b   10.74495109
_cell_length_c   12.48122649
_cell_angle_alpha   89.81750057
_cell_angle_beta   90.00000000
_cell_angle_gamma   90.00000000
_symmetry_Int_Tables_number   1
_chemical_formula_structural   Li2Tm4Co3(P4Rh5)3
_chemical_formula_sum   'Li2 Tm4 Co3 P12 Rh15'
_cell_volume   515.56354120
_cell_formula_units_Z   1
loop_
 _symmetry_equiv_pos_site_id
 _symmetry_equiv_pos_as_xyz
  1  'x, y, z'
loop_
 _atom_site_type_symbol
 _atom_site_label
 _atom_site_symmetry_multiplicity
 _atom_site_fract_x
 _atom_site_fract_y
 _atom_site_fract_z
 _atom_site_occupancy
  Li  Li0  1  0.750000  0.291393  0.010513  1
  Li  Li1  1  0.750000  0.205260  0.511917  1
  Tm  Tm2  1  0.250000  0.579188  0.702235  1
  Tm  Tm3  1  0.250000  0.921667  0.205857  1
  Tm  Tm4  1  0.750000  0.416758  0.294220  1
  Tm  Tm5  1  0.750000  0.080639  0.789175  1
  Co  Co6  1  0.250000  0.034649  0.436144  1
  Co  Co7  1  0.750000  0.540124  0.069497  1
  Co  Co8  1  0.750000  0.961091  0.565049  1
  P  P9  1  0.250000  0.425795  0.118159  1
  P  P10  1  0.250000  0.072538  0.608165  1
  P  P11  1  0.750000  0.576336  0.891814  1
  P  P12  1  0.750000  0.926894  0.392950  1
  P  P13  1  0.250000  0.262750  0.860142  1
  P  P14  1  0.250000  0.229734  0.366388  1
  P  P15  1  0.750000  0.733176  0.130273  1
  P  P16  1  0.750000  0.768783  0.630175  1
  P  P17  1  0.250000  0.598987  0.390590  1
  P  P18  1  0.250000  0.902129  0.889078  1
  P  P19  1  0.750000  0.399140  0.609157  1
  P  P20  1  0.750000  0.101288  0.112120  1
  Rh  Rh21  1  0.250000  0.720013  0.995286  1
  Rh  Rh22  1  0.250000  0.787576  0.487716  1
  Rh  Rh23  1  0.250000  0.405654  0.477380  1
  Rh  Rh24  1  0.250000  0.094020  0.975924  1
  Rh  Rh25  1  0.750000  0.594295  0.519184  1
  Rh  Rh26  1  0.750000  0.909316  0.021071  1
  Rh  Rh27  1  0.250000  0.223959  0.175478  1
  Rh  Rh28  1  0.250000  0.271971  0.671882  1
  Rh  Rh29  1  0.750000  0.770455  0.823582  1
  Rh  Rh30  1  0.750000  0.732893  0.321887  1
  Rh  Rh31  1  0.250000  0.884733  0.699797  1
  Rh  Rh32  1  0.250000  0.614551  0.203463  1
  Rh  Rh33  1  0.750000  0.117720  0.306490  1
  Rh  Rh34  1  0.750000  0.381402  0.800079  1
  Rh  Rh35  1  0.250000  0.463123  0.937161  1
