# generated using pymatgen
data_La5NdCo16(TcP6)2
_symmetry_space_group_name_H-M   'P 1'
_cell_length_a   3.80400500
_cell_length_b   10.73039140
_cell_length_c   12.50508024
_cell_angle_alpha   90.07256275
_cell_angle_beta   90.00000000
_cell_angle_gamma   90.00000000
_symmetry_Int_Tables_number   1
_chemical_formula_structural   La5NdCo16(TcP6)2
_chemical_formula_sum   'La5 Nd1 Co16 Tc2 P12'
_cell_volume   510.43773966
_cell_formula_units_Z   1
loop_
 _symmetry_equiv_pos_site_id
 _symmetry_equiv_pos_as_xyz
  1  'x, y, z'
loop_
 _atom_site_type_symbol
 _atom_site_label
 _atom_site_symmetry_multiplicity
 _atom_site_fract_x
 _atom_site_fract_y
 _atom_site_fract_z
 _atom_site_occupancy
  La  La0  1  0.000000  0.499933  0.524146  1
  La  La1  1  0.500000  0.000163  0.476420  1
  La  La2  1  0.500000  0.818615  0.206380  1
  La  La3  1  0.500000  0.181163  0.207414  1
  La  La4  1  0.000000  0.680273  0.793092  1
  Nd  Nd5  1  0.000000  0.316575  0.794581  1
  Co  Co6  1  0.500000  0.499885  0.705817  1
  Co  Co7  1  0.000000  0.000686  0.293709  1
  Co  Co8  1  0.000000  0.498268  0.988197  1
  Co  Co9  1  0.500000  0.000855  0.010106  1
  Co  Co10  1  0.500000  0.331277  0.991833  1
  Co  Co11  1  0.500000  0.666854  0.992011  1
  Co  Co12  1  0.000000  0.168840  0.007139  1
  Co  Co13  1  0.000000  0.831940  0.006491  1
  Co  Co14  1  0.500000  0.298046  0.431758  1
  Co  Co15  1  0.500000  0.702287  0.430051  1
  Co  Co16  1  0.000000  0.202898  0.571762  1
  Co  Co17  1  0.000000  0.798154  0.569692  1
  Co  Co18  1  0.500000  0.882614  0.711041  1
  Co  Co19  1  0.500000  0.118200  0.711510  1
  Co  Co20  1  0.000000  0.618051  0.288486  1
  Co  Co21  1  0.000000  0.382698  0.289807  1
  Tc  Tc22  1  0.500000  0.499506  0.153225  1
  Tc  Tc23  1  0.000000  0.000813  0.845673  1
  P  P24  1  0.500000  0.498139  0.887196  1
  P  P25  1  0.000000  0.000340  0.110431  1
  P  P26  1  0.500000  0.500550  0.341653  1
  P  P27  1  0.000000  0.000250  0.658482  1
  P  P28  1  0.500000  0.304847  0.616037  1
  P  P29  1  0.500000  0.696678  0.612927  1
  P  P30  1  0.000000  0.197064  0.388287  1
  P  P31  1  0.000000  0.803764  0.386532  1
  P  P32  1  0.500000  0.847842  0.895949  1
  P  P33  1  0.500000  0.152378  0.894957  1
  P  P34  1  0.000000  0.651216  0.102696  1
  P  P35  1  0.000000  0.348339  0.104511  1
