# generated using pymatgen
data_SrPr3Pt6O19
_symmetry_space_group_name_H-M   'P 1'
_cell_length_a   7.99324752
_cell_length_b   7.99324778
_cell_length_c   7.97560200
_cell_angle_alpha   109.42650748
_cell_angle_beta   109.42650812
_cell_angle_gamma   109.51589905
_symmetry_Int_Tables_number   1
_chemical_formula_structural   SrPr3Pt6O19
_chemical_formula_sum   'Sr1 Pr3 Pt6 O19'
_cell_volume   392.48897286
_cell_formula_units_Z   1
loop_
 _symmetry_equiv_pos_site_id
 _symmetry_equiv_pos_as_xyz
  1  'x, y, z'
loop_
 _atom_site_type_symbol
 _atom_site_label
 _atom_site_symmetry_multiplicity
 _atom_site_fract_x
 _atom_site_fract_y
 _atom_site_fract_z
 _atom_site_occupancy
  Sr  Sr0  1  0.000000  0.000000  0.323006  1
  Pr  Pr1  1  0.997889  0.309114  0.996659  1
  Pr  Pr2  1  0.690886  0.688775  0.687545  1
  Pr  Pr3  1  0.311225  0.002111  0.998770  1
  Pt  Pt4  1  0.342416  0.500973  0.841419  1
  Pt  Pt5  1  0.840548  0.340309  0.500929  1
  Pt  Pt6  1  0.499760  0.159452  0.660380  1
  Pt  Pt7  1  0.158557  0.657584  0.499002  1
  Pt  Pt8  1  0.499027  0.841443  0.340444  1
  Pt  Pt9  1  0.659691  0.500240  0.160621  1
  O  O10  1  0.347679  0.001006  0.344980  1
  O  O11  1  0.343778  0.344410  0.001330  1
  O  O12  1  0.000631  0.656222  0.657553  1
  O  O13  1  0.653327  0.652321  0.997300  1
  O  O14  1  0.998994  0.346673  0.343973  1
  O  O15  1  0.655590  0.999369  0.656920  1
  O  O16  1  0.000000  0.000000  0.973707  1
  O  O17  1  0.352674  0.311534  0.615649  1
  O  O18  1  0.041418  0.309140  0.698556  1
  O  O19  1  0.738080  0.390185  0.699949  1
  O  O20  1  0.391496  0.695550  0.734361  1
  O  O21  1  0.267723  0.958582  0.657138  1
  O  O22  1  0.609815  0.347894  0.309762  1
  O  O23  1  0.304053  0.608504  0.342864  1
  O  O24  1  0.688466  0.041139  0.304114  1
  O  O25  1  0.958861  0.647326  0.262975  1
  O  O26  1  0.690860  0.732277  0.389414  1
  O  O27  1  0.652106  0.261920  0.961868  1
  O  O28  1  0.304450  0.695947  0.038811  1
