# generated using pymatgen
data_La2Te2PdCl2
_symmetry_space_group_name_H-M   'P 1'
_cell_length_a   4.63325500
_cell_length_b   4.63325500
_cell_length_c   8.62740300
_cell_angle_alpha   90.00000000
_cell_angle_beta   90.00000000
_cell_angle_gamma   90.00000000
_symmetry_Int_Tables_number   1
_chemical_formula_structural   La2Te2PdCl2
_chemical_formula_sum   'La2 Te2 Pd1 Cl2'
_cell_volume   185.20490792
_cell_formula_units_Z   1
loop_
 _symmetry_equiv_pos_site_id
 _symmetry_equiv_pos_as_xyz
  1  'x, y, z'
loop_
 _atom_site_type_symbol
 _atom_site_label
 _atom_site_symmetry_multiplicity
 _atom_site_fract_x
 _atom_site_fract_y
 _atom_site_fract_z
 _atom_site_occupancy
  La  La0  1  0.000000  0.499999  0.234026  1
  La  La1  1  0.499999  0.000000  0.765973  1
  Te  Te2  1  0.499999  0.000000  0.337900  1
  Te  Te3  1  0.000000  0.499999  0.662100  1
  Pd  Pd4  1  0.499999  0.499999  0.500000  1
  Cl  Cl5  1  0.000000  0.000000  0.000000  1
  Cl  Cl6  1  0.499999  0.499999  0.000000  1
