# generated using pymatgen
data_LiHo16Ag3Rh4
_symmetry_space_group_name_H-M   'P 1'
_cell_length_a   9.51275433
_cell_length_b   9.51504690
_cell_length_c   9.51275500
_cell_angle_alpha   60.00797110
_cell_angle_beta   60.00000113
_cell_angle_gamma   60.00796872
_symmetry_Int_Tables_number   1
_chemical_formula_structural   LiHo16Ag3Rh4
_chemical_formula_sum   'Li1 Ho16 Ag3 Rh4'
_cell_volume   608.92084096
_cell_formula_units_Z   1
loop_
 _symmetry_equiv_pos_site_id
 _symmetry_equiv_pos_as_xyz
  1  'x, y, z'
loop_
 _atom_site_type_symbol
 _atom_site_label
 _atom_site_symmetry_multiplicity
 _atom_site_fract_x
 _atom_site_fract_y
 _atom_site_fract_z
 _atom_site_occupancy
  Li  Li0  1  0.820327  0.539018  0.820327  1
  Ho  Ho1  1  0.188752  0.183300  0.813974  1
  Ho  Ho2  1  0.601543  0.603478  0.193435  1
  Ho  Ho3  1  0.438301  0.060435  0.438301  1
  Ho  Ho4  1  0.435682  0.435258  0.064530  1
  Ho  Ho5  1  0.813974  0.183300  0.813974  1
  Ho  Ho6  1  0.185849  0.812915  0.185849  1
  Ho  Ho7  1  0.438301  0.060435  0.062963  1
  Ho  Ho8  1  0.185849  0.812915  0.815387  1
  Ho  Ho9  1  0.064530  0.435258  0.064530  1
  Ho  Ho10  1  0.815387  0.812915  0.185849  1
  Ho  Ho11  1  0.193435  0.603478  0.601543  1
  Ho  Ho12  1  0.064530  0.435258  0.435682  1
  Ho  Ho13  1  0.062963  0.060435  0.438301  1
  Ho  Ho14  1  0.813974  0.183300  0.188752  1
  Ho  Ho15  1  0.605417  0.183748  0.605417  1
  Ho  Ho16  1  0.601543  0.603478  0.601543  1
  Ag  Ag17  1  0.833531  0.832465  0.833531  1
  Ag  Ag18  1  0.833531  0.832465  0.500474  1
  Ag  Ag19  1  0.500474  0.832465  0.833531  1
  Rh  Rh20  1  0.394108  0.817677  0.394108  1
  Rh  Rh21  1  0.394924  0.392002  0.394924  1
  Rh  Rh22  1  0.818149  0.392002  0.394924  1
  Rh  Rh23  1  0.394924  0.392002  0.818149  1
