# generated using pymatgen
data_Ca2Ga12Pt
_symmetry_space_group_name_H-M   'P 1'
_cell_length_a   6.10729300
_cell_length_b   6.10729300
_cell_length_c   16.03166100
_cell_angle_alpha   90.00000000
_cell_angle_beta   90.00000000
_cell_angle_gamma   90.00000000
_symmetry_Int_Tables_number   1
_chemical_formula_structural   Ca2Ga12Pt
_chemical_formula_sum   'Ca4 Ga24 Pt2'
_cell_volume   597.96536912
_cell_formula_units_Z   2
loop_
 _symmetry_equiv_pos_site_id
 _symmetry_equiv_pos_as_xyz
  1  'x, y, z'
loop_
 _atom_site_type_symbol
 _atom_site_label
 _atom_site_symmetry_multiplicity
 _atom_site_fract_x
 _atom_site_fract_y
 _atom_site_fract_z
 _atom_site_occupancy
  Ca  Ca0  1  0.000000  0.500000  0.247707  1
  Ca  Ca1  1  0.500000  0.000000  0.247707  1
  Ca  Ca2  1  0.000000  0.500000  0.752293  1
  Ca  Ca3  1  0.500000  0.000000  0.752293  1
  Ga  Ga4  1  0.000000  0.000000  0.345213  1
  Ga  Ga5  1  0.249903  0.250097  0.909799  1
  Ga  Ga6  1  0.332380  0.167620  0.567622  1
  Ga  Ga7  1  0.249903  0.749903  0.090201  1
  Ga  Ga8  1  0.667620  0.832380  0.567622  1
  Ga  Ga9  1  0.000000  0.000000  0.809839  1
  Ga  Ga10  1  0.332380  0.832380  0.432378  1
  Ga  Ga11  1  0.000000  0.000000  0.190161  1
  Ga  Ga12  1  0.500000  0.500000  0.345213  1
  Ga  Ga13  1  0.250097  0.249903  0.090201  1
  Ga  Ga14  1  0.749903  0.750097  0.090201  1
  Ga  Ga15  1  0.000000  0.000000  0.654787  1
  Ga  Ga16  1  0.832380  0.667620  0.432378  1
  Ga  Ga17  1  0.832380  0.332380  0.567622  1
  Ga  Ga18  1  0.500000  0.500000  0.190161  1
  Ga  Ga19  1  0.250097  0.750097  0.909799  1
  Ga  Ga20  1  0.500000  0.500000  0.654787  1
  Ga  Ga21  1  0.750097  0.749903  0.909799  1
  Ga  Ga22  1  0.667620  0.167620  0.432378  1
  Ga  Ga23  1  0.167620  0.332380  0.432378  1
  Ga  Ga24  1  0.500000  0.500000  0.809839  1
  Ga  Ga25  1  0.749903  0.249903  0.909799  1
  Ga  Ga26  1  0.750097  0.250097  0.090201  1
  Ga  Ga27  1  0.167620  0.667620  0.567622  1
  Pt  Pt28  1  0.000000  0.500000  0.000000  1
  Pt  Pt29  1  0.500000  0.000000  0.000000  1
