# generated using pymatgen
data_Tm2FeB6
_symmetry_space_group_name_H-M   'P 1'
_cell_length_a   3.50670800
_cell_length_b   9.00871300
_cell_length_c   11.36308300
_cell_angle_alpha   90.00000000
_cell_angle_beta   90.00000000
_cell_angle_gamma   90.00000000
_symmetry_Int_Tables_number   1
_chemical_formula_structural   Tm2FeB6
_chemical_formula_sum   'Tm8 Fe4 B24'
_cell_volume   358.97031358
_cell_formula_units_Z   4
loop_
 _symmetry_equiv_pos_site_id
 _symmetry_equiv_pos_as_xyz
  1  'x, y, z'
loop_
 _atom_site_type_symbol
 _atom_site_label
 _atom_site_symmetry_multiplicity
 _atom_site_fract_x
 _atom_site_fract_y
 _atom_site_fract_z
 _atom_site_occupancy
  Tm  Tm0  1  0.000000  0.823417  0.085431  1
  Tm  Tm1  1  0.000000  0.176583  0.914569  1
  Tm  Tm2  1  0.000000  0.323417  0.414569  1
  Tm  Tm3  1  0.000000  0.676583  0.585431  1
  Tm  Tm4  1  0.000000  0.443251  0.129443  1
  Tm  Tm5  1  0.000000  0.556749  0.870557  1
  Tm  Tm6  1  0.000000  0.943251  0.370557  1
  Tm  Tm7  1  0.000000  0.056749  0.629443  1
  Fe  Fe8  1  0.000000  0.138701  0.179441  1
  Fe  Fe9  1  0.000000  0.861299  0.820559  1
  Fe  Fe10  1  0.000000  0.638701  0.320559  1
  Fe  Fe11  1  0.000000  0.361299  0.679441  1
  B  B12  1  0.500000  0.054233  0.067598  1
  B  B13  1  0.500000  0.945767  0.932402  1
  B  B14  1  0.500000  0.554233  0.432402  1
  B  B15  1  0.500000  0.445767  0.567598  1
  B  B16  1  0.500000  0.247099  0.081284  1
  B  B17  1  0.500000  0.752901  0.918716  1
  B  B18  1  0.500000  0.747099  0.418716  1
  B  B19  1  0.500000  0.252901  0.581284  1
  B  B20  1  0.500000  0.290132  0.234113  1
  B  B21  1  0.500000  0.709868  0.765887  1
  B  B22  1  0.500000  0.790132  0.265887  1
  B  B23  1  0.500000  0.209868  0.734113  1
  B  B24  1  0.500000  0.132051  0.314484  1
  B  B25  1  0.500000  0.867949  0.685516  1
  B  B26  1  0.500000  0.632051  0.185516  1
  B  B27  1  0.500000  0.367949  0.814484  1
  B  B28  1  0.500000  0.485364  0.288426  1
  B  B29  1  0.500000  0.514636  0.711574  1
  B  B30  1  0.500000  0.985364  0.211574  1
  B  B31  1  0.500000  0.014636  0.788426  1
  B  B32  1  0.500000  0.107991  0.470399  1
  B  B33  1  0.500000  0.892009  0.529601  1
  B  B34  1  0.500000  0.607991  0.029601  1
  B  B35  1  0.500000  0.392009  0.970399  1
