# generated using pymatgen
data_LiNd2SbSe
_symmetry_space_group_name_H-M   'P 1'
_cell_length_a   4.39186600
_cell_length_b   4.39186418
_cell_length_c   14.84541000
_cell_angle_alpha   90.00000000
_cell_angle_beta   90.00000000
_cell_angle_gamma   119.99999866
_symmetry_Int_Tables_number   1
_chemical_formula_structural   LiNd2SbSe
_chemical_formula_sum   'Li2 Nd4 Sb2 Se2'
_cell_volume   247.98237537
_cell_formula_units_Z   2
loop_
 _symmetry_equiv_pos_site_id
 _symmetry_equiv_pos_as_xyz
  1  'x, y, z'
loop_
 _atom_site_type_symbol
 _atom_site_label
 _atom_site_symmetry_multiplicity
 _atom_site_fract_x
 _atom_site_fract_y
 _atom_site_fract_z
 _atom_site_occupancy
  Li  Li0  1  0.000000  0.000000  0.250000  1
  Li  Li1  1  0.000000  0.000000  0.750000  1
  Nd  Nd2  1  0.333333  0.666667  0.104689  1
  Nd  Nd3  1  0.333333  0.666667  0.395311  1
  Nd  Nd4  1  0.666667  0.333332  0.604689  1
  Nd  Nd5  1  0.666667  0.333332  0.895311  1
  Sb  Sb6  1  0.666667  0.333332  0.250000  1
  Sb  Sb7  1  0.333333  0.666667  0.750000  1
  Se  Se8  1  0.000000  0.000000  0.000000  1
  Se  Se9  1  0.000000  0.000000  0.500000  1
