# generated using pymatgen
data_Tb3NdPt4F28
_symmetry_space_group_name_H-M   'P 1'
_cell_length_a   5.58176577
_cell_length_b   9.00706248
_cell_length_c   12.13042571
_cell_angle_alpha   62.17290061
_cell_angle_beta   89.93992860
_cell_angle_gamma   89.96771072
_symmetry_Int_Tables_number   1
_chemical_formula_structural   Tb3NdPt4F28
_chemical_formula_sum   'Tb3 Nd1 Pt4 F28'
_cell_volume   539.33650680
_cell_formula_units_Z   1
loop_
 _symmetry_equiv_pos_site_id
 _symmetry_equiv_pos_as_xyz
  1  'x, y, z'
loop_
 _atom_site_type_symbol
 _atom_site_label
 _atom_site_symmetry_multiplicity
 _atom_site_fract_x
 _atom_site_fract_y
 _atom_site_fract_z
 _atom_site_occupancy
  Tb  Tb0  1  0.738548  0.185351  0.736688  1
  Tb  Tb1  1  0.761693  0.189549  0.236136  1
  Tb  Tb2  1  0.238845  0.815035  0.763400  1
  Nd  Nd3  1  0.261017  0.814680  0.263972  1
  Pt  Pt4  1  0.757853  0.726623  0.039351  1
  Pt  Pt5  1  0.240503  0.274949  0.956270  1
  Pt  Pt6  1  0.258637  0.269764  0.459345  1
  Pt  Pt7  1  0.741524  0.726270  0.545102  1
  F  F8  1  0.932210  0.705888  0.416525  1
  F  F9  1  0.062642  0.290836  0.586407  1
  F  F10  1  0.435845  0.293265  0.084572  1
  F  F11  1  0.563336  0.707569  0.911276  1
  F  F12  1  0.465843  0.726350  0.129707  1
  F  F13  1  0.531739  0.272046  0.865204  1
  F  F14  1  0.967221  0.270926  0.367388  1
  F  F15  1  0.034483  0.728823  0.634793  1
  F  F16  1  0.943480  0.739155  0.172412  1
  F  F17  1  0.048569  0.259153  0.825448  1
  F  F18  1  0.450443  0.256699  0.327287  1
  F  F19  1  0.550945  0.741915  0.676143  1
  F  F20  1  0.767668  0.479959  0.138230  1
  F  F21  1  0.231511  0.521944  0.859580  1
  F  F22  1  0.268180  0.515584  0.361716  1
  F  F23  1  0.732987  0.478889  0.641512  1
  F  F24  1  0.943472  0.282188  0.042341  1
  F  F25  1  0.058106  0.719704  0.955481  1
  F  F26  1  0.444250  0.716207  0.462077  1
  F  F27  1  0.555868  0.278915  0.544323  1
  F  F28  1  0.738940  0.973047  0.450371  1
  F  F29  1  0.260040  0.023053  0.552365  1
  F  F30  1  0.239582  0.028587  0.047744  1
  F  F31  1  0.759387  0.973497  0.947614  1
  F  F32  1  0.601634  0.972594  0.230240  1
  F  F33  1  0.411782  0.031183  0.767960  1
  F  F34  1  0.089522  0.040458  0.268968  1
  F  F35  1  0.911691  0.969347  0.732050  1
