# generated using pymatgen
data_LaTb(P2Rh3)2
_symmetry_space_group_name_H-M   'P 1'
_cell_length_a   3.94806900
_cell_length_b   11.27685744
_cell_length_c   12.89945900
_cell_angle_alpha   90.09482355
_cell_angle_beta   90.00000000
_cell_angle_gamma   90.00000000
_symmetry_Int_Tables_number   1
_chemical_formula_structural   LaTb(P2Rh3)2
_chemical_formula_sum   'La3 Tb3 P12 Rh18'
_cell_volume   574.30649284
_cell_formula_units_Z   3
loop_
 _symmetry_equiv_pos_site_id
 _symmetry_equiv_pos_as_xyz
  1  'x, y, z'
loop_
 _atom_site_type_symbol
 _atom_site_label
 _atom_site_symmetry_multiplicity
 _atom_site_fract_x
 _atom_site_fract_y
 _atom_site_fract_z
 _atom_site_occupancy
  La  La0  1  0.000000  0.500022  0.523581  1
  La  La1  1  0.500000  0.000611  0.478485  1
  La  La2  1  0.500000  0.815987  0.204340  1
  Tb  Tb3  1  0.500000  0.186581  0.202747  1
  Tb  Tb4  1  0.000000  0.684749  0.796442  1
  Tb  Tb5  1  0.000000  0.313915  0.795619  1
  P  P6  1  0.500000  0.498743  0.879317  1
  P  P7  1  0.000000  0.002748  0.117316  1
  P  P8  1  0.500000  0.500487  0.346430  1
  P  P9  1  0.000000  0.999767  0.653877  1
  P  P10  1  0.500000  0.311707  0.619823  1
  P  P11  1  0.500000  0.687624  0.621803  1
  P  P12  1  0.000000  0.189202  0.380215  1
  P  P13  1  0.000000  0.811012  0.385338  1
  P  P14  1  0.500000  0.844509  0.893686  1
  P  P15  1  0.500000  0.155220  0.892545  1
  P  P16  1  0.000000  0.649482  0.104693  1
  P  P17  1  0.000000  0.346683  0.105859  1
  Rh  Rh18  1  0.500000  0.500574  0.167114  1
  Rh  Rh19  1  0.000000  0.002548  0.832607  1
  Rh  Rh20  1  0.500000  0.499112  0.704593  1
  Rh  Rh21  1  0.000000  0.002358  0.296098  1
  Rh  Rh22  1  0.000000  0.498605  0.977935  1
  Rh  Rh23  1  0.500000  0.001638  0.016388  1
  Rh  Rh24  1  0.500000  0.334446  0.994293  1
  Rh  Rh25  1  0.500000  0.663991  0.992850  1
  Rh  Rh26  1  0.000000  0.167117  0.005121  1
  Rh  Rh27  1  0.000000  0.834532  0.001634  1
  Rh  Rh28  1  0.500000  0.293045  0.428960  1
  Rh  Rh29  1  0.500000  0.706242  0.432524  1
  Rh  Rh30  1  0.000000  0.207837  0.571266  1
  Rh  Rh31  1  0.000000  0.793422  0.573134  1
  Rh  Rh32  1  0.500000  0.873490  0.714490  1
  Rh  Rh33  1  0.500000  0.126529  0.712788  1
  Rh  Rh34  1  0.000000  0.622797  0.290110  1
  Rh  Rh35  1  0.000000  0.372664  0.285977  1
