# generated using pymatgen
data_Lu2AlFe3
_symmetry_space_group_name_H-M   'P 1'
_cell_length_a   5.15640805
_cell_length_b   5.15739550
_cell_length_c   8.28802200
_cell_angle_alpha   90.00000000
_cell_angle_beta   90.00000000
_cell_angle_gamma   59.99366092
_symmetry_Int_Tables_number   1
_chemical_formula_structural   Lu2AlFe3
_chemical_formula_sum   'Lu4 Al2 Fe6'
_cell_volume   190.86728544
_cell_formula_units_Z   2
loop_
 _symmetry_equiv_pos_site_id
 _symmetry_equiv_pos_as_xyz
  1  'x, y, z'
loop_
 _atom_site_type_symbol
 _atom_site_label
 _atom_site_symmetry_multiplicity
 _atom_site_fract_x
 _atom_site_fract_y
 _atom_site_fract_z
 _atom_site_occupancy
  Lu  Lu0  1  0.333310  0.333345  0.565089  1
  Lu  Lu1  1  0.666690  0.666655  0.434911  1
  Lu  Lu2  1  0.666690  0.666655  0.065089  1
  Lu  Lu3  1  0.333310  0.333345  0.934911  1
  Al  Al4  1  0.000000  0.000000  0.500000  1
  Al  Al5  1  0.000000  0.000000  0.000000  1
  Fe  Fe6  1  0.826875  0.346276  0.750000  1
  Fe  Fe7  1  0.346269  0.826865  0.750000  1
  Fe  Fe8  1  0.826875  0.826849  0.750000  1
  Fe  Fe9  1  0.173125  0.653724  0.250000  1
  Fe  Fe10  1  0.653731  0.173135  0.250000  1
  Fe  Fe11  1  0.173125  0.173151  0.250000  1
