# generated using pymatgen
data_Ho5VSbO12
_symmetry_space_group_name_H-M   'P 1'
_cell_length_a   6.82515430
_cell_length_b   6.82515303
_cell_length_c   7.27323245
_cell_angle_alpha   74.43721743
_cell_angle_beta   74.43721657
_cell_angle_gamma   51.35336015
_symmetry_Int_Tables_number   1
_chemical_formula_structural   Ho5VSbO12
_chemical_formula_sum   'Ho5 V1 Sb1 O12'
_cell_volume   252.61559067
_cell_formula_units_Z   1
loop_
 _symmetry_equiv_pos_site_id
 _symmetry_equiv_pos_as_xyz
  1  'x, y, z'
loop_
 _atom_site_type_symbol
 _atom_site_label
 _atom_site_symmetry_multiplicity
 _atom_site_fract_x
 _atom_site_fract_y
 _atom_site_fract_z
 _atom_site_occupancy
  Ho  Ho0  1  0.307779  0.294263  0.362180  1
  Ho  Ho1  1  0.705737  0.692221  0.637820  1
  Ho  Ho2  1  0.308744  0.305556  0.828096  1
  Ho  Ho3  1  0.694444  0.691256  0.171904  1
  Ho  Ho4  1  0.002680  0.997320  0.500000  1
  V  V5  1  0.748987  0.251013  0.000000  1
  Sb  Sb6  1  0.237265  0.762735  0.000000  1
  O  O7  1  0.896021  0.422991  0.918395  1
  O  O8  1  0.432700  0.902675  0.915731  1
  O  O9  1  0.097325  0.567300  0.084269  1
  O  O10  1  0.577009  0.103979  0.081605  1
  O  O11  1  0.101619  0.591200  0.574868  1
  O  O12  1  0.601603  0.092118  0.574370  1
  O  O13  1  0.907882  0.398397  0.425630  1
  O  O14  1  0.408800  0.898381  0.425132  1
  O  O15  1  0.992673  0.006975  0.813113  1
  O  O16  1  0.993025  0.007327  0.186887  1
  O  O17  1  0.492445  0.506738  0.811911  1
  O  O18  1  0.493262  0.507555  0.188089  1
