# generated using pymatgen
data_Sc8Be(Si5Tc4)3
_symmetry_space_group_name_H-M   'P 1'
_cell_length_a   6.62328100
_cell_length_b   6.62909955
_cell_length_c   12.27963000
_cell_angle_alpha   90.00000000
_cell_angle_beta   90.00000000
_cell_angle_gamma   91.01323684
_symmetry_Int_Tables_number   1
_chemical_formula_structural   Sc8Be(Si5Tc4)3
_chemical_formula_sum   'Sc8 Be1 Si15 Tc12'
_cell_volume   539.06990864
_cell_formula_units_Z   1
loop_
 _symmetry_equiv_pos_site_id
 _symmetry_equiv_pos_as_xyz
  1  'x, y, z'
loop_
 _atom_site_type_symbol
 _atom_site_label
 _atom_site_symmetry_multiplicity
 _atom_site_fract_x
 _atom_site_fract_y
 _atom_site_fract_z
 _atom_site_occupancy
  Sc  Sc0  1  0.494836  0.329649  0.091125  1
  Sc  Sc1  1  0.991907  0.164058  0.407669  1
  Sc  Sc2  1  0.506634  0.663274  0.593633  1
  Sc  Sc3  1  0.006677  0.836086  0.905241  1
  Sc  Sc4  1  0.506634  0.663274  0.906367  1
  Sc  Sc5  1  0.006677  0.836086  0.594759  1
  Sc  Sc6  1  0.494836  0.329649  0.408875  1
  Sc  Sc7  1  0.991907  0.164058  0.092331  1
  Be  Be8  1  0.527726  0.369966  0.750000  1
  Si  Si9  1  0.666116  0.044274  0.547153  1
  Si  Si10  1  0.156712  0.447006  0.949604  1
  Si  Si11  1  0.331889  0.957278  0.043829  1
  Si  Si12  1  0.842550  0.552673  0.451261  1
  Si  Si13  1  0.331889  0.957278  0.456171  1
  Si  Si14  1  0.842550  0.552673  0.048739  1
  Si  Si15  1  0.666116  0.044274  0.952847  1
  Si  Si16  1  0.156712  0.447006  0.550396  1
  Si  Si17  1  0.035380  0.150839  0.750000  1
  Si  Si18  1  0.477171  0.625566  0.250000  1
  Si  Si19  1  0.966607  0.853616  0.250000  1
  Si  Si20  1  0.800544  0.642439  0.750000  1
  Si  Si21  1  0.307144  0.866809  0.750000  1
  Si  Si22  1  0.195189  0.353373  0.250000  1
  Si  Si23  1  0.694709  0.132021  0.250000  1
  Tc  Tc24  1  0.807604  0.356543  0.622404  1
  Tc  Tc25  1  0.345321  0.158966  0.875301  1
  Tc  Tc26  1  0.191987  0.646400  0.122122  1
  Tc  Tc27  1  0.658629  0.843865  0.379283  1
  Tc  Tc28  1  0.191987  0.646400  0.377878  1
  Tc  Tc29  1  0.658629  0.843865  0.120717  1
  Tc  Tc30  1  0.807604  0.356543  0.877596  1
  Tc  Tc31  1  0.345321  0.158966  0.624699  1
  Tc  Tc32  1  0.680998  0.993670  0.750000  1
  Tc  Tc33  1  0.164424  0.517315  0.750000  1
  Tc  Tc34  1  0.318540  0.011335  0.250000  1
  Tc  Tc35  1  0.829851  0.482911  0.250000  1
