# generated using pymatgen
data_CeY2Sn2Rh3Pb
_symmetry_space_group_name_H-M   'P 1'
_cell_length_a   7.68104685
_cell_length_b   7.59664322
_cell_length_c   3.90640700
_cell_angle_alpha   90.00000000
_cell_angle_beta   90.00000000
_cell_angle_gamma   120.01858982
_symmetry_Int_Tables_number   1
_chemical_formula_structural   CeY2Sn2Rh3Pb
_chemical_formula_sum   'Ce1 Y2 Sn2 Rh3 Pb1'
_cell_volume   197.36442837
_cell_formula_units_Z   1
loop_
 _symmetry_equiv_pos_site_id
 _symmetry_equiv_pos_as_xyz
  1  'x, y, z'
loop_
 _atom_site_type_symbol
 _atom_site_label
 _atom_site_symmetry_multiplicity
 _atom_site_fract_x
 _atom_site_fract_y
 _atom_site_fract_z
 _atom_site_occupancy
  Ce  Ce0  1  0.412996  0.997664  0.000000  1
  Y  Y1  1  0.994894  0.404738  0.000000  1
  Y  Y2  1  0.597292  0.597017  0.000000  1
  Sn  Sn3  1  0.990693  0.731287  0.500000  1
  Sn  Sn4  1  0.748998  0.998916  0.500000  1
  Rh  Rh5  1  0.660091  0.318011  0.500000  1
  Rh  Rh6  1  0.337912  0.692987  0.500000  1
  Rh  Rh7  1  0.996476  0.989929  0.000000  1
  Pb  Pb8  1  0.260649  0.269452  0.500000  1
