# generated using pymatgen
data_Be15(Nb3Au4)2
_symmetry_space_group_name_H-M   'P 1'
_cell_length_a   8.06944220
_cell_length_b   8.06944290
_cell_length_c   8.06944300
_cell_angle_alpha   60.00000370
_cell_angle_beta   60.00000083
_cell_angle_gamma   60.00000579
_symmetry_Int_Tables_number   1
_chemical_formula_structural   Be15(Nb3Au4)2
_chemical_formula_sum   'Be15 Nb6 Au8'
_cell_volume   371.54862857
_cell_formula_units_Z   1
loop_
 _symmetry_equiv_pos_site_id
 _symmetry_equiv_pos_as_xyz
  1  'x, y, z'
loop_
 _atom_site_type_symbol
 _atom_site_label
 _atom_site_symmetry_multiplicity
 _atom_site_fract_x
 _atom_site_fract_y
 _atom_site_fract_z
 _atom_site_occupancy
  Be  Be0  1  0.333928  0.333928  0.333928  1
  Be  Be1  1  0.666072  0.666072  0.666072  1
  Be  Be2  1  0.333928  0.333928  0.998216  1
  Be  Be3  1  0.333928  0.998216  0.333928  1
  Be  Be4  1  0.666072  0.666072  0.001784  1
  Be  Be5  1  0.666072  0.001784  0.666072  1
  Be  Be6  1  0.998216  0.333928  0.333928  1
  Be  Be7  1  0.001784  0.666072  0.666072  1
  Be  Be8  1  0.500000  0.000000  0.000000  1
  Be  Be9  1  0.000000  0.500000  0.500000  1
  Be  Be10  1  0.000000  0.500000  0.000000  1
  Be  Be11  1  0.500000  0.000000  0.500000  1
  Be  Be12  1  0.000000  0.000000  0.500000  1
  Be  Be13  1  0.500000  0.500000  0.000000  1
  Be  Be14  1  0.000000  0.000000  0.000000  1
  Nb  Nb15  1  0.684300  0.315700  0.315700  1
  Nb  Nb16  1  0.315700  0.684300  0.684300  1
  Nb  Nb17  1  0.315700  0.684300  0.315700  1
  Nb  Nb18  1  0.684300  0.315700  0.684300  1
  Nb  Nb19  1  0.315700  0.315700  0.684300  1
  Nb  Nb20  1  0.684300  0.684300  0.315700  1
  Au  Au21  1  0.127661  0.127661  0.127661  1
  Au  Au22  1  0.872339  0.872339  0.872339  1
  Au  Au23  1  0.127661  0.127661  0.617017  1
  Au  Au24  1  0.127661  0.617017  0.127661  1
  Au  Au25  1  0.872339  0.872339  0.382983  1
  Au  Au26  1  0.872339  0.382983  0.872339  1
  Au  Au27  1  0.617017  0.127661  0.127661  1
  Au  Au28  1  0.382983  0.872339  0.872339  1
