# generated using pymatgen
data_Pr7Lu3(Sn3Cl)2
_symmetry_space_group_name_H-M   'P 1'
_cell_length_a   9.37760900
_cell_length_b   9.37761044
_cell_length_c   6.68035800
_cell_angle_alpha   90.00000000
_cell_angle_beta   90.00000000
_cell_angle_gamma   119.99999843
_symmetry_Int_Tables_number   1
_chemical_formula_structural   Pr7Lu3(Sn3Cl)2
_chemical_formula_sum   'Pr7 Lu3 Sn6 Cl2'
_cell_volume   508.76202125
_cell_formula_units_Z   1
loop_
 _symmetry_equiv_pos_site_id
 _symmetry_equiv_pos_as_xyz
  1  'x, y, z'
loop_
 _atom_site_type_symbol
 _atom_site_label
 _atom_site_symmetry_multiplicity
 _atom_site_fract_x
 _atom_site_fract_y
 _atom_site_fract_z
 _atom_site_occupancy
  Pr  Pr0  1  0.333333  0.666667  0.000000  1
  Pr  Pr1  1  0.738554  0.000422  0.749058  1
  Pr  Pr2  1  0.738554  0.738131  0.250942  1
  Pr  Pr3  1  0.999578  0.261446  0.250942  1
  Pr  Pr4  1  0.999578  0.738131  0.749058  1
  Pr  Pr5  1  0.261869  0.261446  0.749058  1
  Pr  Pr6  1  0.261869  0.000422  0.250942  1
  Lu  Lu7  1  0.666667  0.333333  0.000000  1
  Lu  Lu8  1  0.333333  0.666667  0.500000  1
  Lu  Lu9  1  0.666667  0.333333  0.500000  1
  Sn  Sn10  1  0.609686  0.605918  0.747781  1
  Sn  Sn11  1  0.996232  0.605918  0.252219  1
  Sn  Sn12  1  0.609686  0.003768  0.252219  1
  Sn  Sn13  1  0.394082  0.003768  0.747781  1
  Sn  Sn14  1  0.996232  0.390314  0.747781  1
  Sn  Sn15  1  0.394082  0.390314  0.252219  1
  Cl  Cl16  1  0.000000  0.000000  0.500000  1
  Cl  Cl17  1  0.000000  0.000000  0.000000  1
