# generated using pymatgen
data_V3FeCo2P3
_symmetry_space_group_name_H-M   'P 1'
_cell_length_a   3.49211600
_cell_length_b   5.88357692
_cell_length_c   20.07490527
_cell_angle_alpha   89.86285540
_cell_angle_beta   90.00000000
_cell_angle_gamma   90.00000000
_symmetry_Int_Tables_number   1
_chemical_formula_structural   V3FeCo2P3
_chemical_formula_sum   'V12 Fe4 Co8 P12'
_cell_volume   412.46049399
_cell_formula_units_Z   4
loop_
 _symmetry_equiv_pos_site_id
 _symmetry_equiv_pos_as_xyz
  1  'x, y, z'
loop_
 _atom_site_type_symbol
 _atom_site_label
 _atom_site_symmetry_multiplicity
 _atom_site_fract_x
 _atom_site_fract_y
 _atom_site_fract_z
 _atom_site_occupancy
  V  V0  1  0.500000  0.471667  0.942628  1
  V  V1  1  0.500000  0.471706  0.609542  1
  V  V2  1  0.500000  0.471708  0.276059  1
  V  V3  1  0.500000  0.970999  0.889472  1
  V  V4  1  0.500000  0.971684  0.556631  1
  V  V5  1  0.500000  0.970939  0.222470  1
  V  V6  1  0.000000  0.525856  0.723603  1
  V  V7  1  0.000000  0.526581  0.390408  1
  V  V8  1  0.000000  0.526205  0.057029  1
  V  V9  1  0.000000  0.026948  0.776812  1
  V  V10  1  0.000000  0.029152  0.443605  1
  V  V11  1  0.000000  0.029321  0.110721  1
  Fe  Fe12  1  0.500000  0.358462  0.813497  1
  Fe  Fe13  1  0.500000  0.359426  0.480146  1
  Fe  Fe14  1  0.500000  0.358500  0.146922  1
  Fe  Fe15  1  0.500000  0.859046  0.686523  1
  Co  Co16  1  0.500000  0.857347  0.353566  1
  Co  Co17  1  0.500000  0.857436  0.020350  1
  Co  Co18  1  0.000000  0.642859  0.854119  1
  Co  Co19  1  0.000000  0.644321  0.520842  1
  Co  Co20  1  0.000000  0.643662  0.187334  1
  Co  Co21  1  0.000000  0.143569  0.979426  1
  Co  Co22  1  0.000000  0.144143  0.645548  1
  Co  Co23  1  0.000000  0.143321  0.312713  1
  P  P24  1  0.500000  0.731431  0.791084  1
  P  P25  1  0.500000  0.732158  0.458334  1
  P  P26  1  0.500000  0.731617  0.124889  1
  P  P27  1  0.500000  0.231594  0.708778  1
  P  P28  1  0.500000  0.234277  0.375426  1
  P  P29  1  0.500000  0.233937  0.042073  1
  P  P30  1  0.000000  0.266860  0.874600  1
  P  P31  1  0.000000  0.266848  0.541170  1
  P  P32  1  0.000000  0.267138  0.208026  1
  P  P33  1  0.000000  0.766148  0.958344  1
  P  P34  1  0.000000  0.766894  0.625543  1
  P  P35  1  0.000000  0.766240  0.291766  1
