# generated using pymatgen
data_Tm8Zr12Si15P
_symmetry_space_group_name_H-M   'P 1'
_cell_length_a   7.08060621
_cell_length_b   7.24581486
_cell_length_c   13.88253900
_cell_angle_alpha   90.00000000
_cell_angle_beta   90.00000000
_cell_angle_gamma   90.01748763
_symmetry_Int_Tables_number   1
_chemical_formula_structural   Tm8Zr12Si15P
_chemical_formula_sum   'Tm8 Zr12 Si15 P1'
_cell_volume   712.24032197
_cell_formula_units_Z   1
loop_
 _symmetry_equiv_pos_site_id
 _symmetry_equiv_pos_as_xyz
  1  'x, y, z'
loop_
 _atom_site_type_symbol
 _atom_site_label
 _atom_site_symmetry_multiplicity
 _atom_site_fract_x
 _atom_site_fract_y
 _atom_site_fract_z
 _atom_site_occupancy
  Tm  Tm0  1  0.014146  0.177293  0.096369  1
  Tm  Tm1  1  0.986371  0.825237  0.900668  1
  Tm  Tm2  1  0.486201  0.676479  0.903448  1
  Tm  Tm3  1  0.986371  0.825237  0.599332  1
  Tm  Tm4  1  0.514594  0.322996  0.096146  1
  Tm  Tm5  1  0.014146  0.177293  0.403631  1
  Tm  Tm6  1  0.514594  0.322996  0.403854  1
  Tm  Tm7  1  0.486201  0.676479  0.596552  1
  Zr  Zr8  1  0.154585  0.498700  0.750000  1
  Zr  Zr9  1  0.844873  0.501023  0.250000  1
  Zr  Zr10  1  0.344510  0.000475  0.250000  1
  Zr  Zr11  1  0.658078  0.001679  0.750000  1
  Zr  Zr12  1  0.324241  0.175588  0.625874  1
  Zr  Zr13  1  0.670697  0.822292  0.375278  1
  Zr  Zr14  1  0.171495  0.678102  0.375851  1
  Zr  Zr15  1  0.670697  0.822292  0.124722  1
  Zr  Zr16  1  0.829966  0.319934  0.624768  1
  Zr  Zr17  1  0.324241  0.175588  0.874126  1
  Zr  Zr18  1  0.829966  0.319934  0.875232  1
  Zr  Zr19  1  0.171495  0.678102  0.124149  1
  Si  Si20  1  0.968662  0.885413  0.250000  1
  Si  Si21  1  0.468045  0.614632  0.250000  1
  Si  Si22  1  0.532208  0.383936  0.750000  1
  Si  Si23  1  0.288564  0.865507  0.750000  1
  Si  Si24  1  0.717888  0.129659  0.250000  1
  Si  Si25  1  0.217323  0.371399  0.250000  1
  Si  Si26  1  0.782276  0.627439  0.750000  1
  Si  Si27  1  0.155229  0.469268  0.540443  1
  Si  Si28  1  0.843691  0.532187  0.461159  1
  Si  Si29  1  0.343965  0.969265  0.460639  1
  Si  Si30  1  0.843691  0.532187  0.038841  1
  Si  Si31  1  0.655671  0.031195  0.540208  1
  Si  Si32  1  0.155229  0.469268  0.959557  1
  Si  Si33  1  0.655671  0.031195  0.959792  1
  Si  Si34  1  0.343965  0.969265  0.039361  1
  P  P35  1  0.030454  0.120464  0.750000  1
