# generated using pymatgen
data_Li4Pr3Sn4
_symmetry_space_group_name_H-M   'P 1'
_cell_length_a   8.91550561
_cell_length_b   8.91550515
_cell_length_c   8.91550573
_cell_angle_alpha   149.07634034
_cell_angle_beta   132.27500590
_cell_angle_gamma   57.95787736
_symmetry_Int_Tables_number   1
_chemical_formula_structural   Li4Pr3Sn4
_chemical_formula_sum   'Li4 Pr3 Sn4'
_cell_volume   267.43890845
_cell_formula_units_Z   1
loop_
 _symmetry_equiv_pos_site_id
 _symmetry_equiv_pos_as_xyz
  1  'x, y, z'
loop_
 _atom_site_type_symbol
 _atom_site_label
 _atom_site_symmetry_multiplicity
 _atom_site_fract_x
 _atom_site_fract_y
 _atom_site_fract_z
 _atom_site_occupancy
  Li  Li0  1  0.639718  0.328965  0.310752  1
  Li  Li1  1  0.360282  0.671035  0.689248  1
  Li  Li2  1  0.018212  0.328965  0.689248  1
  Li  Li3  1  0.981788  0.671035  0.310752  1
  Pr  Pr4  1  0.369094  0.869094  0.500000  1
  Pr  Pr5  1  0.630906  0.130906  0.500000  1
  Pr  Pr6  1  0.000000  0.000000  0.000000  1
  Sn  Sn7  1  0.213410  0.213410  0.000000  1
  Sn  Sn8  1  0.786590  0.786590  0.000000  1
  Sn  Sn9  1  0.697945  0.500000  0.197945  1
  Sn  Sn10  1  0.302055  0.500000  0.802055  1
