# generated using pymatgen
data_Y20IrRu4Rh7
_symmetry_space_group_name_H-M   'P 1'
_cell_length_a   10.90078712
_cell_length_b   10.90078712
_cell_length_c   6.43970201
_cell_angle_alpha   90.00335804
_cell_angle_beta   90.00335804
_cell_angle_gamma   90.01635698
_symmetry_Int_Tables_number   1
_chemical_formula_structural   Y20IrRu4Rh7
_chemical_formula_sum   'Y20 Ir1 Ru4 Rh7'
_cell_volume   765.21146509
_cell_formula_units_Z   1
loop_
 _symmetry_equiv_pos_site_id
 _symmetry_equiv_pos_as_xyz
  1  'x, y, z'
loop_
 _atom_site_type_symbol
 _atom_site_label
 _atom_site_symmetry_multiplicity
 _atom_site_fract_x
 _atom_site_fract_y
 _atom_site_fract_z
 _atom_site_occupancy
  Y  Y0  1  0.294268  0.086657  0.377862  1
  Y  Y1  1  0.294361  0.912288  0.877512  1
  Y  Y2  1  0.705703  0.086643  0.877693  1
  Y  Y3  1  0.705671  0.913309  0.377629  1
  Y  Y4  1  0.585614  0.793792  0.877397  1
  Y  Y5  1  0.586688  0.205610  0.377958  1
  Y  Y6  1  0.412920  0.793651  0.378790  1
  Y  Y7  1  0.413172  0.205596  0.877629  1
  Y  Y8  1  0.206208  0.414386  0.622603  1
  Y  Y9  1  0.206349  0.587080  0.121210  1
  Y  Y10  1  0.794390  0.413312  0.122042  1
  Y  Y11  1  0.794404  0.586828  0.622371  1
  Y  Y12  1  0.913343  0.705732  0.122138  1
  Y  Y13  1  0.913357  0.294297  0.622307  1
  Y  Y14  1  0.087712  0.705639  0.622488  1
  Y  Y15  1  0.086691  0.294329  0.122371  1
  Y  Y16  1  0.999981  0.000015  0.500030  1
  Y  Y17  1  0.999985  0.000019  0.999970  1
  Y  Y18  1  0.499767  0.500305  0.999737  1
  Y  Y19  1  0.499695  0.500233  0.500263  1
  Ir  Ir20  1  0.347569  0.652431  0.750000  1
  Ru  Ru21  1  0.500200  0.000385  0.124120  1
  Ru  Ru22  1  0.500200  0.000394  0.623978  1
  Ru  Ru23  1  0.999606  0.499800  0.876022  1
  Ru  Ru24  1  0.999615  0.499800  0.375880  1
  Rh  Rh25  1  0.847545  0.152455  0.250000  1
  Rh  Rh26  1  0.847590  0.847585  0.749912  1
  Rh  Rh27  1  0.152415  0.152410  0.750088  1
  Rh  Rh28  1  0.152111  0.847889  0.250000  1
  Rh  Rh29  1  0.652481  0.347519  0.750000  1
  Rh  Rh30  1  0.652898  0.652508  0.250098  1
  Rh  Rh31  1  0.347492  0.347102  0.249902  1
