# generated using pymatgen
data_Th5NpH8Br15
_symmetry_space_group_name_H-M   'P 1'
_cell_length_a   10.06884166
_cell_length_b   10.06900947
_cell_length_c   10.06882175
_cell_angle_alpha   109.31681166
_cell_angle_beta   109.31329608
_cell_angle_gamma   109.78431047
_symmetry_Int_Tables_number   1
_chemical_formula_structural   Th5NpH8Br15
_chemical_formula_sum   'Th5 Np1 H8 Br15'
_cell_volume   785.79936967
_cell_formula_units_Z   1
loop_
 _symmetry_equiv_pos_site_id
 _symmetry_equiv_pos_as_xyz
  1  'x, y, z'
loop_
 _atom_site_type_symbol
 _atom_site_label
 _atom_site_symmetry_multiplicity
 _atom_site_fract_x
 _atom_site_fract_y
 _atom_site_fract_z
 _atom_site_occupancy
  Th  Th0  1  0.759447  0.759451  0.000002  1
  Th  Th1  1  0.240487  0.002808  0.237556  1
  Th  Th2  1  0.002800  0.240448  0.237519  1
  Th  Th3  1  0.765245  0.002921  0.762441  1
  Th  Th4  1  0.002932  0.765283  0.762478  1
  Np  Np5  1  0.233296  0.233295  0.999996  1
  H  H6  1  0.178432  0.999166  0.000005  1
  H  H7  1  0.821349  0.999706  0.999997  1
  H  H8  1  0.999154  0.178424  0.999991  1
  H  H9  1  0.999710  0.821353  0.000005  1
  H  H10  1  0.999621  0.999620  0.178424  1
  H  H11  1  0.177960  0.177956  0.178503  1
  H  H12  1  0.999451  0.999455  0.821496  1
  H  H13  1  0.821193  0.821196  0.821578  1
  Br  Br14  1  0.746445  0.252610  0.000000  1
  Br  Br15  1  0.504223  0.504224  0.000001  1
  Br  Br16  1  0.252614  0.746448  0.000005  1
  Br  Br17  1  0.746927  0.999812  0.252862  1
  Br  Br18  1  0.999813  0.746942  0.252845  1
  Br  Br19  1  0.506685  0.252499  0.254741  1
  Br  Br20  1  0.252491  0.506680  0.254728  1
  Br  Br21  1  0.746583  0.746580  0.493994  1
  Br  Br22  1  0.499909  0.999908  0.500000  1
  Br  Br23  1  0.999902  0.499902  0.500000  1
  Br  Br24  1  0.252586  0.252587  0.506008  1
  Br  Br25  1  0.251949  0.997759  0.745269  1
  Br  Br26  1  0.997753  0.251941  0.745259  1
  Br  Br27  1  0.746958  0.494069  0.747148  1
  Br  Br28  1  0.494093  0.746966  0.747155  1
