# generated using pymatgen
data_Be8NbAlFe2
_symmetry_space_group_name_H-M   'P 1'
_cell_length_a   4.29357400
_cell_length_b   4.29357336
_cell_length_c   7.09620700
_cell_angle_alpha   90.00000000
_cell_angle_beta   90.00000000
_cell_angle_gamma   119.99998949
_symmetry_Int_Tables_number   1
_chemical_formula_structural   Be8NbAlFe2
_chemical_formula_sum   'Be8 Nb1 Al1 Fe2'
_cell_volume   113.29083917
_cell_formula_units_Z   1
loop_
 _symmetry_equiv_pos_site_id
 _symmetry_equiv_pos_as_xyz
  1  'x, y, z'
loop_
 _atom_site_type_symbol
 _atom_site_label
 _atom_site_symmetry_multiplicity
 _atom_site_fract_x
 _atom_site_fract_y
 _atom_site_fract_z
 _atom_site_occupancy
  Be  Be0  1  0.000000  0.000000  0.001549  1
  Be  Be1  1  0.000000  0.000000  0.492184  1
  Be  Be2  1  0.830852  0.661705  0.243781  1
  Be  Be3  1  0.167028  0.832972  0.759019  1
  Be  Be4  1  0.665943  0.832972  0.759019  1
  Be  Be5  1  0.338295  0.169148  0.243781  1
  Be  Be6  1  0.830852  0.169148  0.243781  1
  Be  Be7  1  0.167028  0.334057  0.759019  1
  Nb  Nb8  1  0.666667  0.333333  0.562599  1
  Al  Al9  1  0.333333  0.666667  0.061585  1
  Fe  Fe10  1  0.666667  0.333333  0.932717  1
  Fe  Fe11  1  0.333333  0.666667  0.440965  1
