# generated using pymatgen
data_Rb4CdHg5Se8
_symmetry_space_group_name_H-M   'P 1'
_cell_length_a   10.07574497
_cell_length_b   10.07574479
_cell_length_c   10.07574421
_cell_angle_alpha   141.33153523
_cell_angle_beta   107.11456727
_cell_angle_gamma   85.69546205
_symmetry_Int_Tables_number   1
_chemical_formula_structural   Rb4CdHg5Se8
_chemical_formula_sum   'Rb4 Cd1 Hg5 Se8'
_cell_volume   589.96079258
_cell_formula_units_Z   1
loop_
 _symmetry_equiv_pos_site_id
 _symmetry_equiv_pos_as_xyz
  1  'x, y, z'
loop_
 _atom_site_type_symbol
 _atom_site_label
 _atom_site_symmetry_multiplicity
 _atom_site_fract_x
 _atom_site_fract_y
 _atom_site_fract_z
 _atom_site_occupancy
  Rb  Rb0  1  0.119982  0.771631  0.892298  1
  Rb  Rb1  1  0.879333  0.227684  0.107702  1
  Rb  Rb2  1  0.620667  0.728369  0.348351  1
  Rb  Rb3  1  0.380018  0.272316  0.651649  1
  Cd  Cd4  1  0.250000  0.750000  0.500000  1
  Hg  Hg5  1  0.750000  0.250000  0.500000  1
  Hg  Hg6  1  0.914873  0.750000  0.164873  1
  Hg  Hg7  1  0.585127  0.750000  0.835127  1
  Hg  Hg8  1  0.085753  0.250000  0.835753  1
  Hg  Hg9  1  0.414247  0.250000  0.164247  1
  Se  Se10  1  0.232892  0.640994  0.147859  1
  Se  Se11  1  0.493135  0.085033  0.852141  1
  Se  Se12  1  0.006865  0.859006  0.591898  1
  Se  Se13  1  0.267108  0.414967  0.408102  1
  Se  Se14  1  0.767647  0.360580  0.856385  1
  Se  Se15  1  0.504195  0.911261  0.143615  1
  Se  Se16  1  0.995805  0.139420  0.407067  1
  Se  Se17  1  0.732353  0.588739  0.592933  1
