# generated using pymatgen
data_Ta2Be3Si
_symmetry_space_group_name_H-M   'P 1'
_cell_length_a   4.69356885
_cell_length_b   4.66313005
_cell_length_c   4.66313100
_cell_angle_alpha   60.00000034
_cell_angle_beta   60.21429865
_cell_angle_gamma   60.21430130
_symmetry_Int_Tables_number   1
_chemical_formula_structural   Ta2Be3Si
_chemical_formula_sum   'Ta2 Be3 Si1'
_cell_volume   72.40065805
_cell_formula_units_Z   1
loop_
 _symmetry_equiv_pos_site_id
 _symmetry_equiv_pos_as_xyz
  1  'x, y, z'
loop_
 _atom_site_type_symbol
 _atom_site_label
 _atom_site_symmetry_multiplicity
 _atom_site_fract_x
 _atom_site_fract_y
 _atom_site_fract_z
 _atom_site_occupancy
  Ta  Ta0  1  0.999518  0.000161  0.000161  1
  Ta  Ta1  1  0.250482  0.249839  0.249839  1
  Be  Be2  1  0.625000  0.625000  0.625000  1
  Be  Be3  1  0.625000  0.125000  0.625000  1
  Be  Be4  1  0.625000  0.625000  0.125000  1
  Si  Si5  1  0.125000  0.625000  0.625000  1
