# generated using pymatgen
data_TmLu7Tc2(B12Rh)2
_symmetry_space_group_name_H-M   'P 1'
_cell_length_a   3.61512300
_cell_length_b   9.03769917
_cell_length_c   11.41659103
_cell_angle_alpha   90.34198505
_cell_angle_beta   90.00000000
_cell_angle_gamma   90.00000000
_symmetry_Int_Tables_number   1
_chemical_formula_structural   TmLu7Tc2(B12Rh)2
_chemical_formula_sum   'Tm1 Lu7 Tc2 B24 Rh2'
_cell_volume   373.00071741
_cell_formula_units_Z   1
loop_
 _symmetry_equiv_pos_site_id
 _symmetry_equiv_pos_as_xyz
  1  'x, y, z'
loop_
 _atom_site_type_symbol
 _atom_site_label
 _atom_site_symmetry_multiplicity
 _atom_site_fract_x
 _atom_site_fract_y
 _atom_site_fract_z
 _atom_site_occupancy
  Tm  Tm0  1  0.500000  0.317750  0.411028  1
  Lu  Lu1  1  0.500000  0.682694  0.589111  1
  Lu  Lu2  1  0.500000  0.173861  0.917439  1
  Lu  Lu3  1  0.500000  0.826117  0.082526  1
  Lu  Lu4  1  0.500000  0.442055  0.126447  1
  Lu  Lu5  1  0.500000  0.557976  0.873484  1
  Lu  Lu6  1  0.500000  0.053477  0.628310  1
  Lu  Lu7  1  0.500000  0.946318  0.371738  1
  Tc  Tc8  1  0.500000  0.139230  0.179942  1
  Tc  Tc9  1  0.500000  0.860601  0.819896  1
  B  B10  1  0.000000  0.105640  0.471700  1
  B  B11  1  0.000000  0.893932  0.528425  1
  B  B12  1  0.000000  0.394934  0.970778  1
  B  B13  1  0.000000  0.605095  0.029186  1
  B  B14  1  0.000000  0.131901  0.315620  1
  B  B15  1  0.000000  0.867829  0.684213  1
  B  B16  1  0.000000  0.367570  0.817350  1
  B  B17  1  0.000000  0.632464  0.182634  1
  B  B18  1  0.000000  0.053012  0.066681  1
  B  B19  1  0.000000  0.946947  0.933267  1
  B  B20  1  0.000000  0.445779  0.565376  1
  B  B21  1  0.000000  0.554607  0.434854  1
  B  B22  1  0.000000  0.482939  0.287480  1
  B  B23  1  0.000000  0.517398  0.712369  1
  B  B24  1  0.000000  0.017754  0.786883  1
  B  B25  1  0.000000  0.982157  0.213100  1
  B  B26  1  0.000000  0.249414  0.080308  1
  B  B27  1  0.000000  0.750583  0.919623  1
  B  B28  1  0.000000  0.249634  0.578575  1
  B  B29  1  0.000000  0.750265  0.421796  1
  B  B30  1  0.000000  0.294064  0.235061  1
  B  B31  1  0.000000  0.705797  0.764675  1
  B  B32  1  0.000000  0.207199  0.735559  1
  B  B33  1  0.000000  0.792789  0.264481  1
  Rh  Rh34  1  0.500000  0.361477  0.678938  1
  Rh  Rh35  1  0.500000  0.638740  0.321147  1
