# generated using pymatgen
data_Tb6Tm2Ti11Si16Ag
_symmetry_space_group_name_H-M   'P 1'
_cell_length_a   7.07961154
_cell_length_b   7.08040161
_cell_length_c   12.93456045
_cell_angle_alpha   90.10992844
_cell_angle_beta   89.98639113
_cell_angle_gamma   89.62584865
_symmetry_Int_Tables_number   1
_chemical_formula_structural   Tb6Tm2Ti11Si16Ag
_chemical_formula_sum   'Tb6 Tm2 Ti11 Si16 Ag1'
_cell_volume   648.34911583
_cell_formula_units_Z   1
loop_
 _symmetry_equiv_pos_site_id
 _symmetry_equiv_pos_as_xyz
  1  'x, y, z'
loop_
 _atom_site_type_symbol
 _atom_site_label
 _atom_site_symmetry_multiplicity
 _atom_site_fract_x
 _atom_site_fract_y
 _atom_site_fract_z
 _atom_site_occupancy
  Tb  Tb0  1  0.501245  0.158646  0.214711  1
  Tb  Tb1  1  0.839681  0.497144  0.283548  1
  Tb  Tb2  1  0.159047  0.501538  0.785213  1
  Tb  Tb3  1  0.656354  0.000355  0.967967  1
  Tb  Tb4  1  0.003030  0.340082  0.533515  1
  Tb  Tb5  1  0.000571  0.656625  0.031583  1
  Tm  Tm6  1  0.341303  0.000979  0.466710  1
  Tm  Tm7  1  0.498472  0.840826  0.716363  1
  Ti  Ti8  1  0.174028  0.826636  0.250318  1
  Ti  Ti9  1  0.826263  0.173464  0.749702  1
  Ti  Ti10  1  0.672196  0.673466  0.500329  1
  Ti  Ti11  1  0.148908  0.008186  0.876933  1
  Ti  Ti12  1  0.494721  0.651286  0.123870  1
  Ti  Ti13  1  0.507779  0.350208  0.625477  1
  Ti  Ti14  1  0.650499  0.494643  0.875762  1
  Ti  Ti15  1  0.349764  0.508882  0.374918  1
  Ti  Ti16  1  0.849095  0.991603  0.375156  1
  Ti  Ti17  1  0.009034  0.148675  0.122667  1
  Ti  Ti18  1  0.991651  0.849351  0.625135  1
  Si  Si19  1  0.203189  0.129753  0.684439  1
  Si  Si20  1  0.374435  0.718917  0.929203  1
  Si  Si21  1  0.628883  0.293697  0.433593  1
  Si  Si22  1  0.718059  0.374352  0.069694  1
  Si  Si23  1  0.296432  0.633216  0.567262  1
  Si  Si24  1  0.797870  0.869008  0.183483  1
  Si  Si25  1  0.132341  0.200413  0.315949  1
  Si  Si26  1  0.867194  0.798449  0.816120  1
  Si  Si27  1  0.286072  0.938053  0.066269  1
  Si  Si28  1  0.545682  0.791710  0.315252  1
  Si  Si29  1  0.455905  0.206086  0.808214  1
  Si  Si30  1  0.789715  0.547788  0.685458  1
  Si  Si31  1  0.208347  0.455488  0.191380  1
  Si  Si32  1  0.706808  0.045765  0.564540  1
  Si  Si33  1  0.938189  0.285765  0.933444  1
  Si  Si34  1  0.048617  0.710461  0.435850  1
  Ag  Ag35  1  0.328623  0.328487  0.999974  1
