# generated using pymatgen
data_Ta3Co4Ni5
_symmetry_space_group_name_H-M   'P 1'
_cell_length_a   6.97472626
_cell_length_b   6.98629246
_cell_length_c   6.97472667
_cell_angle_alpha   43.84605995
_cell_angle_beta   43.66853220
_cell_angle_gamma   43.84605385
_symmetry_Int_Tables_number   1
_chemical_formula_structural   Ta3Co4Ni5
_chemical_formula_sum   'Ta3 Co4 Ni5'
_cell_volume   147.74204407
_cell_formula_units_Z   1
loop_
 _symmetry_equiv_pos_site_id
 _symmetry_equiv_pos_as_xyz
  1  'x, y, z'
loop_
 _atom_site_type_symbol
 _atom_site_label
 _atom_site_symmetry_multiplicity
 _atom_site_fract_x
 _atom_site_fract_y
 _atom_site_fract_z
 _atom_site_occupancy
  Ta  Ta0  1  0.002240  0.005626  0.002240  1
  Ta  Ta1  1  0.215889  0.211551  0.215889  1
  Ta  Ta2  1  0.780117  0.785956  0.780117  1
  Co  Co3  1  0.716790  0.236112  0.716790  1
  Co  Co4  1  0.284576  0.760507  0.284576  1
  Co  Co5  1  0.760573  0.285730  0.284483  1
  Co  Co6  1  0.284483  0.285730  0.760573  1
  Ni  Ni7  1  0.499510  0.498971  0.000011  1
  Ni  Ni8  1  0.498535  0.001974  0.498535  1
  Ni  Ni9  1  0.000011  0.498971  0.499510  1
  Ni  Ni10  1  0.239581  0.714437  0.717695  1
  Ni  Ni11  1  0.717695  0.714437  0.239581  1
