# generated using pymatgen
data_La5Pr(Os2O9)2
_symmetry_space_group_name_H-M   'P 1'
_cell_length_a   5.71210345
_cell_length_b   6.89044990
_cell_length_c   11.21563322
_cell_angle_alpha   77.51256273
_cell_angle_beta   75.57842388
_cell_angle_gamma   69.80165775
_symmetry_Int_Tables_number   1
_chemical_formula_structural   La5Pr(Os2O9)2
_chemical_formula_sum   'La5 Pr1 Os4 O18'
_cell_volume   397.09422682
_cell_formula_units_Z   1
loop_
 _symmetry_equiv_pos_site_id
 _symmetry_equiv_pos_as_xyz
  1  'x, y, z'
loop_
 _atom_site_type_symbol
 _atom_site_label
 _atom_site_symmetry_multiplicity
 _atom_site_fract_x
 _atom_site_fract_y
 _atom_site_fract_z
 _atom_site_occupancy
  La  La0  1  0.011944  0.216032  0.268817  1
  La  La1  1  0.987226  0.785428  0.731399  1
  La  La2  1  0.235962  0.157764  0.881665  1
  La  La3  1  0.765762  0.842499  0.117934  1
  La  La4  1  0.277537  0.598417  0.379695  1
  Pr  Pr5  1  0.721319  0.401364  0.621632  1
  Os  Os6  1  0.513872  0.390439  0.088530  1
  Os  Os7  1  0.486471  0.609344  0.910761  1
  Os  Os8  1  0.358974  0.126675  0.568678  1
  Os  Os9  1  0.640600  0.873130  0.431833  1
  O  O10  1  0.306759  0.415793  0.587354  1
  O  O11  1  0.695838  0.583590  0.413083  1
  O  O12  1  0.588053  0.065419  0.690362  1
  O  O13  1  0.414023  0.936713  0.309914  1
  O  O14  1  0.854170  0.188834  0.062204  1
  O  O15  1  0.146359  0.810988  0.937179  1
  O  O16  1  0.389043  0.169381  0.072210  1
  O  O17  1  0.612067  0.829888  0.927708  1
  O  O18  1  0.070511  0.121917  0.711957  1
  O  O19  1  0.927997  0.879584  0.288314  1
  O  O20  1  0.186495  0.501401  0.192849  1
  O  O21  1  0.812159  0.499607  0.804759  1
  O  O22  1  0.101483  0.245474  0.463473  1
  O  O23  1  0.894773  0.752293  0.538441  1
  O  O24  1  0.644728  0.517010  0.185376  1
  O  O25  1  0.355748  0.482579  0.813547  1
  O  O26  1  0.624183  0.173519  0.422077  1
  O  O27  1  0.375943  0.824919  0.578252  1
