# generated using pymatgen
data_Zr2Ta3Ge4
_symmetry_space_group_name_H-M   'P 1'
_cell_length_a   6.85817400
_cell_length_b   6.96750000
_cell_length_c   13.33056300
_cell_angle_alpha   90.00000000
_cell_angle_beta   90.00000000
_cell_angle_gamma   90.00000000
_symmetry_Int_Tables_number   1
_chemical_formula_structural   Zr2Ta3Ge4
_chemical_formula_sum   'Zr8 Ta12 Ge16'
_cell_volume   636.99198609
_cell_formula_units_Z   4
loop_
 _symmetry_equiv_pos_site_id
 _symmetry_equiv_pos_as_xyz
  1  'x, y, z'
loop_
 _atom_site_type_symbol
 _atom_site_label
 _atom_site_symmetry_multiplicity
 _atom_site_fract_x
 _atom_site_fract_y
 _atom_site_fract_z
 _atom_site_occupancy
  Zr  Zr0  1  0.488894  0.673129  0.591426  1
  Zr  Zr1  1  0.988894  0.826871  0.908574  1
  Zr  Zr2  1  0.511106  0.326871  0.091426  1
  Zr  Zr3  1  0.011106  0.173129  0.408574  1
  Zr  Zr4  1  0.511106  0.326871  0.408574  1
  Zr  Zr5  1  0.011106  0.173129  0.091426  1
  Zr  Zr6  1  0.488894  0.673129  0.908574  1
  Zr  Zr7  1  0.988894  0.826871  0.591426  1
  Ta  Ta8  1  0.659511  0.165305  0.624659  1
  Ta  Ta9  1  0.159511  0.334695  0.875341  1
  Ta  Ta10  1  0.340489  0.834695  0.124659  1
  Ta  Ta11  1  0.840489  0.665305  0.375341  1
  Ta  Ta12  1  0.340489  0.834695  0.375341  1
  Ta  Ta13  1  0.840489  0.665305  0.124659  1
  Ta  Ta14  1  0.659511  0.165305  0.875341  1
  Ta  Ta15  1  0.159511  0.334695  0.624659  1
  Ta  Ta16  1  0.835978  0.489934  0.750000  1
  Ta  Ta17  1  0.335978  0.010066  0.750000  1
  Ta  Ta18  1  0.164022  0.510066  0.250000  1
  Ta  Ta19  1  0.664022  0.989934  0.250000  1
  Ge  Ge20  1  0.681616  0.960845  0.459735  1
  Ge  Ge21  1  0.181616  0.539155  0.040265  1
  Ge  Ge22  1  0.318384  0.039155  0.959735  1
  Ge  Ge23  1  0.818384  0.460845  0.540265  1
  Ge  Ge24  1  0.318384  0.039155  0.540265  1
  Ge  Ge25  1  0.818384  0.460845  0.959735  1
  Ge  Ge26  1  0.681616  0.960845  0.040265  1
  Ge  Ge27  1  0.181616  0.539155  0.459735  1
  Ge  Ge28  1  0.461861  0.386591  0.750000  1
  Ge  Ge29  1  0.961861  0.113409  0.750000  1
  Ge  Ge30  1  0.538139  0.613409  0.250000  1
  Ge  Ge31  1  0.038139  0.886591  0.250000  1
  Ge  Ge32  1  0.692853  0.850006  0.750000  1
  Ge  Ge33  1  0.192853  0.649994  0.750000  1
  Ge  Ge34  1  0.307147  0.149994  0.250000  1
  Ge  Ge35  1  0.807147  0.350006  0.250000  1
