# generated using pymatgen
data_SrNd2Cd(Ir2O7)2
_symmetry_space_group_name_H-M   'P 1'
_cell_length_a   7.43761857
_cell_length_b   7.30171923
_cell_length_c   7.43761865
_cell_angle_alpha   59.53013638
_cell_angle_beta   60.26306205
_cell_angle_gamma   59.53013153
_symmetry_Int_Tables_number   1
_chemical_formula_structural   SrNd2Cd(Ir2O7)2
_chemical_formula_sum   'Sr1 Nd2 Cd1 Ir4 O14'
_cell_volume   284.11894940
_cell_formula_units_Z   1
loop_
 _symmetry_equiv_pos_site_id
 _symmetry_equiv_pos_as_xyz
  1  'x, y, z'
loop_
 _atom_site_type_symbol
 _atom_site_label
 _atom_site_symmetry_multiplicity
 _atom_site_fract_x
 _atom_site_fract_y
 _atom_site_fract_z
 _atom_site_occupancy
  Sr  Sr0  1  0.125000  0.125000  0.125000  1
  Nd  Nd1  1  0.625000  0.125000  0.125000  1
  Nd  Nd2  1  0.125000  0.125000  0.625000  1
  Cd  Cd3  1  0.125000  0.625000  0.125000  1
  Ir  Ir4  1  0.125000  0.625000  0.625000  1
  Ir  Ir5  1  0.625000  0.125000  0.625000  1
  Ir  Ir6  1  0.625000  0.625000  0.125000  1
  Ir  Ir7  1  0.625000  0.625000  0.625000  1
  O  O8  1  0.695749  0.700427  0.302642  1
  O  O9  1  0.298489  0.294892  0.697490  1
  O  O10  1  0.706618  0.292379  0.706618  1
  O  O11  1  0.305234  0.690573  0.305234  1
  O  O12  1  0.302642  0.700427  0.695749  1
  O  O13  1  0.697490  0.294892  0.298489  1
  O  O14  1  0.554251  0.549573  0.947358  1
  O  O15  1  0.951511  0.955108  0.552510  1
  O  O16  1  0.543382  0.957621  0.543382  1
  O  O17  1  0.944766  0.559427  0.944766  1
  O  O18  1  0.947358  0.549573  0.554251  1
  O  O19  1  0.552510  0.955108  0.951511  1
  O  O20  1  0.250126  0.267049  0.250126  1
  O  O21  1  0.999874  0.982951  0.999874  1
