# generated using pymatgen
data_Zr6TaTi3(Sn3N)2
_symmetry_space_group_name_H-M   'P 1'
_cell_length_a   8.31497700
_cell_length_b   8.31497598
_cell_length_c   5.61014600
_cell_angle_alpha   90.00000000
_cell_angle_beta   90.00000000
_cell_angle_gamma   119.99999213
_symmetry_Int_Tables_number   1
_chemical_formula_structural   Zr6TaTi3(Sn3N)2
_chemical_formula_sum   'Zr6 Ta1 Ti3 Sn6 N2'
_cell_volume   335.91305361
_cell_formula_units_Z   1
loop_
 _symmetry_equiv_pos_site_id
 _symmetry_equiv_pos_as_xyz
  1  'x, y, z'
loop_
 _atom_site_type_symbol
 _atom_site_label
 _atom_site_symmetry_multiplicity
 _atom_site_fract_x
 _atom_site_fract_y
 _atom_site_fract_z
 _atom_site_occupancy
  Zr  Zr0  1  0.776465  0.775018  0.750852  1
  Zr  Zr1  1  0.224982  0.001448  0.750852  1
  Zr  Zr2  1  0.998552  0.223535  0.750852  1
  Zr  Zr3  1  0.224982  0.223535  0.249148  1
  Zr  Zr4  1  0.776465  0.001448  0.249148  1
  Zr  Zr5  1  0.998552  0.775018  0.249148  1
  Ta  Ta6  1  0.666667  0.333333  0.000000  1
  Ti  Ti7  1  0.333333  0.666667  0.000000  1
  Ti  Ti8  1  0.333333  0.666667  0.500000  1
  Ti  Ti9  1  0.666667  0.333333  0.500000  1
  Sn  Sn10  1  0.409488  0.411911  0.748491  1
  Sn  Sn11  1  0.588089  0.997577  0.748491  1
  Sn  Sn12  1  0.002423  0.590512  0.748491  1
  Sn  Sn13  1  0.588089  0.590512  0.251509  1
  Sn  Sn14  1  0.409488  0.997577  0.251509  1
  Sn  Sn15  1  0.002423  0.411911  0.251509  1
  N  N16  1  0.000000  0.000000  0.000000  1
  N  N17  1  0.000000  0.000000  0.500000  1
