# generated using pymatgen
data_Er7LuTi11Si16Ru
_symmetry_space_group_name_H-M   'P 1'
_cell_length_a   6.99575820
_cell_length_b   6.99752092
_cell_length_c   12.82019027
_cell_angle_alpha   90.06641011
_cell_angle_beta   89.93829358
_cell_angle_gamma   89.86831467
_symmetry_Int_Tables_number   1
_chemical_formula_structural   Er7LuTi11Si16Ru
_chemical_formula_sum   'Er7 Lu1 Ti11 Si16 Ru1'
_cell_volume   627.58387299
_cell_formula_units_Z   1
loop_
 _symmetry_equiv_pos_site_id
 _symmetry_equiv_pos_as_xyz
  1  'x, y, z'
loop_
 _atom_site_type_symbol
 _atom_site_label
 _atom_site_symmetry_multiplicity
 _atom_site_fract_x
 _atom_site_fract_y
 _atom_site_fract_z
 _atom_site_occupancy
  Er  Er0  1  0.497864  0.840697  0.717859  1
  Er  Er1  1  0.500232  0.158600  0.215327  1
  Er  Er2  1  0.840420  0.497956  0.282114  1
  Er  Er3  1  0.158717  0.500149  0.784720  1
  Er  Er4  1  0.657262  0.998911  0.968290  1
  Er  Er5  1  0.003212  0.341198  0.532252  1
  Er  Er6  1  0.998829  0.657226  0.031626  1
  Lu  Lu7  1  0.341817  0.002196  0.467645  1
  Ti  Ti8  1  0.174029  0.827866  0.247760  1
  Ti  Ti9  1  0.827681  0.173976  0.752305  1
  Ti  Ti10  1  0.672592  0.673147  0.500025  1
  Ti  Ti11  1  0.151531  0.001329  0.874829  1
  Ti  Ti12  1  0.493240  0.655304  0.125663  1
  Ti  Ti13  1  0.506023  0.350646  0.627579  1
  Ti  Ti14  1  0.655203  0.493222  0.874415  1
  Ti  Ti15  1  0.350788  0.506285  0.372246  1
  Ti  Ti16  1  0.850007  0.994895  0.375735  1
  Ti  Ti17  1  0.001442  0.151425  0.125185  1
  Ti  Ti18  1  0.994891  0.850005  0.624109  1
  Si  Si19  1  0.202986  0.133146  0.684468  1
  Si  Si20  1  0.370892  0.700734  0.933458  1
  Si  Si21  1  0.631070  0.295769  0.433756  1
  Si  Si22  1  0.700798  0.370800  0.066565  1
  Si  Si23  1  0.296717  0.632725  0.566028  1
  Si  Si24  1  0.796012  0.867043  0.183738  1
  Si  Si25  1  0.133927  0.202196  0.315847  1
  Si  Si26  1  0.866992  0.796043  0.816259  1
  Si  Si27  1  0.287456  0.954844  0.063686  1
  Si  Si28  1  0.546681  0.792749  0.315374  1
  Si  Si29  1  0.449503  0.208955  0.818461  1
  Si  Si30  1  0.792123  0.547161  0.684991  1
  Si  Si31  1  0.208921  0.449402  0.181549  1
  Si  Si32  1  0.707678  0.048036  0.565099  1
  Si  Si33  1  0.954837  0.287366  0.936325  1
  Si  Si34  1  0.048824  0.709155  0.434666  1
  Ru  Ru35  1  0.328808  0.328845  0.000047  1
