# generated using pymatgen
data_Yb3Co3(RuO6)2
_symmetry_space_group_name_H-M   'P 1'
_cell_length_a   10.63564791
_cell_length_b   10.63564837
_cell_length_c   10.63564800
_cell_angle_alpha   109.47121993
_cell_angle_beta   109.47122081
_cell_angle_gamma   109.47121688
_symmetry_Int_Tables_number   1
_chemical_formula_structural   Yb3Co3(RuO6)2
_chemical_formula_sum   'Yb12 Co12 Ru8 O48'
_cell_volume   926.12585724
_cell_formula_units_Z   4
loop_
 _symmetry_equiv_pos_site_id
 _symmetry_equiv_pos_as_xyz
  1  'x, y, z'
loop_
 _atom_site_type_symbol
 _atom_site_label
 _atom_site_symmetry_multiplicity
 _atom_site_fract_x
 _atom_site_fract_y
 _atom_site_fract_z
 _atom_site_occupancy
  Yb  Yb0  1  0.750000  0.374999  0.124999  1
  Yb  Yb1  1  0.375001  0.250001  0.125001  1
  Yb  Yb2  1  0.124999  0.374999  0.250000  1
  Yb  Yb3  1  0.625000  0.875001  0.250001  1
  Yb  Yb4  1  0.250000  0.124999  0.375000  1
  Yb  Yb5  1  0.125000  0.749999  0.375000  1
  Yb  Yb6  1  0.874999  0.250000  0.624998  1
  Yb  Yb7  1  0.750000  0.874999  0.625001  1
  Yb  Yb8  1  0.875001  0.625001  0.750001  1
  Yb  Yb9  1  0.375000  0.125002  0.750001  1
  Yb  Yb10  1  0.250000  0.625000  0.874999  1
  Yb  Yb11  1  0.625000  0.749999  0.875000  1
  Co  Co12  1  0.874999  0.750000  0.125000  1
  Co  Co13  1  0.250001  0.875000  0.125000  1
  Co  Co14  1  0.875000  0.125001  0.250000  1
  Co  Co15  1  0.375000  0.625002  0.250001  1
  Co  Co16  1  0.749999  0.625000  0.375000  1
  Co  Co17  1  0.624999  0.249998  0.375000  1
  Co  Co18  1  0.374999  0.750000  0.624999  1
  Co  Co19  1  0.250000  0.375000  0.624999  1
  Co  Co20  1  0.125000  0.875002  0.750001  1
  Co  Co21  1  0.625000  0.375001  0.750001  1
  Co  Co22  1  0.750000  0.125000  0.874999  1
  Co  Co23  1  0.125002  0.250001  0.875002  1
  Ru  Ru24  1  0.000000  0.000000  0.000000  1
  Ru  Ru25  1  0.499999  0.000000  0.000000  1
  Ru  Ru26  1  0.500000  0.499999  0.000000  1
  Ru  Ru27  1  0.000000  0.500001  0.000000  1
  Ru  Ru28  1  0.499999  0.499999  0.499998  1
  Ru  Ru29  1  0.000000  0.499999  0.500000  1
  Ru  Ru30  1  0.500000  0.000000  0.500000  1
  Ru  Ru31  1  0.000000  0.000000  0.500001  1
  O  O32  1  0.117102  0.202376  0.026281  1
  O  O33  1  0.909180  0.323908  0.026282  1
  O  O34  1  0.676093  0.973718  0.090820  1
  O  O35  1  0.414727  0.617102  0.090821  1
  O  O36  1  0.409178  0.882899  0.085272  1
  O  O37  1  0.676094  0.702375  0.085273  1
  O  O38  1  0.202375  0.026279  0.117101  1
  O  O39  1  0.914727  0.590822  0.117102  1
  O  O40  1  0.585272  0.202375  0.176093  1
  O  O41  1  0.590819  0.473719  0.176093  1
  O  O42  1  0.176092  0.585273  0.202374  1
  O  O43  1  0.026281  0.117101  0.202374  1
  O  O44  1  0.382899  0.473719  0.297626  1
  O  O45  1  0.914727  0.323906  0.297626  1
  O  O46  1  0.297625  0.914727  0.323905  1
  O  O47  1  0.026279  0.909179  0.323906  1
  O  O48  1  0.909179  0.585274  0.382898  1
  O  O49  1  0.473719  0.297626  0.382898  1
  O  O50  1  0.617100  0.090821  0.414727  1
  O  O51  1  0.797626  0.823906  0.414727  1
  O  O52  1  0.526281  0.823907  0.409180  1
  O  O53  1  0.882899  0.085273  0.409180  1
  O  O54  1  0.297625  0.382898  0.473719  1
  O  O55  1  0.176096  0.590821  0.473721  1
  O  O56  1  0.823906  0.409179  0.526280  1
  O  O57  1  0.702374  0.617103  0.526281  1
  O  O58  1  0.117101  0.914727  0.590820  1
  O  O59  1  0.473720  0.176094  0.590821  1
  O  O60  1  0.202374  0.176093  0.585272  1
  O  O61  1  0.382899  0.909179  0.585274  1
  O  O62  1  0.526281  0.702375  0.617101  1
  O  O63  1  0.090820  0.414727  0.617101  1
  O  O64  1  0.973720  0.090821  0.676094  1
  O  O65  1  0.702374  0.085273  0.676094  1
  O  O66  1  0.617101  0.526281  0.702374  1
  O  O67  1  0.085273  0.676095  0.702375  1
  O  O68  1  0.973719  0.882899  0.797625  1
  O  O69  1  0.823907  0.414728  0.797626  1
  O  O70  1  0.409180  0.526280  0.823906  1
  O  O71  1  0.414726  0.797626  0.823906  1
  O  O72  1  0.797625  0.973719  0.882899  1
  O  O73  1  0.085273  0.409179  0.882899  1
  O  O74  1  0.590821  0.117100  0.914727  1
  O  O75  1  0.323905  0.297625  0.914727  1
  O  O76  1  0.323906  0.026280  0.909179  1
  O  O77  1  0.585273  0.382898  0.909179  1
  O  O78  1  0.090820  0.676093  0.973720  1
  O  O79  1  0.882899  0.797626  0.973720  1
