# generated using pymatgen
data_TmLu2AlSn2Pt3
_symmetry_space_group_name_H-M   'P 1'
_cell_length_a   7.53964837
_cell_length_b   7.45996048
_cell_length_c   3.79584600
_cell_angle_alpha   90.00000000
_cell_angle_beta   90.00000000
_cell_angle_gamma   119.62718394
_symmetry_Int_Tables_number   1
_chemical_formula_structural   TmLu2AlSn2Pt3
_chemical_formula_sum   'Tm1 Lu2 Al1 Sn2 Pt3'
_cell_volume   185.58639646
_cell_formula_units_Z   1
loop_
 _symmetry_equiv_pos_site_id
 _symmetry_equiv_pos_as_xyz
  1  'x, y, z'
loop_
 _atom_site_type_symbol
 _atom_site_label
 _atom_site_symmetry_multiplicity
 _atom_site_fract_x
 _atom_site_fract_y
 _atom_site_fract_z
 _atom_site_occupancy
  Tm  Tm0  1  0.394770  0.991959  0.000000  1
  Lu  Lu1  1  0.000087  0.411087  0.000000  1
  Lu  Lu2  1  0.606296  0.597503  0.000000  1
  Al  Al3  1  0.999629  0.739515  0.500000  1
  Sn  Sn4  1  0.262805  0.261632  0.500000  1
  Sn  Sn5  1  0.737135  0.998451  0.500000  1
  Pt  Pt6  1  0.319883  0.669038  0.500000  1
  Pt  Pt7  1  0.680275  0.351199  0.500000  1
  Pt  Pt8  1  0.999121  0.979614  0.000000  1
