# generated using pymatgen
data_U2Ta7MoS16
_symmetry_space_group_name_H-M   'P 1'
_cell_length_a   6.65479109
_cell_length_b   6.65479070
_cell_length_c   14.16460800
_cell_angle_alpha   90.00000000
_cell_angle_beta   90.00000000
_cell_angle_gamma   119.98145868
_symmetry_Int_Tables_number   1
_chemical_formula_structural   U2Ta7MoS16
_chemical_formula_sum   'U2 Ta7 Mo1 S16'
_cell_volume   543.35682973
_cell_formula_units_Z   1
loop_
 _symmetry_equiv_pos_site_id
 _symmetry_equiv_pos_as_xyz
  1  'x, y, z'
loop_
 _atom_site_type_symbol
 _atom_site_label
 _atom_site_symmetry_multiplicity
 _atom_site_fract_x
 _atom_site_fract_y
 _atom_site_fract_z
 _atom_site_occupancy
  U  U0  1  0.999835  0.000165  0.497615  1
  U  U1  1  0.999835  0.000165  0.002385  1
  Ta  Ta2  1  0.009564  0.505065  0.250000  1
  Ta  Ta3  1  0.494935  0.990436  0.250000  1
  Ta  Ta4  1  0.506853  0.009729  0.750000  1
  Ta  Ta5  1  0.990271  0.493147  0.750000  1
  Ta  Ta6  1  0.495187  0.504813  0.250000  1
  Ta  Ta7  1  0.999344  0.000656  0.750000  1
  Ta  Ta8  1  0.000000  0.000000  0.250000  1
  Mo  Mo9  1  0.503829  0.496171  0.750000  1
  S  S10  1  0.831299  0.168701  0.361056  1
  S  S11  1  0.831134  0.662795  0.361138  1
  S  S12  1  0.337205  0.168866  0.361138  1
  S  S13  1  0.662787  0.828906  0.859812  1
  S  S14  1  0.171094  0.337213  0.640188  1
  S  S15  1  0.168220  0.831780  0.860474  1
  S  S16  1  0.171094  0.337213  0.859812  1
  S  S17  1  0.831299  0.168701  0.138944  1
  S  S18  1  0.337205  0.168866  0.138862  1
  S  S19  1  0.662787  0.828906  0.640188  1
  S  S20  1  0.333274  0.666726  0.135612  1
  S  S21  1  0.665162  0.334838  0.637436  1
  S  S22  1  0.665162  0.334838  0.862564  1
  S  S23  1  0.333274  0.666726  0.364388  1
  S  S24  1  0.831134  0.662795  0.138862  1
  S  S25  1  0.168220  0.831780  0.639526  1
