# generated using pymatgen
data_Zr4GaTc24
_symmetry_space_group_name_H-M   'P 1'
_cell_length_a   8.39822035
_cell_length_b   8.39822024
_cell_length_c   8.39822000
_cell_angle_alpha   109.47122247
_cell_angle_beta   109.47122221
_cell_angle_gamma   109.47121932
_symmetry_Int_Tables_number   1
_chemical_formula_structural   Zr4GaTc24
_chemical_formula_sum   'Zr4 Ga1 Tc24'
_cell_volume   455.97378004
_cell_formula_units_Z   1
loop_
 _symmetry_equiv_pos_site_id
 _symmetry_equiv_pos_as_xyz
  1  'x, y, z'
loop_
 _atom_site_type_symbol
 _atom_site_label
 _atom_site_symmetry_multiplicity
 _atom_site_fract_x
 _atom_site_fract_y
 _atom_site_fract_z
 _atom_site_occupancy
  Zr  Zr0  1  0.631376  0.000000  0.000000  1
  Zr  Zr1  1  0.000000  0.631376  0.000000  1
  Zr  Zr2  1  0.000000  0.000000  0.631376  1
  Zr  Zr3  1  0.368624  0.368624  0.368624  1
  Ga  Ga4  1  0.000000  0.000000  0.000000  1
  Tc  Tc5  1  0.392591  0.673194  0.000000  1
  Tc  Tc6  1  0.719397  0.326806  0.326806  1
  Tc  Tc7  1  0.392591  0.000000  0.673194  1
  Tc  Tc8  1  0.673194  0.392591  0.000000  1
  Tc  Tc9  1  0.000000  0.392591  0.673194  1
  Tc  Tc10  1  0.326806  0.719397  0.326806  1
  Tc  Tc11  1  0.326806  0.326806  0.719397  1
  Tc  Tc12  1  0.000000  0.673194  0.392591  1
  Tc  Tc13  1  0.673194  0.000000  0.392591  1
  Tc  Tc14  1  0.607409  0.607409  0.280603  1
  Tc  Tc15  1  0.280603  0.607409  0.607409  1
  Tc  Tc16  1  0.607409  0.280603  0.607409  1
  Tc  Tc17  1  0.373796  0.193529  0.000000  1
  Tc  Tc18  1  0.180268  0.806471  0.806471  1
  Tc  Tc19  1  0.373796  0.000000  0.193529  1
  Tc  Tc20  1  0.193529  0.373796  0.000000  1
  Tc  Tc21  1  0.000000  0.373796  0.193529  1
  Tc  Tc22  1  0.806471  0.180268  0.806471  1
  Tc  Tc23  1  0.806471  0.806471  0.180268  1
  Tc  Tc24  1  0.000000  0.193529  0.373796  1
  Tc  Tc25  1  0.193529  0.000000  0.373796  1
  Tc  Tc26  1  0.626204  0.626204  0.819732  1
  Tc  Tc27  1  0.819732  0.626204  0.626204  1
  Tc  Tc28  1  0.626204  0.819732  0.626204  1
