# generated using pymatgen
data_Hf9Ta(Si3N)2
_symmetry_space_group_name_H-M   'P 1'
_cell_length_a   7.80516200
_cell_length_b   7.80516237
_cell_length_c   5.50920500
_cell_angle_alpha   90.00000000
_cell_angle_beta   90.00000000
_cell_angle_gamma   119.99999843
_symmetry_Int_Tables_number   1
_chemical_formula_structural   Hf9Ta(Si3N)2
_chemical_formula_sum   'Hf9 Ta1 Si6 N2'
_cell_volume   290.65877248
_cell_formula_units_Z   1
loop_
 _symmetry_equiv_pos_site_id
 _symmetry_equiv_pos_as_xyz
  1  'x, y, z'
loop_
 _atom_site_type_symbol
 _atom_site_label
 _atom_site_symmetry_multiplicity
 _atom_site_fract_x
 _atom_site_fract_y
 _atom_site_fract_z
 _atom_site_occupancy
  Hf  Hf0  1  0.235375  0.999472  0.249424  1
  Hf  Hf1  1  0.764097  0.999472  0.750576  1
  Hf  Hf2  1  0.000528  0.235903  0.249424  1
  Hf  Hf3  1  0.000528  0.764625  0.750576  1
  Hf  Hf4  1  0.764097  0.764625  0.249424  1
  Hf  Hf5  1  0.235375  0.235903  0.750576  1
  Hf  Hf6  1  0.666667  0.333333  0.000000  1
  Hf  Hf7  1  0.666667  0.333333  0.500000  1
  Hf  Hf8  1  0.333333  0.666667  0.500000  1
  Ta  Ta9  1  0.333333  0.666667  0.000000  1
  Si  Si10  1  0.593211  0.997727  0.245821  1
  Si  Si11  1  0.404516  0.997727  0.754179  1
  Si  Si12  1  0.002273  0.595484  0.245821  1
  Si  Si13  1  0.002273  0.406789  0.754179  1
  Si  Si14  1  0.404516  0.406789  0.245821  1
  Si  Si15  1  0.593211  0.595484  0.754179  1
  N  N16  1  0.000000  0.000000  0.000000  1
  N  N17  1  0.000000  0.000000  0.500000  1
