# generated using pymatgen
data_La7Nd5(CoCl3)4
_symmetry_space_group_name_H-M   'P 1'
_cell_length_a   10.07788732
_cell_length_b   10.09167464
_cell_length_c   10.04264200
_cell_angle_alpha   108.64506246
_cell_angle_beta   110.54739617
_cell_angle_gamma   109.14546382
_symmetry_Int_Tables_number   1
_chemical_formula_structural   La7Nd5(CoCl3)4
_chemical_formula_sum   'La7 Nd5 Co4 Cl12'
_cell_volume   786.80526782
_cell_formula_units_Z   1
loop_
 _symmetry_equiv_pos_site_id
 _symmetry_equiv_pos_as_xyz
  1  'x, y, z'
loop_
 _atom_site_type_symbol
 _atom_site_label
 _atom_site_symmetry_multiplicity
 _atom_site_fract_x
 _atom_site_fract_y
 _atom_site_fract_z
 _atom_site_occupancy
  La  La0  1  0.019500  0.490237  0.762679  1
  La  La1  1  0.479339  0.244438  0.471478  1
  La  La2  1  0.274625  0.008009  0.030741  1
  La  La3  1  0.757021  0.241803  0.265221  1
  La  La4  1  0.739781  0.012069  0.479965  1
  La  La5  1  0.467390  0.491243  0.225518  1
  La  La6  1  0.033429  0.258829  0.020774  1
  Nd  Nd7  1  0.261572  0.753606  0.244383  1
  Nd  Nd8  1  0.487669  0.746448  0.008895  1
  Nd  Nd9  1  0.234909  0.474714  0.491111  1
  Nd  Nd10  1  0.009634  0.023076  0.262943  1
  Nd  Nd11  1  0.233262  0.256362  0.740865  1
  Co  Co12  1  0.498548  0.001578  0.248635  1
  Co  Co13  1  0.249374  0.498578  0.000407  1
  Co  Co14  1  0.994757  0.248781  0.496611  1
  Co  Co15  1  0.251115  0.250134  0.250963  1
  Cl  Cl16  1  0.245605  0.990712  0.500956  1
  Cl  Cl17  1  0.508638  0.506568  0.758059  1
  Cl  Cl18  1  0.256259  0.753391  0.744260  1
  Cl  Cl19  1  0.993118  0.748020  0.004675  1
  Cl  Cl20  1  0.003916  0.512974  0.255522  1
  Cl  Cl21  1  0.743604  0.987738  0.989579  1
  Cl  Cl22  1  0.755714  0.746813  0.244626  1
  Cl  Cl23  1  0.497694  0.753299  0.508699  1
  Cl  Cl24  1  0.502487  0.249447  0.990178  1
  Cl  Cl25  1  0.753341  0.508954  0.502496  1
  Cl  Cl26  1  0.745325  0.249579  0.755041  1
  Cl  Cl27  1  0.002374  0.992603  0.744719  1
