# generated using pymatgen
data_Sm7FeBr12
_symmetry_space_group_name_H-M   'P 1'
_cell_length_a   9.37428543
_cell_length_b   9.37428499
_cell_length_c   9.37428608
_cell_angle_alpha   106.84583277
_cell_angle_beta   106.84583689
_cell_angle_gamma   106.84583521
_symmetry_Int_Tables_number   1
_chemical_formula_structural   Sm7FeBr12
_chemical_formula_sum   'Sm7 Fe1 Br12'
_cell_volume   688.92187200
_cell_formula_units_Z   1
loop_
 _symmetry_equiv_pos_site_id
 _symmetry_equiv_pos_as_xyz
  1  'x, y, z'
loop_
 _atom_site_type_symbol
 _atom_site_label
 _atom_site_symmetry_multiplicity
 _atom_site_fract_x
 _atom_site_fract_y
 _atom_site_fract_z
 _atom_site_occupancy
  Sm  Sm0  1  0.000000  0.000000  0.000000  1
  Sm  Sm1  1  0.596924  0.519306  0.803607  1
  Sm  Sm2  1  0.519306  0.803607  0.596924  1
  Sm  Sm3  1  0.803607  0.596924  0.519306  1
  Sm  Sm4  1  0.403076  0.480694  0.196393  1
  Sm  Sm5  1  0.480694  0.196393  0.403076  1
  Sm  Sm6  1  0.196393  0.403076  0.480694  1
  Fe  Fe7  1  0.500000  0.500000  0.500000  1
  Br  Br8  1  0.569909  0.180201  0.723013  1
  Br  Br9  1  0.180201  0.723013  0.569909  1
  Br  Br10  1  0.723013  0.569909  0.180201  1
  Br  Br11  1  0.430091  0.819799  0.276987  1
  Br  Br12  1  0.819799  0.276987  0.430091  1
  Br  Br13  1  0.276987  0.430091  0.819799  1
  Br  Br14  1  0.665208  0.883206  0.960671  1
  Br  Br15  1  0.883206  0.960671  0.665208  1
  Br  Br16  1  0.960671  0.665208  0.883206  1
  Br  Br17  1  0.334792  0.116794  0.039329  1
  Br  Br18  1  0.116794  0.039329  0.334792  1
  Br  Br19  1  0.039329  0.334792  0.116794  1
