# generated using pymatgen
data_Dy2Al9Ni2Os
_symmetry_space_group_name_H-M   'P 1'
_cell_length_a   7.44617200
_cell_length_b   7.44617211
_cell_length_c   9.37090500
_cell_angle_alpha   90.00000000
_cell_angle_beta   90.00000000
_cell_angle_gamma   118.65570171
_symmetry_Int_Tables_number   1
_chemical_formula_structural   Dy2Al9Ni2Os
_chemical_formula_sum   'Dy4 Al18 Ni4 Os2'
_cell_volume   455.93538630
_cell_formula_units_Z   2
loop_
 _symmetry_equiv_pos_site_id
 _symmetry_equiv_pos_as_xyz
  1  'x, y, z'
loop_
 _atom_site_type_symbol
 _atom_site_label
 _atom_site_symmetry_multiplicity
 _atom_site_fract_x
 _atom_site_fract_y
 _atom_site_fract_z
 _atom_site_occupancy
  Dy  Dy0  1  0.993968  0.678559  0.250000  1
  Dy  Dy1  1  0.006032  0.321441  0.750000  1
  Dy  Dy2  1  0.678559  0.993968  0.250000  1
  Dy  Dy3  1  0.321441  0.006032  0.750000  1
  Al  Al4  1  0.136220  0.136220  0.250000  1
  Al  Al5  1  0.863780  0.863780  0.750000  1
  Al  Al6  1  0.998496  0.338648  0.073534  1
  Al  Al7  1  0.001504  0.661352  0.926466  1
  Al  Al8  1  0.001504  0.661352  0.573534  1
  Al  Al9  1  0.338648  0.998496  0.426466  1
  Al  Al10  1  0.998496  0.338648  0.426466  1
  Al  Al11  1  0.661352  0.001504  0.573534  1
  Al  Al12  1  0.661352  0.001504  0.926466  1
  Al  Al13  1  0.338648  0.998496  0.073534  1
  Al  Al14  1  0.334551  0.334551  0.546256  1
  Al  Al15  1  0.665449  0.665449  0.453744  1
  Al  Al16  1  0.665449  0.665449  0.046256  1
  Al  Al17  1  0.334551  0.334551  0.953744  1
  Al  Al18  1  0.343311  0.557677  0.250000  1
  Al  Al19  1  0.656689  0.442323  0.750000  1
  Al  Al20  1  0.557677  0.343311  0.250000  1
  Al  Al21  1  0.442323  0.656689  0.750000  1
  Ni  Ni22  1  0.670243  0.329757  0.000000  1
  Ni  Ni23  1  0.329757  0.670243  0.000000  1
  Ni  Ni24  1  0.329757  0.670243  0.500000  1
  Ni  Ni25  1  0.670243  0.329757  0.500000  1
  Os  Os26  1  0.000000  0.000000  0.000000  1
  Os  Os27  1  0.000000  0.000000  0.500000  1
