# generated using pymatgen
data_NdY3LuSc(Cu2Sb3)2
_symmetry_space_group_name_H-M   'P 1'
_cell_length_a   4.35291600
_cell_length_b   4.35291578
_cell_length_c   23.22363600
_cell_angle_alpha   90.00000000
_cell_angle_beta   90.00000000
_cell_angle_gamma   120.00001690
_symmetry_Int_Tables_number   1
_chemical_formula_structural   NdY3LuSc(Cu2Sb3)2
_chemical_formula_sum   'Nd1 Y3 Lu1 Sc1 Cu4 Sb6'
_cell_volume   381.08453445
_cell_formula_units_Z   1
loop_
 _symmetry_equiv_pos_site_id
 _symmetry_equiv_pos_as_xyz
  1  'x, y, z'
loop_
 _atom_site_type_symbol
 _atom_site_label
 _atom_site_symmetry_multiplicity
 _atom_site_fract_x
 _atom_site_fract_y
 _atom_site_fract_z
 _atom_site_occupancy
  Nd  Nd0  1  0.666667  0.333333  0.580091  1
  Y  Y1  1  0.666667  0.333333  0.921081  1
  Y  Y2  1  0.333333  0.666667  0.075925  1
  Y  Y3  1  0.333333  0.666667  0.421279  1
  Lu  Lu4  1  0.333333  0.666667  0.248759  1
  Sc  Sc5  1  0.666667  0.333333  0.752557  1
  Cu  Cu6  1  0.000000  0.000000  0.806428  1
  Cu  Cu7  1  0.000000  0.000000  0.192508  1
  Cu  Cu8  1  0.000000  0.000000  0.304359  1
  Cu  Cu9  1  0.000000  0.000000  0.697808  1
  Sb  Sb10  1  0.333333  0.666667  0.666073  1
  Sb  Sb11  1  0.000000  0.000000  0.497747  1
  Sb  Sb12  1  0.666667  0.333333  0.339805  1
  Sb  Sb13  1  0.333333  0.666667  0.839783  1
  Sb  Sb14  1  0.666667  0.333333  0.157299  1
  Sb  Sb15  1  0.000000  0.000000  0.998500  1
