# generated using pymatgen
data_Tb3DyEr8(GaCo2)2
_symmetry_space_group_name_H-M   'P 1'
_cell_length_a   8.21391742
_cell_length_b   8.21391761
_cell_length_c   8.21875462
_cell_angle_alpha   106.97717444
_cell_angle_beta   109.20500312
_cell_angle_gamma   112.25284624
_symmetry_Int_Tables_number   1
_chemical_formula_structural   Tb3DyEr8(GaCo2)2
_chemical_formula_sum   'Tb3 Dy1 Er8 Ga2 Co4'
_cell_volume   426.06063564
_cell_formula_units_Z   1
loop_
 _symmetry_equiv_pos_site_id
 _symmetry_equiv_pos_as_xyz
  1  'x, y, z'
loop_
 _atom_site_type_symbol
 _atom_site_label
 _atom_site_symmetry_multiplicity
 _atom_site_fract_x
 _atom_site_fract_y
 _atom_site_fract_z
 _atom_site_occupancy
  Tb  Tb0  1  0.301466  0.738639  0.040105  1
  Tb  Tb1  1  0.698530  0.738500  0.437030  1
  Tb  Tb2  1  0.301591  0.261455  0.563045  1
  Dy  Dy3  1  0.698567  0.261481  0.960048  1
  Er  Er4  1  0.811447  0.139104  0.327417  1
  Er  Er5  1  0.811503  0.483856  0.672577  1
  Er  Er6  1  0.188721  0.861074  0.672577  1
  Er  Er7  1  0.188312  0.515970  0.327417  1
  Er  Er8  1  0.601958  0.781268  0.820884  1
  Er  Er9  1  0.960006  0.780775  0.179200  1
  Er  Er10  1  0.039617  0.218925  0.820884  1
  Er  Er11  1  0.398425  0.219193  0.179200  1
  Ga  Ga12  1  0.500157  0.499724  0.999881  1
  Ga  Ga13  1  0.500152  0.000091  0.500242  1
  Co  Co14  1  0.838999  0.499860  0.338859  1
  Co  Co15  1  0.160806  0.500007  0.660813  1
  Co  Co16  1  0.999771  0.115249  0.115020  1
  Co  Co17  1  0.999972  0.884829  0.884801  1
