# generated using pymatgen
data_Lu9Th3Tc3Ru
_symmetry_space_group_name_H-M   'P 1'
_cell_length_a   6.26289242
_cell_length_b   7.28373714
_cell_length_c   9.18062700
_cell_angle_alpha   90.00000000
_cell_angle_beta   90.00000000
_cell_angle_gamma   90.28263894
_symmetry_Int_Tables_number   1
_chemical_formula_structural   Lu9Th3Tc3Ru
_chemical_formula_sum   'Lu9 Th3 Tc3 Ru1'
_cell_volume   418.78997261
_cell_formula_units_Z   1
loop_
 _symmetry_equiv_pos_site_id
 _symmetry_equiv_pos_as_xyz
  1  'x, y, z'
loop_
 _atom_site_type_symbol
 _atom_site_label
 _atom_site_symmetry_multiplicity
 _atom_site_fract_x
 _atom_site_fract_y
 _atom_site_fract_z
 _atom_site_occupancy
  Lu  Lu0  1  0.336414  0.680366  0.062954  1
  Lu  Lu1  1  0.163238  0.171657  0.437809  1
  Lu  Lu2  1  0.660733  0.323105  0.567362  1
  Lu  Lu3  1  0.833407  0.825358  0.932129  1
  Lu  Lu4  1  0.660733  0.323105  0.932638  1
  Lu  Lu5  1  0.833407  0.825358  0.567871  1
  Lu  Lu6  1  0.336414  0.680366  0.437046  1
  Lu  Lu7  1  0.163238  0.171657  0.062191  1
  Lu  Lu8  1  0.372526  0.959286  0.750000  1
  Th  Th9  1  0.867089  0.545997  0.250000  1
  Th  Th10  1  0.633965  0.048627  0.250000  1
  Th  Th11  1  0.139071  0.453963  0.750000  1
  Tc  Tc12  1  0.020060  0.870809  0.250000  1
  Tc  Tc13  1  0.474841  0.371434  0.250000  1
  Tc  Tc14  1  0.974421  0.130922  0.750000  1
  Ru  Ru15  1  0.530440  0.617988  0.750000  1
