# generated using pymatgen
data_Li3Ca5Lu3Si12Ag
_symmetry_space_group_name_H-M   'P 1'
_cell_length_a   4.27757900
_cell_length_b   10.43506812
_cell_length_c   10.94081300
_cell_angle_alpha   89.93214072
_cell_angle_beta   90.00000000
_cell_angle_gamma   90.00000000
_symmetry_Int_Tables_number   1
_chemical_formula_structural   Li3Ca5Lu3Si12Ag
_chemical_formula_sum   'Li3 Ca5 Lu3 Si12 Ag1'
_cell_volume   488.36284854
_cell_formula_units_Z   1
loop_
 _symmetry_equiv_pos_site_id
 _symmetry_equiv_pos_as_xyz
  1  'x, y, z'
loop_
 _atom_site_type_symbol
 _atom_site_label
 _atom_site_symmetry_multiplicity
 _atom_site_fract_x
 _atom_site_fract_y
 _atom_site_fract_z
 _atom_site_occupancy
  Li  Li0  1  0.500000  0.141078  0.716434  1
  Li  Li1  1  0.000000  0.360908  0.217980  1
  Li  Li2  1  0.000000  0.637699  0.784228  1
  Ca  Ca3  1  0.000000  0.947324  0.849863  1
  Ca  Ca4  1  0.500000  0.824678  0.576895  1
  Ca  Ca5  1  0.500000  0.177820  0.423291  1
  Ca  Ca6  1  0.000000  0.321917  0.924417  1
  Ca  Ca7  1  0.000000  0.677172  0.077200  1
  Lu  Lu8  1  0.500000  0.553738  0.351252  1
  Lu  Lu9  1  0.500000  0.448185  0.646375  1
  Lu  Lu10  1  0.000000  0.051147  0.148553  1
  Si  Si11  1  0.500000  0.893795  0.046052  1
  Si  Si12  1  0.500000  0.108921  0.961202  1
  Si  Si13  1  0.000000  0.396464  0.453848  1
  Si  Si14  1  0.000000  0.607297  0.545813  1
  Si  Si15  1  0.000000  0.969503  0.394375  1
  Si  Si16  1  0.000000  0.035262  0.597155  1
  Si  Si17  1  0.500000  0.464411  0.103775  1
  Si  Si18  1  0.500000  0.530960  0.898181  1
  Si  Si19  1  0.000000  0.262448  0.634935  1
  Si  Si20  1  0.000000  0.737939  0.362360  1
  Si  Si21  1  0.500000  0.754809  0.866595  1
  Si  Si22  1  0.500000  0.239466  0.140860  1
  Ag  Ag23  1  0.500000  0.857059  0.278359  1
