# generated using pymatgen
data_TlAgF4
_symmetry_space_group_name_H-M   'P 1'
_cell_length_a   3.58961900
_cell_length_b   5.41504601
_cell_length_c   5.45641045
_cell_angle_alpha   92.48489228
_cell_angle_beta   90.00000000
_cell_angle_gamma   90.00000000
_symmetry_Int_Tables_number   1
_chemical_formula_structural   TlAgF4
_chemical_formula_sum   'Tl1 Ag1 F4'
_cell_volume   105.96171389
_cell_formula_units_Z   1
loop_
 _symmetry_equiv_pos_site_id
 _symmetry_equiv_pos_as_xyz
  1  'x, y, z'
loop_
 _atom_site_type_symbol
 _atom_site_label
 _atom_site_symmetry_multiplicity
 _atom_site_fract_x
 _atom_site_fract_y
 _atom_site_fract_z
 _atom_site_occupancy
  Tl  Tl0  1  0.500000  0.500000  0.500000  1
  Ag  Ag1  1  0.000000  0.000000  0.000000  1
  F  F2  1  0.000000  0.668900  0.306119  1
  F  F3  1  0.500000  0.798678  0.769464  1
  F  F4  1  0.500000  0.201322  0.230536  1
  F  F5  1  0.000000  0.331100  0.693881  1
