# generated using pymatgen
data_Nd7(Pd4Au)2
_symmetry_space_group_name_H-M   'P 1'
_cell_length_a   8.78422000
_cell_length_b   8.78421983
_cell_length_c   10.46833200
_cell_angle_alpha   90.00000000
_cell_angle_beta   90.00000000
_cell_angle_gamma   107.15019410
_symmetry_Int_Tables_number   1
_chemical_formula_structural   Nd7(Pd4Au)2
_chemical_formula_sum   'Nd14 Pd16 Au4'
_cell_volume   771.84573954
_cell_formula_units_Z   2
loop_
 _symmetry_equiv_pos_site_id
 _symmetry_equiv_pos_as_xyz
  1  'x, y, z'
loop_
 _atom_site_type_symbol
 _atom_site_label
 _atom_site_symmetry_multiplicity
 _atom_site_fract_x
 _atom_site_fract_y
 _atom_site_fract_z
 _atom_site_occupancy
  Nd  Nd0  1  0.697067  0.302933  0.000000  1
  Nd  Nd1  1  0.302933  0.697067  0.000000  1
  Nd  Nd2  1  0.802933  0.197067  0.500000  1
  Nd  Nd3  1  0.197067  0.802933  0.500000  1
  Nd  Nd4  1  0.000000  0.000000  0.000000  1
  Nd  Nd5  1  0.500000  0.500000  0.500000  1
  Nd  Nd6  1  0.000107  0.500107  0.250000  1
  Nd  Nd7  1  0.999893  0.499893  0.750000  1
  Nd  Nd8  1  0.499893  0.999893  0.750000  1
  Nd  Nd9  1  0.500107  0.000107  0.250000  1
  Nd  Nd10  1  0.312843  0.312843  0.187985  1
  Nd  Nd11  1  0.687157  0.687157  0.812015  1
  Nd  Nd12  1  0.187157  0.187157  0.687985  1
  Nd  Nd13  1  0.812843  0.812843  0.312015  1
  Pd  Pd14  1  0.859111  0.150643  0.208814  1
  Pd  Pd15  1  0.140889  0.849357  0.791186  1
  Pd  Pd16  1  0.640889  0.349357  0.708814  1
  Pd  Pd17  1  0.650643  0.359111  0.291186  1
  Pd  Pd18  1  0.359111  0.650643  0.291186  1
  Pd  Pd19  1  0.349357  0.640889  0.708814  1
  Pd  Pd20  1  0.849357  0.140889  0.791186  1
  Pd  Pd21  1  0.150643  0.859111  0.208814  1
  Pd  Pd22  1  0.934699  0.645938  0.004629  1
  Pd  Pd23  1  0.065301  0.354062  0.995371  1
  Pd  Pd24  1  0.565301  0.854062  0.504629  1
  Pd  Pd25  1  0.145938  0.434699  0.495371  1
  Pd  Pd26  1  0.434699  0.145938  0.495371  1
  Pd  Pd27  1  0.854062  0.565301  0.504629  1
  Pd  Pd28  1  0.354062  0.065301  0.995371  1
  Pd  Pd29  1  0.645938  0.934699  0.004629  1
  Au  Au30  1  0.103326  0.103326  0.395955  1
  Au  Au31  1  0.896674  0.896674  0.604045  1
  Au  Au32  1  0.396674  0.396674  0.895955  1
  Au  Au33  1  0.603326  0.603326  0.104045  1
