# generated using pymatgen
data_Lu9Si4B16Au
_symmetry_space_group_name_H-M   'P 1'
_cell_length_a   7.09350800
_cell_length_b   7.09350800
_cell_length_c   7.68328200
_cell_angle_alpha   90.00000000
_cell_angle_beta   90.00000000
_cell_angle_gamma   90.00000000
_symmetry_Int_Tables_number   1
_chemical_formula_structural   Lu9Si4B16Au
_chemical_formula_sum   'Lu9 Si4 B16 Au1'
_cell_volume   386.60627533
_cell_formula_units_Z   1
loop_
 _symmetry_equiv_pos_site_id
 _symmetry_equiv_pos_as_xyz
  1  'x, y, z'
loop_
 _atom_site_type_symbol
 _atom_site_label
 _atom_site_symmetry_multiplicity
 _atom_site_fract_x
 _atom_site_fract_y
 _atom_site_fract_z
 _atom_site_occupancy
  Lu  Lu0  1  0.680088  0.180773  0.229803  1
  Lu  Lu1  1  0.319912  0.819227  0.770197  1
  Lu  Lu2  1  0.319912  0.819227  0.229803  1
  Lu  Lu3  1  0.819227  0.680088  0.229803  1
  Lu  Lu4  1  0.819227  0.680088  0.770197  1
  Lu  Lu5  1  0.680088  0.180773  0.770197  1
  Lu  Lu6  1  0.180773  0.319912  0.770197  1
  Lu  Lu7  1  0.180773  0.319912  0.229803  1
  Lu  Lu8  1  0.500000  0.500000  0.500000  1
  Si  Si9  1  0.118398  0.615554  0.500000  1
  Si  Si10  1  0.881602  0.384446  0.500000  1
  Si  Si11  1  0.384446  0.118398  0.500000  1
  Si  Si12  1  0.615554  0.881602  0.500000  1
  B  B13  1  0.175107  0.038620  0.000000  1
  B  B14  1  0.824893  0.961380  0.000000  1
  B  B15  1  0.961380  0.175107  0.000000  1
  B  B16  1  0.327061  0.540647  0.000000  1
  B  B17  1  0.038620  0.824893  0.000000  1
  B  B18  1  0.672939  0.459353  0.000000  1
  B  B19  1  0.540647  0.672939  0.000000  1
  B  B20  1  0.459353  0.327061  0.000000  1
  B  B21  1  0.088896  0.588214  0.000000  1
  B  B22  1  0.911104  0.411786  0.000000  1
  B  B23  1  0.411786  0.088896  0.000000  1
  B  B24  1  0.588214  0.911104  0.000000  1
  B  B25  1  0.000000  0.000000  0.166207  1
  B  B26  1  0.000000  0.000000  0.833793  1
  B  B27  1  0.500000  0.500000  0.830273  1
  B  B28  1  0.500000  0.500000  0.169727  1
  Au  Au29  1  0.000000  0.000000  0.500000  1
