# generated using pymatgen
data_Pr2GaSi4Rh3
_symmetry_space_group_name_H-M   'P 1'
_cell_length_a   8.33139087
_cell_length_b   8.33139084
_cell_length_c   5.80845042
_cell_angle_alpha   70.96669207
_cell_angle_beta   70.96669093
_cell_angle_gamma   94.18681096
_symmetry_Int_Tables_number   1
_chemical_formula_structural   Pr2GaSi4Rh3
_chemical_formula_sum   'Pr4 Ga2 Si8 Rh6'
_cell_volume   352.96603217
_cell_formula_units_Z   2
loop_
 _symmetry_equiv_pos_site_id
 _symmetry_equiv_pos_as_xyz
  1  'x, y, z'
loop_
 _atom_site_type_symbol
 _atom_site_label
 _atom_site_symmetry_multiplicity
 _atom_site_fract_x
 _atom_site_fract_y
 _atom_site_fract_z
 _atom_site_occupancy
  Pr  Pr0  1  0.866170  0.599187  0.757468  1
  Pr  Pr1  1  0.133830  0.400813  0.242532  1
  Pr  Pr2  1  0.400813  0.133830  0.742532  1
  Pr  Pr3  1  0.599187  0.866170  0.257468  1
  Ga  Ga4  1  0.777019  0.222981  0.750000  1
  Ga  Ga5  1  0.222981  0.777019  0.250000  1
  Si  Si6  1  0.512941  0.487059  0.750000  1
  Si  Si7  1  0.487059  0.512941  0.250000  1
  Si  Si8  1  0.213991  0.786009  0.750000  1
  Si  Si9  1  0.786009  0.213991  0.250000  1
  Si  Si10  1  0.262292  0.057992  0.341508  1
  Si  Si11  1  0.737708  0.942008  0.658492  1
  Si  Si12  1  0.942008  0.737708  0.158492  1
  Si  Si13  1  0.057992  0.262292  0.841508  1
  Rh  Rh14  1  0.535227  0.265490  0.135243  1
  Rh  Rh15  1  0.734510  0.464773  0.364757  1
  Rh  Rh16  1  0.464773  0.734510  0.864757  1
  Rh  Rh17  1  0.265490  0.535227  0.635243  1
  Rh  Rh18  1  0.992404  0.007596  0.250000  1
  Rh  Rh19  1  0.007596  0.992404  0.750000  1
