# generated using pymatgen
data_CeLu3Ni4
_symmetry_space_group_name_H-M   'P 1'
_cell_length_a   4.32683000
_cell_length_b   5.26561748
_cell_length_c   6.71332602
_cell_angle_alpha   90.64198036
_cell_angle_beta   90.00000000
_cell_angle_gamma   90.00000000
_symmetry_Int_Tables_number   1
_chemical_formula_structural   CeLu3Ni4
_chemical_formula_sum   'Ce1 Lu3 Ni4'
_cell_volume   152.94300358
_cell_formula_units_Z   1
loop_
 _symmetry_equiv_pos_site_id
 _symmetry_equiv_pos_as_xyz
  1  'x, y, z'
loop_
 _atom_site_type_symbol
 _atom_site_label
 _atom_site_symmetry_multiplicity
 _atom_site_fract_x
 _atom_site_fract_y
 _atom_site_fract_z
 _atom_site_occupancy
  Ce  Ce0  1  0.250000  0.363422  0.680847  1
  Lu  Lu1  1  0.750000  0.641762  0.313002  1
  Lu  Lu2  1  0.750000  0.859164  0.821008  1
  Lu  Lu3  1  0.250000  0.138076  0.183004  1
  Ni  Ni4  1  0.250000  0.862820  0.536405  1
  Ni  Ni5  1  0.750000  0.138999  0.465231  1
  Ni  Ni6  1  0.750000  0.357517  0.964441  1
  Ni  Ni7  1  0.250000  0.638239  0.036062  1
