# generated using pymatgen
data_Eu2TaInO7
_symmetry_space_group_name_H-M   'P 1'
_cell_length_a   7.55194855
_cell_length_b   7.55194932
_cell_length_c   7.55194981
_cell_angle_alpha   120.93270972
_cell_angle_beta   119.27465641
_cell_angle_gamma   89.82653038
_symmetry_Int_Tables_number   1
_chemical_formula_structural   Eu2TaInO7
_chemical_formula_sum   'Eu4 Ta2 In2 O14'
_cell_volume   303.99382663
_cell_formula_units_Z   2
loop_
 _symmetry_equiv_pos_site_id
 _symmetry_equiv_pos_as_xyz
  1  'x, y, z'
loop_
 _atom_site_type_symbol
 _atom_site_label
 _atom_site_symmetry_multiplicity
 _atom_site_fract_x
 _atom_site_fract_y
 _atom_site_fract_z
 _atom_site_occupancy
  Eu  Eu0  1  0.500000  0.500000  0.500000  1
  Eu  Eu1  1  0.500000  0.000000  0.000000  1
  Eu  Eu2  1  0.500000  0.500000  0.000000  1
  Eu  Eu3  1  0.000000  0.500000  0.500000  1
  Ta  Ta4  1  0.000000  0.000000  0.000000  1
  Ta  Ta5  1  0.500000  0.000000  0.500000  1
  In  In6  1  0.000000  0.000000  0.500000  1
  In  In7  1  0.000000  0.500000  0.000000  1
  O  O8  1  0.379616  0.629616  0.750000  1
  O  O9  1  0.620384  0.370384  0.250000  1
  O  O10  1  0.302850  0.052850  0.250000  1
  O  O11  1  0.895104  0.645104  0.250000  1
  O  O12  1  0.348259  0.677147  0.275003  1
  O  O13  1  0.902143  0.073255  0.224997  1
  O  O14  1  0.348259  0.073255  0.671113  1
  O  O15  1  0.902143  0.677147  0.828887  1
  O  O16  1  0.697150  0.947150  0.750000  1
  O  O17  1  0.104896  0.354896  0.750000  1
  O  O18  1  0.651741  0.322853  0.724997  1
  O  O19  1  0.097857  0.926745  0.775003  1
  O  O20  1  0.651741  0.926745  0.328887  1
  O  O21  1  0.097857  0.322853  0.171113  1
