# generated using pymatgen
data_Hf9ReMo3As
_symmetry_space_group_name_H-M   'P 1'
_cell_length_a   8.66787200
_cell_length_b   8.66787170
_cell_length_c   8.68401900
_cell_angle_alpha   90.00000000
_cell_angle_beta   90.00000000
_cell_angle_gamma   120.00000115
_symmetry_Int_Tables_number   1
_chemical_formula_structural   Hf9ReMo3As
_chemical_formula_sum   'Hf18 Re2 Mo6 As2'
_cell_volume   565.03630769
_cell_formula_units_Z   2
loop_
 _symmetry_equiv_pos_site_id
 _symmetry_equiv_pos_as_xyz
  1  'x, y, z'
loop_
 _atom_site_type_symbol
 _atom_site_label
 _atom_site_symmetry_multiplicity
 _atom_site_fract_x
 _atom_site_fract_y
 _atom_site_fract_z
 _atom_site_occupancy
  Hf  Hf0  1  0.609986  0.804993  0.044343  1
  Hf  Hf1  1  0.804993  0.609986  0.544343  1
  Hf  Hf2  1  0.195007  0.390014  0.044343  1
  Hf  Hf3  1  0.195007  0.804993  0.044343  1
  Hf  Hf4  1  0.804993  0.195007  0.544343  1
  Hf  Hf5  1  0.390014  0.195007  0.544343  1
  Hf  Hf6  1  0.804993  0.609986  0.955657  1
  Hf  Hf7  1  0.804993  0.195007  0.955657  1
  Hf  Hf8  1  0.390014  0.195007  0.955657  1
  Hf  Hf9  1  0.609986  0.804993  0.455657  1
  Hf  Hf10  1  0.195007  0.804993  0.455657  1
  Hf  Hf11  1  0.195007  0.390014  0.455657  1
  Hf  Hf12  1  0.539081  0.078162  0.250000  1
  Hf  Hf13  1  0.460919  0.921838  0.750000  1
  Hf  Hf14  1  0.921838  0.460919  0.250000  1
  Hf  Hf15  1  0.539081  0.460919  0.250000  1
  Hf  Hf16  1  0.460919  0.539081  0.750000  1
  Hf  Hf17  1  0.078162  0.539081  0.750000  1
  Re  Re18  1  0.000000  0.000000  0.000000  1
  Re  Re19  1  0.000000  0.000000  0.500000  1
  Mo  Mo20  1  0.890486  0.780972  0.250000  1
  Mo  Mo21  1  0.109514  0.219028  0.750000  1
  Mo  Mo22  1  0.219028  0.109514  0.250000  1
  Mo  Mo23  1  0.890486  0.109514  0.250000  1
  Mo  Mo24  1  0.109514  0.890486  0.750000  1
  Mo  Mo25  1  0.780972  0.890486  0.750000  1
  As  As26  1  0.666667  0.333333  0.750000  1
  As  As27  1  0.333333  0.666667  0.250000  1
