# generated using pymatgen
data_La2(AlAu2)3
_symmetry_space_group_name_H-M   'P 1'
_cell_length_a   8.79144275
_cell_length_b   8.79144196
_cell_length_c   8.79144384
_cell_angle_alpha   57.82721326
_cell_angle_beta   57.82721884
_cell_angle_gamma   57.82721748
_symmetry_Int_Tables_number   1
_chemical_formula_structural   La2(AlAu2)3
_chemical_formula_sum   'La4 Al6 Au12'
_cell_volume   456.49982264
_cell_formula_units_Z   2
loop_
 _symmetry_equiv_pos_site_id
 _symmetry_equiv_pos_as_xyz
  1  'x, y, z'
loop_
 _atom_site_type_symbol
 _atom_site_label
 _atom_site_symmetry_multiplicity
 _atom_site_fract_x
 _atom_site_fract_y
 _atom_site_fract_z
 _atom_site_occupancy
  La  La0  1  0.408907  0.408907  0.408907  1
  La  La1  1  0.908907  0.908907  0.908907  1
  La  La2  1  0.591093  0.591093  0.591093  1
  La  La3  1  0.091093  0.091093  0.091093  1
  Al  Al4  1  0.057072  0.250000  0.442928  1
  Al  Al5  1  0.442928  0.057072  0.250000  1
  Al  Al6  1  0.250000  0.442928  0.057072  1
  Al  Al7  1  0.942928  0.750000  0.557072  1
  Al  Al8  1  0.557072  0.942928  0.750000  1
  Al  Al9  1  0.750000  0.557072  0.942928  1
  Au  Au10  1  0.976820  0.365980  0.703487  1
  Au  Au11  1  0.703487  0.976820  0.365980  1
  Au  Au12  1  0.365980  0.703487  0.976820  1
  Au  Au13  1  0.203487  0.865980  0.476820  1
  Au  Au14  1  0.476820  0.203487  0.865980  1
  Au  Au15  1  0.865980  0.476820  0.203487  1
  Au  Au16  1  0.023180  0.634020  0.296513  1
  Au  Au17  1  0.296513  0.023180  0.634020  1
  Au  Au18  1  0.634020  0.296513  0.023180  1
  Au  Au19  1  0.796513  0.134020  0.523180  1
  Au  Au20  1  0.523180  0.796513  0.134020  1
  Au  Au21  1  0.134020  0.523180  0.796513  1
