# generated using pymatgen
data_Pr11In(Hg2Rh)4
_symmetry_space_group_name_H-M   'P 1'
_cell_length_a   13.45833085
_cell_length_b   13.45535629
_cell_length_c   3.86863000
_cell_angle_alpha   90.00000000
_cell_angle_beta   90.00000000
_cell_angle_gamma   113.79792782
_symmetry_Int_Tables_number   1
_chemical_formula_structural   Pr11In(Hg2Rh)4
_chemical_formula_sum   'Pr11 In1 Hg8 Rh4'
_cell_volume   640.99180289
_cell_formula_units_Z   1
loop_
 _symmetry_equiv_pos_site_id
 _symmetry_equiv_pos_as_xyz
  1  'x, y, z'
loop_
 _atom_site_type_symbol
 _atom_site_label
 _atom_site_symmetry_multiplicity
 _atom_site_fract_x
 _atom_site_fract_y
 _atom_site_fract_z
 _atom_site_occupancy
  Pr  Pr0  1  0.500000  0.500000  0.500000  1
  Pr  Pr1  1  0.805273  0.805268  0.500000  1
  Pr  Pr2  1  0.194727  0.194732  0.500000  1
  Pr  Pr3  1  0.583378  0.917874  0.500000  1
  Pr  Pr4  1  0.416622  0.082126  0.500000  1
  Pr  Pr5  1  0.917878  0.583387  0.500000  1
  Pr  Pr6  1  0.082122  0.416613  0.500000  1
  Pr  Pr7  1  0.128541  0.871482  0.500000  1
  Pr  Pr8  1  0.871459  0.128518  0.500000  1
  Pr  Pr9  1  0.335295  0.664702  0.500000  1
  Pr  Pr10  1  0.664705  0.335298  0.500000  1
  In  In11  1  0.000000  0.000000  0.000000  1
  Hg  Hg12  1  0.347251  0.867326  0.000000  1
  Hg  Hg13  1  0.652749  0.132674  0.000000  1
  Hg  Hg14  1  0.867333  0.347256  0.000000  1
  Hg  Hg15  1  0.132667  0.652744  0.000000  1
  Hg  Hg16  1  0.567580  0.715591  0.000000  1
  Hg  Hg17  1  0.432420  0.284409  0.000000  1
  Hg  Hg18  1  0.715591  0.567581  0.000000  1
  Hg  Hg19  1  0.284409  0.432419  0.000000  1
  Rh  Rh20  1  0.755583  0.951280  0.000000  1
  Rh  Rh21  1  0.244417  0.048720  0.000000  1
  Rh  Rh22  1  0.951307  0.755601  0.000000  1
  Rh  Rh23  1  0.048693  0.244399  0.000000  1
