# generated using pymatgen
data_Ho8Sn(PdPt)12
_symmetry_space_group_name_H-M   'P 1'
_cell_length_a   8.38583500
_cell_length_b   8.39880400
_cell_length_c   8.37887000
_cell_angle_alpha   90.00000000
_cell_angle_beta   89.99796308
_cell_angle_gamma   90.00000000
_symmetry_Int_Tables_number   1
_chemical_formula_structural   Ho8Sn(PdPt)12
_chemical_formula_sum   'Ho8 Sn1 Pd12 Pt12'
_cell_volume   590.13206326
_cell_formula_units_Z   1
loop_
 _symmetry_equiv_pos_site_id
 _symmetry_equiv_pos_as_xyz
  1  'x, y, z'
loop_
 _atom_site_type_symbol
 _atom_site_label
 _atom_site_symmetry_multiplicity
 _atom_site_fract_x
 _atom_site_fract_y
 _atom_site_fract_z
 _atom_site_occupancy
  Ho  Ho0  1  0.253104  0.253101  0.252887  1
  Ho  Ho1  1  0.746736  0.745811  0.746208  1
  Ho  Ho2  1  0.746695  0.745807  0.253855  1
  Ho  Ho3  1  0.746736  0.254189  0.746208  1
  Ho  Ho4  1  0.253074  0.253050  0.747149  1
  Ho  Ho5  1  0.253104  0.746899  0.252887  1
  Ho  Ho6  1  0.253074  0.746950  0.747149  1
  Ho  Ho7  1  0.746695  0.254193  0.253855  1
  Sn  Sn8  1  0.001747  0.000000  0.000162  1
  Pd  Pd9  1  0.500459  0.000000  0.265348  1
  Pd  Pd10  1  0.264433  0.000000  0.500114  1
  Pd  Pd11  1  0.500519  0.000000  0.734468  1
  Pd  Pd12  1  0.734775  0.000000  0.500074  1
  Pd  Pd13  1  0.000065  0.500000  0.263664  1
  Pd  Pd14  1  0.000087  0.500000  0.736158  1
  Pd  Pd15  1  0.499729  0.500000  0.745443  1
  Pd  Pd16  1  0.694541  0.000000  0.999945  1
  Pd  Pd17  1  0.999148  0.307016  0.999994  1
  Pd  Pd18  1  0.999148  0.692984  0.999994  1
  Pd  Pd19  1  0.999222  0.000000  0.307838  1
  Pd  Pd20  1  0.999166  0.000000  0.692673  1
  Pt  Pt21  1  0.262890  0.500000  0.999966  1
  Pt  Pt22  1  0.735633  0.500000  0.000032  1
  Pt  Pt23  1  0.000139  0.264234  0.500080  1
  Pt  Pt24  1  0.499951  0.263965  0.000019  1
  Pt  Pt25  1  0.000139  0.735766  0.500080  1
  Pt  Pt26  1  0.499951  0.736035  0.000019  1
  Pt  Pt27  1  0.253424  0.500000  0.499884  1
  Pt  Pt28  1  0.746688  0.500000  0.499918  1
  Pt  Pt29  1  0.499821  0.253997  0.499920  1
  Pt  Pt30  1  0.499821  0.746003  0.499920  1
  Pt  Pt31  1  0.499670  0.500000  0.254139  1
  Pt  Pt32  1  0.309615  0.000000  0.999949  1
