# generated using pymatgen
data_RbNbBr6
_symmetry_space_group_name_H-M   'P 1'
_cell_length_a   11.01076800
_cell_length_b   7.82606643
_cell_length_c   7.80730901
_cell_angle_alpha   89.96253083
_cell_angle_beta   90.00000000
_cell_angle_gamma   90.00000000
_symmetry_Int_Tables_number   1
_chemical_formula_structural   RbNbBr6
_chemical_formula_sum   'Rb2 Nb2 Br12'
_cell_volume   672.76349477
_cell_formula_units_Z   2
loop_
 _symmetry_equiv_pos_site_id
 _symmetry_equiv_pos_as_xyz
  1  'x, y, z'
loop_
 _atom_site_type_symbol
 _atom_site_label
 _atom_site_symmetry_multiplicity
 _atom_site_fract_x
 _atom_site_fract_y
 _atom_site_fract_z
 _atom_site_occupancy
  Rb  Rb0  1  0.727820  0.255840  0.298234  1
  Rb  Rb1  1  0.227820  0.744160  0.701766  1
  Nb  Nb2  1  0.994829  0.248946  0.759017  1
  Nb  Nb3  1  0.494829  0.751054  0.240983  1
  Br  Br4  1  0.491247  0.978358  0.478263  1
  Br  Br5  1  0.762947  0.246570  0.764826  1
  Br  Br6  1  0.997600  0.017112  0.984096  1
  Br  Br7  1  0.996121  0.482288  0.982535  1
  Br  Br8  1  0.497600  0.982888  0.015904  1
  Br  Br9  1  0.725814  0.748132  0.248589  1
  Br  Br10  1  0.262947  0.753430  0.235174  1
  Br  Br11  1  0.488076  0.524170  0.480022  1
  Br  Br12  1  0.991246  0.021642  0.521737  1
  Br  Br13  1  0.988076  0.475830  0.519978  1
  Br  Br14  1  0.225814  0.251868  0.751411  1
  Br  Br15  1  0.496121  0.517712  0.017465  1
