# generated using pymatgen
data_TbEr7GaPd24
_symmetry_space_group_name_H-M   'P 1'
_cell_length_a   8.33157902
_cell_length_b   8.33157902
_cell_length_c   8.33157902
_cell_angle_alpha   89.99431979
_cell_angle_beta   89.99431979
_cell_angle_gamma   90.00568021
_symmetry_Int_Tables_number   1
_chemical_formula_structural   TbEr7GaPd24
_chemical_formula_sum   'Tb1 Er7 Ga1 Pd24'
_cell_volume   578.33829027
_cell_formula_units_Z   1
loop_
 _symmetry_equiv_pos_site_id
 _symmetry_equiv_pos_as_xyz
  1  'x, y, z'
loop_
 _atom_site_type_symbol
 _atom_site_label
 _atom_site_symmetry_multiplicity
 _atom_site_fract_x
 _atom_site_fract_y
 _atom_site_fract_z
 _atom_site_occupancy
  Tb  Tb0  1  0.251566  0.251566  0.748434  1
  Er  Er1  1  0.251528  0.748488  0.251512  1
  Er  Er2  1  0.748488  0.251528  0.251512  1
  Er  Er3  1  0.748488  0.748488  0.748472  1
  Er  Er4  1  0.748424  0.748424  0.251576  1
  Er  Er5  1  0.748410  0.251557  0.748443  1
  Er  Er6  1  0.251557  0.748410  0.748443  1
  Er  Er7  1  0.251557  0.251557  0.251590  1
  Ga  Ga8  1  0.999924  0.999924  0.000076  1
  Pd  Pd9  1  0.500566  0.500566  0.747088  1
  Pd  Pd10  1  0.500566  0.252912  0.499434  1
  Pd  Pd11  1  0.252912  0.500566  0.499434  1
  Pd  Pd12  1  0.500020  0.500020  0.252897  1
  Pd  Pd13  1  0.500020  0.747103  0.499980  1
  Pd  Pd14  1  0.747103  0.500020  0.499980  1
  Pd  Pd15  1  0.999502  0.999502  0.708381  1
  Pd  Pd16  1  0.999502  0.291619  0.000498  1
  Pd  Pd17  1  0.291619  0.999502  0.000498  1
  Pd  Pd18  1  0.999999  0.999999  0.291555  1
  Pd  Pd19  1  0.999999  0.708445  0.000001  1
  Pd  Pd20  1  0.708445  0.999999  0.000001  1
  Pd  Pd21  1  0.999422  0.500539  0.739826  1
  Pd  Pd22  1  0.500539  0.260174  0.000578  1
  Pd  Pd23  1  0.260174  0.999422  0.499461  1
  Pd  Pd24  1  0.999422  0.260174  0.499461  1
  Pd  Pd25  1  0.500539  0.999422  0.739826  1
  Pd  Pd26  1  0.260174  0.500539  0.000578  1
  Pd  Pd27  1  0.999995  0.500002  0.260232  1
  Pd  Pd28  1  0.500002  0.739768  0.000005  1
  Pd  Pd29  1  0.999995  0.739768  0.499998  1
  Pd  Pd30  1  0.500002  0.999995  0.260232  1
  Pd  Pd31  1  0.739768  0.999995  0.499998  1
  Pd  Pd32  1  0.739768  0.500002  0.000005  1
