# generated using pymatgen
data_Ac(SiOs)2
_symmetry_space_group_name_H-M   'P 1'
_cell_length_a   5.98808761
_cell_length_b   5.98808754
_cell_length_c   5.98808717
_cell_angle_alpha   138.14002903
_cell_angle_beta   138.14003040
_cell_angle_gamma   60.68860587
_symmetry_Int_Tables_number   1
_chemical_formula_structural   Ac(SiOs)2
_chemical_formula_sum   'Ac1 Si2 Os2'
_cell_volume   94.58581183
_cell_formula_units_Z   1
loop_
 _symmetry_equiv_pos_site_id
 _symmetry_equiv_pos_as_xyz
  1  'x, y, z'
loop_
 _atom_site_type_symbol
 _atom_site_label
 _atom_site_symmetry_multiplicity
 _atom_site_fract_x
 _atom_site_fract_y
 _atom_site_fract_z
 _atom_site_occupancy
  Ac  Ac0  1  0.000000  0.000000  0.000000  1
  Si  Si1  1  0.357974  0.357974  0.000000  1
  Si  Si2  1  0.642026  0.642026  0.000000  1
  Os  Os3  1  0.250000  0.750000  0.500000  1
  Os  Os4  1  0.750000  0.250000  0.500000  1
