# generated using pymatgen
data_Yb3Dy(TcB4)4
_symmetry_space_group_name_H-M   'P 1'
_cell_length_a   3.57109100
_cell_length_b   5.98195030
_cell_length_c   11.56742248
_cell_angle_alpha   89.99833407
_cell_angle_beta   90.00000000
_cell_angle_gamma   90.00000000
_symmetry_Int_Tables_number   1
_chemical_formula_structural   Yb3Dy(TcB4)4
_chemical_formula_sum   'Yb3 Dy1 Tc4 B16'
_cell_volume   247.10430702
_cell_formula_units_Z   1
loop_
 _symmetry_equiv_pos_site_id
 _symmetry_equiv_pos_as_xyz
  1  'x, y, z'
loop_
 _atom_site_type_symbol
 _atom_site_label
 _atom_site_symmetry_multiplicity
 _atom_site_fract_x
 _atom_site_fract_y
 _atom_site_fract_z
 _atom_site_occupancy
  Yb  Yb0  1  0.000000  0.128824  0.650100  1
  Yb  Yb1  1  0.000000  0.871785  0.350943  1
  Yb  Yb2  1  0.000000  0.629119  0.848486  1
  Dy  Dy3  1  0.000000  0.371064  0.150951  1
  Tc  Tc4  1  0.000000  0.131096  0.916972  1
  Tc  Tc5  1  0.000000  0.870265  0.084136  1
  Tc  Tc6  1  0.000000  0.630610  0.582903  1
  Tc  Tc7  1  0.000000  0.370558  0.416616  1
  B  B8  1  0.500000  0.477597  0.692604  1
  B  B9  1  0.500000  0.523328  0.307600  1
  B  B10  1  0.500000  0.977678  0.807262  1
  B  B11  1  0.500000  0.022656  0.192936  1
  B  B12  1  0.500000  0.284851  0.814547  1
  B  B13  1  0.500000  0.714679  0.185097  1
  B  B14  1  0.500000  0.785641  0.684831  1
  B  B15  1  0.500000  0.213392  0.315557  1
  B  B16  1  0.500000  0.364711  0.967622  1
  B  B17  1  0.500000  0.635171  0.031471  1
  B  B18  1  0.500000  0.865556  0.532308  1
  B  B19  1  0.500000  0.134172  0.468028  1
  B  B20  1  0.500000  0.385687  0.547137  1
  B  B21  1  0.500000  0.613761  0.452315  1
  B  B22  1  0.500000  0.885774  0.952244  1
  B  B23  1  0.500000  0.112028  0.047332  1
