# generated using pymatgen
data_Sr8In15Pt12Pb
_symmetry_space_group_name_H-M   'P 1'
_cell_length_a   14.98603237
_cell_length_b   14.98603218
_cell_length_c   4.52295800
_cell_angle_alpha   90.00000000
_cell_angle_beta   90.00000000
_cell_angle_gamma   119.92366613
_symmetry_Int_Tables_number   1
_chemical_formula_structural   Sr8In15Pt12Pb
_chemical_formula_sum   'Sr8 In15 Pt12 Pb1'
_cell_volume   880.35950043
_cell_formula_units_Z   1
loop_
 _symmetry_equiv_pos_site_id
 _symmetry_equiv_pos_as_xyz
  1  'x, y, z'
loop_
 _atom_site_type_symbol
 _atom_site_label
 _atom_site_symmetry_multiplicity
 _atom_site_fract_x
 _atom_site_fract_y
 _atom_site_fract_z
 _atom_site_occupancy
  Sr  Sr0  1  0.551141  0.000024  0.000000  1
  Sr  Sr1  1  0.666707  0.333328  0.000000  1
  Sr  Sr2  1  0.449003  0.449003  0.000000  1
  Sr  Sr3  1  0.000024  0.551141  0.000000  1
  Sr  Sr4  1  0.333328  0.666707  0.000000  1
  Sr  Sr5  1  0.186060  0.999971  0.500001  1
  Sr  Sr6  1  0.999971  0.186061  0.500001  1
  Sr  Sr7  1  0.813817  0.813817  0.500001  1
  In  In8  1  0.804703  0.182207  0.000000  1
  In  In9  1  0.377788  0.195462  0.000000  1
  In  In10  1  0.195461  0.377787  0.000000  1
  In  In11  1  0.817749  0.622485  0.000000  1
  In  In12  1  0.182207  0.804703  0.000000  1
  In  In13  1  0.622486  0.817749  0.000000  1
  In  In14  1  0.721198  0.999875  0.500001  1
  In  In15  1  0.479816  0.125783  0.500001  1
  In  In16  1  0.278637  0.278636  0.500001  1
  In  In17  1  0.874387  0.353783  0.500001  1
  In  In18  1  0.125783  0.479816  0.500001  1
  In  In19  1  0.646209  0.520386  0.500001  1
  In  In20  1  0.520387  0.646209  0.500001  1
  In  In21  1  0.999875  0.721197  0.500001  1
  In  In22  1  0.353783  0.874388  0.500001  1
  Pt  Pt23  1  0.351892  0.999951  0.000000  1
  Pt  Pt24  1  0.818314  0.999846  0.000000  1
  Pt  Pt25  1  0.181476  0.181476  0.000000  1
  Pt  Pt26  1  0.999951  0.351892  0.000000  1
  Pt  Pt27  1  0.648030  0.648030  0.000000  1
  Pt  Pt28  1  0.999846  0.818315  0.000000  1
  Pt  Pt29  1  0.685071  0.169245  0.500001  1
  Pt  Pt30  1  0.484207  0.315046  0.500001  1
  Pt  Pt31  1  0.315047  0.484207  0.500001  1
  Pt  Pt32  1  0.830698  0.515718  0.500001  1
  Pt  Pt33  1  0.169245  0.685071  0.500001  1
  Pt  Pt34  1  0.515718  0.830698  0.500001  1
  Pb  Pb35  1  0.999894  0.999894  0.000000  1
