# generated using pymatgen
data_Tb5Cd2(NiHg)2
_symmetry_space_group_name_H-M   'P 1'
_cell_length_a   3.60306800
_cell_length_b   7.86536400
_cell_length_c   18.14750000
_cell_angle_alpha   90.00000000
_cell_angle_beta   90.00000000
_cell_angle_gamma   90.00000000
_symmetry_Int_Tables_number   1
_chemical_formula_structural   Tb5Cd2(NiHg)2
_chemical_formula_sum   'Tb10 Cd4 Ni4 Hg4'
_cell_volume   514.29001166
_cell_formula_units_Z   2
loop_
 _symmetry_equiv_pos_site_id
 _symmetry_equiv_pos_as_xyz
  1  'x, y, z'
loop_
 _atom_site_type_symbol
 _atom_site_label
 _atom_site_symmetry_multiplicity
 _atom_site_fract_x
 _atom_site_fract_y
 _atom_site_fract_z
 _atom_site_occupancy
  Tb  Tb0  1  0.000000  0.500000  0.500000  1
  Tb  Tb1  1  0.000000  0.000000  0.000000  1
  Tb  Tb2  1  0.000000  0.746466  0.281495  1
  Tb  Tb3  1  0.000000  0.253534  0.718505  1
  Tb  Tb4  1  0.000000  0.753534  0.781495  1
  Tb  Tb5  1  0.000000  0.246466  0.218505  1
  Tb  Tb6  1  0.000000  0.610773  0.088497  1
  Tb  Tb7  1  0.000000  0.389227  0.911503  1
  Tb  Tb8  1  0.000000  0.889227  0.588497  1
  Tb  Tb9  1  0.000000  0.110773  0.411503  1
  Cd  Cd10  1  0.500000  0.575437  0.652663  1
  Cd  Cd11  1  0.500000  0.424563  0.347337  1
  Cd  Cd12  1  0.500000  0.924563  0.152663  1
  Cd  Cd13  1  0.500000  0.075437  0.847337  1
  Ni  Ni14  1  0.500000  0.532620  0.197162  1
  Ni  Ni15  1  0.500000  0.467380  0.802838  1
  Ni  Ni16  1  0.500000  0.967380  0.697162  1
  Ni  Ni17  1  0.500000  0.032620  0.302838  1
  Hg  Hg18  1  0.500000  0.713125  0.931663  1
  Hg  Hg19  1  0.500000  0.286875  0.068337  1
  Hg  Hg20  1  0.500000  0.786875  0.431663  1
  Hg  Hg21  1  0.500000  0.213125  0.568337  1
