# generated using pymatgen
data_CeNd13Pt6
_symmetry_space_group_name_H-M   'P 1'
_cell_length_a   6.49213202
_cell_length_b   10.16061890
_cell_length_c   10.16057382
_cell_angle_alpha   119.96894440
_cell_angle_beta   90.00764074
_cell_angle_gamma   89.99198445
_symmetry_Int_Tables_number   1
_chemical_formula_structural   CeNd13Pt6
_chemical_formula_sum   'Ce1 Nd13 Pt6'
_cell_volume   580.62026335
_cell_formula_units_Z   1
loop_
 _symmetry_equiv_pos_site_id
 _symmetry_equiv_pos_as_xyz
  1  'x, y, z'
loop_
 _atom_site_type_symbol
 _atom_site_label
 _atom_site_symmetry_multiplicity
 _atom_site_fract_x
 _atom_site_fract_y
 _atom_site_fract_z
 _atom_site_occupancy
  Ce  Ce0  1  0.462717  0.333445  0.666556  1
  Nd  Nd1  1  0.959649  0.666591  0.333416  1
  Nd  Nd2  1  0.246387  0.127153  0.872826  1
  Nd  Nd3  1  0.245960  0.746055  0.873045  1
  Nd  Nd4  1  0.245990  0.126949  0.253936  1
  Nd  Nd5  1  0.747859  0.872103  0.127898  1
  Nd  Nd6  1  0.747547  0.255378  0.127706  1
  Nd  Nd7  1  0.747535  0.872292  0.744633  1
  Nd  Nd8  1  0.444519  0.536581  0.463416  1
  Nd  Nd9  1  0.444176  0.926818  0.463365  1
  Nd  Nd10  1  0.444175  0.536650  0.073195  1
  Nd  Nd11  1  0.945516  0.461225  0.538771  1
  Nd  Nd12  1  0.944860  0.077202  0.538607  1
  Nd  Nd13  1  0.944857  0.461393  0.922806  1
  Pt  Pt14  1  0.190708  0.811123  0.188891  1
  Pt  Pt15  1  0.190730  0.377664  0.188756  1
  Pt  Pt16  1  0.190716  0.811231  0.622332  1
  Pt  Pt17  1  0.680996  0.191127  0.808870  1
  Pt  Pt18  1  0.680541  0.617717  0.808699  1
  Pt  Pt19  1  0.680559  0.191304  0.382276  1
