# generated using pymatgen
data_Zr6Zn17Ni6Au
_symmetry_space_group_name_H-M   'P 1'
_cell_length_a   8.63216683
_cell_length_b   8.63216607
_cell_length_c   8.63216600
_cell_angle_alpha   60.00000027
_cell_angle_beta   60.00000317
_cell_angle_gamma   59.99999922
_symmetry_Int_Tables_number   1
_chemical_formula_structural   Zr6Zn17Ni6Au
_chemical_formula_sum   'Zr6 Zn17 Ni6 Au1'
_cell_volume   454.82508181
_cell_formula_units_Z   1
loop_
 _symmetry_equiv_pos_site_id
 _symmetry_equiv_pos_as_xyz
  1  'x, y, z'
loop_
 _atom_site_type_symbol
 _atom_site_label
 _atom_site_symmetry_multiplicity
 _atom_site_fract_x
 _atom_site_fract_y
 _atom_site_fract_z
 _atom_site_occupancy
  Zr  Zr0  1  0.772069  0.227931  0.227931  1
  Zr  Zr1  1  0.227931  0.772069  0.772069  1
  Zr  Zr2  1  0.227931  0.772069  0.227931  1
  Zr  Zr3  1  0.772069  0.227931  0.772069  1
  Zr  Zr4  1  0.227931  0.227931  0.772069  1
  Zr  Zr5  1  0.772069  0.772069  0.227931  1
  Zn  Zn6  1  0.155143  0.155143  0.155143  1
  Zn  Zn7  1  0.844857  0.844857  0.844857  1
  Zn  Zn8  1  0.155143  0.155143  0.534574  1
  Zn  Zn9  1  0.155143  0.534574  0.155143  1
  Zn  Zn10  1  0.844857  0.844857  0.465426  1
  Zn  Zn11  1  0.844857  0.465426  0.844857  1
  Zn  Zn12  1  0.534574  0.155143  0.155143  1
  Zn  Zn13  1  0.465426  0.844857  0.844857  1
  Zn  Zn14  1  0.369047  0.369047  0.369047  1
  Zn  Zn15  1  0.630953  0.630953  0.630953  1
  Zn  Zn16  1  0.369047  0.369047  0.892858  1
  Zn  Zn17  1  0.369047  0.892858  0.369047  1
  Zn  Zn18  1  0.630953  0.630953  0.107142  1
  Zn  Zn19  1  0.630953  0.107142  0.630953  1
  Zn  Zn20  1  0.892858  0.369047  0.369047  1
  Zn  Zn21  1  0.107142  0.630953  0.630953  1
  Zn  Zn22  1  0.000000  0.000000  0.000000  1
  Ni  Ni23  1  0.500000  0.000000  0.000000  1
  Ni  Ni24  1  0.000000  0.500000  0.500000  1
  Ni  Ni25  1  0.000000  0.500000  0.000000  1
  Ni  Ni26  1  0.500000  0.000000  0.500000  1
  Ni  Ni27  1  0.000000  0.000000  0.500000  1
  Ni  Ni28  1  0.500000  0.500000  0.000000  1
  Au  Au29  1  0.500000  0.500000  0.500000  1
