# generated using pymatgen
data_YTh2Sn3Ir2Rh
_symmetry_space_group_name_H-M   'P 1'
_cell_length_a   7.57267068
_cell_length_b   7.57267139
_cell_length_c   4.07887100
_cell_angle_alpha   90.00000000
_cell_angle_beta   90.00000000
_cell_angle_gamma   120.17254852
_symmetry_Int_Tables_number   1
_chemical_formula_structural   YTh2Sn3Ir2Rh
_chemical_formula_sum   'Y1 Th2 Sn3 Ir2 Rh1'
_cell_volume   202.21391681
_cell_formula_units_Z   1
loop_
 _symmetry_equiv_pos_site_id
 _symmetry_equiv_pos_as_xyz
  1  'x, y, z'
loop_
 _atom_site_type_symbol
 _atom_site_label
 _atom_site_symmetry_multiplicity
 _atom_site_fract_x
 _atom_site_fract_y
 _atom_site_fract_z
 _atom_site_occupancy
  Y  Y0  1  0.591793  0.591793  0.500000  1
  Th  Th1  1  0.413595  0.000085  0.500000  1
  Th  Th2  1  0.000085  0.413595  0.500000  1
  Sn  Sn3  1  0.747015  0.989454  0.000000  1
  Sn  Sn4  1  0.989454  0.747015  0.000000  1
  Sn  Sn5  1  0.261891  0.261891  0.000000  1
  Ir  Ir6  1  0.322144  0.668006  0.000000  1
  Ir  Ir7  1  0.668006  0.322144  0.000000  1
  Rh  Rh8  1  0.006017  0.006017  0.500000  1
