# generated using pymatgen
data_Sm10Si16As
_symmetry_space_group_name_H-M   'P 1'
_cell_length_a   11.21609926
_cell_length_b   11.23329964
_cell_length_c   11.21612500
_cell_angle_alpha   144.74547293
_cell_angle_beta   135.77062128
_cell_angle_gamma   57.75223765
_symmetry_Int_Tables_number   1
_chemical_formula_structural   Sm10Si16As
_chemical_formula_sum   'Sm10 Si16 As1'
_cell_volume   564.28767194
_cell_formula_units_Z   1
loop_
 _symmetry_equiv_pos_site_id
 _symmetry_equiv_pos_as_xyz
  1  'x, y, z'
loop_
 _atom_site_type_symbol
 _atom_site_label
 _atom_site_symmetry_multiplicity
 _atom_site_fract_x
 _atom_site_fract_y
 _atom_site_fract_z
 _atom_site_occupancy
  Sm  Sm0  1  0.754909  0.761269  0.516222  1
  Sm  Sm1  1  0.450598  0.964882  0.015081  1
  Sm  Sm2  1  0.848255  0.367337  0.015611  1
  Sm  Sm3  1  0.949801  0.964883  0.514287  1
  Sm  Sm4  1  0.152390  0.166191  0.518156  1
  Sm  Sm5  1  0.351725  0.367336  0.519082  1
  Sm  Sm6  1  0.245046  0.761270  0.006361  1
  Sm  Sm7  1  0.550167  0.563123  0.511810  1
  Sm  Sm8  1  0.051314  0.563124  0.012956  1
  Sm  Sm9  1  0.648035  0.166190  0.013801  1
  Si  Si10  1  0.199250  0.587281  0.388033  1
  Si  Si11  1  0.000662  0.085932  0.085269  1
  Si  Si12  1  0.699543  0.286397  0.586853  1
  Si  Si13  1  0.802499  0.193915  0.391417  1
  Si  Si14  1  0.897199  0.503872  0.606670  1
  Si  Si15  1  0.413287  0.861797  0.448510  1
  Si  Si16  1  0.104072  0.710495  0.606423  1
  Si  Si17  1  0.300055  0.896124  0.596068  1
  Si  Si18  1  0.582663  0.039390  0.456726  1
  Si  Si19  1  0.000812  0.432413  0.431600  1
  Si  Si20  1  0.885686  0.840847  0.955163  1
  Si  Si21  1  0.399996  0.499807  0.099810  1
  Si  Si22  1  0.116668  0.072704  0.956037  1
  Si  Si23  1  0.288768  0.241451  0.952684  1
  Si  Si24  1  0.499630  0.394673  0.895044  1
  Si  Si25  1  0.595864  0.704675  0.108809  1
  As  As26  1  0.711108  0.664122  0.953014  1
