# generated using pymatgen
data_Ho16MgIn3(IrRu)2
_symmetry_space_group_name_H-M   'P 1'
_cell_length_a   9.62973807
_cell_length_b   9.60184622
_cell_length_c   9.61397100
_cell_angle_alpha   59.95820925
_cell_angle_beta   60.05413743
_cell_angle_gamma   60.02316880
_symmetry_Int_Tables_number   1
_chemical_formula_structural   Ho16MgIn3(IrRu)2
_chemical_formula_sum   'Ho16 Mg1 In3 Ir2 Ru2'
_cell_volume   628.74267825
_cell_formula_units_Z   1
loop_
 _symmetry_equiv_pos_site_id
 _symmetry_equiv_pos_as_xyz
  1  'x, y, z'
loop_
 _atom_site_type_symbol
 _atom_site_label
 _atom_site_symmetry_multiplicity
 _atom_site_fract_x
 _atom_site_fract_y
 _atom_site_fract_z
 _atom_site_occupancy
  Ho  Ho0  1  0.348413  0.347405  0.346200  1
  Ho  Ho1  1  0.348413  0.347405  0.957982  1
  Ho  Ho2  1  0.350279  0.956794  0.346463  1
  Ho  Ho3  1  0.952129  0.350245  0.348813  1
  Ho  Ho4  1  0.805813  0.191431  0.192981  1
  Ho  Ho5  1  0.188901  0.809033  0.812103  1
  Ho  Ho6  1  0.188901  0.809033  0.189962  1
  Ho  Ho7  1  0.805813  0.191431  0.809775  1
  Ho  Ho8  1  0.190037  0.189206  0.810378  1
  Ho  Ho9  1  0.807570  0.808322  0.192054  1
  Ho  Ho10  1  0.939681  0.561285  0.559675  1
  Ho  Ho11  1  0.561703  0.939474  0.939343  1
  Ho  Ho12  1  0.561703  0.939474  0.559479  1
  Ho  Ho13  1  0.939681  0.561285  0.939359  1
  Ho  Ho14  1  0.561051  0.560533  0.939208  1
  Ho  Ho15  1  0.939179  0.939653  0.560584  1
  Mg  Mg16  1  0.269449  0.576513  0.577019  1
  In  In17  1  0.581691  0.582926  0.583001  1
  In  In18  1  0.581691  0.582926  0.252383  1
  In  In19  1  0.581281  0.252662  0.583029  1
  Ir  Ir20  1  0.139047  0.141169  0.141396  1
  Ir  Ir21  1  0.139047  0.141169  0.578387  1
  Ru  Ru22  1  0.139354  0.579775  0.140434  1
  Ru  Ru23  1  0.579168  0.140851  0.139991  1
