# generated using pymatgen
data_Hf7Ni9Pd
_symmetry_space_group_name_H-M   'P 1'
_cell_length_a   7.66350326
_cell_length_b   7.66350328
_cell_length_c   9.15163737
_cell_angle_alpha   90.27756949
_cell_angle_beta   90.27757354
_cell_angle_gamma   106.82778487
_symmetry_Int_Tables_number   1
_chemical_formula_structural   Hf7Ni9Pd
_chemical_formula_sum   'Hf14 Ni18 Pd2'
_cell_volume   514.43725647
_cell_formula_units_Z   2
loop_
 _symmetry_equiv_pos_site_id
 _symmetry_equiv_pos_as_xyz
  1  'x, y, z'
loop_
 _atom_site_type_symbol
 _atom_site_label
 _atom_site_symmetry_multiplicity
 _atom_site_fract_x
 _atom_site_fract_y
 _atom_site_fract_z
 _atom_site_occupancy
  Hf  Hf0  1  0.699878  0.300122  0.000000  1
  Hf  Hf1  1  0.300122  0.699878  0.000000  1
  Hf  Hf2  1  0.805325  0.194675  0.500000  1
  Hf  Hf3  1  0.194675  0.805325  0.500000  1
  Hf  Hf4  1  0.000000  0.000000  0.000000  1
  Hf  Hf5  1  0.500000  0.500000  0.500000  1
  Hf  Hf6  1  0.997564  0.505277  0.250196  1
  Hf  Hf7  1  0.002436  0.494723  0.749804  1
  Hf  Hf8  1  0.494723  0.002436  0.749804  1
  Hf  Hf9  1  0.505277  0.997564  0.250196  1
  Hf  Hf10  1  0.305163  0.305163  0.195362  1
  Hf  Hf11  1  0.694837  0.694837  0.804638  1
  Hf  Hf12  1  0.175388  0.175388  0.675835  1
  Hf  Hf13  1  0.824612  0.824612  0.324165  1
  Ni  Ni14  1  0.865589  0.153354  0.209112  1
  Ni  Ni15  1  0.134411  0.846646  0.790888  1
  Ni  Ni16  1  0.650117  0.352321  0.705364  1
  Ni  Ni17  1  0.647679  0.349883  0.294636  1
  Ni  Ni18  1  0.349883  0.647679  0.294636  1
  Ni  Ni19  1  0.352321  0.650117  0.705364  1
  Ni  Ni20  1  0.846646  0.134411  0.790888  1
  Ni  Ni21  1  0.153354  0.865589  0.209112  1
  Ni  Ni22  1  0.939502  0.644846  0.999666  1
  Ni  Ni23  1  0.060498  0.355154  0.000334  1
  Ni  Ni24  1  0.564095  0.853875  0.508780  1
  Ni  Ni25  1  0.146125  0.435905  0.491220  1
  Ni  Ni26  1  0.435905  0.146125  0.491220  1
  Ni  Ni27  1  0.853875  0.564095  0.508780  1
  Ni  Ni28  1  0.355154  0.060498  0.000334  1
  Ni  Ni29  1  0.644846  0.939502  0.999666  1
  Ni  Ni30  1  0.104325  0.104325  0.397123  1
  Ni  Ni31  1  0.895675  0.895675  0.602877  1
  Pd  Pd32  1  0.386495  0.386495  0.885279  1
  Pd  Pd33  1  0.613505  0.613505  0.114721  1
