# generated using pymatgen
data_Nd4Dy(IrO6)2
_symmetry_space_group_name_H-M   'P 1'
_cell_length_a   7.05856703
_cell_length_b   7.05856576
_cell_length_c   7.46172579
_cell_angle_alpha   74.43413069
_cell_angle_beta   74.43413171
_cell_angle_gamma   51.69533161
_symmetry_Int_Tables_number   1
_chemical_formula_structural   Nd4Dy(IrO6)2
_chemical_formula_sum   'Nd4 Dy1 Ir2 O12'
_cell_volume   278.46528421
_cell_formula_units_Z   1
loop_
 _symmetry_equiv_pos_site_id
 _symmetry_equiv_pos_as_xyz
  1  'x, y, z'
loop_
 _atom_site_type_symbol
 _atom_site_label
 _atom_site_symmetry_multiplicity
 _atom_site_fract_x
 _atom_site_fract_y
 _atom_site_fract_z
 _atom_site_occupancy
  Nd  Nd0  1  0.698323  0.698323  0.638230  1
  Nd  Nd1  1  0.694937  0.694937  0.165861  1
  Nd  Nd2  1  0.304894  0.304894  0.833348  1
  Nd  Nd3  1  0.001284  0.001284  0.497923  1
  Dy  Dy4  1  0.302378  0.302378  0.358146  1
  Ir  Ir5  1  0.751862  0.246628  0.002037  1
  Ir  Ir6  1  0.246628  0.751862  0.002037  1
  O  O7  1  0.100811  0.594525  0.567080  1
  O  O8  1  0.999886  0.999886  0.169683  1
  O  O9  1  0.397564  0.913003  0.423517  1
  O  O10  1  0.498190  0.498190  0.180501  1
  O  O11  1  0.105020  0.566540  0.088949  1
  O  O12  1  0.913003  0.397564  0.423517  1
  O  O13  1  0.998428  0.998428  0.832411  1
  O  O14  1  0.594525  0.100810  0.567080  1
  O  O15  1  0.498920  0.498920  0.825458  1
  O  O16  1  0.566540  0.105020  0.088949  1
  O  O17  1  0.429417  0.897389  0.917636  1
  O  O18  1  0.897389  0.429417  0.917636  1
