# generated using pymatgen
data_Na5MnCl8
_symmetry_space_group_name_H-M   'P 1'
_cell_length_a   7.00738094
_cell_length_b   7.00738187
_cell_length_c   7.85959900
_cell_angle_alpha   90.00000000
_cell_angle_beta   90.00000000
_cell_angle_gamma   111.19758823
_symmetry_Int_Tables_number   1
_chemical_formula_structural   Na5MnCl8
_chemical_formula_sum   'Na5 Mn1 Cl8'
_cell_volume   359.82038467
_cell_formula_units_Z   1
loop_
 _symmetry_equiv_pos_site_id
 _symmetry_equiv_pos_as_xyz
  1  'x, y, z'
loop_
 _atom_site_type_symbol
 _atom_site_label
 _atom_site_symmetry_multiplicity
 _atom_site_fract_x
 _atom_site_fract_y
 _atom_site_fract_z
 _atom_site_occupancy
  Na  Na0  1  0.500000  0.000000  0.249467  1
  Na  Na1  1  0.000000  0.500000  0.750533  1
  Na  Na2  1  0.500000  0.000000  0.750533  1
  Na  Na3  1  0.000000  0.500000  0.249467  1
  Na  Na4  1  0.500000  0.500000  0.000000  1
  Mn  Mn5  1  0.500000  0.500000  0.500000  1
  Cl  Cl6  1  0.290958  0.290958  0.292280  1
  Cl  Cl7  1  0.709042  0.709042  0.292280  1
  Cl  Cl8  1  0.271538  0.728462  0.500000  1
  Cl  Cl9  1  0.290958  0.290958  0.707720  1
  Cl  Cl10  1  0.709042  0.709042  0.707720  1
  Cl  Cl11  1  0.257741  0.742259  0.000000  1
  Cl  Cl12  1  0.728462  0.271538  0.500000  1
  Cl  Cl13  1  0.742259  0.257741  0.000000  1
