# generated using pymatgen
data_La8Yb11DyPt16
_symmetry_space_group_name_H-M   'P 1'
_cell_length_a   7.65294831
_cell_length_b   7.81095272
_cell_length_c   14.81747300
_cell_angle_alpha   90.00470194
_cell_angle_beta   90.06749315
_cell_angle_gamma   89.91958479
_symmetry_Int_Tables_number   1
_chemical_formula_structural   La8Yb11DyPt16
_chemical_formula_sum   'La8 Yb11 Dy1 Pt16'
_cell_volume   885.73988812
_cell_formula_units_Z   1
loop_
 _symmetry_equiv_pos_site_id
 _symmetry_equiv_pos_as_xyz
  1  'x, y, z'
loop_
 _atom_site_type_symbol
 _atom_site_label
 _atom_site_symmetry_multiplicity
 _atom_site_fract_x
 _atom_site_fract_y
 _atom_site_fract_z
 _atom_site_occupancy
  La  La0  1  0.498525  0.323144  0.900955  1
  La  La1  1  0.998489  0.179567  0.597570  1
  La  La2  1  0.501574  0.677487  0.400910  1
  La  La3  1  0.001447  0.821943  0.099281  1
  La  La4  1  0.502239  0.676958  0.100529  1
  La  La5  1  0.001736  0.822114  0.400937  1
  La  La6  1  0.498532  0.320464  0.597951  1
  La  La7  1  0.996657  0.179240  0.901370  1
  Yb  Yb8  1  0.841078  0.667864  0.624190  1
  Yb  Yb9  1  0.658768  0.168431  0.375554  1
  Yb  Yb10  1  0.158330  0.332203  0.124082  1
  Yb  Yb11  1  0.658975  0.168172  0.123852  1
  Yb  Yb12  1  0.159209  0.331117  0.375603  1
  Yb  Yb13  1  0.341310  0.831184  0.624226  1
  Yb  Yb14  1  0.841575  0.669210  0.876373  1
  Yb  Yb15  1  0.174603  0.501846  0.748793  1
  Yb  Yb16  1  0.678460  0.996988  0.749223  1
  Yb  Yb17  1  0.824362  0.494493  0.250311  1
  Yb  Yb18  1  0.323919  0.004650  0.250357  1
  Dy  Dy19  1  0.340692  0.831298  0.874892  1
  Pt  Pt20  1  0.317004  0.030186  0.037133  1
  Pt  Pt21  1  0.820624  0.468479  0.460473  1
  Pt  Pt22  1  0.680103  0.969370  0.540126  1
  Pt  Pt23  1  0.182183  0.539542  0.960492  1
  Pt  Pt24  1  0.673597  0.967100  0.958977  1
  Pt  Pt25  1  0.179396  0.529394  0.539991  1
  Pt  Pt26  1  0.321450  0.030275  0.459971  1
  Pt  Pt27  1  0.823391  0.467781  0.039860  1
  Pt  Pt28  1  0.543058  0.619231  0.753317  1
  Pt  Pt29  1  0.047557  0.881518  0.752097  1
  Pt  Pt30  1  0.455121  0.383100  0.249526  1
  Pt  Pt31  1  0.955317  0.116076  0.249832  1
  Pt  Pt32  1  0.306604  0.141328  0.751448  1
  Pt  Pt33  1  0.802830  0.358484  0.748976  1
  Pt  Pt34  1  0.695710  0.856620  0.250463  1
  Pt  Pt35  1  0.195578  0.643140  0.250359  1
