# generated using pymatgen
data_Ca6LaPr3Ir4
_symmetry_space_group_name_H-M   'P 1'
_cell_length_a   8.72200605
_cell_length_b   8.88112528
_cell_length_c   7.54109763
_cell_angle_alpha   83.51477650
_cell_angle_beta   82.55531990
_cell_angle_gamma   44.81919362
_symmetry_Int_Tables_number   1
_chemical_formula_structural   Ca6LaPr3Ir4
_chemical_formula_sum   'Ca6 La1 Pr3 Ir4'
_cell_volume   408.08988732
_cell_formula_units_Z   1
loop_
 _symmetry_equiv_pos_site_id
 _symmetry_equiv_pos_as_xyz
  1  'x, y, z'
loop_
 _atom_site_type_symbol
 _atom_site_label
 _atom_site_symmetry_multiplicity
 _atom_site_fract_x
 _atom_site_fract_y
 _atom_site_fract_z
 _atom_site_occupancy
  Ca  Ca0  1  0.197542  0.986638  0.582164  1
  Ca  Ca1  1  0.988069  0.194395  0.083924  1
  Ca  Ca2  1  0.808321  0.010698  0.414328  1
  Ca  Ca3  1  0.356816  0.206358  0.820200  1
  Ca  Ca4  1  0.788440  0.646143  0.680875  1
  Ca  Ca5  1  0.636696  0.796820  0.180006  1
  La  La6  1  0.013199  0.810166  0.913136  1
  Pr  Pr7  1  0.204238  0.363069  0.323494  1
  Pr  Pr8  1  0.573458  0.431611  0.744863  1
  Pr  Pr9  1  0.438953  0.564289  0.251938  1
  Ir  Ir10  1  0.177527  0.601672  0.587091  1
  Ir  Ir11  1  0.388417  0.807748  0.923765  1
  Ir  Ir12  1  0.825751  0.402585  0.417759  1
  Ir  Ir13  1  0.602571  0.177804  0.076458  1
