# generated using pymatgen
data_Al19Cr6Si
_symmetry_space_group_name_H-M   'P 1'
_cell_length_a   7.51927200
_cell_length_b   7.51835941
_cell_length_c   7.92950600
_cell_angle_alpha   90.00073872
_cell_angle_beta   90.00189144
_cell_angle_gamma   119.99613999
_symmetry_Int_Tables_number   1
_chemical_formula_structural   Al19Cr6Si
_chemical_formula_sum   'Al19 Cr6 Si1'
_cell_volume   388.23307581
_cell_formula_units_Z   1
loop_
 _symmetry_equiv_pos_site_id
 _symmetry_equiv_pos_as_xyz
  1  'x, y, z'
loop_
 _atom_site_type_symbol
 _atom_site_label
 _atom_site_symmetry_multiplicity
 _atom_site_fract_x
 _atom_site_fract_y
 _atom_site_fract_z
 _atom_site_occupancy
  Al  Al0  1  0.456681  0.913484  0.249607  1
  Al  Al1  1  0.543319  0.086516  0.750393  1
  Al  Al2  1  0.086532  0.543262  0.249608  1
  Al  Al3  1  0.913468  0.456738  0.750392  1
  Al  Al4  1  0.456679  0.543207  0.249607  1
  Al  Al5  1  0.543321  0.456793  0.750393  1
  Al  Al6  1  0.202039  0.404110  0.562377  1
  Al  Al7  1  0.797961  0.595890  0.437623  1
  Al  Al8  1  0.595900  0.797952  0.562408  1
  Al  Al9  1  0.798007  0.595983  0.061589  1
  Al  Al10  1  0.404100  0.202048  0.437592  1
  Al  Al11  1  0.201993  0.404017  0.938411  1
  Al  Al12  1  0.202046  0.797924  0.562375  1
  Al  Al13  1  0.404003  0.202001  0.061631  1
  Al  Al14  1  0.797954  0.202076  0.437625  1
  Al  Al15  1  0.595997  0.797999  0.938369  1
  Al  Al16  1  0.798006  0.202029  0.061593  1
  Al  Al17  1  0.201994  0.797971  0.938407  1
  Al  Al18  1  0.000000  0.000000  0.500000  1
  Cr  Cr19  1  0.115483  0.230949  0.246161  1
  Cr  Cr20  1  0.884517  0.769051  0.753839  1
  Cr  Cr21  1  0.769023  0.884507  0.246150  1
  Cr  Cr22  1  0.230977  0.115493  0.753850  1
  Cr  Cr23  1  0.115432  0.884516  0.246181  1
  Cr  Cr24  1  0.884568  0.115484  0.753819  1
  Si  Si25  1  0.000000  0.000000  0.000000  1
