# generated using pymatgen
data_CaSc2U(ReB6)2
_symmetry_space_group_name_H-M   'P 1'
_cell_length_a   3.59813900
_cell_length_b   8.99663613
_cell_length_c   11.36525309
_cell_angle_alpha   89.76386418
_cell_angle_beta   90.00000000
_cell_angle_gamma   90.00000000
_symmetry_Int_Tables_number   1
_chemical_formula_structural   CaSc2U(ReB6)2
_chemical_formula_sum   'Ca2 Sc4 U2 Re4 B24'
_cell_volume   367.90315782
_cell_formula_units_Z   2
loop_
 _symmetry_equiv_pos_site_id
 _symmetry_equiv_pos_as_xyz
  1  'x, y, z'
loop_
 _atom_site_type_symbol
 _atom_site_label
 _atom_site_symmetry_multiplicity
 _atom_site_fract_x
 _atom_site_fract_y
 _atom_site_fract_z
 _atom_site_occupancy
  Ca  Ca0  1  0.000000  0.322740  0.414749  1
  Ca  Ca1  1  0.000000  0.677260  0.585251  1
  Sc  Sc2  1  0.000000  0.943555  0.372446  1
  Sc  Sc3  1  0.000000  0.056445  0.627554  1
  Sc  Sc4  1  0.000000  0.445862  0.128004  1
  Sc  Sc5  1  0.000000  0.554138  0.871996  1
  U  U6  1  0.000000  0.820330  0.086171  1
  U  U7  1  0.000000  0.179670  0.913829  1
  Re  Re8  1  0.000000  0.645690  0.313052  1
  Re  Re9  1  0.000000  0.354310  0.686948  1
  Re  Re10  1  0.000000  0.136604  0.175875  1
  Re  Re11  1  0.000000  0.863396  0.824125  1
  B  B12  1  0.500000  0.554621  0.431776  1
  B  B13  1  0.500000  0.445379  0.568224  1
  B  B14  1  0.500000  0.053628  0.065852  1
  B  B15  1  0.500000  0.946372  0.934148  1
  B  B16  1  0.500000  0.753244  0.418015  1
  B  B17  1  0.500000  0.246756  0.581985  1
  B  B18  1  0.500000  0.253220  0.080241  1
  B  B19  1  0.500000  0.746780  0.919759  1
  B  B20  1  0.500000  0.795858  0.263444  1
  B  B21  1  0.500000  0.204142  0.736556  1
  B  B22  1  0.500000  0.294302  0.233922  1
  B  B23  1  0.500000  0.705698  0.766078  1
  B  B24  1  0.500000  0.631566  0.181836  1
  B  B25  1  0.500000  0.368434  0.818164  1
  B  B26  1  0.500000  0.129128  0.316045  1
  B  B27  1  0.500000  0.870872  0.683955  1
  B  B28  1  0.500000  0.981082  0.212775  1
  B  B29  1  0.500000  0.018918  0.787225  1
  B  B30  1  0.500000  0.482342  0.285735  1
  B  B31  1  0.500000  0.517658  0.714265  1
  B  B32  1  0.500000  0.601763  0.027325  1
  B  B33  1  0.500000  0.398237  0.972675  1
  B  B34  1  0.500000  0.094737  0.473834  1
  B  B35  1  0.500000  0.905263  0.526166  1
