# generated using pymatgen
data_Zr4In2Co3Cu
_symmetry_space_group_name_H-M   'P 1'
_cell_length_a   7.25841078
_cell_length_b   7.25841136
_cell_length_c   6.64123400
_cell_angle_alpha   90.00000000
_cell_angle_beta   90.00000000
_cell_angle_gamma   90.92797414
_symmetry_Int_Tables_number   1
_chemical_formula_structural   Zr4In2Co3Cu
_chemical_formula_sum   'Zr8 In4 Co6 Cu2'
_cell_volume   349.84440997
_cell_formula_units_Z   2
loop_
 _symmetry_equiv_pos_site_id
 _symmetry_equiv_pos_as_xyz
  1  'x, y, z'
loop_
 _atom_site_type_symbol
 _atom_site_label
 _atom_site_symmetry_multiplicity
 _atom_site_fract_x
 _atom_site_fract_y
 _atom_site_fract_z
 _atom_site_occupancy
  Zr  Zr0  1  0.158179  0.183276  0.000000  1
  Zr  Zr1  1  0.816724  0.841821  0.000000  1
  Zr  Zr2  1  0.671143  0.328857  0.500000  1
  Zr  Zr3  1  0.352239  0.647761  0.500000  1
  Zr  Zr4  1  0.671513  0.328487  0.000000  1
  Zr  Zr5  1  0.347081  0.652919  0.000000  1
  Zr  Zr6  1  0.810906  0.838490  0.500000  1
  Zr  Zr7  1  0.161510  0.189094  0.500000  1
  In  In8  1  0.490957  0.001829  0.249796  1
  In  In9  1  0.490957  0.001829  0.750204  1
  In  In10  1  0.998171  0.509043  0.249796  1
  In  In11  1  0.998171  0.509043  0.750204  1
  Co  Co12  1  0.376716  0.369635  0.245432  1
  Co  Co13  1  0.630365  0.623284  0.754568  1
  Co  Co14  1  0.630365  0.623284  0.245432  1
  Co  Co15  1  0.881929  0.118071  0.747167  1
  Co  Co16  1  0.881929  0.118071  0.252833  1
  Co  Co17  1  0.376716  0.369635  0.754568  1
  Cu  Cu18  1  0.127213  0.872787  0.261160  1
  Cu  Cu19  1  0.127213  0.872787  0.738840  1
