# generated using pymatgen
data_Ta6AlZn5Co12
_symmetry_space_group_name_H-M   'P 1'
_cell_length_a   4.19024000
_cell_length_b   5.92978501
_cell_length_c   12.56781503
_cell_angle_alpha   90.00766656
_cell_angle_beta   90.00125364
_cell_angle_gamma   89.99814658
_symmetry_Int_Tables_number   1
_chemical_formula_structural   Ta6AlZn5Co12
_chemical_formula_sum   'Ta6 Al1 Zn5 Co12'
_cell_volume   312.27529159
_cell_formula_units_Z   1
loop_
 _symmetry_equiv_pos_site_id
 _symmetry_equiv_pos_as_xyz
  1  'x, y, z'
loop_
 _atom_site_type_symbol
 _atom_site_label
 _atom_site_symmetry_multiplicity
 _atom_site_fract_x
 _atom_site_fract_y
 _atom_site_fract_z
 _atom_site_occupancy
  Ta  Ta0  1  0.999984  0.999860  0.002282  1
  Ta  Ta1  1  0.500184  0.500158  0.166832  1
  Ta  Ta2  1  0.000183  0.999789  0.333389  1
  Ta  Ta3  1  0.500011  0.500196  0.499835  1
  Ta  Ta4  1  0.999816  0.999837  0.664343  1
  Ta  Ta5  1  0.499821  0.500189  0.833321  1
  Al  Al6  1  0.499836  0.999940  0.833321  1
  Zn  Zn7  1  0.999984  0.500031  0.999310  1
  Zn  Zn8  1  0.500189  0.999931  0.166924  1
  Zn  Zn9  1  0.000198  0.500094  0.333350  1
  Zn  Zn10  1  0.500004  0.999909  0.499744  1
  Zn  Zn11  1  0.999809  0.500047  0.667346  1
  Co  Co12  1  0.499979  0.247037  0.999007  1
  Co  Co13  1  0.499982  0.752958  0.998960  1
  Co  Co14  1  0.000210  0.251815  0.167741  1
  Co  Co15  1  0.000209  0.748223  0.167710  1
  Co  Co16  1  0.500205  0.249724  0.333333  1
  Co  Co17  1  0.500212  0.750230  0.333338  1
  Co  Co18  1  0.000011  0.251772  0.498908  1
  Co  Co19  1  0.000010  0.748254  0.498950  1
  Co  Co20  1  0.499794  0.247025  0.667662  1
  Co  Co21  1  0.499795  0.752992  0.667710  1
  Co  Co22  1  0.999792  0.244919  0.833348  1
  Co  Co23  1  0.999784  0.755068  0.833332  1
