# generated using pymatgen
data_PrFe3(CoP)5
_symmetry_space_group_name_H-M   'P 1'
_cell_length_a   3.57907200
_cell_length_b   9.23279500
_cell_length_c   10.45150800
_cell_angle_alpha   90.00000000
_cell_angle_beta   90.00000000
_cell_angle_gamma   90.00000000
_symmetry_Int_Tables_number   1
_chemical_formula_structural   PrFe3(CoP)5
_chemical_formula_sum   'Pr2 Fe6 Co10 P10'
_cell_volume   345.36838941
_cell_formula_units_Z   2
loop_
 _symmetry_equiv_pos_site_id
 _symmetry_equiv_pos_as_xyz
  1  'x, y, z'
loop_
 _atom_site_type_symbol
 _atom_site_label
 _atom_site_symmetry_multiplicity
 _atom_site_fract_x
 _atom_site_fract_y
 _atom_site_fract_z
 _atom_site_occupancy
  Pr  Pr0  1  0.750000  0.821566  0.750000  1
  Pr  Pr1  1  0.250000  0.178434  0.250000  1
  Fe  Fe2  1  0.750000  0.695802  0.106231  1
  Fe  Fe3  1  0.750000  0.695802  0.393769  1
  Fe  Fe4  1  0.250000  0.304198  0.893769  1
  Fe  Fe5  1  0.250000  0.304198  0.606231  1
  Fe  Fe6  1  0.750000  0.152717  0.750000  1
  Fe  Fe7  1  0.250000  0.847283  0.250000  1
  Co  Co8  1  0.750000  0.520484  0.918557  1
  Co  Co9  1  0.750000  0.520484  0.581443  1
  Co  Co10  1  0.250000  0.479516  0.081443  1
  Co  Co11  1  0.250000  0.479516  0.418557  1
  Co  Co12  1  0.750000  0.110311  0.995043  1
  Co  Co13  1  0.750000  0.110311  0.504957  1
  Co  Co14  1  0.250000  0.889689  0.004957  1
  Co  Co15  1  0.250000  0.889689  0.495043  1
  Co  Co16  1  0.250000  0.547198  0.750000  1
  Co  Co17  1  0.750000  0.452802  0.250000  1
  P  P18  1  0.750000  0.933813  0.132246  1
  P  P19  1  0.750000  0.933813  0.367754  1
  P  P20  1  0.250000  0.066187  0.867754  1
  P  P21  1  0.250000  0.066187  0.632246  1
  P  P22  1  0.750000  0.337623  0.059382  1
  P  P23  1  0.750000  0.337623  0.440618  1
  P  P24  1  0.250000  0.662377  0.940618  1
  P  P25  1  0.250000  0.662377  0.559382  1
  P  P26  1  0.750000  0.386367  0.750000  1
  P  P27  1  0.250000  0.613633  0.250000  1
