# generated using pymatgen
data_Ho6AlNiOs
_symmetry_space_group_name_H-M   'P 1'
_cell_length_a   8.35383177
_cell_length_b   8.35383231
_cell_length_c   8.35383199
_cell_angle_alpha   112.92476256
_cell_angle_beta   110.76551299
_cell_angle_gamma   104.82891639
_symmetry_Int_Tables_number   1
_chemical_formula_structural   Ho6AlNiOs
_chemical_formula_sum   'Ho12 Al2 Ni2 Os2'
_cell_volume   446.42271440
_cell_formula_units_Z   2
loop_
 _symmetry_equiv_pos_site_id
 _symmetry_equiv_pos_as_xyz
  1  'x, y, z'
loop_
 _atom_site_type_symbol
 _atom_site_label
 _atom_site_symmetry_multiplicity
 _atom_site_fract_x
 _atom_site_fract_y
 _atom_site_fract_z
 _atom_site_occupancy
  Ho  Ho0  1  0.436073  0.242341  0.193732  1
  Ho  Ho1  1  0.563927  0.757659  0.806268  1
  Ho  Ho2  1  0.048609  0.242341  0.806268  1
  Ho  Ho3  1  0.951391  0.757659  0.193732  1
  Ho  Ho4  1  0.180917  0.279565  0.460482  1
  Ho  Ho5  1  0.819083  0.720435  0.539518  1
  Ho  Ho6  1  0.180917  0.720435  0.901354  1
  Ho  Ho7  1  0.819083  0.279565  0.098646  1
  Ho  Ho8  1  0.330243  0.643354  0.313110  1
  Ho  Ho9  1  0.669757  0.356646  0.686890  1
  Ho  Ho10  1  0.330243  0.017132  0.686890  1
  Ho  Ho11  1  0.669757  0.982868  0.313110  1
  Al  Al12  1  0.500000  0.500000  0.000000  1
  Al  Al13  1  0.000000  0.000000  0.000000  1
  Ni  Ni14  1  0.116744  0.616744  0.500000  1
  Ni  Ni15  1  0.883256  0.383256  0.500000  1
  Os  Os16  1  0.325316  0.000000  0.325316  1
  Os  Os17  1  0.674684  0.000000  0.674684  1
