# generated using pymatgen
data_La6Al2Zn2Pt13
_symmetry_space_group_name_H-M   'P 1'
_cell_length_a   8.43336449
_cell_length_b   8.51085169
_cell_length_c   8.51085149
_cell_angle_alpha   109.84172700
_cell_angle_beta   109.47060824
_cell_angle_gamma   109.47060928
_symmetry_Int_Tables_number   1
_chemical_formula_structural   La6Al2Zn2Pt13
_chemical_formula_sum   'La6 Al2 Zn2 Pt13'
_cell_volume   468.08560701
_cell_formula_units_Z   1
loop_
 _symmetry_equiv_pos_site_id
 _symmetry_equiv_pos_as_xyz
  1  'x, y, z'
loop_
 _atom_site_type_symbol
 _atom_site_label
 _atom_site_symmetry_multiplicity
 _atom_site_fract_x
 _atom_site_fract_y
 _atom_site_fract_z
 _atom_site_occupancy
  La  La0  1  0.693475  0.696839  0.996636  1
  La  La1  1  0.306525  0.003364  0.303161  1
  La  La2  1  0.000000  0.303160  0.303160  1
  La  La3  1  0.306525  0.303161  0.003364  1
  La  La4  1  0.693475  0.996636  0.696839  1
  La  La5  1  0.000000  0.696840  0.696840  1
  Al  Al6  1  0.000000  0.000000  0.500000  1
  Al  Al7  1  0.000000  0.500000  0.000000  1
  Zn  Zn8  1  0.500000  0.000000  0.000000  1
  Zn  Zn9  1  0.500000  0.500000  0.500000  1
  Pt  Pt10  1  0.319031  0.319044  0.642781  1
  Pt  Pt11  1  0.680969  0.000013  0.323749  1
  Pt  Pt12  1  0.000000  0.682921  0.317079  1
  Pt  Pt13  1  0.680969  0.323749  0.000013  1
  Pt  Pt14  1  0.319031  0.642781  0.319044  1
  Pt  Pt15  1  0.000000  0.317079  0.682921  1
  Pt  Pt16  1  0.319031  0.676251  0.999987  1
  Pt  Pt17  1  0.319031  0.999987  0.676251  1
  Pt  Pt18  1  0.651860  0.325930  0.325930  1
  Pt  Pt19  1  0.680969  0.680956  0.357219  1
  Pt  Pt20  1  0.680969  0.357219  0.680956  1
  Pt  Pt21  1  0.348140  0.674070  0.674070  1
  Pt  Pt22  1  0.000000  0.000000  0.000000  1
