# generated using pymatgen
data_CaHfNiSb2
_symmetry_space_group_name_H-M   'P 1'
_cell_length_a   7.94808731
_cell_length_b   7.94808711
_cell_length_c   7.94808612
_cell_angle_alpha   31.27647260
_cell_angle_beta   31.27647551
_cell_angle_gamma   31.27646658
_symmetry_Int_Tables_number   1
_chemical_formula_structural   CaHfNiSb2
_chemical_formula_sum   'Ca1 Hf1 Ni1 Sb2'
_cell_volume   120.10716236
_cell_formula_units_Z   1
loop_
 _symmetry_equiv_pos_site_id
 _symmetry_equiv_pos_as_xyz
  1  'x, y, z'
loop_
 _atom_site_type_symbol
 _atom_site_label
 _atom_site_symmetry_multiplicity
 _atom_site_fract_x
 _atom_site_fract_y
 _atom_site_fract_z
 _atom_site_occupancy
  Ca  Ca0  1  0.505165  0.505165  0.505165  1
  Hf  Hf1  1  0.995372  0.995372  0.995372  1
  Ni  Ni2  1  0.371742  0.371742  0.371742  1
  Sb  Sb3  1  0.745797  0.745797  0.745797  1
  Sb  Sb4  1  0.256924  0.256924  0.256924  1
