# generated using pymatgen
data_Sc3(Fe2Co)2
_symmetry_space_group_name_H-M   'P 1'
_cell_length_a   4.92372682
_cell_length_b   4.96176791
_cell_length_c   12.05814390
_cell_angle_alpha   89.97741087
_cell_angle_beta   89.76589248
_cell_angle_gamma   120.08314429
_symmetry_Int_Tables_number   1
_chemical_formula_structural   Sc3(Fe2Co)2
_chemical_formula_sum   'Sc6 Fe8 Co4'
_cell_volume   254.90107375
_cell_formula_units_Z   2
loop_
 _symmetry_equiv_pos_site_id
 _symmetry_equiv_pos_as_xyz
  1  'x, y, z'
loop_
 _atom_site_type_symbol
 _atom_site_label
 _atom_site_symmetry_multiplicity
 _atom_site_fract_x
 _atom_site_fract_y
 _atom_site_fract_z
 _atom_site_occupancy
  Sc  Sc0  1  0.333456  0.665026  0.918199  1
  Sc  Sc1  1  0.001740  0.002230  0.248859  1
  Sc  Sc2  1  0.666682  0.333193  0.582910  1
  Sc  Sc3  1  0.333318  0.666807  0.667090  1
  Sc  Sc4  1  0.998260  0.997770  0.001141  1
  Sc  Sc5  1  0.666544  0.334974  0.331801  1
  Fe  Fe6  1  0.166565  0.333973  0.457215  1
  Fe  Fe7  1  0.833435  0.666027  0.792785  1
  Fe  Fe8  1  0.333737  0.667540  0.290468  1
  Fe  Fe9  1  0.000000  0.000000  0.625000  1
  Fe  Fe10  1  0.666263  0.332460  0.959532  1
  Fe  Fe11  1  0.000000  0.500000  0.125000  1
  Fe  Fe12  1  0.667091  0.834511  0.457326  1
  Fe  Fe13  1  0.332909  0.165489  0.792674  1
  Co  Co14  1  0.500000  0.500000  0.125000  1
  Co  Co15  1  0.166913  0.834342  0.457670  1
  Co  Co16  1  0.833087  0.165658  0.792330  1
  Co  Co17  1  0.500000  0.000000  0.125000  1
