# generated using pymatgen
data_Li2BiPd5
_symmetry_space_group_name_H-M   'P 1'
_cell_length_a   5.64262118
_cell_length_b   5.64262149
_cell_length_c   5.77911000
_cell_angle_alpha   59.19654895
_cell_angle_beta   59.19654708
_cell_angle_gamma   62.41546783
_symmetry_Int_Tables_number   1
_chemical_formula_structural   Li2BiPd5
_chemical_formula_sum   'Li2 Bi1 Pd5'
_cell_volume   130.62353883
_cell_formula_units_Z   1
loop_
 _symmetry_equiv_pos_site_id
 _symmetry_equiv_pos_as_xyz
  1  'x, y, z'
loop_
 _atom_site_type_symbol
 _atom_site_label
 _atom_site_symmetry_multiplicity
 _atom_site_fract_x
 _atom_site_fract_y
 _atom_site_fract_z
 _atom_site_occupancy
  Li  Li0  1  0.500000  0.500000  0.500000  1
  Li  Li1  1  0.500000  0.500000  0.000000  1
  Bi  Bi2  1  0.000000  0.000000  0.000000  1
  Pd  Pd3  1  0.000000  0.000000  0.500000  1
  Pd  Pd4  1  0.500000  0.000000  0.500000  1
  Pd  Pd5  1  0.000000  0.500000  0.500000  1
  Pd  Pd6  1  0.000000  0.500000  0.000000  1
  Pd  Pd7  1  0.500000  0.000000  0.000000  1
