# generated using pymatgen
data_Ca5Th(PaH12)2
_symmetry_space_group_name_H-M   'P 1'
_cell_length_a   6.73137400
_cell_length_b   6.84187800
_cell_length_c   6.73137400
_cell_angle_alpha   90.00000000
_cell_angle_beta   90.00000000
_cell_angle_gamma   90.00000000
_symmetry_Int_Tables_number   1
_chemical_formula_structural   Ca5Th(PaH12)2
_chemical_formula_sum   'Ca5 Th1 Pa2 H24'
_cell_volume   310.01504295
_cell_formula_units_Z   1
loop_
 _symmetry_equiv_pos_site_id
 _symmetry_equiv_pos_as_xyz
  1  'x, y, z'
loop_
 _atom_site_type_symbol
 _atom_site_label
 _atom_site_symmetry_multiplicity
 _atom_site_fract_x
 _atom_site_fract_y
 _atom_site_fract_z
 _atom_site_occupancy
  Ca  Ca0  1  0.246361  0.995739  0.500000  1
  Ca  Ca1  1  0.753639  0.995739  0.500000  1
  Ca  Ca2  1  0.000000  0.504261  0.253639  1
  Ca  Ca3  1  0.000000  0.504261  0.746361  1
  Ca  Ca4  1  0.500000  0.750000  0.000000  1
  Th  Th5  1  0.500000  0.250000  0.000000  1
  Pa  Pa6  1  0.000000  0.999542  0.000000  1
  Pa  Pa7  1  0.500000  0.500458  0.500000  1
  H  H8  1  0.000000  0.151366  0.283799  1
  H  H9  1  0.500000  0.215438  0.655690  1
  H  H10  1  0.500000  0.780759  0.347880  1
  H  H11  1  0.786547  0.649788  0.500000  1
  H  H12  1  0.213453  0.649788  0.500000  1
  H  H13  1  0.349827  0.488917  0.798167  1
  H  H14  1  0.650173  0.488917  0.798167  1
  H  H15  1  0.298167  0.011083  0.150173  1
  H  H16  1  0.155690  0.284562  0.000000  1
  H  H17  1  0.847880  0.719241  0.000000  1
  H  H18  1  0.298167  0.011083  0.849827  1
  H  H19  1  0.844310  0.284562  0.000000  1
  H  H20  1  0.701833  0.011083  0.150173  1
  H  H21  1  0.701833  0.011083  0.849827  1
  H  H22  1  0.152120  0.719241  0.000000  1
  H  H23  1  0.000000  0.850212  0.713453  1
  H  H24  1  0.000000  0.151366  0.716201  1
  H  H25  1  0.000000  0.850212  0.286547  1
  H  H26  1  0.650173  0.488917  0.201833  1
  H  H27  1  0.349827  0.488917  0.201833  1
  H  H28  1  0.783799  0.348634  0.500000  1
  H  H29  1  0.216201  0.348634  0.500000  1
  H  H30  1  0.500000  0.780759  0.652120  1
  H  H31  1  0.500000  0.215438  0.344310  1
