# generated using pymatgen
data_AlV3(ZnCo3)2
_symmetry_space_group_name_H-M   'P 1'
_cell_length_a   4.05108400
_cell_length_b   5.74830104
_cell_length_c   12.14866708
_cell_angle_alpha   90.01337467
_cell_angle_beta   89.99974064
_cell_angle_gamma   90.00031507
_symmetry_Int_Tables_number   1
_chemical_formula_structural   AlV3(ZnCo3)2
_chemical_formula_sum   'Al2 V6 Zn4 Co12'
_cell_volume   282.90418480
_cell_formula_units_Z   2
loop_
 _symmetry_equiv_pos_site_id
 _symmetry_equiv_pos_as_xyz
  1  'x, y, z'
loop_
 _atom_site_type_symbol
 _atom_site_label
 _atom_site_symmetry_multiplicity
 _atom_site_fract_x
 _atom_site_fract_y
 _atom_site_fract_z
 _atom_site_occupancy
  Al  Al0  1  0.000001  0.500229  0.000019  1
  Al  Al1  1  0.500116  0.999948  0.166747  1
  V  V2  1  0.000004  0.999901  0.997679  1
  V  V3  1  0.500052  0.500003  0.169052  1
  V  V4  1  0.000039  0.999805  0.336527  1
  V  V5  1  0.499995  0.500209  0.501045  1
  V  V6  1  0.999977  0.999906  0.665621  1
  V  V7  1  0.499959  0.500161  0.830066  1
  Zn  Zn8  1  0.000135  0.500152  0.333056  1
  Zn  Zn9  1  0.500000  0.999832  0.499898  1
  Zn  Zn10  1  0.999865  0.500052  0.666766  1
  Zn  Zn11  1  0.499868  0.999868  0.833555  1
  Co  Co12  1  0.500002  0.251731  0.001452  1
  Co  Co13  1  0.500004  0.748240  0.001408  1
  Co  Co14  1  0.000102  0.248028  0.165219  1
  Co  Co15  1  0.000102  0.751939  0.165231  1
  Co  Co16  1  0.500114  0.247997  0.332045  1
  Co  Co17  1  0.500114  0.751955  0.332068  1
  Co  Co18  1  0.000000  0.250199  0.500180  1
  Co  Co19  1  0.000001  0.749803  0.500166  1
  Co  Co20  1  0.499886  0.249522  0.666521  1
  Co  Co21  1  0.499885  0.750516  0.666533  1
  Co  Co22  1  0.999889  0.251762  0.834567  1
  Co  Co23  1  0.999890  0.748236  0.834582  1
