# generated using pymatgen
data_Zr10TlAg(Bi2Pb)2
_symmetry_space_group_name_H-M   'P 1'
_cell_length_a   8.94996315
_cell_length_b   8.94996359
_cell_length_c   6.02354418
_cell_angle_alpha   90.01416750
_cell_angle_beta   90.01417155
_cell_angle_gamma   119.90425502
_symmetry_Int_Tables_number   1
_chemical_formula_structural   Zr10TlAg(Bi2Pb)2
_chemical_formula_sum   'Zr10 Tl1 Ag1 Bi4 Pb2'
_cell_volume   418.25716533
_cell_formula_units_Z   1
loop_
 _symmetry_equiv_pos_site_id
 _symmetry_equiv_pos_as_xyz
  1  'x, y, z'
loop_
 _atom_site_type_symbol
 _atom_site_label
 _atom_site_symmetry_multiplicity
 _atom_site_fract_x
 _atom_site_fract_y
 _atom_site_fract_z
 _atom_site_occupancy
  Zr  Zr0  1  0.666874  0.332984  0.001487  1
  Zr  Zr1  1  0.332984  0.666874  0.001487  1
  Zr  Zr2  1  0.333339  0.667039  0.498925  1
  Zr  Zr3  1  0.667039  0.333339  0.498925  1
  Zr  Zr4  1  0.720990  0.720990  0.748125  1
  Zr  Zr5  1  0.278706  0.999914  0.747850  1
  Zr  Zr6  1  0.999914  0.278706  0.747850  1
  Zr  Zr7  1  0.280246  0.280246  0.251981  1
  Zr  Zr8  1  0.719376  0.000873  0.251632  1
  Zr  Zr9  1  0.000873  0.719376  0.251632  1
  Tl  Tl10  1  0.000068  0.000068  0.002022  1
  Ag  Ag11  1  0.000544  0.000544  0.497783  1
  Bi  Bi12  1  0.381514  0.381514  0.749245  1
  Bi  Bi13  1  0.617934  0.000693  0.748938  1
  Bi  Bi14  1  0.000693  0.617934  0.748938  1
  Bi  Bi15  1  0.618293  0.618293  0.251042  1
  Pb  Pb16  1  0.380419  0.000196  0.251069  1
  Pb  Pb17  1  0.000196  0.380419  0.251069  1
