# generated using pymatgen
data_Hf4TaTi2NbP4
_symmetry_space_group_name_H-M   'P 1'
_cell_length_a   3.52366900
_cell_length_b   6.79918039
_cell_length_c   8.26423228
_cell_angle_alpha   90.07052503
_cell_angle_beta   90.00000000
_cell_angle_gamma   90.00000000
_symmetry_Int_Tables_number   1
_chemical_formula_structural   Hf4TaTi2NbP4
_chemical_formula_sum   'Hf4 Ta1 Ti2 Nb1 P4'
_cell_volume   197.99483252
_cell_formula_units_Z   1
loop_
 _symmetry_equiv_pos_site_id
 _symmetry_equiv_pos_as_xyz
  1  'x, y, z'
loop_
 _atom_site_type_symbol
 _atom_site_label
 _atom_site_symmetry_multiplicity
 _atom_site_fract_x
 _atom_site_fract_y
 _atom_site_fract_z
 _atom_site_occupancy
  Hf  Hf0  1  0.250000  0.033552  0.666568  1
  Hf  Hf1  1  0.250000  0.533532  0.831936  1
  Hf  Hf2  1  0.750000  0.464107  0.168804  1
  Hf  Hf3  1  0.750000  0.965651  0.331871  1
  Ta  Ta4  1  0.250000  0.639685  0.440592  1
  Ti  Ti5  1  0.750000  0.862800  0.940249  1
  Ti  Ti6  1  0.750000  0.362865  0.560958  1
  Nb  Nb7  1  0.250000  0.138953  0.058880  1
  P  P8  1  0.250000  0.263440  0.362886  1
  P  P9  1  0.250000  0.761622  0.138349  1
  P  P10  1  0.750000  0.737141  0.645908  1
  P  P11  1  0.750000  0.236652  0.852999  1
