# generated using pymatgen
data_Er4Al18Ir5Au
_symmetry_space_group_name_H-M   'P 1'
_cell_length_a   7.58693961
_cell_length_b   7.58694014
_cell_length_c   9.45705137
_cell_angle_alpha   89.98423521
_cell_angle_beta   89.98423079
_cell_angle_gamma   119.59824685
_symmetry_Int_Tables_number   1
_chemical_formula_structural   Er4Al18Ir5Au
_chemical_formula_sum   'Er4 Al18 Ir5 Au1'
_cell_volume   473.32949784
_cell_formula_units_Z   1
loop_
 _symmetry_equiv_pos_site_id
 _symmetry_equiv_pos_as_xyz
  1  'x, y, z'
loop_
 _atom_site_type_symbol
 _atom_site_label
 _atom_site_symmetry_multiplicity
 _atom_site_fract_x
 _atom_site_fract_y
 _atom_site_fract_z
 _atom_site_occupancy
  Er  Er0  1  0.996011  0.673138  0.251596  1
  Er  Er1  1  0.003989  0.326862  0.748404  1
  Er  Er2  1  0.673138  0.996011  0.251596  1
  Er  Er3  1  0.326862  0.003989  0.748404  1
  Al  Al4  1  0.134701  0.134701  0.255850  1
  Al  Al5  1  0.865299  0.865299  0.744150  1
  Al  Al6  1  0.001037  0.343875  0.079683  1
  Al  Al7  1  0.998963  0.656125  0.920317  1
  Al  Al8  1  0.000283  0.664627  0.574697  1
  Al  Al9  1  0.335373  0.999717  0.425303  1
  Al  Al10  1  0.999717  0.335373  0.425303  1
  Al  Al11  1  0.664627  0.000283  0.574697  1
  Al  Al12  1  0.656125  0.998963  0.920317  1
  Al  Al13  1  0.343875  0.001037  0.079683  1
  Al  Al14  1  0.333041  0.333041  0.554031  1
  Al  Al15  1  0.666959  0.666959  0.445969  1
  Al  Al16  1  0.658414  0.658414  0.060484  1
  Al  Al17  1  0.341586  0.341586  0.939516  1
  Al  Al18  1  0.339003  0.550324  0.251203  1
  Al  Al19  1  0.660997  0.449676  0.748797  1
  Al  Al20  1  0.550324  0.339003  0.251203  1
  Al  Al21  1  0.449676  0.660997  0.748797  1
  Ir  Ir22  1  0.671990  0.328010  0.000000  1
  Ir  Ir23  1  0.328010  0.671990  0.000000  1
  Ir  Ir24  1  0.327932  0.672068  0.500000  1
  Ir  Ir25  1  0.672068  0.327932  0.500000  1
  Ir  Ir26  1  0.000000  0.000000  0.500000  1
  Au  Au27  1  0.000000  0.000000  0.000000  1
