# generated using pymatgen
data_Sm4Tm(SiHg)2
_symmetry_space_group_name_H-M   'P 1'
_cell_length_a   9.00082974
_cell_length_b   9.00083033
_cell_length_c   7.61842700
_cell_angle_alpha   90.00000000
_cell_angle_beta   90.00000000
_cell_angle_gamma   130.13476545
_symmetry_Int_Tables_number   1
_chemical_formula_structural   Sm4Tm(SiHg)2
_chemical_formula_sum   'Sm8 Tm2 Si4 Hg4'
_cell_volume   471.87308340
_cell_formula_units_Z   2
loop_
 _symmetry_equiv_pos_site_id
 _symmetry_equiv_pos_as_xyz
  1  'x, y, z'
loop_
 _atom_site_type_symbol
 _atom_site_label
 _atom_site_symmetry_multiplicity
 _atom_site_fract_x
 _atom_site_fract_y
 _atom_site_fract_z
 _atom_site_occupancy
  Sm  Sm0  1  0.556281  0.810714  0.176790  1
  Sm  Sm1  1  0.310714  0.056281  0.323210  1
  Sm  Sm2  1  0.189286  0.443719  0.823210  1
  Sm  Sm3  1  0.943719  0.689286  0.676790  1
  Sm  Sm4  1  0.689286  0.943719  0.676790  1
  Sm  Sm5  1  0.443719  0.189286  0.823210  1
  Sm  Sm6  1  0.810714  0.556281  0.176790  1
  Sm  Sm7  1  0.056281  0.310714  0.323210  1
  Tm  Tm8  1  0.500000  0.500000  0.500000  1
  Tm  Tm9  1  0.000000  0.000000  0.000000  1
  Si  Si10  1  0.617744  0.617744  0.879572  1
  Si  Si11  1  0.117744  0.117744  0.620428  1
  Si  Si12  1  0.882256  0.882256  0.379572  1
  Si  Si13  1  0.382256  0.382256  0.120428  1
  Hg  Hg14  1  0.281450  0.718550  0.500000  1
  Hg  Hg15  1  0.218550  0.781450  0.000000  1
  Hg  Hg16  1  0.718550  0.281450  0.500000  1
  Hg  Hg17  1  0.781450  0.218550  0.000000  1
