# generated using pymatgen
data_Nd2Al3GaCu6
_symmetry_space_group_name_H-M   'P 1'
_cell_length_a   4.22340900
_cell_length_b   5.18493235
_cell_length_c   9.13194000
_cell_angle_alpha   90.20855540
_cell_angle_beta   90.00000000
_cell_angle_gamma   90.00000000
_symmetry_Int_Tables_number   1
_chemical_formula_structural   Nd2Al3GaCu6
_chemical_formula_sum   'Nd2 Al3 Ga1 Cu6'
_cell_volume   199.97071874
_cell_formula_units_Z   1
loop_
 _symmetry_equiv_pos_site_id
 _symmetry_equiv_pos_as_xyz
  1  'x, y, z'
loop_
 _atom_site_type_symbol
 _atom_site_label
 _atom_site_symmetry_multiplicity
 _atom_site_fract_x
 _atom_site_fract_y
 _atom_site_fract_z
 _atom_site_occupancy
  Nd  Nd0  1  0.000000  0.244873  0.748916  1
  Nd  Nd1  1  0.000000  0.755127  0.251084  1
  Al  Al2  1  0.500000  0.727695  0.749695  1
  Al  Al3  1  0.500000  0.272305  0.250305  1
  Al  Al4  1  0.500000  0.000000  0.000000  1
  Ga  Ga5  1  0.500000  0.000000  0.500000  1
  Cu  Cu6  1  0.000000  0.251267  0.082613  1
  Cu  Cu7  1  0.000000  0.742437  0.583434  1
  Cu  Cu8  1  0.000000  0.748733  0.917387  1
  Cu  Cu9  1  0.000000  0.257563  0.416566  1
  Cu  Cu10  1  0.500000  0.500000  0.500000  1
  Cu  Cu11  1  0.500000  0.500000  0.000000  1
