# generated using pymatgen
data_Li3Al2FePd10
_symmetry_space_group_name_H-M   'P 1'
_cell_length_a   4.12691300
_cell_length_b   5.36014973
_cell_length_c   10.40114492
_cell_angle_alpha   90.62911623
_cell_angle_beta   90.00000000
_cell_angle_gamma   90.00000000
_symmetry_Int_Tables_number   1
_chemical_formula_structural   Li3Al2FePd10
_chemical_formula_sum   'Li3 Al2 Fe1 Pd10'
_cell_volume   230.06852157
_cell_formula_units_Z   1
loop_
 _symmetry_equiv_pos_site_id
 _symmetry_equiv_pos_as_xyz
  1  'x, y, z'
loop_
 _atom_site_type_symbol
 _atom_site_label
 _atom_site_symmetry_multiplicity
 _atom_site_fract_x
 _atom_site_fract_y
 _atom_site_fract_z
 _atom_site_occupancy
  Li  Li0  1  0.500000  0.837598  0.638373  1
  Li  Li1  1  0.500000  0.661553  0.133046  1
  Li  Li2  1  0.500000  0.341954  0.863989  1
  Al  Al3  1  0.000000  0.997257  0.998672  1
  Al  Al4  1  0.000000  0.498925  0.502532  1
  Fe  Fe5  1  0.500000  0.158967  0.361789  1
  Pd  Pd6  1  0.500000  0.172600  0.111130  1
  Pd  Pd7  1  0.500000  0.827808  0.890101  1
  Pd  Pd8  1  0.500000  0.672884  0.390699  1
  Pd  Pd9  1  0.500000  0.319365  0.607039  1
  Pd  Pd10  1  0.000000  0.997586  0.499937  1
  Pd  Pd11  1  0.000000  0.498309  0.999497  1
  Pd  Pd12  1  0.000000  0.893386  0.237741  1
  Pd  Pd13  1  0.000000  0.116010  0.764857  1
  Pd  Pd14  1  0.000000  0.391887  0.263988  1
  Pd  Pd15  1  0.000000  0.613908  0.736610  1
