# generated using pymatgen
data_Ti12P7
_symmetry_space_group_name_H-M   'P 1'
_cell_length_a   9.75091900
_cell_length_b   9.75091913
_cell_length_c   3.41861800
_cell_angle_alpha   90.00000000
_cell_angle_beta   90.00000000
_cell_angle_gamma   119.99999618
_symmetry_Int_Tables_number   1
_chemical_formula_structural   Ti12P7
_chemical_formula_sum   'Ti12 P7'
_cell_volume   281.49606398
_cell_formula_units_Z   1
loop_
 _symmetry_equiv_pos_site_id
 _symmetry_equiv_pos_as_xyz
  1  'x, y, z'
loop_
 _atom_site_type_symbol
 _atom_site_label
 _atom_site_symmetry_multiplicity
 _atom_site_fract_x
 _atom_site_fract_y
 _atom_site_fract_z
 _atom_site_occupancy
  Ti  Ti0  1  0.376043  0.507244  0.000000  1
  Ti  Ti1  1  0.131200  0.623957  0.000000  1
  Ti  Ti2  1  0.492756  0.868800  0.000000  1
  Ti  Ti3  1  0.011531  0.263598  0.000000  1
  Ti  Ti4  1  0.252067  0.988469  0.000000  1
  Ti  Ti5  1  0.736402  0.747933  0.000000  1
  Ti  Ti6  1  0.516025  0.131659  0.500000  1
  Ti  Ti7  1  0.615634  0.483975  0.500000  1
  Ti  Ti8  1  0.868341  0.384366  0.500000  1
  Ti  Ti9  1  0.796988  0.008703  0.500000  1
  Ti  Ti10  1  0.211715  0.203012  0.500000  1
  Ti  Ti11  1  0.991297  0.788285  0.500000  1
  P  P12  1  0.000000  0.000000  0.000000  1
  P  P13  1  0.439708  0.280730  0.000000  1
  P  P14  1  0.841023  0.560292  0.000000  1
  P  P15  1  0.719270  0.158977  0.000000  1
  P  P16  1  0.168868  0.454856  0.500000  1
  P  P17  1  0.285987  0.831132  0.500000  1
  P  P18  1  0.545144  0.714013  0.500000  1
