# generated using pymatgen
data_Ce2HoLu5(ReB6)4
_symmetry_space_group_name_H-M   'P 1'
_cell_length_a   3.66364500
_cell_length_b   9.11414096
_cell_length_c   11.49381900
_cell_angle_alpha   90.09927119
_cell_angle_beta   90.00000000
_cell_angle_gamma   90.00000000
_symmetry_Int_Tables_number   1
_chemical_formula_structural   Ce2HoLu5(ReB6)4
_chemical_formula_sum   'Ce2 Ho1 Lu5 Re4 B24'
_cell_volume   383.78926946
_cell_formula_units_Z   1
loop_
 _symmetry_equiv_pos_site_id
 _symmetry_equiv_pos_as_xyz
  1  'x, y, z'
loop_
 _atom_site_type_symbol
 _atom_site_label
 _atom_site_symmetry_multiplicity
 _atom_site_fract_x
 _atom_site_fract_y
 _atom_site_fract_z
 _atom_site_occupancy
  Ce  Ce0  1  0.000000  0.321565  0.413592  1
  Ce  Ce1  1  0.000000  0.678430  0.586493  1
  Ho  Ho2  1  0.000000  0.823760  0.085361  1
  Lu  Lu3  1  0.000000  0.176086  0.914670  1
  Lu  Lu4  1  0.000000  0.944110  0.370064  1
  Lu  Lu5  1  0.000000  0.056028  0.630033  1
  Lu  Lu6  1  0.000000  0.443131  0.127839  1
  Lu  Lu7  1  0.000000  0.556553  0.872021  1
  Re  Re8  1  0.000000  0.638824  0.320280  1
  Re  Re9  1  0.000000  0.360891  0.680079  1
  Re  Re10  1  0.000000  0.139690  0.179231  1
  Re  Re11  1  0.000000  0.860903  0.820446  1
  B  B12  1  0.500000  0.554756  0.430872  1
  B  B13  1  0.500000  0.445184  0.569171  1
  B  B14  1  0.500000  0.053824  0.065842  1
  B  B15  1  0.500000  0.946852  0.933742  1
  B  B16  1  0.500000  0.751345  0.416777  1
  B  B17  1  0.500000  0.248666  0.583320  1
  B  B18  1  0.500000  0.249948  0.079380  1
  B  B19  1  0.500000  0.750049  0.919924  1
  B  B20  1  0.500000  0.793346  0.263921  1
  B  B21  1  0.500000  0.206425  0.736552  1
  B  B22  1  0.500000  0.291983  0.232696  1
  B  B23  1  0.500000  0.708026  0.767212  1
  B  B24  1  0.500000  0.630895  0.183557  1
  B  B25  1  0.500000  0.368643  0.816788  1
  B  B26  1  0.500000  0.130028  0.313437  1
  B  B27  1  0.500000  0.870095  0.686602  1
  B  B28  1  0.500000  0.981987  0.211202  1
  B  B29  1  0.500000  0.018705  0.789036  1
  B  B30  1  0.500000  0.483159  0.285364  1
  B  B31  1  0.500000  0.516726  0.714666  1
  B  B32  1  0.500000  0.600192  0.027746  1
  B  B33  1  0.500000  0.399170  0.972053  1
  B  B34  1  0.500000  0.099701  0.472294  1
  B  B35  1  0.500000  0.900322  0.527737  1
