# generated using pymatgen
data_SrSm6CoI12
_symmetry_space_group_name_H-M   'P 1'
_cell_length_a   9.98781645
_cell_length_b   9.98781630
_cell_length_c   9.98781725
_cell_angle_alpha   106.46918636
_cell_angle_beta   106.46918349
_cell_angle_gamma   106.46920587
_symmetry_Int_Tables_number   1
_chemical_formula_structural   SrSm6CoI12
_chemical_formula_sum   'Sr1 Sm6 Co1 I12'
_cell_volume   841.49526679
_cell_formula_units_Z   1
loop_
 _symmetry_equiv_pos_site_id
 _symmetry_equiv_pos_as_xyz
  1  'x, y, z'
loop_
 _atom_site_type_symbol
 _atom_site_label
 _atom_site_symmetry_multiplicity
 _atom_site_fract_x
 _atom_site_fract_y
 _atom_site_fract_z
 _atom_site_occupancy
  Sr  Sr0  1  0.998050  0.998050  0.998050  1
  Sm  Sm1  1  0.517235  0.590593  0.789753  1
  Sm  Sm2  1  0.789753  0.517235  0.590593  1
  Sm  Sm3  1  0.590593  0.789753  0.517235  1
  Sm  Sm4  1  0.480597  0.407144  0.208156  1
  Sm  Sm5  1  0.208156  0.480597  0.407144  1
  Sm  Sm6  1  0.407144  0.208156  0.480597  1
  Co  Co7  1  0.498971  0.498971  0.498971  1
  I  I8  1  0.275473  0.820404  0.425393  1
  I  I9  1  0.425393  0.275473  0.820404  1
  I  I10  1  0.820404  0.425393  0.275473  1
  I  I11  1  0.722254  0.177491  0.572360  1
  I  I12  1  0.572360  0.722254  0.177491  1
  I  I13  1  0.177491  0.572360  0.722254  1
  I  I14  1  0.050442  0.130886  0.358856  1
  I  I15  1  0.358856  0.050442  0.130886  1
  I  I16  1  0.130886  0.358856  0.050442  1
  I  I17  1  0.947057  0.866632  0.637617  1
  I  I18  1  0.637617  0.947057  0.866632  1
  I  I19  1  0.866632  0.637617  0.947057  1
