# generated using pymatgen
data_ScBeAl6Cu5
_symmetry_space_group_name_H-M   'P 1'
_cell_length_a   6.50439045
_cell_length_b   6.50438928
_cell_length_c   6.50416587
_cell_angle_alpha   134.28003200
_cell_angle_beta   98.54534209
_cell_angle_gamma   98.81655569
_symmetry_Int_Tables_number   1
_chemical_formula_structural   ScBeAl6Cu5
_chemical_formula_sum   'Sc1 Be1 Al6 Cu5'
_cell_volume   181.52854089
_cell_formula_units_Z   1
loop_
 _symmetry_equiv_pos_site_id
 _symmetry_equiv_pos_as_xyz
  1  'x, y, z'
loop_
 _atom_site_type_symbol
 _atom_site_label
 _atom_site_symmetry_multiplicity
 _atom_site_fract_x
 _atom_site_fract_y
 _atom_site_fract_z
 _atom_site_occupancy
  Sc  Sc0  1  0.003279  0.000096  0.003376  1
  Be  Be1  1  0.238163  0.500038  0.738201  1
  Al  Al2  1  0.345704  0.344334  0.001456  1
  Al  Al3  1  0.657122  0.655752  0.001456  1
  Al  Al4  1  0.659047  0.000088  0.659135  1
  Al  Al5  1  0.347815  0.000012  0.347827  1
  Al  Al6  1  0.806233  0.309835  0.496515  1
  Al  Al7  1  0.186681  0.690282  0.496515  1
  Cu  Cu8  1  0.487916  0.987222  0.994923  1
  Cu  Cu9  1  0.487542  0.492527  0.500274  1
  Cu  Cu10  1  0.007747  0.012732  0.500274  1
  Cu  Cu11  1  0.007701  0.507006  0.994923  1
  Cu  Cu12  1  0.765050  0.500075  0.265125  1
