# generated using pymatgen
data_Ho(GaTc2)2
_symmetry_space_group_name_H-M   'P 1'
_cell_length_a   7.29582000
_cell_length_b   7.29582000
_cell_length_c   4.37982500
_cell_angle_alpha   90.00000000
_cell_angle_beta   90.00000000
_cell_angle_gamma   90.00000000
_symmetry_Int_Tables_number   1
_chemical_formula_structural   Ho(GaTc2)2
_chemical_formula_sum   'Ho2 Ga4 Tc8'
_cell_volume   233.13365882
_cell_formula_units_Z   2
loop_
 _symmetry_equiv_pos_site_id
 _symmetry_equiv_pos_as_xyz
  1  'x, y, z'
loop_
 _atom_site_type_symbol
 _atom_site_label
 _atom_site_symmetry_multiplicity
 _atom_site_fract_x
 _atom_site_fract_y
 _atom_site_fract_z
 _atom_site_occupancy
  Ho  Ho0  1  0.000000  0.000000  0.000000  1
  Ho  Ho1  1  0.500000  0.500000  0.500000  1
  Ga  Ga2  1  0.292959  0.292959  0.000000  1
  Ga  Ga3  1  0.707041  0.707041  0.000000  1
  Ga  Ga4  1  0.792959  0.207041  0.500000  1
  Ga  Ga5  1  0.207041  0.792959  0.500000  1
  Tc  Tc6  1  0.607084  0.145120  0.000000  1
  Tc  Tc7  1  0.392916  0.854880  0.000000  1
  Tc  Tc8  1  0.645120  0.892916  0.500000  1
  Tc  Tc9  1  0.107084  0.354880  0.500000  1
  Tc  Tc10  1  0.354880  0.107084  0.500000  1
  Tc  Tc11  1  0.892916  0.645120  0.500000  1
  Tc  Tc12  1  0.145120  0.607084  0.000000  1
  Tc  Tc13  1  0.854880  0.392916  0.000000  1
