# generated using pymatgen
data_Yb5Tm(Si3Ru)8
_symmetry_space_group_name_H-M   'P 1'
_cell_length_a   10.15959567
_cell_length_b   10.15959662
_cell_length_c   8.14810053
_cell_angle_alpha   90.01105290
_cell_angle_beta   90.01105433
_cell_angle_gamma   132.67151558
_symmetry_Int_Tables_number   1
_chemical_formula_structural   Yb5Tm(Si3Ru)8
_chemical_formula_sum   'Yb5 Tm1 Si24 Ru8'
_cell_volume   618.36546236
_cell_formula_units_Z   1
loop_
 _symmetry_equiv_pos_site_id
 _symmetry_equiv_pos_as_xyz
  1  'x, y, z'
loop_
 _atom_site_type_symbol
 _atom_site_label
 _atom_site_symmetry_multiplicity
 _atom_site_fract_x
 _atom_site_fract_y
 _atom_site_fract_z
 _atom_site_occupancy
  Yb  Yb0  1  0.000000  0.000000  0.000000  1
  Yb  Yb1  1  0.501826  0.001946  0.750042  1
  Yb  Yb2  1  0.998054  0.498174  0.249958  1
  Yb  Yb3  1  0.498174  0.998054  0.249958  1
  Yb  Yb4  1  0.001946  0.501826  0.750042  1
  Tm  Tm5  1  0.500000  0.500000  0.500000  1
  Si  Si6  1  0.793786  0.206214  0.500000  1
  Si  Si7  1  0.293864  0.706136  0.000000  1
  Si  Si8  1  0.206214  0.793786  0.500000  1
  Si  Si9  1  0.706136  0.293864  0.000000  1
  Si  Si10  1  0.332146  0.332146  0.833765  1
  Si  Si11  1  0.667854  0.667854  0.166235  1
  Si  Si12  1  0.165717  0.165717  0.331350  1
  Si  Si13  1  0.834283  0.834283  0.668650  1
  Si  Si14  1  0.123312  0.890330  0.729857  1
  Si  Si15  1  0.109670  0.876688  0.270143  1
  Si  Si16  1  0.609476  0.375954  0.228765  1
  Si  Si17  1  0.624046  0.390524  0.771235  1
  Si  Si18  1  0.876688  0.109670  0.270143  1
  Si  Si19  1  0.890330  0.123312  0.729857  1
  Si  Si20  1  0.390524  0.624046  0.771235  1
  Si  Si21  1  0.375954  0.609476  0.228765  1
  Si  Si22  1  0.345323  0.111082  0.506217  1
  Si  Si23  1  0.888918  0.654677  0.493783  1
  Si  Si24  1  0.386095  0.152968  0.006734  1
  Si  Si25  1  0.847032  0.613905  0.993266  1
  Si  Si26  1  0.654677  0.888918  0.493783  1
  Si  Si27  1  0.111082  0.345323  0.506217  1
  Si  Si28  1  0.613905  0.847032  0.993266  1
  Si  Si29  1  0.152968  0.386095  0.006734  1
  Ru  Ru30  1  0.668196  0.331804  0.500000  1
  Ru  Ru31  1  0.169269  0.830731  0.000000  1
  Ru  Ru32  1  0.331804  0.668196  0.500000  1
  Ru  Ru33  1  0.830731  0.169269  0.000000  1
  Ru  Ru34  1  0.128736  0.128736  0.623881  1
  Ru  Ru35  1  0.871264  0.871264  0.376119  1
  Ru  Ru36  1  0.375357  0.375357  0.127606  1
  Ru  Ru37  1  0.624643  0.624643  0.872394  1
