# generated using pymatgen
data_LiSm2(PRh2)6
_symmetry_space_group_name_H-M   'P 1'
_cell_length_a   9.66672400
_cell_length_b   9.66672402
_cell_length_c   3.93548300
_cell_angle_alpha   90.00000000
_cell_angle_beta   90.00000000
_cell_angle_gamma   120.00000678
_symmetry_Int_Tables_number   1
_chemical_formula_structural   LiSm2(PRh2)6
_chemical_formula_sum   'Li1 Sm2 P6 Rh12'
_cell_volume   318.48375246
_cell_formula_units_Z   1
loop_
 _symmetry_equiv_pos_site_id
 _symmetry_equiv_pos_as_xyz
  1  'x, y, z'
loop_
 _atom_site_type_symbol
 _atom_site_label
 _atom_site_symmetry_multiplicity
 _atom_site_fract_x
 _atom_site_fract_y
 _atom_site_fract_z
 _atom_site_occupancy
  Li  Li0  1  0.000000  0.000000  0.500000  1
  Sm  Sm1  1  0.333333  0.666667  0.751082  1
  Sm  Sm2  1  0.666667  0.333333  0.248918  1
  P  P3  1  0.398040  0.282841  0.748983  1
  P  P4  1  0.717159  0.115197  0.748983  1
  P  P5  1  0.884803  0.601960  0.748983  1
  P  P6  1  0.601960  0.717159  0.251017  1
  P  P7  1  0.282841  0.884803  0.251017  1
  P  P8  1  0.115197  0.398040  0.251017  1
  Rh  Rh9  1  0.451236  0.063927  0.749483  1
  Rh  Rh10  1  0.936073  0.387309  0.749483  1
  Rh  Rh11  1  0.612691  0.548764  0.749483  1
  Rh  Rh12  1  0.548764  0.936073  0.250517  1
  Rh  Rh13  1  0.063927  0.612691  0.250517  1
  Rh  Rh14  1  0.387309  0.451236  0.250517  1
  Rh  Rh15  1  0.158386  0.285712  0.750712  1
  Rh  Rh16  1  0.714288  0.872675  0.750712  1
  Rh  Rh17  1  0.127325  0.841614  0.750712  1
  Rh  Rh18  1  0.841614  0.714288  0.249288  1
  Rh  Rh19  1  0.285712  0.127325  0.249288  1
  Rh  Rh20  1  0.872675  0.158386  0.249288  1
