# generated using pymatgen
data_Li2LaAs2Pd
_symmetry_space_group_name_H-M   'P 1'
_cell_length_a   4.31147500
_cell_length_b   4.31147486
_cell_length_c   7.05046900
_cell_angle_alpha   90.00000000
_cell_angle_beta   90.00000000
_cell_angle_gamma   119.99999343
_symmetry_Int_Tables_number   1
_chemical_formula_structural   Li2LaAs2Pd
_chemical_formula_sum   'Li2 La1 As2 Pd1'
_cell_volume   113.50118550
_cell_formula_units_Z   1
loop_
 _symmetry_equiv_pos_site_id
 _symmetry_equiv_pos_as_xyz
  1  'x, y, z'
loop_
 _atom_site_type_symbol
 _atom_site_label
 _atom_site_symmetry_multiplicity
 _atom_site_fract_x
 _atom_site_fract_y
 _atom_site_fract_z
 _atom_site_occupancy
  Li  Li0  1  0.000000  0.000000  0.499311  1
  Li  Li1  1  0.333333  0.666667  0.358188  1
  La  La2  1  0.000000  0.000000  0.994686  1
  As  As3  1  0.666667  0.333333  0.264023  1
  As  As4  1  0.333333  0.666667  0.737163  1
  Pd  Pd5  1  0.666667  0.333333  0.646628  1
