# generated using pymatgen
data_Sr3NdHo4(Si3Pd)4
_symmetry_space_group_name_H-M   'P 1'
_cell_length_a   8.27771500
_cell_length_b   8.27771520
_cell_length_c   8.41567800
_cell_angle_alpha   90.00000000
_cell_angle_beta   90.00000000
_cell_angle_gamma   119.99999519
_symmetry_Int_Tables_number   1
_chemical_formula_structural   Sr3NdHo4(Si3Pd)4
_chemical_formula_sum   'Sr3 Nd1 Ho4 Si12 Pd4'
_cell_volume   499.39100198
_cell_formula_units_Z   1
loop_
 _symmetry_equiv_pos_site_id
 _symmetry_equiv_pos_as_xyz
  1  'x, y, z'
loop_
 _atom_site_type_symbol
 _atom_site_label
 _atom_site_symmetry_multiplicity
 _atom_site_fract_x
 _atom_site_fract_y
 _atom_site_fract_z
 _atom_site_occupancy
  Sr  Sr0  1  0.500669  0.499331  0.250000  1
  Sr  Sr1  1  0.998662  0.499331  0.250000  1
  Sr  Sr2  1  0.500669  0.001338  0.250000  1
  Nd  Nd3  1  0.000000  0.000000  0.250000  1
  Ho  Ho4  1  0.499359  0.500641  0.750000  1
  Ho  Ho5  1  0.001282  0.500641  0.750000  1
  Ho  Ho6  1  0.499359  0.998718  0.750000  1
  Ho  Ho7  1  0.000000  0.000000  0.750000  1
  Si  Si8  1  0.836019  0.163981  0.984194  1
  Si  Si9  1  0.163758  0.836242  0.983827  1
  Si  Si10  1  0.327963  0.163981  0.984194  1
  Si  Si11  1  0.163758  0.836242  0.516173  1
  Si  Si12  1  0.672483  0.836242  0.983827  1
  Si  Si13  1  0.836019  0.163981  0.515806  1
  Si  Si14  1  0.836019  0.672037  0.984194  1
  Si  Si15  1  0.672483  0.836242  0.516173  1
  Si  Si16  1  0.163758  0.327517  0.983827  1
  Si  Si17  1  0.327963  0.163981  0.515806  1
  Si  Si18  1  0.163758  0.327517  0.516173  1
  Si  Si19  1  0.836019  0.672037  0.515806  1
  Pd  Pd20  1  0.666667  0.333333  0.965563  1
  Pd  Pd21  1  0.333333  0.666667  0.971134  1
  Pd  Pd22  1  0.333333  0.666667  0.528866  1
  Pd  Pd23  1  0.666667  0.333333  0.534437  1
