# generated using pymatgen
data_Sr2Er4Ir13Rh5
_symmetry_space_group_name_H-M   'P 1'
_cell_length_a   5.33107500
_cell_length_b   5.33675600
_cell_length_c   17.49657500
_cell_angle_alpha   90.01947523
_cell_angle_beta   90.00000000
_cell_angle_gamma   119.96478654
_symmetry_Int_Tables_number   1
_chemical_formula_structural   Sr2Er4Ir13Rh5
_chemical_formula_sum   'Sr2 Er4 Ir13 Rh5'
_cell_volume   431.25066074
_cell_formula_units_Z   1
loop_
 _symmetry_equiv_pos_site_id
 _symmetry_equiv_pos_as_xyz
  1  'x, y, z'
loop_
 _atom_site_type_symbol
 _atom_site_label
 _atom_site_symmetry_multiplicity
 _atom_site_fract_x
 _atom_site_fract_y
 _atom_site_fract_z
 _atom_site_occupancy
  Sr  Sr0  1  0.333513  0.667026  0.749993  1
  Sr  Sr1  1  0.666512  0.333021  0.250116  1
  Er  Er2  1  0.333054  0.666108  0.541136  1
  Er  Er3  1  0.666503  0.333004  0.041286  1
  Er  Er4  1  0.665848  0.331695  0.458973  1
  Er  Er5  1  0.333568  0.667138  0.959011  1
  Ir  Ir6  1  0.167004  0.334009  0.124994  1
  Ir  Ir7  1  0.832758  0.665515  0.624071  1
  Ir  Ir8  1  0.663558  0.830894  0.123613  1
  Ir  Ir9  1  0.167335  0.830894  0.123613  1
  Ir  Ir10  1  0.833040  0.169289  0.623623  1
  Ir  Ir11  1  0.336250  0.169289  0.623623  1
  Ir  Ir12  1  0.832428  0.664855  0.875774  1
  Ir  Ir13  1  0.831859  0.167899  0.876144  1
  Ir  Ir14  1  0.336041  0.167899  0.876144  1
  Ir  Ir15  1  0.665432  0.835162  0.376193  1
  Ir  Ir16  1  0.169729  0.835162  0.376193  1
  Ir  Ir17  1  0.001100  0.002199  0.999908  1
  Ir  Ir18  1  0.997160  0.994321  0.499837  1
  Rh  Rh19  1  0.168418  0.336838  0.376165  1
  Rh  Rh20  1  0.995922  0.991845  0.249616  1
  Rh  Rh21  1  0.001748  0.003495  0.750112  1
  Rh  Rh22  1  0.336237  0.672475  0.249842  1
  Rh  Rh23  1  0.664984  0.329965  0.750020  1
