# generated using pymatgen
data_Y2Er18Cd6NiOs
_symmetry_space_group_name_H-M   'P 1'
_cell_length_a   9.52793901
_cell_length_b   9.52793942
_cell_length_c   9.73053600
_cell_angle_alpha   90.00000000
_cell_angle_beta   90.00000000
_cell_angle_gamma   119.99559302
_symmetry_Int_Tables_number   1
_chemical_formula_structural   Y2Er18Cd6NiOs
_chemical_formula_sum   'Y2 Er18 Cd6 Ni1 Os1'
_cell_volume   765.04086716
_cell_formula_units_Z   1
loop_
 _symmetry_equiv_pos_site_id
 _symmetry_equiv_pos_as_xyz
  1  'x, y, z'
loop_
 _atom_site_type_symbol
 _atom_site_label
 _atom_site_symmetry_multiplicity
 _atom_site_fract_x
 _atom_site_fract_y
 _atom_site_fract_z
 _atom_site_occupancy
  Y  Y0  1  0.540345  0.080952  0.250000  1
  Y  Y1  1  0.919048  0.459655  0.250000  1
  Er  Er2  1  0.000008  0.999992  0.499957  1
  Er  Er3  1  0.000008  0.999992  0.000043  1
  Er  Er4  1  0.540161  0.459839  0.250000  1
  Er  Er5  1  0.457111  0.542889  0.750000  1
  Er  Er6  1  0.457110  0.914267  0.750000  1
  Er  Er7  1  0.085733  0.542890  0.750000  1
  Er  Er8  1  0.209177  0.790823  0.441083  1
  Er  Er9  1  0.209471  0.418301  0.440972  1
  Er  Er10  1  0.581699  0.790529  0.440972  1
  Er  Er11  1  0.788985  0.211015  0.562725  1
  Er  Er12  1  0.788735  0.577880  0.562470  1
  Er  Er13  1  0.422120  0.211265  0.562470  1
  Er  Er14  1  0.788985  0.211015  0.937275  1
  Er  Er15  1  0.788735  0.577880  0.937530  1
  Er  Er16  1  0.422120  0.211265  0.937530  1
  Er  Er17  1  0.209177  0.790823  0.058917  1
  Er  Er18  1  0.209471  0.418301  0.059028  1
  Er  Er19  1  0.581699  0.790529  0.059028  1
  Cd  Cd20  1  0.885588  0.114412  0.250000  1
  Cd  Cd21  1  0.885026  0.770741  0.250000  1
  Cd  Cd22  1  0.229259  0.114974  0.250000  1
  Cd  Cd23  1  0.114912  0.885088  0.750000  1
  Cd  Cd24  1  0.114979  0.229847  0.750000  1
  Cd  Cd25  1  0.770153  0.885021  0.750000  1
  Ni  Ni26  1  0.666690  0.333310  0.750000  1
  Os  Os27  1  0.333491  0.666509  0.250000  1
