# generated using pymatgen
data_K2MnSiS4
_symmetry_space_group_name_H-M   'P 1'
_cell_length_a   13.07758424
_cell_length_b   11.62685451
_cell_length_c   7.28632885
_cell_angle_alpha   84.15623780
_cell_angle_beta   62.18356487
_cell_angle_gamma   33.66018818
_symmetry_Int_Tables_number   1
_chemical_formula_structural   K2MnSiS4
_chemical_formula_sum   'K4 Mn2 Si2 S8'
_cell_volume   440.63403980
_cell_formula_units_Z   2
loop_
 _symmetry_equiv_pos_site_id
 _symmetry_equiv_pos_as_xyz
  1  'x, y, z'
loop_
 _atom_site_type_symbol
 _atom_site_label
 _atom_site_symmetry_multiplicity
 _atom_site_fract_x
 _atom_site_fract_y
 _atom_site_fract_z
 _atom_site_occupancy
  K  K0  1  0.679477  0.679477  0.320523  1
  K  K1  1  0.929477  0.929477  0.570523  1
  K  K2  1  0.320523  0.320523  0.679477  1
  K  K3  1  0.570523  0.570523  0.929477  1
  Mn  Mn4  1  0.000000  0.000000  0.000000  1
  Mn  Mn5  1  0.250000  0.250000  0.250000  1
  Si  Si6  1  0.750000  0.750000  0.750000  1
  Si  Si7  1  0.500000  0.500000  0.500000  1
  S  S8  1  0.004920  0.387872  0.682435  1
  S  S9  1  0.245080  0.862128  0.567565  1
  S  S10  1  0.862128  0.245080  0.325229  1
  S  S11  1  0.567565  0.325229  0.245080  1
  S  S12  1  0.924771  0.682435  0.387872  1
  S  S13  1  0.682435  0.924771  0.004920  1
  S  S14  1  0.387872  0.004920  0.924771  1
  S  S15  1  0.325229  0.567565  0.862128  1
