# generated using pymatgen
data_CeTm2(CoSn)3
_symmetry_space_group_name_H-M   'P 1'
_cell_length_a   7.25149217
_cell_length_b   7.40547985
_cell_length_c   3.81678000
_cell_angle_alpha   90.00000000
_cell_angle_beta   90.00000000
_cell_angle_gamma   120.70498277
_symmetry_Int_Tables_number   1
_chemical_formula_structural   CeTm2(CoSn)3
_chemical_formula_sum   'Ce1 Tm2 Co3 Sn3'
_cell_volume   176.22971155
_cell_formula_units_Z   1
loop_
 _symmetry_equiv_pos_site_id
 _symmetry_equiv_pos_as_xyz
  1  'x, y, z'
loop_
 _atom_site_type_symbol
 _atom_site_label
 _atom_site_symmetry_multiplicity
 _atom_site_fract_x
 _atom_site_fract_y
 _atom_site_fract_z
 _atom_site_occupancy
  Ce  Ce0  1  0.000000  0.583376  0.500000  1
  Tm  Tm1  1  0.407334  0.405661  0.500000  1
  Tm  Tm2  1  0.592666  0.998327  0.500000  1
  Co  Co3  1  0.310759  0.664468  0.000000  1
  Co  Co4  1  0.000000  0.995936  0.500000  1
  Co  Co5  1  0.689241  0.353708  0.000000  1
  Sn  Sn6  1  0.735352  0.743459  0.000000  1
  Sn  Sn7  1  0.000000  0.246959  0.000000  1
  Sn  Sn8  1  0.264648  0.008106  0.000000  1
