# generated using pymatgen
data_EuDy4Y(SbO7)2
_symmetry_space_group_name_H-M   'P 1'
_cell_length_a   6.49564267
_cell_length_b   6.49564222
_cell_length_c   7.54613705
_cell_angle_alpha   90.11017141
_cell_angle_beta   89.88982916
_cell_angle_gamma   108.88725421
_symmetry_Int_Tables_number   1
_chemical_formula_structural   EuDy4Y(SbO7)2
_chemical_formula_sum   'Eu1 Dy4 Y1 Sb2 O14'
_cell_volume   301.25279498
_cell_formula_units_Z   1
loop_
 _symmetry_equiv_pos_site_id
 _symmetry_equiv_pos_as_xyz
  1  'x, y, z'
loop_
 _atom_site_type_symbol
 _atom_site_label
 _atom_site_symmetry_multiplicity
 _atom_site_fract_x
 _atom_site_fract_y
 _atom_site_fract_z
 _atom_site_occupancy
  Eu  Eu0  1  0.498970  0.498970  0.000000  1
  Dy  Dy1  1  0.001388  0.466493  0.746277  1
  Dy  Dy2  1  0.002216  0.530297  0.248004  1
  Dy  Dy3  1  0.530297  0.002216  0.751996  1
  Dy  Dy4  1  0.466493  0.001388  0.253723  1
  Y  Y5  1  0.522094  0.522094  0.500000  1
  Sb  Sb6  1  0.998657  0.998657  0.500000  1
  Sb  Sb7  1  0.999830  0.999830  0.000000  1
  O  O8  1  0.639041  0.362356  0.744898  1
  O  O9  1  0.362356  0.639041  0.255102  1
  O  O10  1  0.928909  0.068648  0.750175  1
  O  O11  1  0.068648  0.928909  0.249825  1
  O  O12  1  0.922617  0.675310  0.528132  1
  O  O13  1  0.069264  0.321193  0.027868  1
  O  O14  1  0.321193  0.069264  0.972132  1
  O  O15  1  0.675310  0.922617  0.471868  1
  O  O16  1  0.369107  0.633188  0.743605  1
  O  O17  1  0.633188  0.369107  0.256395  1
  O  O18  1  0.935572  0.680900  0.966770  1
  O  O19  1  0.059121  0.314833  0.466801  1
  O  O20  1  0.314833  0.059121  0.533199  1
  O  O21  1  0.680900  0.935572  0.033230  1
