# generated using pymatgen
data_Dy3Sn3Pd2Pt
_symmetry_space_group_name_H-M   'P 1'
_cell_length_a   7.54339800
_cell_length_b   7.54339724
_cell_length_c   4.02300500
_cell_angle_alpha   90.00000000
_cell_angle_beta   90.00000000
_cell_angle_gamma   119.99999456
_symmetry_Int_Tables_number   1
_chemical_formula_structural   Dy3Sn3Pd2Pt
_chemical_formula_sum   'Dy3 Sn3 Pd2 Pt1'
_cell_volume   198.25092793
_cell_formula_units_Z   1
loop_
 _symmetry_equiv_pos_site_id
 _symmetry_equiv_pos_as_xyz
  1  'x, y, z'
loop_
 _atom_site_type_symbol
 _atom_site_label
 _atom_site_symmetry_multiplicity
 _atom_site_fract_x
 _atom_site_fract_y
 _atom_site_fract_z
 _atom_site_occupancy
  Dy  Dy0  1  0.405707  0.410430  0.500000  1
  Dy  Dy1  1  0.589570  0.995277  0.500000  1
  Dy  Dy2  1  0.004723  0.594293  0.500000  1
  Sn  Sn3  1  0.743592  0.741022  0.000000  1
  Sn  Sn4  1  0.258978  0.002570  0.000000  1
  Sn  Sn5  1  0.997430  0.256408  0.000000  1
  Pd  Pd6  1  0.666667  0.333333  0.000000  1
  Pd  Pd7  1  0.000000  0.000000  0.500000  1
  Pt  Pt8  1  0.333333  0.666667  0.000000  1
