# generated using pymatgen
data_NdTm2(Ni3P2)3
_symmetry_space_group_name_H-M   'P 1'
_cell_length_a   3.80953200
_cell_length_b   10.49813700
_cell_length_c   12.36306100
_cell_angle_alpha   90.00000000
_cell_angle_beta   90.00000000
_cell_angle_gamma   90.00000000
_symmetry_Int_Tables_number   1
_chemical_formula_structural   NdTm2(Ni3P2)3
_chemical_formula_sum   'Nd2 Tm4 Ni18 P12'
_cell_volume   494.43576062
_cell_formula_units_Z   2
loop_
 _symmetry_equiv_pos_site_id
 _symmetry_equiv_pos_as_xyz
  1  'x, y, z'
loop_
 _atom_site_type_symbol
 _atom_site_label
 _atom_site_symmetry_multiplicity
 _atom_site_fract_x
 _atom_site_fract_y
 _atom_site_fract_z
 _atom_site_occupancy
  Nd  Nd0  1  0.000000  0.500000  0.520357  1
  Nd  Nd1  1  0.500000  0.000000  0.479643  1
  Tm  Tm2  1  0.500000  0.816615  0.204342  1
  Tm  Tm3  1  0.500000  0.183385  0.204342  1
  Tm  Tm4  1  0.000000  0.683385  0.795658  1
  Tm  Tm5  1  0.000000  0.316615  0.795658  1
  Ni  Ni6  1  0.500000  0.500000  0.156180  1
  Ni  Ni7  1  0.000000  0.000000  0.843820  1
  Ni  Ni8  1  0.500000  0.500000  0.702539  1
  Ni  Ni9  1  0.000000  0.000000  0.297461  1
  Ni  Ni10  1  0.000000  0.500000  0.983044  1
  Ni  Ni11  1  0.500000  0.000000  0.016956  1
  Ni  Ni12  1  0.500000  0.332874  0.995665  1
  Ni  Ni13  1  0.500000  0.667126  0.995665  1
  Ni  Ni14  1  0.000000  0.167126  0.004335  1
  Ni  Ni15  1  0.000000  0.832874  0.004335  1
  Ni  Ni16  1  0.500000  0.299720  0.425289  1
  Ni  Ni17  1  0.500000  0.700280  0.425289  1
  Ni  Ni18  1  0.000000  0.200280  0.574711  1
  Ni  Ni19  1  0.000000  0.799720  0.574711  1
  Ni  Ni20  1  0.500000  0.878773  0.715211  1
  Ni  Ni21  1  0.500000  0.121227  0.715211  1
  Ni  Ni22  1  0.000000  0.621227  0.284789  1
  Ni  Ni23  1  0.000000  0.378773  0.284789  1
  P  P24  1  0.500000  0.500000  0.876994  1
  P  P25  1  0.000000  0.000000  0.123006  1
  P  P26  1  0.500000  0.500000  0.338729  1
  P  P27  1  0.000000  0.000000  0.661271  1
  P  P28  1  0.500000  0.310063  0.616448  1
  P  P29  1  0.500000  0.689937  0.616448  1
  P  P30  1  0.000000  0.189937  0.383552  1
  P  P31  1  0.000000  0.810063  0.383552  1
  P  P32  1  0.500000  0.846689  0.894262  1
  P  P33  1  0.500000  0.153311  0.894262  1
  P  P34  1  0.000000  0.653311  0.105738  1
  P  P35  1  0.000000  0.346689  0.105738  1
