# generated using pymatgen
data_Tb13Th3(ZnIr)4
_symmetry_space_group_name_H-M   'P 1'
_cell_length_a   9.64964355
_cell_length_b   9.62968662
_cell_length_c   9.62968600
_cell_angle_alpha   60.00000211
_cell_angle_beta   60.06839251
_cell_angle_gamma   60.06839351
_symmetry_Int_Tables_number   1
_chemical_formula_structural   Tb13Th3(ZnIr)4
_chemical_formula_sum   'Tb13 Th3 Zn4 Ir4'
_cell_volume   633.38641454
_cell_formula_units_Z   1
loop_
 _symmetry_equiv_pos_site_id
 _symmetry_equiv_pos_as_xyz
  1  'x, y, z'
loop_
 _atom_site_type_symbol
 _atom_site_label
 _atom_site_symmetry_multiplicity
 _atom_site_fract_x
 _atom_site_fract_y
 _atom_site_fract_z
 _atom_site_occupancy
  Tb  Tb0  1  0.189364  0.603546  0.603546  1
  Tb  Tb1  1  0.059073  0.441731  0.441731  1
  Tb  Tb2  1  0.440822  0.059961  0.059961  1
  Tb  Tb3  1  0.440822  0.059961  0.439254  1
  Tb  Tb4  1  0.059073  0.441731  0.057466  1
  Tb  Tb5  1  0.440822  0.439254  0.059961  1
  Tb  Tb6  1  0.059073  0.057466  0.441731  1
  Tb  Tb7  1  0.185912  0.813953  0.813953  1
  Tb  Tb8  1  0.815292  0.184817  0.184817  1
  Tb  Tb9  1  0.815292  0.184817  0.815073  1
  Tb  Tb10  1  0.185912  0.813953  0.186182  1
  Tb  Tb11  1  0.815292  0.815073  0.184817  1
  Tb  Tb12  1  0.185912  0.186182  0.813953  1
  Th  Th13  1  0.601534  0.602759  0.602759  1
  Th  Th14  1  0.601534  0.602759  0.192950  1
  Th  Th15  1  0.601534  0.192950  0.602759  1
  Zn  Zn16  1  0.832785  0.831156  0.831156  1
  Zn  Zn17  1  0.832785  0.831156  0.504906  1
  Zn  Zn18  1  0.832785  0.504906  0.831156  1
  Zn  Zn19  1  0.501981  0.832673  0.832673  1
  Ir  Ir20  1  0.394260  0.392679  0.392679  1
  Ir  Ir21  1  0.394260  0.392679  0.820382  1
  Ir  Ir22  1  0.394260  0.820382  0.392679  1
  Ir  Ir23  1  0.819622  0.393459  0.393459  1
