# generated using pymatgen
data_ScPa3Pt4
_symmetry_space_group_name_H-M   'P 1'
_cell_length_a   4.36040600
_cell_length_b   5.62359463
_cell_length_c   7.09580734
_cell_angle_alpha   88.44621122
_cell_angle_beta   90.00000000
_cell_angle_gamma   90.00000000
_symmetry_Int_Tables_number   1
_chemical_formula_structural   ScPa3Pt4
_chemical_formula_sum   'Sc1 Pa3 Pt4'
_cell_volume   173.93342020
_cell_formula_units_Z   1
loop_
 _symmetry_equiv_pos_site_id
 _symmetry_equiv_pos_as_xyz
  1  'x, y, z'
loop_
 _atom_site_type_symbol
 _atom_site_label
 _atom_site_symmetry_multiplicity
 _atom_site_fract_x
 _atom_site_fract_y
 _atom_site_fract_z
 _atom_site_occupancy
  Sc  Sc0  1  0.750000  0.850654  0.821149  1
  Pa  Pa1  1  0.250000  0.350671  0.686176  1
  Pa  Pa2  1  0.250000  0.140029  0.174231  1
  Pa  Pa3  1  0.750000  0.655712  0.319256  1
  Pt  Pt4  1  0.250000  0.838566  0.560002  1
  Pt  Pt5  1  0.250000  0.660424  0.039258  1
  Pt  Pt6  1  0.750000  0.174683  0.451078  1
  Pt  Pt7  1  0.750000  0.329260  0.948850  1
