# generated using pymatgen
data_EuDyTmTaO7
_symmetry_space_group_name_H-M   'P 1'
_cell_length_a   6.47003437
_cell_length_b   6.45707848
_cell_length_c   7.53824300
_cell_angle_alpha   90.00000000
_cell_angle_beta   90.00000000
_cell_angle_gamma   108.83468450
_symmetry_Int_Tables_number   1
_chemical_formula_structural   EuDyTmTaO7
_chemical_formula_sum   'Eu2 Dy2 Tm2 Ta2 O14'
_cell_volume   298.06590202
_cell_formula_units_Z   2
loop_
 _symmetry_equiv_pos_site_id
 _symmetry_equiv_pos_as_xyz
  1  'x, y, z'
loop_
 _atom_site_type_symbol
 _atom_site_label
 _atom_site_symmetry_multiplicity
 _atom_site_fract_x
 _atom_site_fract_y
 _atom_site_fract_z
 _atom_site_occupancy
  Eu  Eu0  1  0.501037  0.500998  0.500020  1
  Eu  Eu1  1  0.498963  0.499002  0.000020  1
  Dy  Dy2  1  0.534262  0.000098  0.750359  1
  Dy  Dy3  1  0.465738  0.999902  0.250359  1
  Tm  Tm4  1  0.999092  0.466717  0.749669  1
  Tm  Tm5  1  0.000908  0.533283  0.249669  1
  Ta  Ta6  1  0.000005  0.000030  0.500050  1
  Ta  Ta7  1  0.999995  0.999970  0.000050  1
  O  O8  1  0.644092  0.361681  0.750075  1
  O  O9  1  0.355908  0.638319  0.250075  1
  O  O10  1  0.935072  0.070197  0.750019  1
  O  O11  1  0.064928  0.929803  0.250019  1
  O  O12  1  0.938091  0.680299  0.535470  1
  O  O13  1  0.061909  0.319701  0.035470  1
  O  O14  1  0.321683  0.072480  0.968096  1
  O  O15  1  0.678317  0.927520  0.468096  1
  O  O16  1  0.360735  0.630530  0.749926  1
  O  O17  1  0.639265  0.369470  0.249926  1
  O  O18  1  0.939319  0.681215  0.963632  1
  O  O19  1  0.060681  0.318785  0.463632  1
  O  O20  1  0.320943  0.071751  0.532683  1
  O  O21  1  0.679057  0.928249  0.032683  1
