# generated using pymatgen
data_Tb9Pr8Si16Ag3
_symmetry_space_group_name_H-M   'P 1'
_cell_length_a   7.29762914
_cell_length_b   7.84731115
_cell_length_c   14.95661800
_cell_angle_alpha   90.00000000
_cell_angle_beta   90.00000000
_cell_angle_gamma   89.82275099
_symmetry_Int_Tables_number   1
_chemical_formula_structural   Tb9Pr8Si16Ag3
_chemical_formula_sum   'Tb9 Pr8 Si16 Ag3'
_cell_volume   856.51305205
_cell_formula_units_Z   1
loop_
 _symmetry_equiv_pos_site_id
 _symmetry_equiv_pos_as_xyz
  1  'x, y, z'
loop_
 _atom_site_type_symbol
 _atom_site_label
 _atom_site_symmetry_multiplicity
 _atom_site_fract_x
 _atom_site_fract_y
 _atom_site_fract_z
 _atom_site_occupancy
  Tb  Tb0  1  0.316262  0.189995  0.625356  1
  Tb  Tb1  1  0.673905  0.820772  0.372639  1
  Tb  Tb2  1  0.649460  0.993328  0.750000  1
  Tb  Tb3  1  0.176558  0.683967  0.371093  1
  Tb  Tb4  1  0.832583  0.324795  0.874178  1
  Tb  Tb5  1  0.832583  0.324795  0.625822  1
  Tb  Tb6  1  0.316262  0.189995  0.874644  1
  Tb  Tb7  1  0.176558  0.683967  0.128907  1
  Tb  Tb8  1  0.673905  0.820772  0.127361  1
  Pr  Pr9  1  0.025114  0.185134  0.395396  1
  Pr  Pr10  1  0.523730  0.312525  0.397318  1
  Pr  Pr11  1  0.472474  0.674763  0.899664  1
  Pr  Pr12  1  0.472474  0.674763  0.600336  1
  Pr  Pr13  1  0.982701  0.810773  0.599865  1
  Pr  Pr14  1  0.982701  0.810773  0.900135  1
  Pr  Pr15  1  0.523730  0.312525  0.102682  1
  Pr  Pr16  1  0.025114  0.185134  0.104604  1
  Si  Si17  1  0.273076  0.884351  0.750000  1
  Si  Si18  1  0.480388  0.589336  0.250000  1
  Si  Si19  1  0.024163  0.090160  0.750000  1
  Si  Si20  1  0.530734  0.394461  0.750000  1
  Si  Si21  1  0.148514  0.463919  0.527695  1
  Si  Si22  1  0.977228  0.911163  0.250000  1
  Si  Si23  1  0.729901  0.115676  0.250000  1
  Si  Si24  1  0.848026  0.535002  0.035942  1
  Si  Si25  1  0.348147  0.964665  0.031279  1
  Si  Si26  1  0.148514  0.463919  0.972305  1
  Si  Si27  1  0.646042  0.027964  0.539863  1
  Si  Si28  1  0.348147  0.964665  0.468721  1
  Si  Si29  1  0.848026  0.535002  0.464058  1
  Si  Si30  1  0.767659  0.621059  0.750000  1
  Si  Si31  1  0.232398  0.385251  0.250000  1
  Si  Si32  1  0.646042  0.027964  0.960137  1
  Ag  Ag33  1  0.846863  0.478730  0.250000  1
  Ag  Ag34  1  0.347202  0.023876  0.250000  1
  Ag  Ag35  1  0.152813  0.524062  0.750000  1
