# generated using pymatgen
data_CsSmDy2CBr6
_symmetry_space_group_name_H-M   'P 1'
_cell_length_a   8.88739889
_cell_length_b   8.91471529
_cell_length_c   9.52449158
_cell_angle_alpha   71.05338841
_cell_angle_beta   84.97718443
_cell_angle_gamma   89.25851765
_symmetry_Int_Tables_number   1
_chemical_formula_structural   CsSmDy2CBr6
_chemical_formula_sum   'Cs2 Sm2 Dy4 C2 Br12'
_cell_volume   710.89185561
_cell_formula_units_Z   2
loop_
 _symmetry_equiv_pos_site_id
 _symmetry_equiv_pos_as_xyz
  1  'x, y, z'
loop_
 _atom_site_type_symbol
 _atom_site_label
 _atom_site_symmetry_multiplicity
 _atom_site_fract_x
 _atom_site_fract_y
 _atom_site_fract_z
 _atom_site_occupancy
  Cs  Cs0  1  0.467414  0.364373  0.330971  1
  Cs  Cs1  1  0.532587  0.635627  0.669029  1
  Sm  Sm2  1  0.914213  0.739199  0.004403  1
  Sm  Sm3  1  0.085787  0.260801  0.995596  1
  Dy  Dy4  1  0.745503  0.085201  0.000873  1
  Dy  Dy5  1  0.254496  0.914799  0.999128  1
  Dy  Dy6  1  0.973408  0.887206  0.322794  1
  Dy  Dy7  1  0.026591  0.112794  0.677207  1
  C  C8  1  0.006362  0.026718  0.921107  1
  C  C9  1  0.993637  0.973282  0.078893  1
  Br  Br10  1  0.074935  0.193099  0.332217  1
  Br  Br11  1  0.925065  0.806901  0.667783  1
  Br  Br12  1  0.210834  0.595104  0.000676  1
  Br  Br13  1  0.789167  0.404896  0.999324  1
  Br  Br14  1  0.406905  0.195304  0.001863  1
  Br  Br15  1  0.593094  0.804697  0.998136  1
  Br  Br16  1  0.669635  0.000793  0.322949  1
  Br  Br17  1  0.330365  0.999207  0.677051  1
  Br  Br18  1  0.277776  0.778072  0.319886  1
  Br  Br19  1  0.722224  0.221928  0.680114  1
  Br  Br20  1  0.852159  0.590691  0.331047  1
  Br  Br21  1  0.147840  0.409309  0.668953  1
