# generated using pymatgen
data_Ce2Nd6Zn8PdRh7
_symmetry_space_group_name_H-M   'P 1'
_cell_length_a   3.94698000
_cell_length_b   7.49620662
_cell_length_c   16.53925071
_cell_angle_alpha   90.11340332
_cell_angle_beta   90.00000000
_cell_angle_gamma   90.00000000
_symmetry_Int_Tables_number   1
_chemical_formula_structural   Ce2Nd6Zn8PdRh7
_chemical_formula_sum   'Ce2 Nd6 Zn8 Pd1 Rh7'
_cell_volume   489.35209763
_cell_formula_units_Z   1
loop_
 _symmetry_equiv_pos_site_id
 _symmetry_equiv_pos_as_xyz
  1  'x, y, z'
loop_
 _atom_site_type_symbol
 _atom_site_label
 _atom_site_symmetry_multiplicity
 _atom_site_fract_x
 _atom_site_fract_y
 _atom_site_fract_z
 _atom_site_occupancy
  Ce  Ce0  1  0.250000  0.176504  0.939971  1
  Ce  Ce1  1  0.750000  0.319643  0.440582  1
  Nd  Nd2  1  0.250000  0.667534  0.565410  1
  Nd  Nd3  1  0.750000  0.948356  0.281496  1
  Nd  Nd4  1  0.750000  0.831188  0.060012  1
  Nd  Nd5  1  0.750000  0.445450  0.213671  1
  Nd  Nd6  1  0.250000  0.054232  0.715694  1
  Nd  Nd7  1  0.250000  0.553609  0.786101  1
  Zn  Zn8  1  0.750000  0.001150  0.561934  1
  Zn  Zn9  1  0.250000  0.613539  0.344547  1
  Zn  Zn10  1  0.750000  0.382417  0.652417  1
  Zn  Zn11  1  0.250000  0.501848  0.058626  1
  Zn  Zn12  1  0.750000  0.509176  0.940159  1
  Zn  Zn13  1  0.250000  0.992404  0.440184  1
  Zn  Zn14  1  0.250000  0.117680  0.149357  1
  Zn  Zn15  1  0.750000  0.884930  0.848247  1
  Pd  Pd16  1  0.750000  0.748239  0.433191  1
  Rh  Rh17  1  0.250000  0.250403  0.323985  1
  Rh  Rh18  1  0.750000  0.249050  0.823382  1
  Rh  Rh19  1  0.750000  0.756843  0.685722  1
  Rh  Rh20  1  0.250000  0.251046  0.557888  1
  Rh  Rh21  1  0.250000  0.743650  0.186082  1
  Rh  Rh22  1  0.750000  0.248280  0.057192  1
  Rh  Rh23  1  0.250000  0.752827  0.934152  1
