# generated using pymatgen
data_Tb5Y4Lu(SiB4)4
_symmetry_space_group_name_H-M   'P 1'
_cell_length_a   7.23675601
_cell_length_b   7.23704301
_cell_length_c   8.09763101
_cell_angle_alpha   89.99704079
_cell_angle_beta   89.99585256
_cell_angle_gamma   90.00411688
_symmetry_Int_Tables_number   1
_chemical_formula_structural   Tb5Y4Lu(SiB4)4
_chemical_formula_sum   'Tb5 Y4 Lu1 Si4 B16'
_cell_volume   424.09491391
_cell_formula_units_Z   1
loop_
 _symmetry_equiv_pos_site_id
 _symmetry_equiv_pos_as_xyz
  1  'x, y, z'
loop_
 _atom_site_type_symbol
 _atom_site_label
 _atom_site_symmetry_multiplicity
 _atom_site_fract_x
 _atom_site_fract_y
 _atom_site_fract_z
 _atom_site_occupancy
  Tb  Tb0  1  0.680590  0.179918  0.224941  1
  Tb  Tb1  1  0.319366  0.820066  0.774919  1
  Tb  Tb2  1  0.319421  0.820092  0.225026  1
  Tb  Tb3  1  0.819976  0.680673  0.224975  1
  Tb  Tb4  1  0.819954  0.680723  0.775009  1
  Y  Y5  1  0.680541  0.179882  0.775420  1
  Y  Y6  1  0.179986  0.319362  0.775575  1
  Y  Y7  1  0.179918  0.319379  0.224417  1
  Y  Y8  1  0.499903  0.499924  0.500039  1
  Lu  Lu9  1  0.999953  0.000173  0.500050  1
  Si  Si10  1  0.113419  0.617152  0.500060  1
  Si  Si11  1  0.886783  0.382418  0.500066  1
  Si  Si12  1  0.382538  0.113550  0.500042  1
  Si  Si13  1  0.617333  0.886864  0.500082  1
  B  B14  1  0.172457  0.039156  0.999948  1
  B  B15  1  0.827647  0.960935  0.999965  1
  B  B16  1  0.960860  0.172460  0.999977  1
  B  B17  1  0.327615  0.539124  0.999933  1
  B  B18  1  0.039067  0.827684  0.999934  1
  B  B19  1  0.672375  0.460832  0.999979  1
  B  B20  1  0.539097  0.672301  0.999938  1
  B  B21  1  0.460797  0.327506  0.999971  1
  B  B22  1  0.089984  0.589768  0.999975  1
  B  B23  1  0.910191  0.410168  0.000076  1
  B  B24  1  0.410238  0.089931  0.999978  1
  B  B25  1  0.589933  0.910017  0.999969  1
  B  B26  1  0.000066  0.000110  0.162418  1
  B  B27  1  0.000048  0.000128  0.837455  1
  B  B28  1  0.499969  0.499810  0.838265  1
  B  B29  1  0.499973  0.499894  0.161599  1
