# generated using pymatgen
data_LiTmMn3Ni9P7
_symmetry_space_group_name_H-M   'P 1'
_cell_length_a   9.05983300
_cell_length_b   9.05983366
_cell_length_c   3.57835200
_cell_angle_alpha   90.00000000
_cell_angle_beta   90.00000000
_cell_angle_gamma   120.00000126
_symmetry_Int_Tables_number   1
_chemical_formula_structural   LiTmMn3Ni9P7
_chemical_formula_sum   'Li1 Tm1 Mn3 Ni9 P7'
_cell_volume   254.36309575
_cell_formula_units_Z   1
loop_
 _symmetry_equiv_pos_site_id
 _symmetry_equiv_pos_as_xyz
  1  'x, y, z'
loop_
 _atom_site_type_symbol
 _atom_site_label
 _atom_site_symmetry_multiplicity
 _atom_site_fract_x
 _atom_site_fract_y
 _atom_site_fract_z
 _atom_site_occupancy
  Li  Li0  1  0.000000  0.000000  0.000000  1
  Tm  Tm1  1  0.666667  0.333333  0.500000  1
  Mn  Mn2  1  0.459413  0.570362  0.500000  1
  Mn  Mn3  1  0.429638  0.889051  0.500000  1
  Mn  Mn4  1  0.110949  0.540587  0.500000  1
  Ni  Ni5  1  0.707679  0.605756  0.000000  1
  Ni  Ni6  1  0.394244  0.101923  0.000000  1
  Ni  Ni7  1  0.898077  0.292321  0.000000  1
  Ni  Ni8  1  0.210271  0.386481  0.000000  1
  Ni  Ni9  1  0.613519  0.823791  0.000000  1
  Ni  Ni10  1  0.176209  0.789729  0.000000  1
  Ni  Ni11  1  0.277132  0.226969  0.500000  1
  Ni  Ni12  1  0.773031  0.050162  0.500000  1
  Ni  Ni13  1  0.949838  0.722868  0.500000  1
  P  P14  1  0.449070  0.375153  0.000000  1
  P  P15  1  0.624847  0.073918  0.000000  1
  P  P16  1  0.926082  0.550930  0.000000  1
  P  P17  1  0.041074  0.255267  0.500000  1
  P  P18  1  0.744733  0.785808  0.500000  1
  P  P19  1  0.214192  0.958926  0.500000  1
  P  P20  1  0.333333  0.666667  0.000000  1
