# generated using pymatgen
data_Rb8Li4Y3HoAs8
_symmetry_space_group_name_H-M   'P 1'
_cell_length_a   10.61486514
_cell_length_b   10.61486531
_cell_length_c   6.85247403
_cell_angle_alpha   90.00846329
_cell_angle_beta   89.99153685
_cell_angle_gamma   99.43469392
_symmetry_Int_Tables_number   1
_chemical_formula_structural   Rb8Li4Y3HoAs8
_chemical_formula_sum   'Rb8 Li4 Y3 Ho1 As8'
_cell_volume   761.66078951
_cell_formula_units_Z   1
loop_
 _symmetry_equiv_pos_site_id
 _symmetry_equiv_pos_as_xyz
  1  'x, y, z'
loop_
 _atom_site_type_symbol
 _atom_site_label
 _atom_site_symmetry_multiplicity
 _atom_site_fract_x
 _atom_site_fract_y
 _atom_site_fract_z
 _atom_site_occupancy
  Rb  Rb0  1  0.567913  0.932208  0.750110  1
  Rb  Rb1  1  0.932208  0.567913  0.249890  1
  Rb  Rb2  1  0.432279  0.067737  0.249971  1
  Rb  Rb3  1  0.067737  0.432279  0.750029  1
  Rb  Rb4  1  0.677937  0.322096  0.787617  1
  Rb  Rb5  1  0.822096  0.177796  0.287562  1
  Rb  Rb6  1  0.322096  0.677937  0.212383  1
  Rb  Rb7  1  0.177796  0.822096  0.712438  1
  Li  Li8  1  0.617858  0.617858  0.000000  1
  Li  Li9  1  0.882303  0.882303  0.500000  1
  Li  Li10  1  0.382315  0.382315  0.000000  1
  Li  Li11  1  0.117604  0.117604  0.500000  1
  Y  Y12  1  0.632466  0.632466  0.500000  1
  Y  Y13  1  0.132033  0.132033  0.000000  1
  Y  Y14  1  0.367760  0.367760  0.500000  1
  Ho  Ho15  1  0.867929  0.867929  0.000000  1
  As  As16  1  0.344177  0.155753  0.749982  1
  As  As17  1  0.155753  0.344177  0.250018  1
  As  As18  1  0.656712  0.844236  0.248918  1
  As  As19  1  0.844236  0.656712  0.751082  1
  As  As20  1  0.909595  0.089137  0.764170  1
  As  As21  1  0.590041  0.410019  0.263551  1
  As  As22  1  0.089137  0.909595  0.235830  1
  As  As23  1  0.410019  0.590041  0.736449  1
