# generated using pymatgen
data_Cs4Li2LuInSb4
_symmetry_space_group_name_H-M   'P 1'
_cell_length_a   10.28861669
_cell_length_b   10.28861483
_cell_length_c   10.28861706
_cell_angle_alpha   138.68380885
_cell_angle_beta   59.50895218
_cell_angle_gamma   139.14137837
_symmetry_Int_Tables_number   1
_chemical_formula_structural   Cs4Li2LuInSb4
_chemical_formula_sum   'Cs4 Li2 Lu1 In1 Sb4'
_cell_volume   465.73317619
_cell_formula_units_Z   1
loop_
 _symmetry_equiv_pos_site_id
 _symmetry_equiv_pos_as_xyz
  1  'x, y, z'
loop_
 _atom_site_type_symbol
 _atom_site_label
 _atom_site_symmetry_multiplicity
 _atom_site_fract_x
 _atom_site_fract_y
 _atom_site_fract_z
 _atom_site_occupancy
  Cs  Cs0  1  0.334004  0.772800  0.094461  1
  Cs  Cs1  1  0.165997  0.260458  0.438796  1
  Cs  Cs2  1  0.821663  0.727201  0.561203  1
  Cs  Cs3  1  0.678338  0.239541  0.905538  1
  Li  Li4  1  0.750000  0.250000  0.500000  1
  Li  Li5  1  0.250000  0.749999  0.500000  1
  Lu  Lu6  1  0.250000  0.250000  0.000000  1
  In  In7  1  0.750000  0.750000  0.000000  1
  Sb  Sb8  1  0.909581  0.239636  0.152368  1
  Sb  Sb9  1  0.590420  0.742788  0.330055  1
  Sb  Sb10  1  0.412733  0.260365  0.669945  1
  Sb  Sb11  1  0.087267  0.757212  0.847632  1
