# generated using pymatgen
data_Er10Tm2ZnInCo4
_symmetry_space_group_name_H-M   'P 1'
_cell_length_a   8.25305084
_cell_length_b   8.25093800
_cell_length_c   8.25305134
_cell_angle_alpha   111.61398700
_cell_angle_beta   110.25960524
_cell_angle_gamma   106.59122219
_symmetry_Int_Tables_number   1
_chemical_formula_structural   Er10Tm2ZnInCo4
_chemical_formula_sum   'Er10 Tm2 Zn1 In1 Co4'
_cell_volume   431.68937979
_cell_formula_units_Z   1
loop_
 _symmetry_equiv_pos_site_id
 _symmetry_equiv_pos_as_xyz
  1  'x, y, z'
loop_
 _atom_site_type_symbol
 _atom_site_label
 _atom_site_symmetry_multiplicity
 _atom_site_fract_x
 _atom_site_fract_y
 _atom_site_fract_z
 _atom_site_occupancy
  Er  Er0  1  0.315364  0.011131  0.695769  1
  Er  Er1  1  0.684636  0.988869  0.304231  1
  Er  Er2  1  0.427234  0.224009  0.203843  1
  Er  Er3  1  0.572766  0.775991  0.796157  1
  Er  Er4  1  0.020166  0.224009  0.796776  1
  Er  Er5  1  0.979834  0.775991  0.203224  1
  Er  Er6  1  0.185695  0.288649  0.473582  1
  Er  Er7  1  0.814305  0.711351  0.526418  1
  Er  Er8  1  0.184933  0.711351  0.897047  1
  Er  Er9  1  0.815067  0.288649  0.102953  1
  Tm  Tm10  1  0.315432  0.619625  0.304192  1
  Tm  Tm11  1  0.684568  0.380376  0.695808  1
  Zn  Zn12  1  0.000000  0.000000  0.000000  1
  In  In13  1  0.500000  0.500000  0.000000  1
  Co  Co14  1  0.113222  0.612954  0.499733  1
  Co  Co15  1  0.886779  0.387047  0.500267  1
  Co  Co16  1  0.376436  0.000000  0.376436  1
  Co  Co17  1  0.623564  0.000000  0.623564  1
