# generated using pymatgen
data_Er5Lu5(SnSb)3
_symmetry_space_group_name_H-M   'P 1'
_cell_length_a   8.81516614
_cell_length_b   8.83325670
_cell_length_c   6.33884600
_cell_angle_alpha   90.00000000
_cell_angle_beta   90.00000000
_cell_angle_gamma   119.61465794
_symmetry_Int_Tables_number   1
_chemical_formula_structural   Er5Lu5(SnSb)3
_chemical_formula_sum   'Er5 Lu5 Sn3 Sb3'
_cell_volume   429.10687493
_cell_formula_units_Z   1
loop_
 _symmetry_equiv_pos_site_id
 _symmetry_equiv_pos_as_xyz
  1  'x, y, z'
loop_
 _atom_site_type_symbol
 _atom_site_label
 _atom_site_symmetry_multiplicity
 _atom_site_fract_x
 _atom_site_fract_y
 _atom_site_fract_z
 _atom_site_occupancy
  Er  Er0  1  0.758395  0.756296  0.750000  1
  Er  Er1  1  0.238162  0.995672  0.750000  1
  Er  Er2  1  0.998127  0.241198  0.750000  1
  Er  Er3  1  0.241395  0.242521  0.250000  1
  Er  Er4  1  0.760616  0.003814  0.250000  1
  Lu  Lu5  1  0.667964  0.332173  0.999818  1
  Lu  Lu6  1  0.331462  0.667973  0.999542  1
  Lu  Lu7  1  0.331462  0.667973  0.500458  1
  Lu  Lu8  1  0.667964  0.332173  0.500182  1
  Lu  Lu9  1  0.003147  0.760724  0.250000  1
  Sn  Sn10  1  0.999360  0.603909  0.750000  1
  Sn  Sn11  1  0.393707  0.999817  0.250000  1
  Sn  Sn12  1  0.999846  0.396244  0.250000  1
  Sb  Sb13  1  0.389701  0.389421  0.750000  1
  Sb  Sb14  1  0.607007  0.999309  0.750000  1
  Sb  Sb15  1  0.611686  0.610782  0.250000  1
