# generated using pymatgen
data_EuBClF4
_symmetry_space_group_name_H-M   'P 1'
_cell_length_a   4.56681200
_cell_length_b   5.14660000
_cell_length_c   9.01812400
_cell_angle_alpha   90.00000000
_cell_angle_beta   90.00000000
_cell_angle_gamma   90.00000000
_symmetry_Int_Tables_number   1
_chemical_formula_structural   EuBClF4
_chemical_formula_sum   'Eu2 B2 Cl2 F8'
_cell_volume   211.95797018
_cell_formula_units_Z   2
loop_
 _symmetry_equiv_pos_site_id
 _symmetry_equiv_pos_as_xyz
  1  'x, y, z'
loop_
 _atom_site_type_symbol
 _atom_site_label
 _atom_site_symmetry_multiplicity
 _atom_site_fract_x
 _atom_site_fract_y
 _atom_site_fract_z
 _atom_site_occupancy
  Eu  Eu0  1  0.468893  0.500000  0.305181  1
  Eu  Eu1  1  0.968893  0.000000  0.694819  1
  B  B2  1  0.888654  0.000000  0.130583  1
  B  B3  1  0.388654  0.500000  0.869417  1
  Cl  Cl4  1  0.474701  0.000000  0.477607  1
  Cl  Cl5  1  0.974701  0.500000  0.522393  1
  F  F6  1  0.581046  0.000000  0.141363  1
  F  F7  1  0.081046  0.500000  0.858637  1
  F  F8  1  0.993520  0.773109  0.205151  1
  F  F9  1  0.993520  0.226891  0.205151  1
  F  F10  1  0.493520  0.726891  0.794849  1
  F  F11  1  0.493520  0.273109  0.794849  1
  F  F12  1  0.982368  0.000000  0.982296  1
  F  F13  1  0.482368  0.500000  0.017704  1
