# generated using pymatgen
data_Dy3Pt2Au
_symmetry_space_group_name_H-M   'P 1'
_cell_length_a   4.62311700
_cell_length_b   5.63145289
_cell_length_c   10.63330176
_cell_angle_alpha   83.15923971
_cell_angle_beta   90.00000000
_cell_angle_gamma   90.00000000
_symmetry_Int_Tables_number   1
_chemical_formula_structural   Dy3Pt2Au
_chemical_formula_sum   'Dy6 Pt4 Au2'
_cell_volume   274.86578895
_cell_formula_units_Z   2
loop_
 _symmetry_equiv_pos_site_id
 _symmetry_equiv_pos_as_xyz
  1  'x, y, z'
loop_
 _atom_site_type_symbol
 _atom_site_label
 _atom_site_symmetry_multiplicity
 _atom_site_fract_x
 _atom_site_fract_y
 _atom_site_fract_z
 _atom_site_occupancy
  Dy  Dy0  1  0.250000  0.407487  0.794556  1
  Dy  Dy1  1  0.750000  0.592513  0.205444  1
  Dy  Dy2  1  0.250000  0.117755  0.117402  1
  Dy  Dy3  1  0.750000  0.882245  0.882598  1
  Dy  Dy4  1  0.250000  0.247940  0.452316  1
  Dy  Dy5  1  0.750000  0.752060  0.547684  1
  Pt  Pt6  1  0.250000  0.650821  0.028370  1
  Pt  Pt7  1  0.750000  0.349179  0.971630  1
  Pt  Pt8  1  0.250000  0.910191  0.695398  1
  Pt  Pt9  1  0.750000  0.089809  0.304602  1
  Au  Au10  1  0.250000  0.764559  0.359828  1
  Au  Au11  1  0.750000  0.235441  0.640172  1
