# generated using pymatgen
data_RbV3In2F12
_symmetry_space_group_name_H-M   'P 1'
_cell_length_a   7.65965293
_cell_length_b   7.65965163
_cell_length_c   13.62673400
_cell_angle_alpha   74.30205245
_cell_angle_beta   74.30205517
_cell_angle_gamma   59.87065928
_symmetry_Int_Tables_number   1
_chemical_formula_structural   RbV3In2F12
_chemical_formula_sum   'Rb2 V6 In4 F24'
_cell_volume   656.90294576
_cell_formula_units_Z   2
loop_
 _symmetry_equiv_pos_site_id
 _symmetry_equiv_pos_as_xyz
  1  'x, y, z'
loop_
 _atom_site_type_symbol
 _atom_site_label
 _atom_site_symmetry_multiplicity
 _atom_site_fract_x
 _atom_site_fract_y
 _atom_site_fract_z
 _atom_site_occupancy
  Rb  Rb0  1  0.248313  0.751687  0.750000  1
  Rb  Rb1  1  0.751687  0.248313  0.250000  1
  V  V2  1  0.500000  0.000000  0.500000  1
  V  V3  1  0.000000  0.500000  0.000000  1
  V  V4  1  0.000000  0.000000  0.500000  1
  V  V5  1  0.000000  0.000000  0.000000  1
  V  V6  1  0.500000  0.500000  0.500000  1
  V  V7  1  0.500000  0.500000  0.000000  1
  In  In8  1  0.921633  0.423532  0.728278  1
  In  In9  1  0.078367  0.576468  0.271722  1
  In  In10  1  0.576468  0.078367  0.771722  1
  In  In11  1  0.423532  0.921633  0.228278  1
  F  F12  1  0.893071  0.981958  0.646605  1
  F  F13  1  0.487376  0.968560  0.647867  1
  F  F14  1  0.296788  0.423409  0.982311  1
  F  F15  1  0.702416  0.202938  0.026812  1
  F  F16  1  0.968560  0.487376  0.147867  1
  F  F17  1  0.031440  0.512624  0.852133  1
  F  F18  1  0.512624  0.031440  0.352133  1
  F  F19  1  0.797062  0.297584  0.473188  1
  F  F20  1  0.106929  0.018042  0.353395  1
  F  F21  1  0.576591  0.703212  0.517689  1
  F  F22  1  0.398120  0.488591  0.147510  1
  F  F23  1  0.423409  0.296788  0.482311  1
  F  F24  1  0.488591  0.398120  0.647510  1
  F  F25  1  0.797049  0.932311  0.473015  1
  F  F26  1  0.202951  0.067689  0.526985  1
  F  F27  1  0.601880  0.511409  0.852490  1
  F  F28  1  0.932311  0.797049  0.973015  1
  F  F29  1  0.511409  0.601880  0.352490  1
  F  F30  1  0.703212  0.576591  0.017689  1
  F  F31  1  0.981958  0.893071  0.146605  1
  F  F32  1  0.067689  0.202951  0.026985  1
  F  F33  1  0.297584  0.797062  0.973188  1
  F  F34  1  0.018042  0.106929  0.853395  1
  F  F35  1  0.202938  0.702416  0.526812  1
