# generated using pymatgen
data_HfZr4GaSnSb2
_symmetry_space_group_name_H-M   'P 1'
_cell_length_a   8.67585001
_cell_length_b   8.67582328
_cell_length_c   5.86750901
_cell_angle_alpha   90.00294060
_cell_angle_beta   90.00351441
_cell_angle_gamma   119.91459201
_symmetry_Int_Tables_number   1
_chemical_formula_structural   HfZr4GaSnSb2
_chemical_formula_sum   'Hf2 Zr8 Ga2 Sn2 Sb4'
_cell_volume   382.80733335
_cell_formula_units_Z   2
loop_
 _symmetry_equiv_pos_site_id
 _symmetry_equiv_pos_as_xyz
  1  'x, y, z'
loop_
 _atom_site_type_symbol
 _atom_site_label
 _atom_site_symmetry_multiplicity
 _atom_site_fract_x
 _atom_site_fract_y
 _atom_site_fract_z
 _atom_site_occupancy
  Hf  Hf0  1  0.333639  0.666619  0.498470  1
  Hf  Hf1  1  0.666624  0.333642  0.498472  1
  Zr  Zr2  1  0.733260  0.733260  0.749653  1
  Zr  Zr3  1  0.265842  0.999698  0.749700  1
  Zr  Zr4  1  0.999696  0.265840  0.749691  1
  Zr  Zr5  1  0.270417  0.270416  0.250511  1
  Zr  Zr6  1  0.730932  0.999706  0.250496  1
  Zr  Zr7  1  0.999708  0.730931  0.250496  1
  Zr  Zr8  1  0.666670  0.333906  0.001243  1
  Zr  Zr9  1  0.333911  0.666679  0.001241  1
  Ga  Ga10  1  0.000696  0.000693  0.003732  1
  Ga  Ga11  1  0.000666  0.000670  0.496294  1
  Sn  Sn12  1  0.387213  0.000243  0.250887  1
  Sn  Sn13  1  0.000240  0.387213  0.250897  1
  Sb  Sb14  1  0.389341  0.389341  0.749072  1
  Sb  Sb15  1  0.608937  0.000433  0.749127  1
  Sb  Sb16  1  0.000433  0.608937  0.749119  1
  Sb  Sb17  1  0.611775  0.611775  0.250898  1
