# generated using pymatgen
data_Yb9Pr11Sn13Pb3
_symmetry_space_group_name_H-M   'P 1'
_cell_length_a   8.04840862
_cell_length_b   8.57318254
_cell_length_c   16.15788671
_cell_angle_alpha   90.00992384
_cell_angle_beta   89.88124396
_cell_angle_gamma   90.01792707
_symmetry_Int_Tables_number   1
_chemical_formula_structural   Yb9Pr11Sn13Pb3
_chemical_formula_sum   'Yb9 Pr11 Sn13 Pb3'
_cell_volume   1114.89941253
_cell_formula_units_Z   1
loop_
 _symmetry_equiv_pos_site_id
 _symmetry_equiv_pos_as_xyz
  1  'x, y, z'
loop_
 _atom_site_type_symbol
 _atom_site_label
 _atom_site_symmetry_multiplicity
 _atom_site_fract_x
 _atom_site_fract_y
 _atom_site_fract_z
 _atom_site_occupancy
  Yb  Yb0  1  0.329593  0.829384  0.877570  1
  Yb  Yb1  1  0.830761  0.668837  0.624618  1
  Yb  Yb2  1  0.668938  0.169466  0.375002  1
  Yb  Yb3  1  0.170858  0.331558  0.124181  1
  Yb  Yb4  1  0.670547  0.170184  0.123392  1
  Yb  Yb5  1  0.159775  0.500337  0.750990  1
  Yb  Yb6  1  0.659232  0.999604  0.751431  1
  Yb  Yb7  1  0.839860  0.497782  0.247378  1
  Yb  Yb8  1  0.341156  0.001648  0.249479  1
  Pr  Pr9  1  0.168896  0.326336  0.374480  1
  Pr  Pr10  1  0.329495  0.827423  0.624352  1
  Pr  Pr11  1  0.831408  0.671735  0.876361  1
  Pr  Pr12  1  0.492241  0.314266  0.904538  1
  Pr  Pr13  1  0.993855  0.187067  0.597829  1
  Pr  Pr14  1  0.507553  0.687042  0.401973  1
  Pr  Pr15  1  0.007311  0.812032  0.097458  1
  Pr  Pr16  1  0.510429  0.684937  0.096002  1
  Pr  Pr17  1  0.009428  0.816264  0.401679  1
  Pr  Pr18  1  0.488655  0.316211  0.596880  1
  Pr  Pr19  1  0.989153  0.186584  0.903224  1
  Sn  Sn20  1  0.171382  0.534662  0.961171  1
  Sn  Sn21  1  0.670908  0.964510  0.961080  1
  Sn  Sn22  1  0.171108  0.536877  0.538872  1
  Sn  Sn23  1  0.327764  0.036438  0.459796  1
  Sn  Sn24  1  0.832893  0.462607  0.040265  1
  Sn  Sn25  1  0.530683  0.604976  0.750916  1
  Sn  Sn26  1  0.029954  0.897951  0.750865  1
  Sn  Sn27  1  0.470630  0.396287  0.249212  1
  Sn  Sn28  1  0.968085  0.104437  0.248794  1
  Sn  Sn29  1  0.287396  0.141969  0.750012  1
  Sn  Sn30  1  0.785438  0.358071  0.750112  1
  Sn  Sn31  1  0.714118  0.858241  0.249371  1
  Sn  Sn32  1  0.214866  0.640549  0.250053  1
  Pb  Pb33  1  0.325515  0.038505  0.040955  1
  Pb  Pb34  1  0.822418  0.462486  0.459913  1
  Pb  Pb35  1  0.677697  0.962740  0.539795  1
