# generated using pymatgen
data_Nd5HoCo6(NiP)12
_symmetry_space_group_name_H-M   'P 1'
_cell_length_a   3.83537400
_cell_length_b   10.57841601
_cell_length_c   12.46681500
_cell_angle_alpha   89.99619161
_cell_angle_beta   90.00000000
_cell_angle_gamma   90.00000000
_symmetry_Int_Tables_number   1
_chemical_formula_structural   Nd5HoCo6(NiP)12
_chemical_formula_sum   'Nd5 Ho1 Co6 Ni12 P12'
_cell_volume   505.80588270
_cell_formula_units_Z   1
loop_
 _symmetry_equiv_pos_site_id
 _symmetry_equiv_pos_as_xyz
  1  'x, y, z'
loop_
 _atom_site_type_symbol
 _atom_site_label
 _atom_site_symmetry_multiplicity
 _atom_site_fract_x
 _atom_site_fract_y
 _atom_site_fract_z
 _atom_site_occupancy
  Nd  Nd0  1  0.000000  0.498773  0.517239  1
  Nd  Nd1  1  0.500000  0.000030  0.484182  1
  Nd  Nd2  1  0.500000  0.812584  0.204881  1
  Nd  Nd3  1  0.500000  0.188182  0.206481  1
  Nd  Nd4  1  0.000000  0.686235  0.793540  1
  Ho  Ho5  1  0.000000  0.312826  0.795082  1
  Co  Co6  1  0.000000  0.498379  0.980894  1
  Co  Co7  1  0.500000  0.001912  0.015418  1
  Co  Co8  1  0.500000  0.335120  0.992973  1
  Co  Co9  1  0.500000  0.663570  0.993619  1
  Co  Co10  1  0.000000  0.167335  0.003645  1
  Co  Co11  1  0.000000  0.835193  0.004199  1
  Ni  Ni12  1  0.500000  0.297944  0.431513  1
  Ni  Ni13  1  0.500000  0.700357  0.428175  1
  Ni  Ni14  1  0.000000  0.200301  0.575551  1
  Ni  Ni15  1  0.000000  0.798731  0.571724  1
  Ni  Ni16  1  0.500000  0.882533  0.715377  1
  Ni  Ni17  1  0.500000  0.121366  0.718585  1
  Ni  Ni18  1  0.000000  0.618164  0.283360  1
  Ni  Ni19  1  0.000000  0.382166  0.284605  1
  Ni  Ni20  1  0.500000  0.499179  0.153840  1
  Ni  Ni21  1  0.000000  0.002106  0.845542  1
  Ni  Ni22  1  0.500000  0.497306  0.703482  1
  Ni  Ni23  1  0.000000  0.000463  0.297284  1
  P  P24  1  0.500000  0.308984  0.618999  1
  P  P25  1  0.500000  0.689462  0.613972  1
  P  P26  1  0.000000  0.191191  0.387489  1
  P  P27  1  0.000000  0.809182  0.385419  1
  P  P28  1  0.500000  0.497418  0.880638  1
  P  P29  1  0.000000  0.001348  0.115974  1
  P  P30  1  0.500000  0.847230  0.901055  1
  P  P31  1  0.500000  0.155693  0.899370  1
  P  P32  1  0.000000  0.651577  0.096816  1
  P  P33  1  0.000000  0.348282  0.098560  1
  P  P34  1  0.500000  0.499627  0.336369  1
  P  P35  1  0.000000  0.999251  0.664147  1
