# generated using pymatgen
data_YbLuTc3Ge4
_symmetry_space_group_name_H-M   'P 1'
_cell_length_a   8.30266300
_cell_length_b   5.63615975
_cell_length_c   7.00085916
_cell_angle_alpha   76.26281018
_cell_angle_beta   90.00000000
_cell_angle_gamma   90.00000000
_symmetry_Int_Tables_number   1
_chemical_formula_structural   YbLuTc3Ge4
_chemical_formula_sum   'Yb2 Lu2 Tc6 Ge8'
_cell_volume   318.23503693
_cell_formula_units_Z   2
loop_
 _symmetry_equiv_pos_site_id
 _symmetry_equiv_pos_as_xyz
  1  'x, y, z'
loop_
 _atom_site_type_symbol
 _atom_site_label
 _atom_site_symmetry_multiplicity
 _atom_site_fract_x
 _atom_site_fract_y
 _atom_site_fract_z
 _atom_site_occupancy
  Yb  Yb0  1  0.550871  0.069519  0.246581  1
  Yb  Yb1  1  0.050871  0.430481  0.753419  1
  Lu  Lu2  1  0.446783  0.918117  0.757340  1
  Lu  Lu3  1  0.946783  0.581883  0.242660  1
  Tc  Tc4  1  0.207933  0.137956  0.112749  1
  Tc  Tc5  1  0.707933  0.362044  0.887251  1
  Tc  Tc6  1  0.790850  0.905680  0.886345  1
  Tc  Tc7  1  0.290850  0.594320  0.113655  1
  Tc  Tc8  1  0.001132  0.001582  0.502072  1
  Tc  Tc9  1  0.501132  0.498418  0.497928  1
  Ge  Ge10  1  0.905957  0.121994  0.136994  1
  Ge  Ge11  1  0.405957  0.378006  0.863006  1
  Ge  Ge12  1  0.098367  0.882364  0.878768  1
  Ge  Ge13  1  0.598367  0.617636  0.121232  1
  Ge  Ge14  1  0.746789  0.226652  0.561799  1
  Ge  Ge15  1  0.246789  0.273348  0.438201  1
  Ge  Ge16  1  0.251318  0.780886  0.412996  1
  Ge  Ge17  1  0.751318  0.719114  0.587004  1
