# generated using pymatgen
data_Tb13Ho6LuPb16
_symmetry_space_group_name_H-M   'P 1'
_cell_length_a   8.20237559
_cell_length_b   8.28918406
_cell_length_c   15.66914423
_cell_angle_alpha   90.20369011
_cell_angle_beta   90.13271113
_cell_angle_gamma   90.10159628
_symmetry_Int_Tables_number   1
_chemical_formula_structural   Tb13Ho6LuPb16
_chemical_formula_sum   'Tb13 Ho6 Lu1 Pb16'
_cell_volume   1065.34952021
_cell_formula_units_Z   1
loop_
 _symmetry_equiv_pos_site_id
 _symmetry_equiv_pos_as_xyz
  1  'x, y, z'
loop_
 _atom_site_type_symbol
 _atom_site_label
 _atom_site_symmetry_multiplicity
 _atom_site_fract_x
 _atom_site_fract_y
 _atom_site_fract_z
 _atom_site_occupancy
  Tb  Tb0  1  0.125622  0.342288  0.120817  1
  Tb  Tb1  1  0.623712  0.158273  0.121367  1
  Tb  Tb2  1  0.124370  0.341817  0.378815  1
  Tb  Tb3  1  0.375205  0.841774  0.620800  1
  Tb  Tb4  1  0.876188  0.658042  0.879042  1
  Tb  Tb5  1  0.533898  0.323310  0.900514  1
  Tb  Tb6  1  0.033221  0.176418  0.598845  1
  Tb  Tb7  1  0.466552  0.677579  0.401195  1
  Tb  Tb8  1  0.965834  0.824286  0.099424  1
  Tb  Tb9  1  0.467062  0.677815  0.098994  1
  Tb  Tb10  1  0.968469  0.823657  0.401571  1
  Tb  Tb11  1  0.532237  0.323165  0.598783  1
  Tb  Tb12  1  0.033402  0.175409  0.900516  1
  Ho  Ho13  1  0.374253  0.842835  0.878433  1
  Ho  Ho14  1  0.873766  0.657180  0.621416  1
  Ho  Ho15  1  0.625964  0.156893  0.378735  1
  Ho  Ho16  1  0.207306  0.504659  0.750088  1
  Ho  Ho17  1  0.707315  0.995549  0.749746  1
  Ho  Ho18  1  0.792541  0.495766  0.250524  1
  Lu  Lu19  1  0.292737  0.005002  0.250167  1
  Pb  Pb20  1  0.282999  0.033121  0.043591  1
  Pb  Pb21  1  0.781968  0.464583  0.457438  1
  Pb  Pb22  1  0.717392  0.963490  0.542444  1
  Pb  Pb23  1  0.218923  0.534761  0.956518  1
  Pb  Pb24  1  0.714952  0.965068  0.956633  1
  Pb  Pb25  1  0.215291  0.534714  0.543286  1
  Pb  Pb26  1  0.285080  0.036236  0.456085  1
  Pb  Pb27  1  0.782788  0.465765  0.043623  1
  Pb  Pb28  1  0.570117  0.625827  0.750343  1
  Pb  Pb29  1  0.070031  0.874793  0.749466  1
  Pb  Pb30  1  0.429449  0.373709  0.250871  1
  Pb  Pb31  1  0.930649  0.124046  0.249844  1
  Pb  Pb32  1  0.345873  0.154211  0.749798  1
  Pb  Pb33  1  0.846107  0.345266  0.749663  1
  Pb  Pb34  1  0.654001  0.846016  0.250595  1
  Pb  Pb35  1  0.154725  0.656682  0.250009  1
