# generated using pymatgen
data_CaHo3(Rh2O7)2
_symmetry_space_group_name_H-M   'P 1'
_cell_length_a   7.22073015
_cell_length_b   7.22072969
_cell_length_c   7.22072963
_cell_angle_alpha   60.06367265
_cell_angle_beta   60.06367472
_cell_angle_gamma   60.06366935
_symmetry_Int_Tables_number   1
_chemical_formula_structural   CaHo3(Rh2O7)2
_chemical_formula_sum   'Ca1 Ho3 Rh4 O14'
_cell_volume   266.59655672
_cell_formula_units_Z   1
loop_
 _symmetry_equiv_pos_site_id
 _symmetry_equiv_pos_as_xyz
  1  'x, y, z'
loop_
 _atom_site_type_symbol
 _atom_site_label
 _atom_site_symmetry_multiplicity
 _atom_site_fract_x
 _atom_site_fract_y
 _atom_site_fract_z
 _atom_site_occupancy
  Ca  Ca0  1  0.625000  0.625000  0.625000  1
  Ho  Ho1  1  0.625000  0.625000  0.125000  1
  Ho  Ho2  1  0.625000  0.125000  0.625000  1
  Ho  Ho3  1  0.125000  0.625000  0.625000  1
  Rh  Rh4  1  0.125000  0.125000  0.125000  1
  Rh  Rh5  1  0.625000  0.125000  0.125000  1
  Rh  Rh6  1  0.125000  0.625000  0.125000  1
  Rh  Rh7  1  0.125000  0.125000  0.625000  1
  O  O8  1  0.051738  0.457128  0.457128  1
  O  O9  1  0.792872  0.792872  0.198262  1
  O  O10  1  0.790651  0.210316  0.210316  1
  O  O11  1  0.457128  0.051738  0.457128  1
  O  O12  1  0.752875  0.752875  0.752875  1
  O  O13  1  0.039684  0.039684  0.459349  1
  O  O14  1  0.039684  0.459349  0.039684  1
  O  O15  1  0.792872  0.198262  0.792872  1
  O  O16  1  0.210316  0.790651  0.210316  1
  O  O17  1  0.210316  0.210316  0.790651  1
  O  O18  1  0.497125  0.497125  0.497125  1
  O  O19  1  0.459349  0.039684  0.039684  1
  O  O20  1  0.457128  0.457128  0.051738  1
  O  O21  1  0.198262  0.792872  0.792872  1
