# generated using pymatgen
data_SrDy6IrBr12
_symmetry_space_group_name_H-M   'P 1'
_cell_length_a   9.23714201
_cell_length_b   9.30672082
_cell_length_c   9.30755922
_cell_angle_alpha   105.84411646
_cell_angle_beta   106.56526879
_cell_angle_gamma   106.16036740
_symmetry_Int_Tables_number   1
_chemical_formula_structural   SrDy6IrBr12
_chemical_formula_sum   'Sr1 Dy6 Ir1 Br12'
_cell_volume   680.53830656
_cell_formula_units_Z   1
loop_
 _symmetry_equiv_pos_site_id
 _symmetry_equiv_pos_as_xyz
  1  'x, y, z'
loop_
 _atom_site_type_symbol
 _atom_site_label
 _atom_site_symmetry_multiplicity
 _atom_site_fract_x
 _atom_site_fract_y
 _atom_site_fract_z
 _atom_site_occupancy
  Sr  Sr0  1  0.500000  0.500000  0.500000  1
  Dy  Dy1  1  0.100569  0.310368  0.019001  1
  Dy  Dy2  1  0.303239  0.017752  0.098266  1
  Dy  Dy3  1  0.017706  0.101227  0.311271  1
  Dy  Dy4  1  0.982295  0.898773  0.688730  1
  Dy  Dy5  1  0.696761  0.982249  0.901734  1
  Dy  Dy6  1  0.899431  0.689632  0.980999  1
  Ir  Ir7  1  0.000000  0.000000  0.000000  1
  Br  Br8  1  0.219903  0.676989  0.073949  1
  Br  Br9  1  0.446415  0.362411  0.140899  1
  Br  Br10  1  0.674819  0.072415  0.217563  1
  Br  Br11  1  0.925356  0.781309  0.324382  1
  Br  Br12  1  0.138990  0.446397  0.363807  1
  Br  Br13  1  0.364536  0.140936  0.445099  1
  Br  Br14  1  0.635464  0.859064  0.554902  1
  Br  Br15  1  0.861011  0.553603  0.636193  1
  Br  Br16  1  0.074645  0.218691  0.675619  1
  Br  Br17  1  0.325182  0.927586  0.782437  1
  Br  Br18  1  0.553585  0.637589  0.859102  1
  Br  Br19  1  0.780097  0.323011  0.926051  1
