# generated using pymatgen
data_Pr8Er11TmBi12
_symmetry_space_group_name_H-M   'P 1'
_cell_length_a   8.44397490
_cell_length_b   9.70627500
_cell_length_c   12.35840500
_cell_angle_alpha   90.00000000
_cell_angle_beta   90.02638844
_cell_angle_gamma   90.00000000
_symmetry_Int_Tables_number   1
_chemical_formula_structural   Pr8Er11TmBi12
_chemical_formula_sum   'Pr8 Er11 Tm1 Bi12'
_cell_volume   1012.88911153
_cell_formula_units_Z   1
loop_
 _symmetry_equiv_pos_site_id
 _symmetry_equiv_pos_as_xyz
  1  'x, y, z'
loop_
 _atom_site_type_symbol
 _atom_site_label
 _atom_site_symmetry_multiplicity
 _atom_site_fract_x
 _atom_site_fract_y
 _atom_site_fract_z
 _atom_site_occupancy
  Pr  Pr0  1  0.186463  0.750000  0.721111  1
  Pr  Pr1  1  0.686458  0.750000  0.779198  1
  Pr  Pr2  1  0.813426  0.250000  0.278832  1
  Pr  Pr3  1  0.313517  0.250000  0.221048  1
  Pr  Pr4  1  0.353329  0.750000  0.216392  1
  Pr  Pr5  1  0.853304  0.750000  0.283493  1
  Pr  Pr6  1  0.646760  0.250000  0.783749  1
  Pr  Pr7  1  0.146729  0.250000  0.716404  1
  Er  Er8  1  0.524611  0.750000  0.511172  1
  Er  Er9  1  0.975533  0.250000  0.011216  1
  Er  Er10  1  0.475545  0.250000  0.488776  1
  Er  Er11  1  0.307766  0.436268  0.942351  1
  Er  Er12  1  0.807835  0.063799  0.557734  1
  Er  Er13  1  0.692264  0.936242  0.057560  1
  Er  Er14  1  0.192162  0.563775  0.442171  1
  Er  Er15  1  0.692264  0.563758  0.057560  1
  Er  Er16  1  0.192162  0.936225  0.442171  1
  Er  Er17  1  0.307766  0.063732  0.942351  1
  Er  Er18  1  0.807835  0.436201  0.557734  1
  Tm  Tm19  1  0.024101  0.750000  0.989025  1
  Bi  Bi20  1  0.436084  0.004520  0.667309  1
  Bi  Bi21  1  0.936319  0.495756  0.832896  1
  Bi  Bi22  1  0.563982  0.504553  0.332698  1
  Bi  Bi23  1  0.064029  0.995276  0.167077  1
  Bi  Bi24  1  0.563982  0.995447  0.332698  1
  Bi  Bi25  1  0.064029  0.504724  0.167077  1
  Bi  Bi26  1  0.436084  0.495480  0.667309  1
  Bi  Bi27  1  0.936319  0.004244  0.832896  1
  Bi  Bi28  1  0.405920  0.750000  0.957520  1
  Bi  Bi29  1  0.906461  0.750000  0.542433  1
  Bi  Bi30  1  0.593493  0.250000  0.042538  1
  Bi  Bi31  1  0.093468  0.250000  0.457502  1
