# generated using pymatgen
data_LaY4(RhO6)2
_symmetry_space_group_name_H-M   'P 1'
_cell_length_a   6.94602683
_cell_length_b   6.94602594
_cell_length_c   7.40380026
_cell_angle_alpha   74.58784051
_cell_angle_beta   74.58784597
_cell_angle_gamma   50.81188655
_symmetry_Int_Tables_number   1
_chemical_formula_structural   LaY4(RhO6)2
_chemical_formula_sum   'La1 Y4 Rh2 O12'
_cell_volume   264.61301344
_cell_formula_units_Z   1
loop_
 _symmetry_equiv_pos_site_id
 _symmetry_equiv_pos_as_xyz
  1  'x, y, z'
loop_
 _atom_site_type_symbol
 _atom_site_label
 _atom_site_symmetry_multiplicity
 _atom_site_fract_x
 _atom_site_fract_y
 _atom_site_fract_z
 _atom_site_occupancy
  La  La0  1  0.500000  0.500000  0.500000  1
  Y  Y1  1  0.194099  0.194099  0.167138  1
  Y  Y2  1  0.805901  0.805901  0.832862  1
  Y  Y3  1  0.803712  0.803712  0.359290  1
  Y  Y4  1  0.196288  0.196288  0.640710  1
  Rh  Rh5  1  0.749077  0.250923  0.000000  1
  Rh  Rh6  1  0.250923  0.749077  0.000000  1
  O  O7  1  0.000389  0.000389  0.190421  1
  O  O8  1  0.999611  0.999611  0.809579  1
  O  O9  1  0.500171  0.500171  0.826018  1
  O  O10  1  0.499829  0.499829  0.173982  1
  O  O11  1  0.595452  0.086691  0.579388  1
  O  O12  1  0.913309  0.404548  0.420612  1
  O  O13  1  0.404548  0.913309  0.420612  1
  O  O14  1  0.399042  0.930568  0.917884  1
  O  O15  1  0.069432  0.600958  0.082116  1
  O  O16  1  0.600958  0.069432  0.082116  1
  O  O17  1  0.930568  0.399042  0.917884  1
  O  O18  1  0.086691  0.595452  0.579388  1
