# generated using pymatgen
data_Pr2DyCd3Ga2Hg
_symmetry_space_group_name_H-M   'P 1'
_cell_length_a   7.49366365
_cell_length_b   7.53637594
_cell_length_c   4.54811300
_cell_angle_alpha   90.00000000
_cell_angle_beta   90.00000000
_cell_angle_gamma   120.18873192
_symmetry_Int_Tables_number   1
_chemical_formula_structural   Pr2DyCd3Ga2Hg
_chemical_formula_sum   'Pr2 Dy1 Cd3 Ga2 Hg1'
_cell_volume   222.01869589
_cell_formula_units_Z   1
loop_
 _symmetry_equiv_pos_site_id
 _symmetry_equiv_pos_as_xyz
  1  'x, y, z'
loop_
 _atom_site_type_symbol
 _atom_site_label
 _atom_site_symmetry_multiplicity
 _atom_site_fract_x
 _atom_site_fract_y
 _atom_site_fract_z
 _atom_site_occupancy
  Pr  Pr0  1  0.422307  0.424366  0.500000  1
  Pr  Pr1  1  0.577693  0.002058  0.500000  1
  Dy  Dy2  1  0.000000  0.577120  0.500000  1
  Cd  Cd3  1  0.748152  0.746327  0.000000  1
  Cd  Cd4  1  0.251848  0.998175  0.000000  1
  Cd  Cd5  1  0.000000  0.255093  0.000000  1
  Ga  Ga6  1  0.672431  0.337743  0.000000  1
  Ga  Ga7  1  0.327569  0.665313  0.000000  1
  Hg  Hg8  1  0.000000  0.993804  0.500000  1
