# generated using pymatgen
data_La12Co2Ni3Sn
_symmetry_space_group_name_H-M   'P 1'
_cell_length_a   8.74284259
_cell_length_b   8.74284260
_cell_length_c   8.74284286
_cell_angle_alpha   105.38251185
_cell_angle_beta   109.98518908
_cell_angle_gamma   113.13885734
_symmetry_Int_Tables_number   1
_chemical_formula_structural   La12Co2Ni3Sn
_chemical_formula_sum   'La12 Co2 Ni3 Sn1'
_cell_volume   512.07561619
_cell_formula_units_Z   1
loop_
 _symmetry_equiv_pos_site_id
 _symmetry_equiv_pos_as_xyz
  1  'x, y, z'
loop_
 _atom_site_type_symbol
 _atom_site_label
 _atom_site_symmetry_multiplicity
 _atom_site_fract_x
 _atom_site_fract_y
 _atom_site_fract_z
 _atom_site_occupancy
  La  La0  1  0.488943  0.307374  0.181569  1
  La  La1  1  0.125805  0.307374  0.818431  1
  La  La2  1  0.874195  0.692626  0.181569  1
  La  La3  1  0.511057  0.692626  0.818431  1
  La  La4  1  0.313439  0.645110  0.331671  1
  La  La5  1  0.313439  0.981769  0.668329  1
  La  La6  1  0.686561  0.354890  0.668329  1
  La  La7  1  0.686561  0.018231  0.331671  1
  La  La8  1  0.186268  0.196749  0.383017  1
  La  La9  1  0.813732  0.803251  0.616983  1
  La  La10  1  0.186268  0.803251  0.989518  1
  La  La11  1  0.813732  0.196749  0.010482  1
  Co  Co12  1  0.357760  0.000000  0.357760  1
  Co  Co13  1  0.642240  0.000000  0.642240  1
  Ni  Ni14  1  0.500000  0.626241  0.126241  1
  Ni  Ni15  1  0.500000  0.373759  0.873759  1
  Ni  Ni16  1  0.000000  0.000000  0.000000  1
  Sn  Sn17  1  0.000000  0.500000  0.500000  1
