# generated using pymatgen
data_Lu3Cd3Ag2Ir
_symmetry_space_group_name_H-M   'P 1'
_cell_length_a   7.96643900
_cell_length_b   7.96644000
_cell_length_c   3.60348200
_cell_angle_alpha   90.00000000
_cell_angle_beta   90.00000000
_cell_angle_gamma   119.99999168
_symmetry_Int_Tables_number   1
_chemical_formula_structural   Lu3Cd3Ag2Ir
_chemical_formula_sum   'Lu3 Cd3 Ag2 Ir1'
_cell_volume   198.05305688
_cell_formula_units_Z   1
loop_
 _symmetry_equiv_pos_site_id
 _symmetry_equiv_pos_as_xyz
  1  'x, y, z'
loop_
 _atom_site_type_symbol
 _atom_site_label
 _atom_site_symmetry_multiplicity
 _atom_site_fract_x
 _atom_site_fract_y
 _atom_site_fract_z
 _atom_site_occupancy
  Lu  Lu0  1  0.580340  0.618065  0.000000  1
  Lu  Lu1  1  0.381935  0.962275  0.000000  1
  Lu  Lu2  1  0.037725  0.419660  0.000000  1
  Cd  Cd3  1  0.989428  0.718828  0.500000  1
  Cd  Cd4  1  0.281172  0.270601  0.500000  1
  Cd  Cd5  1  0.729399  0.010572  0.500000  1
  Ag  Ag6  1  0.000000  0.000000  0.000000  1
  Ag  Ag7  1  0.666667  0.333333  0.500000  1
  Ir  Ir8  1  0.333333  0.666667  0.500000  1
