# generated using pymatgen
data_Nd8Sc12Ga15Sn
_symmetry_space_group_name_H-M   'P 1'
_cell_length_a   7.44496388
_cell_length_b   7.73349190
_cell_length_c   14.64227400
_cell_angle_alpha   89.95112424
_cell_angle_beta   89.64009835
_cell_angle_gamma   90.07157162
_symmetry_Int_Tables_number   1
_chemical_formula_structural   Nd8Sc12Ga15Sn
_chemical_formula_sum   'Nd8 Sc12 Ga15 Sn1'
_cell_volume   843.01963807
_cell_formula_units_Z   1
loop_
 _symmetry_equiv_pos_site_id
 _symmetry_equiv_pos_as_xyz
  1  'x, y, z'
loop_
 _atom_site_type_symbol
 _atom_site_label
 _atom_site_symmetry_multiplicity
 _atom_site_fract_x
 _atom_site_fract_y
 _atom_site_fract_z
 _atom_site_occupancy
  Nd  Nd0  1  0.013149  0.177024  0.094712  1
  Nd  Nd1  1  0.987078  0.823977  0.905998  1
  Nd  Nd2  1  0.487829  0.675421  0.906011  1
  Nd  Nd3  1  0.987392  0.828605  0.596609  1
  Nd  Nd4  1  0.512444  0.323397  0.094631  1
  Nd  Nd5  1  0.007353  0.171056  0.401221  1
  Nd  Nd6  1  0.512283  0.321869  0.402092  1
  Nd  Nd7  1  0.497509  0.683078  0.598350  1
  Sc  Sc8  1  0.162979  0.499126  0.753858  1
  Sc  Sc9  1  0.837767  0.501343  0.248444  1
  Sc  Sc10  1  0.337651  0.999854  0.248681  1
  Sc  Sc11  1  0.664638  0.001531  0.752875  1
  Sc  Sc12  1  0.339007  0.163553  0.628521  1
  Sc  Sc13  1  0.666255  0.827033  0.373858  1
  Sc  Sc14  1  0.167955  0.679922  0.371569  1
  Sc  Sc15  1  0.669584  0.825437  0.123330  1
  Sc  Sc16  1  0.822397  0.324478  0.625817  1
  Sc  Sc17  1  0.329098  0.174311  0.876063  1
  Sc  Sc18  1  0.830662  0.325990  0.876600  1
  Sc  Sc19  1  0.169596  0.673814  0.123900  1
  Ga  Ga20  1  0.033340  0.123288  0.750673  1
  Ga  Ga21  1  0.965045  0.878216  0.247184  1
  Ga  Ga22  1  0.466916  0.621697  0.248921  1
  Ga  Ga23  1  0.532309  0.378932  0.752054  1
  Ga  Ga24  1  0.287032  0.877487  0.752003  1
  Ga  Ga25  1  0.711504  0.118355  0.248229  1
  Ga  Ga26  1  0.211060  0.380846  0.249795  1
  Ga  Ga27  1  0.790058  0.619779  0.751108  1
  Ga  Ga28  1  0.835751  0.539949  0.458011  1
  Ga  Ga29  1  0.342033  0.962558  0.459927  1
  Ga  Ga30  1  0.843095  0.536322  0.040655  1
  Ga  Ga31  1  0.658133  0.039196  0.538327  1
  Ga  Ga32  1  0.156669  0.463268  0.960116  1
  Ga  Ga33  1  0.655769  0.037570  0.959716  1
  Ga  Ga34  1  0.343326  0.962882  0.040257  1
  Sn  Sn35  1  0.165339  0.458836  0.539887  1
