# generated using pymatgen
data_YbZn3CdRu
_symmetry_space_group_name_H-M   'P 1'
_cell_length_a   5.21988136
_cell_length_b   5.21988030
_cell_length_c   5.21988095
_cell_angle_alpha   61.80649382
_cell_angle_beta   61.80650011
_cell_angle_gamma   61.80649303
_symmetry_Int_Tables_number   1
_chemical_formula_structural   YbZn3CdRu
_chemical_formula_sum   'Yb1 Zn3 Cd1 Ru1'
_cell_volume   104.63898812
_cell_formula_units_Z   1
loop_
 _symmetry_equiv_pos_site_id
 _symmetry_equiv_pos_as_xyz
  1  'x, y, z'
loop_
 _atom_site_type_symbol
 _atom_site_label
 _atom_site_symmetry_multiplicity
 _atom_site_fract_x
 _atom_site_fract_y
 _atom_site_fract_z
 _atom_site_occupancy
  Yb  Yb0  1  0.250848  0.250848  0.250848  1
  Zn  Zn1  1  0.626516  0.626516  0.126953  1
  Zn  Zn2  1  0.626516  0.126953  0.626516  1
  Zn  Zn3  1  0.126953  0.626516  0.626516  1
  Cd  Cd4  1  0.991568  0.991568  0.991568  1
  Ru  Ru5  1  0.627600  0.627600  0.627600  1
