# generated using pymatgen
data_Dy2Tm3V3(Co4P3)4
_symmetry_space_group_name_H-M   'P 1'
_cell_length_a   12.03207200
_cell_length_b   12.03207236
_cell_length_c   3.65972800
_cell_angle_alpha   90.00000000
_cell_angle_beta   90.00000000
_cell_angle_gamma   119.99999352
_symmetry_Int_Tables_number   1
_chemical_formula_structural   Dy2Tm3V3(Co4P3)4
_chemical_formula_sum   'Dy2 Tm3 V3 Co16 P12'
_cell_volume   458.83900126
_cell_formula_units_Z   1
loop_
 _symmetry_equiv_pos_site_id
 _symmetry_equiv_pos_as_xyz
  1  'x, y, z'
loop_
 _atom_site_type_symbol
 _atom_site_label
 _atom_site_symmetry_multiplicity
 _atom_site_fract_x
 _atom_site_fract_y
 _atom_site_fract_z
 _atom_site_occupancy
  Dy  Dy0  1  0.666667  0.333333  0.000000  1
  Dy  Dy1  1  0.333333  0.666667  0.000000  1
  Tm  Tm2  1  0.186385  0.186385  0.500000  1
  Tm  Tm3  1  0.813615  0.000000  0.500000  1
  Tm  Tm4  1  0.000000  0.813615  0.500000  1
  V  V5  1  0.556717  0.556717  0.000000  1
  V  V6  1  0.443283  0.000000  0.000000  1
  V  V7  1  0.000000  0.443283  0.000000  1
  Co  Co8  1  0.823142  0.199075  0.000000  1
  Co  Co9  1  0.800925  0.624067  0.000000  1
  Co  Co10  1  0.375933  0.176858  0.000000  1
  Co  Co11  1  0.199075  0.823142  0.000000  1
  Co  Co12  1  0.624067  0.800925  0.000000  1
  Co  Co13  1  0.176858  0.375933  0.000000  1
  Co  Co14  1  0.644715  0.125738  0.500000  1
  Co  Co15  1  0.874262  0.518977  0.500000  1
  Co  Co16  1  0.481023  0.355285  0.500000  1
  Co  Co17  1  0.125738  0.644715  0.500000  1
  Co  Co18  1  0.518977  0.874262  0.500000  1
  Co  Co19  1  0.355285  0.481023  0.500000  1
  Co  Co20  1  0.718782  0.718782  0.500000  1
  Co  Co21  1  0.281218  0.000000  0.500000  1
  Co  Co22  1  0.000000  0.281218  0.500000  1
  Co  Co23  1  0.000000  0.000000  0.000000  1
  P  P24  1  0.362468  0.362468  0.000000  1
  P  P25  1  0.637532  0.000000  0.000000  1
  P  P26  1  0.000000  0.637532  0.000000  1
  P  P27  1  0.835938  0.316055  0.500000  1
  P  P28  1  0.683945  0.519883  0.500000  1
  P  P29  1  0.480117  0.164062  0.500000  1
  P  P30  1  0.316055  0.835938  0.500000  1
  P  P31  1  0.519883  0.683945  0.500000  1
  P  P32  1  0.164062  0.480117  0.500000  1
  P  P33  1  0.821393  0.821393  0.000000  1
  P  P34  1  0.178607  0.000000  0.000000  1
  P  P35  1  0.000000  0.178607  0.000000  1
