# generated using pymatgen
data_LaNd3(BeSi3)2
_symmetry_space_group_name_H-M   'P 1'
_cell_length_a   7.96498500
_cell_length_b   7.96498531
_cell_length_c   8.65171200
_cell_angle_alpha   90.00000000
_cell_angle_beta   90.00000000
_cell_angle_gamma   119.99999455
_symmetry_Int_Tables_number   1
_chemical_formula_structural   LaNd3(BeSi3)2
_chemical_formula_sum   'La2 Nd6 Be4 Si12'
_cell_volume   475.33812770
_cell_formula_units_Z   2
loop_
 _symmetry_equiv_pos_site_id
 _symmetry_equiv_pos_as_xyz
  1  'x, y, z'
loop_
 _atom_site_type_symbol
 _atom_site_label
 _atom_site_symmetry_multiplicity
 _atom_site_fract_x
 _atom_site_fract_y
 _atom_site_fract_z
 _atom_site_occupancy
  La  La0  1  0.000000  0.000000  0.750000  1
  La  La1  1  0.000000  0.000000  0.250000  1
  Nd  Nd2  1  0.499461  0.500539  0.750000  1
  Nd  Nd3  1  0.499461  0.998923  0.750000  1
  Nd  Nd4  1  0.001077  0.500539  0.750000  1
  Nd  Nd5  1  0.500539  0.499461  0.250000  1
  Nd  Nd6  1  0.998923  0.499461  0.250000  1
  Nd  Nd7  1  0.500539  0.001077  0.250000  1
  Be  Be8  1  0.666667  0.333333  0.996868  1
  Be  Be9  1  0.666667  0.333333  0.503132  1
  Be  Be10  1  0.333333  0.666667  0.496868  1
  Be  Be11  1  0.333333  0.666667  0.003132  1
  Si  Si12  1  0.827304  0.172696  0.999275  1
  Si  Si13  1  0.827304  0.654609  0.999275  1
  Si  Si14  1  0.345391  0.172696  0.999275  1
  Si  Si15  1  0.827304  0.172696  0.500725  1
  Si  Si16  1  0.827304  0.654609  0.500725  1
  Si  Si17  1  0.345391  0.172696  0.500725  1
  Si  Si18  1  0.172696  0.827304  0.499275  1
  Si  Si19  1  0.654609  0.827304  0.499275  1
  Si  Si20  1  0.172696  0.345391  0.499275  1
  Si  Si21  1  0.172696  0.827304  0.000725  1
  Si  Si22  1  0.654609  0.827304  0.000725  1
  Si  Si23  1  0.172696  0.345391  0.000725  1
