# generated using pymatgen
data_Nb2ReSi2W
_symmetry_space_group_name_H-M   'P 1'
_cell_length_a   7.67516473
_cell_length_b   7.68383751
_cell_length_c   7.67510517
_cell_angle_alpha   126.22733905
_cell_angle_beta   128.43657879
_cell_angle_gamma   77.69745541
_symmetry_Int_Tables_number   1
_chemical_formula_structural   Nb2ReSi2W
_chemical_formula_sum   'Nb6 Re3 Si6 W3'
_cell_volume   277.34692646
_cell_formula_units_Z   3
loop_
 _symmetry_equiv_pos_site_id
 _symmetry_equiv_pos_as_xyz
  1  'x, y, z'
loop_
 _atom_site_type_symbol
 _atom_site_label
 _atom_site_symmetry_multiplicity
 _atom_site_fract_x
 _atom_site_fract_y
 _atom_site_fract_z
 _atom_site_occupancy
  Nb  Nb0  1  0.551123  0.089885  0.037142  1
  Nb  Nb1  1  0.445310  0.491744  0.545661  1
  Nb  Nb2  1  0.946183  0.491396  0.045919  1
  Nb  Nb3  1  0.052640  0.090141  0.539128  1
  Nb  Nb4  1  0.753402  0.906672  0.654519  1
  Nb  Nb5  1  0.252024  0.906473  0.153161  1
  Re  Re6  1  0.869413  0.496686  0.626015  1
  Re  Re7  1  0.628251  0.753353  0.124547  1
  Re  Re8  1  0.371195  0.497261  0.127821  1
  Si  Si9  1  0.747011  0.501147  0.252301  1
  Si  Si10  1  0.248386  0.501074  0.754599  1
  Si  Si11  1  0.333690  0.824244  0.490448  1
  Si  Si12  1  0.669508  0.163848  0.493935  1
  Si  Si13  1  0.832439  0.823584  0.991202  1
  Si  Si14  1  0.169857  0.166264  0.996762  1
  W  W15  1  0.500514  0.242085  0.741389  1
  W  W16  1  0.999695  0.241177  0.241715  1
  W  W17  1  0.129359  0.755165  0.625934  1
