# generated using pymatgen
data_LiPa3CoP6Rh7
_symmetry_space_group_name_H-M   'P 1'
_cell_length_a   3.92171300
_cell_length_b   11.02893000
_cell_length_c   12.83654300
_cell_angle_alpha   90.00000000
_cell_angle_beta   90.00000000
_cell_angle_gamma   90.00000000
_symmetry_Int_Tables_number   1
_chemical_formula_structural   LiPa3CoP6Rh7
_chemical_formula_sum   'Li2 Pa6 Co2 P12 Rh14'
_cell_volume   555.20998514
_cell_formula_units_Z   2
loop_
 _symmetry_equiv_pos_site_id
 _symmetry_equiv_pos_as_xyz
  1  'x, y, z'
loop_
 _atom_site_type_symbol
 _atom_site_label
 _atom_site_symmetry_multiplicity
 _atom_site_fract_x
 _atom_site_fract_y
 _atom_site_fract_z
 _atom_site_occupancy
  Li  Li0  1  0.500000  0.500000  0.154924  1
  Li  Li1  1  0.000000  0.000000  0.845076  1
  Pa  Pa2  1  0.000000  0.500000  0.524213  1
  Pa  Pa3  1  0.500000  0.000000  0.475787  1
  Pa  Pa4  1  0.500000  0.820071  0.201972  1
  Pa  Pa5  1  0.500000  0.179929  0.201972  1
  Pa  Pa6  1  0.000000  0.679929  0.798028  1
  Pa  Pa7  1  0.000000  0.320071  0.798028  1
  Co  Co8  1  0.000000  0.500000  0.983948  1
  Co  Co9  1  0.500000  0.000000  0.016052  1
  P  P10  1  0.500000  0.500000  0.884818  1
  P  P11  1  0.000000  0.000000  0.115182  1
  P  P12  1  0.500000  0.500000  0.346780  1
  P  P13  1  0.000000  0.000000  0.653220  1
  P  P14  1  0.500000  0.314883  0.618126  1
  P  P15  1  0.500000  0.685117  0.618126  1
  P  P16  1  0.000000  0.185117  0.381874  1
  P  P17  1  0.000000  0.814883  0.381874  1
  P  P18  1  0.500000  0.851208  0.895110  1
  P  P19  1  0.500000  0.148792  0.895110  1
  P  P20  1  0.000000  0.648792  0.104890  1
  P  P21  1  0.000000  0.351208  0.104890  1
  Rh  Rh22  1  0.500000  0.500000  0.702853  1
  Rh  Rh23  1  0.000000  0.000000  0.297147  1
  Rh  Rh24  1  0.500000  0.333857  0.995550  1
  Rh  Rh25  1  0.500000  0.666143  0.995550  1
  Rh  Rh26  1  0.000000  0.166143  0.004450  1
  Rh  Rh27  1  0.000000  0.833857  0.004450  1
  Rh  Rh28  1  0.500000  0.302488  0.434568  1
  Rh  Rh29  1  0.500000  0.697512  0.434568  1
  Rh  Rh30  1  0.000000  0.197512  0.565432  1
  Rh  Rh31  1  0.000000  0.802488  0.565432  1
  Rh  Rh32  1  0.500000  0.870857  0.711387  1
  Rh  Rh33  1  0.500000  0.129143  0.711387  1
  Rh  Rh34  1  0.000000  0.629143  0.288613  1
  Rh  Rh35  1  0.000000  0.370857  0.288613  1
