# generated using pymatgen
data_Ca3Dy8Y(SiPd)12
_symmetry_space_group_name_H-M   'P 1'
_cell_length_a   4.34729600
_cell_length_b   7.46593303
_cell_length_c   21.28830900
_cell_angle_alpha   89.95774532
_cell_angle_beta   90.00000000
_cell_angle_gamma   90.00000000
_symmetry_Int_Tables_number   1
_chemical_formula_structural   Ca3Dy8Y(SiPd)12
_chemical_formula_sum   'Ca3 Dy8 Y1 Si12 Pd12'
_cell_volume   690.94638477
_cell_formula_units_Z   1
loop_
 _symmetry_equiv_pos_site_id
 _symmetry_equiv_pos_as_xyz
  1  'x, y, z'
loop_
 _atom_site_type_symbol
 _atom_site_label
 _atom_site_symmetry_multiplicity
 _atom_site_fract_x
 _atom_site_fract_y
 _atom_site_fract_z
 _atom_site_occupancy
  Ca  Ca0  1  0.250000  0.703423  0.332760  1
  Ca  Ca1  1  0.750000  0.295431  0.667323  1
  Ca  Ca2  1  0.750000  0.203227  0.166939  1
  Dy  Dy3  1  0.250000  0.796836  0.832779  1
  Dy  Dy4  1  0.250000  0.796922  0.165891  1
  Dy  Dy5  1  0.750000  0.295661  0.333880  1
  Dy  Dy6  1  0.250000  0.704642  0.665881  1
  Dy  Dy7  1  0.250000  0.709390  0.000926  1
  Dy  Dy8  1  0.750000  0.290761  0.999535  1
  Dy  Dy9  1  0.750000  0.207656  0.499107  1
  Dy  Dy10  1  0.250000  0.793310  0.500511  1
  Y  Y11  1  0.750000  0.204510  0.833736  1
  Si  Si12  1  0.250000  0.088677  0.065943  1
  Si  Si13  1  0.750000  0.910150  0.928780  1
  Si  Si14  1  0.750000  0.587269  0.434096  1
  Si  Si15  1  0.250000  0.412583  0.566370  1
  Si  Si16  1  0.250000  0.086504  0.274270  1
  Si  Si17  1  0.750000  0.911051  0.728098  1
  Si  Si18  1  0.750000  0.587132  0.225714  1
  Si  Si19  1  0.250000  0.414516  0.774122  1
  Si  Si20  1  0.250000  0.089863  0.395247  1
  Si  Si21  1  0.750000  0.910258  0.605630  1
  Si  Si22  1  0.750000  0.589301  0.104480  1
  Si  Si23  1  0.250000  0.411231  0.895646  1
  Pd  Pd24  1  0.250000  0.415878  0.236764  1
  Pd  Pd25  1  0.750000  0.584876  0.764714  1
  Pd  Pd26  1  0.750000  0.915897  0.263137  1
  Pd  Pd27  1  0.250000  0.082383  0.737795  1
  Pd  Pd28  1  0.250000  0.416105  0.437590  1
  Pd  Pd29  1  0.750000  0.584122  0.562471  1
  Pd  Pd30  1  0.750000  0.915838  0.062668  1
  Pd  Pd31  1  0.250000  0.083086  0.937872  1
  Pd  Pd32  1  0.250000  0.420678  0.092907  1
  Pd  Pd33  1  0.750000  0.580544  0.906116  1
  Pd  Pd34  1  0.750000  0.919488  0.407475  1
  Pd  Pd35  1  0.250000  0.080802  0.592825  1
