# generated using pymatgen
data_Tm2PPtRh5
_symmetry_space_group_name_H-M   'P 1'
_cell_length_a   5.95536939
_cell_length_b   5.95085305
_cell_length_c   5.95085272
_cell_angle_alpha   60.05023219
_cell_angle_beta   59.97488307
_cell_angle_gamma   59.97488946
_symmetry_Int_Tables_number   1
_chemical_formula_structural   Tm2PPtRh5
_chemical_formula_sum   'Tm2 P1 Pt1 Rh5'
_cell_volume   149.12540910
_cell_formula_units_Z   1
loop_
 _symmetry_equiv_pos_site_id
 _symmetry_equiv_pos_as_xyz
  1  'x, y, z'
loop_
 _atom_site_type_symbol
 _atom_site_label
 _atom_site_symmetry_multiplicity
 _atom_site_fract_x
 _atom_site_fract_y
 _atom_site_fract_z
 _atom_site_occupancy
  Tm  Tm0  1  0.250817  0.249183  0.249183  1
  Tm  Tm1  1  0.750817  0.749183  0.749183  1
  P  P2  1  0.494506  0.505494  0.505494  1
  Pt  Pt3  1  0.767635  0.232364  0.232364  1
  Rh  Rh4  1  0.236705  0.763294  0.234235  1
  Rh  Rh5  1  0.765764  0.763294  0.234235  1
  Rh  Rh6  1  0.236705  0.234235  0.763294  1
  Rh  Rh7  1  0.765764  0.234235  0.763294  1
  Rh  Rh8  1  0.231284  0.768715  0.768715  1
