# generated using pymatgen
data_Yb3LuOs8
_symmetry_space_group_name_H-M   'P 1'
_cell_length_a   5.26080700
_cell_length_b   5.26080804
_cell_length_c   8.83908800
_cell_angle_alpha   90.00000000
_cell_angle_beta   90.00000000
_cell_angle_gamma   119.99998715
_symmetry_Int_Tables_number   1
_chemical_formula_structural   Yb3LuOs8
_chemical_formula_sum   'Yb3 Lu1 Os8'
_cell_volume   211.85707432
_cell_formula_units_Z   1
loop_
 _symmetry_equiv_pos_site_id
 _symmetry_equiv_pos_as_xyz
  1  'x, y, z'
loop_
 _atom_site_type_symbol
 _atom_site_label
 _atom_site_symmetry_multiplicity
 _atom_site_fract_x
 _atom_site_fract_y
 _atom_site_fract_z
 _atom_site_occupancy
  Yb  Yb0  1  0.333333  0.666667  0.439644  1
  Yb  Yb1  1  0.666667  0.333333  0.564265  1
  Yb  Yb2  1  0.666667  0.333333  0.931882  1
  Lu  Lu3  1  0.333333  0.666667  0.066490  1
  Os  Os4  1  0.171383  0.342766  0.751009  1
  Os  Os5  1  0.171383  0.828617  0.751009  1
  Os  Os6  1  0.343960  0.171980  0.248685  1
  Os  Os7  1  0.828020  0.656040  0.248685  1
  Os  Os8  1  0.657234  0.828617  0.751009  1
  Os  Os9  1  0.000000  0.000000  0.999687  1
  Os  Os10  1  0.828020  0.171980  0.248685  1
  Os  Os11  1  0.000000  0.000000  0.498951  1
