# generated using pymatgen
data_SmHoLu2(WO6)2
_symmetry_space_group_name_H-M   'P 1'
_cell_length_a   5.38900900
_cell_length_b   7.67788731
_cell_length_c   11.38284432
_cell_angle_alpha   75.58546814
_cell_angle_beta   90.00000000
_cell_angle_gamma   90.00000000
_symmetry_Int_Tables_number   1
_chemical_formula_structural   SmHoLu2(WO6)2
_chemical_formula_sum   'Sm2 Ho2 Lu4 W4 O24'
_cell_volume   456.15249680
_cell_formula_units_Z   2
loop_
 _symmetry_equiv_pos_site_id
 _symmetry_equiv_pos_as_xyz
  1  'x, y, z'
loop_
 _atom_site_type_symbol
 _atom_site_label
 _atom_site_symmetry_multiplicity
 _atom_site_fract_x
 _atom_site_fract_y
 _atom_site_fract_z
 _atom_site_occupancy
  Sm  Sm0  1  0.314862  0.500000  0.750000  1
  Sm  Sm1  1  0.685138  0.500000  0.250000  1
  Ho  Ho2  1  0.256120  0.000000  0.750000  1
  Ho  Ho3  1  0.743880  0.000000  0.250000  1
  Lu  Lu4  1  0.183650  0.795409  0.078364  1
  Lu  Lu5  1  0.183650  0.204591  0.421636  1
  Lu  Lu6  1  0.816350  0.204591  0.921636  1
  Lu  Lu7  1  0.816350  0.795409  0.578364  1
  W  W8  1  0.744484  0.726734  0.885201  1
  W  W9  1  0.255516  0.726734  0.385201  1
  W  W10  1  0.744484  0.273266  0.614799  1
  W  W11  1  0.255516  0.273266  0.114799  1
  O  O12  1  0.541017  0.157187  0.067745  1
  O  O13  1  0.046373  0.056899  0.102697  1
  O  O14  1  0.016069  0.718381  0.768770  1
  O  O15  1  0.458983  0.157187  0.567745  1
  O  O16  1  0.350230  0.489712  0.387186  1
  O  O17  1  0.953627  0.056899  0.602697  1
  O  O18  1  0.545494  0.795322  0.724793  1
  O  O19  1  0.454506  0.795322  0.224793  1
  O  O20  1  0.143414  0.639465  0.548091  1
  O  O21  1  0.046373  0.943101  0.397303  1
  O  O22  1  0.458983  0.842813  0.932255  1
  O  O23  1  0.454506  0.204678  0.275207  1
  O  O24  1  0.856586  0.360535  0.451909  1
  O  O25  1  0.649770  0.489712  0.887186  1
  O  O26  1  0.350230  0.510288  0.112814  1
  O  O27  1  0.953627  0.943101  0.897303  1
  O  O28  1  0.541017  0.842813  0.432255  1
  O  O29  1  0.983931  0.281619  0.231230  1
  O  O30  1  0.545494  0.204678  0.775207  1
  O  O31  1  0.856586  0.639465  0.048091  1
  O  O32  1  0.016069  0.281619  0.731230  1
  O  O33  1  0.143414  0.360535  0.951909  1
  O  O34  1  0.983931  0.718381  0.268770  1
  O  O35  1  0.649770  0.510288  0.612814  1
