# generated using pymatgen
data_La2Nd3RuRh
_symmetry_space_group_name_H-M   'P 1'
_cell_length_a   9.14030553
_cell_length_b   9.14030632
_cell_length_c   7.32413653
_cell_angle_alpha   84.61107798
_cell_angle_beta   84.61107440
_cell_angle_gamma   42.65768574
_symmetry_Int_Tables_number   1
_chemical_formula_structural   La2Nd3RuRh
_chemical_formula_sum   'La4 Nd6 Ru2 Rh2'
_cell_volume   412.51850512
_cell_formula_units_Z   2
loop_
 _symmetry_equiv_pos_site_id
 _symmetry_equiv_pos_as_xyz
  1  'x, y, z'
loop_
 _atom_site_type_symbol
 _atom_site_label
 _atom_site_symmetry_multiplicity
 _atom_site_fract_x
 _atom_site_fract_y
 _atom_site_fract_z
 _atom_site_occupancy
  La  La0  1  0.008426  0.802741  0.913940  1
  La  La1  1  0.197259  0.991574  0.586060  1
  La  La2  1  0.981098  0.207273  0.093514  1
  La  La3  1  0.792727  0.018902  0.406486  1
  Nd  Nd4  1  0.362369  0.209390  0.818296  1
  Nd  Nd5  1  0.790610  0.637631  0.681704  1
  Nd  Nd6  1  0.641379  0.790695  0.183893  1
  Nd  Nd7  1  0.209305  0.358621  0.316107  1
  Nd  Nd8  1  0.572224  0.427776  0.750000  1
  Nd  Nd9  1  0.428245  0.571755  0.250000  1
  Ru  Ru10  1  0.832302  0.390058  0.417997  1
  Ru  Ru11  1  0.609942  0.167698  0.082003  1
  Rh  Rh12  1  0.175666  0.601550  0.581427  1
  Rh  Rh13  1  0.398450  0.824334  0.918573  1
