# generated using pymatgen
data_Tb5Dy13(ErPb8)2
_symmetry_space_group_name_H-M   'P 1'
_cell_length_a   8.21109499
_cell_length_b   8.29495917
_cell_length_c   15.65912134
_cell_angle_alpha   90.00416921
_cell_angle_beta   89.96217735
_cell_angle_gamma   89.96294323
_symmetry_Int_Tables_number   1
_chemical_formula_structural   Tb5Dy13(ErPb8)2
_chemical_formula_sum   'Tb5 Dy13 Er2 Pb16'
_cell_volume   1066.55322238
_cell_formula_units_Z   1
loop_
 _symmetry_equiv_pos_site_id
 _symmetry_equiv_pos_as_xyz
  1  'x, y, z'
loop_
 _atom_site_type_symbol
 _atom_site_label
 _atom_site_symmetry_multiplicity
 _atom_site_fract_x
 _atom_site_fract_y
 _atom_site_fract_z
 _atom_site_occupancy
  Tb  Tb0  1  0.965572  0.823081  0.100031  1
  Tb  Tb1  1  0.465768  0.676692  0.099706  1
  Tb  Tb2  1  0.965553  0.823145  0.400212  1
  Tb  Tb3  1  0.534345  0.323250  0.599680  1
  Tb  Tb4  1  0.034192  0.176915  0.900271  1
  Dy  Dy5  1  0.376291  0.841245  0.879137  1
  Dy  Dy6  1  0.876633  0.658860  0.620827  1
  Dy  Dy7  1  0.623229  0.158883  0.379142  1
  Dy  Dy8  1  0.123414  0.341153  0.120887  1
  Dy  Dy9  1  0.623376  0.158841  0.120896  1
  Dy  Dy10  1  0.123293  0.341091  0.379281  1
  Dy  Dy11  1  0.376686  0.841218  0.620789  1
  Dy  Dy12  1  0.876341  0.658687  0.879069  1
  Dy  Dy13  1  0.534844  0.323340  0.899837  1
  Dy  Dy14  1  0.035075  0.176475  0.600201  1
  Dy  Dy15  1  0.464985  0.676459  0.399911  1
  Dy  Dy16  1  0.208371  0.504034  0.749962  1
  Dy  Dy17  1  0.708326  0.995931  0.749913  1
  Er  Er18  1  0.791499  0.495881  0.250132  1
  Er  Er19  1  0.291721  0.004266  0.250180  1
  Pb  Pb20  1  0.282146  0.034042  0.043135  1
  Pb  Pb21  1  0.781213  0.466762  0.456770  1
  Pb  Pb22  1  0.718732  0.966674  0.542811  1
  Pb  Pb23  1  0.218488  0.533623  0.957215  1
  Pb  Pb24  1  0.717311  0.965899  0.957351  1
  Pb  Pb25  1  0.217771  0.534542  0.542316  1
  Pb  Pb26  1  0.282165  0.034275  0.457311  1
  Pb  Pb27  1  0.781984  0.465135  0.042586  1
  Pb  Pb28  1  0.571931  0.626329  0.749921  1
  Pb  Pb29  1  0.071941  0.873562  0.750060  1
  Pb  Pb30  1  0.428497  0.373600  0.249946  1
  Pb  Pb31  1  0.928497  0.126560  0.250096  1
  Pb  Pb32  1  0.345880  0.152826  0.750270  1
  Pb  Pb33  1  0.845862  0.347195  0.749693  1
  Pb  Pb34  1  0.653683  0.846529  0.250329  1
  Pb  Pb35  1  0.154385  0.652998  0.250128  1
