# generated using pymatgen
data_B4Pd17Pt3
_symmetry_space_group_name_H-M   'P 1'
_cell_length_a   6.44683456
_cell_length_b   6.49285505
_cell_length_c   8.20589541
_cell_angle_alpha   90.16879429
_cell_angle_beta   90.07105586
_cell_angle_gamma   89.56276761
_symmetry_Int_Tables_number   1
_chemical_formula_structural   B4Pd17Pt3
_chemical_formula_sum   'B4 Pd17 Pt3'
_cell_volume   343.47359728
_cell_formula_units_Z   1
loop_
 _symmetry_equiv_pos_site_id
 _symmetry_equiv_pos_as_xyz
  1  'x, y, z'
loop_
 _atom_site_type_symbol
 _atom_site_label
 _atom_site_symmetry_multiplicity
 _atom_site_fract_x
 _atom_site_fract_y
 _atom_site_fract_z
 _atom_site_occupancy
  B  B0  1  0.553907  0.656873  0.364720  1
  B  B1  1  0.053089  0.156533  0.135943  1
  B  B2  1  0.447116  0.343915  0.635704  1
  B  B3  1  0.947150  0.844084  0.866755  1
  Pd  Pd4  1  0.951218  0.849699  0.616513  1
  Pd  Pd5  1  0.552114  0.653544  0.625197  1
  Pd  Pd6  1  0.053313  0.152206  0.874287  1
  Pd  Pd7  1  0.446124  0.346731  0.374864  1
  Pd  Pd8  1  0.946300  0.846205  0.126852  1
  Pd  Pd9  1  0.653915  0.958198  0.374655  1
  Pd  Pd10  1  0.154519  0.457588  0.123719  1
  Pd  Pd11  1  0.346641  0.042470  0.624304  1
  Pd  Pd12  1  0.846483  0.543959  0.875048  1
  Pd  Pd13  1  0.642350  0.951861  0.874410  1
  Pd  Pd14  1  0.140953  0.450484  0.624891  1
  Pd  Pd15  1  0.358504  0.047893  0.124621  1
  Pd  Pd16  1  0.858873  0.546644  0.374120  1
  Pd  Pd17  1  0.743340  0.254892  0.125301  1
  Pd  Pd18  1  0.243844  0.755352  0.374217  1
  Pd  Pd19  1  0.255358  0.745395  0.873545  1
  Pd  Pd20  1  0.756712  0.246106  0.625624  1
  Pt  Pt21  1  0.548189  0.649377  0.114937  1
  Pt  Pt22  1  0.047531  0.149302  0.384822  1
  Pt  Pt23  1  0.452456  0.350690  0.884950  1
