# generated using pymatgen
data_TiNb4V(AsC)2
_symmetry_space_group_name_H-M   'P 1'
_cell_length_a   5.69764672
_cell_length_b   5.69764728
_cell_length_c   8.00391800
_cell_angle_alpha   90.00000000
_cell_angle_beta   90.00000000
_cell_angle_gamma   146.16339313
_symmetry_Int_Tables_number   1
_chemical_formula_structural   TiNb4V(AsC)2
_chemical_formula_sum   'Ti1 Nb4 V1 As2 C2'
_cell_volume   144.68168122
_cell_formula_units_Z   1
loop_
 _symmetry_equiv_pos_site_id
 _symmetry_equiv_pos_as_xyz
  1  'x, y, z'
loop_
 _atom_site_type_symbol
 _atom_site_label
 _atom_site_symmetry_multiplicity
 _atom_site_fract_x
 _atom_site_fract_y
 _atom_site_fract_z
 _atom_site_occupancy
  Ti  Ti0  1  0.447819  0.552181  0.250000  1
  Nb  Nb1  1  0.873658  0.126342  0.561922  1
  Nb  Nb2  1  0.873658  0.126342  0.938078  1
  Nb  Nb3  1  0.129262  0.870738  0.052828  1
  Nb  Nb4  1  0.129262  0.870738  0.447172  1
  V  V5  1  0.549234  0.450766  0.750000  1
  As  As6  1  0.763845  0.236155  0.250000  1
  As  As7  1  0.230307  0.769693  0.750000  1
  C  C8  1  0.501478  0.498522  0.504421  1
  C  C9  1  0.501478  0.498522  0.995579  1
