# generated using pymatgen
data_Fe3CoMo12(PtN)4
_symmetry_space_group_name_H-M   'P 1'
_cell_length_a   6.78031504
_cell_length_b   6.78031504
_cell_length_c   6.78031504
_cell_angle_alpha   89.93718008
_cell_angle_beta   90.06281992
_cell_angle_gamma   90.06281992
_symmetry_Int_Tables_number   1
_chemical_formula_structural   Fe3CoMo12(PtN)4
_chemical_formula_sum   'Fe3 Co1 Mo12 Pt4 N4'
_cell_volume   311.70863754
_cell_formula_units_Z   1
loop_
 _symmetry_equiv_pos_site_id
 _symmetry_equiv_pos_as_xyz
  1  'x, y, z'
loop_
 _atom_site_type_symbol
 _atom_site_label
 _atom_site_symmetry_multiplicity
 _atom_site_fract_x
 _atom_site_fract_y
 _atom_site_fract_z
 _atom_site_occupancy
  Fe  Fe0  1  0.315917  0.183937  0.815684  1
  Fe  Fe1  1  0.816063  0.315684  0.184083  1
  Fe  Fe2  1  0.684316  0.684083  0.683937  1
  Co  Co3  1  0.184414  0.815586  0.315586  1
  Mo  Mo4  1  0.802623  0.959198  0.370817  1
  Mo  Mo5  1  0.694700  0.040944  0.869750  1
  Mo  Mo6  1  0.196611  0.456645  0.128684  1
  Mo  Mo7  1  0.303965  0.541410  0.629867  1
  Mo  Mo8  1  0.959056  0.369750  0.805300  1
  Mo  Mo9  1  0.040802  0.870817  0.697377  1
  Mo  Mo10  1  0.458590  0.129867  0.196035  1
  Mo  Mo11  1  0.543355  0.628684  0.303389  1
  Mo  Mo12  1  0.371316  0.803389  0.956645  1
  Mo  Mo13  1  0.870133  0.696035  0.041410  1
  Mo  Mo14  1  0.129183  0.197377  0.459198  1
  Mo  Mo15  1  0.630250  0.305300  0.540944  1
  Pt  Pt16  1  0.562836  0.437164  0.937164  1
  Pt  Pt17  1  0.438047  0.937835  0.563043  1
  Pt  Pt18  1  0.936957  0.561953  0.437835  1
  Pt  Pt19  1  0.062165  0.063043  0.061953  1
  N  N20  1  0.874930  0.125070  0.625070  1
  N  N21  1  0.624185  0.875672  0.124742  1
  N  N22  1  0.124328  0.624742  0.875815  1
  N  N23  1  0.375258  0.375815  0.375672  1
