# generated using pymatgen
data_Dy10Co3Os
_symmetry_space_group_name_H-M   'P 1'
_cell_length_a   6.34046278
_cell_length_b   7.03613489
_cell_length_c   8.52916134
_cell_angle_alpha   96.29089330
_cell_angle_beta   112.12833600
_cell_angle_gamma   89.97226879
_symmetry_Int_Tables_number   1
_chemical_formula_structural   Dy10Co3Os
_chemical_formula_sum   'Dy10 Co3 Os1'
_cell_volume   350.01233503
_cell_formula_units_Z   1
loop_
 _symmetry_equiv_pos_site_id
 _symmetry_equiv_pos_as_xyz
  1  'x, y, z'
loop_
 _atom_site_type_symbol
 _atom_site_label
 _atom_site_symmetry_multiplicity
 _atom_site_fract_x
 _atom_site_fract_y
 _atom_site_fract_z
 _atom_site_occupancy
  Dy  Dy0  1  0.797605  0.079333  0.812494  1
  Dy  Dy1  1  0.978520  0.411352  0.180738  1
  Dy  Dy2  1  0.204062  0.911233  0.187768  1
  Dy  Dy3  1  0.027074  0.587539  0.811351  1
  Dy  Dy4  1  0.214349  0.181225  0.565561  1
  Dy  Dy5  1  0.647394  0.317836  0.436363  1
  Dy  Dy6  1  0.783669  0.817498  0.432065  1
  Dy  Dy7  1  0.347451  0.687432  0.563191  1
  Dy  Dy8  1  0.425749  0.247401  0.001378  1
  Dy  Dy9  1  0.573520  0.755120  0.003473  1
  Co  Co10  1  0.826216  0.072677  0.223789  1
  Co  Co11  1  0.394780  0.574260  0.220564  1
  Co  Co12  1  0.175262  0.926705  0.777188  1
  Os  Os13  1  0.604347  0.430389  0.784077  1
