# generated using pymatgen
data_Ce10ZnBi7
_symmetry_space_group_name_H-M   'P 1'
_cell_length_a   9.67683300
_cell_length_b   9.67683307
_cell_length_c   6.62898500
_cell_angle_alpha   90.00000000
_cell_angle_beta   90.00000000
_cell_angle_gamma   120.00000317
_symmetry_Int_Tables_number   1
_chemical_formula_structural   Ce10ZnBi7
_chemical_formula_sum   'Ce10 Zn1 Bi7'
_cell_volume   537.58129567
_cell_formula_units_Z   1
loop_
 _symmetry_equiv_pos_site_id
 _symmetry_equiv_pos_as_xyz
  1  'x, y, z'
loop_
 _atom_site_type_symbol
 _atom_site_label
 _atom_site_symmetry_multiplicity
 _atom_site_fract_x
 _atom_site_fract_y
 _atom_site_fract_z
 _atom_site_occupancy
  Ce  Ce0  1  0.666667  0.333333  0.500000  1
  Ce  Ce1  1  0.333333  0.666667  0.500000  1
  Ce  Ce2  1  0.333333  0.666667  0.000000  1
  Ce  Ce3  1  0.666667  0.333333  0.000000  1
  Ce  Ce4  1  0.724932  0.724932  0.256446  1
  Ce  Ce5  1  0.275068  0.000000  0.256446  1
  Ce  Ce6  1  0.000000  0.275068  0.256446  1
  Ce  Ce7  1  0.275068  0.275068  0.743554  1
  Ce  Ce8  1  0.724932  0.000000  0.743554  1
  Ce  Ce9  1  0.000000  0.724932  0.743554  1
  Zn  Zn10  1  0.000000  0.000000  0.500000  1
  Bi  Bi11  1  0.000000  0.000000  0.000000  1
  Bi  Bi12  1  0.378262  0.378262  0.250184  1
  Bi  Bi13  1  0.621738  0.000000  0.250184  1
  Bi  Bi14  1  0.000000  0.621738  0.250184  1
  Bi  Bi15  1  0.621738  0.621738  0.749816  1
  Bi  Bi16  1  0.378262  0.000000  0.749816  1
  Bi  Bi17  1  0.000000  0.378262  0.749816  1
