# generated using pymatgen
data_Ho5Lu5Sn5Bi
_symmetry_space_group_name_H-M   'P 1'
_cell_length_a   8.87159162
_cell_length_b   8.88777485
_cell_length_c   6.42261200
_cell_angle_alpha   90.00000000
_cell_angle_beta   90.00000000
_cell_angle_gamma   119.73089937
_symmetry_Int_Tables_number   1
_chemical_formula_structural   Ho5Lu5Sn5Bi
_chemical_formula_sum   'Ho5 Lu5 Sn5 Bi1'
_cell_volume   439.75235939
_cell_formula_units_Z   1
loop_
 _symmetry_equiv_pos_site_id
 _symmetry_equiv_pos_as_xyz
  1  'x, y, z'
loop_
 _atom_site_type_symbol
 _atom_site_label
 _atom_site_symmetry_multiplicity
 _atom_site_fract_x
 _atom_site_fract_y
 _atom_site_fract_z
 _atom_site_occupancy
  Ho  Ho0  1  0.765828  0.765383  0.750000  1
  Ho  Ho1  1  0.234530  0.993270  0.750000  1
  Ho  Ho2  1  0.993419  0.235338  0.750000  1
  Ho  Ho3  1  0.236882  0.236674  0.250000  1
  Ho  Ho4  1  0.762546  0.000411  0.250000  1
  Lu  Lu5  1  0.671208  0.332452  0.002075  1
  Lu  Lu6  1  0.332476  0.671398  0.002091  1
  Lu  Lu7  1  0.332476  0.671398  0.497909  1
  Lu  Lu8  1  0.671208  0.332452  0.497925  1
  Lu  Lu9  1  0.000642  0.762337  0.250000  1
  Sn  Sn10  1  0.601361  0.999650  0.750000  1
  Sn  Sn11  1  0.999684  0.601356  0.750000  1
  Sn  Sn12  1  0.606027  0.605074  0.250000  1
  Sn  Sn13  1  0.396061  0.001463  0.250000  1
  Sn  Sn14  1  0.002344  0.398052  0.250000  1
  Bi  Bi15  1  0.393310  0.393293  0.750000  1
