# generated using pymatgen
data_Nd12Th4Cd4IrRu3
_symmetry_space_group_name_H-M   'P 1'
_cell_length_a   9.94544609
_cell_length_b   9.95872019
_cell_length_c   9.95871900
_cell_angle_alpha   60.00000062
_cell_angle_beta   59.95583957
_cell_angle_gamma   59.95583849
_symmetry_Int_Tables_number   1
_chemical_formula_structural   Nd12Th4Cd4IrRu3
_chemical_formula_sum   'Nd12 Th4 Cd4 Ir1 Ru3'
_cell_volume   696.98923243
_cell_formula_units_Z   1
loop_
 _symmetry_equiv_pos_site_id
 _symmetry_equiv_pos_as_xyz
  1  'x, y, z'
loop_
 _atom_site_type_symbol
 _atom_site_label
 _atom_site_symmetry_multiplicity
 _atom_site_fract_x
 _atom_site_fract_y
 _atom_site_fract_z
 _atom_site_occupancy
  Nd  Nd0  1  0.810958  0.190739  0.190739  1
  Nd  Nd1  1  0.190880  0.809706  0.809706  1
  Nd  Nd2  1  0.190880  0.809706  0.189708  1
  Nd  Nd3  1  0.810958  0.190739  0.807564  1
  Nd  Nd4  1  0.190880  0.189708  0.809706  1
  Nd  Nd5  1  0.810958  0.807564  0.190739  1
  Nd  Nd6  1  0.937412  0.561710  0.561710  1
  Nd  Nd7  1  0.560434  0.938842  0.938842  1
  Nd  Nd8  1  0.560434  0.938842  0.561881  1
  Nd  Nd9  1  0.937412  0.561710  0.939169  1
  Nd  Nd10  1  0.560434  0.561881  0.938842  1
  Nd  Nd11  1  0.937412  0.939169  0.561710  1
  Th  Th12  1  0.342381  0.346585  0.346585  1
  Th  Th13  1  0.342381  0.346585  0.964449  1
  Th  Th14  1  0.342381  0.964449  0.346585  1
  Th  Th15  1  0.967368  0.344211  0.344211  1
  Cd  Cd16  1  0.579501  0.579620  0.579620  1
  Cd  Cd17  1  0.579501  0.579620  0.261258  1
  Cd  Cd18  1  0.579501  0.261258  0.579620  1
  Cd  Cd19  1  0.261271  0.579576  0.579576  1
  Ir  Ir20  1  0.567029  0.144323  0.144323  1
  Ru  Ru21  1  0.146544  0.145045  0.145045  1
  Ru  Ru22  1  0.146544  0.145045  0.563364  1
  Ru  Ru23  1  0.146544  0.563364  0.145045  1
