# generated using pymatgen
data_Ho4Lu2ScCo17P12
_symmetry_space_group_name_H-M   'P 1'
_cell_length_a   3.68847200
_cell_length_b   10.53619500
_cell_length_c   12.21412100
_cell_angle_alpha   90.00000000
_cell_angle_beta   90.00000000
_cell_angle_gamma   90.00000000
_symmetry_Int_Tables_number   1
_chemical_formula_structural   Ho4Lu2ScCo17P12
_chemical_formula_sum   'Ho4 Lu2 Sc1 Co17 P12'
_cell_volume   474.67079178
_cell_formula_units_Z   1
loop_
 _symmetry_equiv_pos_site_id
 _symmetry_equiv_pos_as_xyz
  1  'x, y, z'
loop_
 _atom_site_type_symbol
 _atom_site_label
 _atom_site_symmetry_multiplicity
 _atom_site_fract_x
 _atom_site_fract_y
 _atom_site_fract_z
 _atom_site_occupancy
  Ho  Ho0  1  0.000000  0.500000  0.527678  1
  Ho  Ho1  1  0.500000  0.000000  0.476587  1
  Ho  Ho2  1  0.000000  0.682356  0.795781  1
  Ho  Ho3  1  0.000000  0.317644  0.795781  1
  Lu  Lu4  1  0.500000  0.822446  0.207660  1
  Lu  Lu5  1  0.500000  0.177554  0.207660  1
  Sc  Sc6  1  0.500000  0.500000  0.153066  1
  Co  Co7  1  0.000000  0.500000  0.985806  1
  Co  Co8  1  0.500000  0.000000  0.014731  1
  Co  Co9  1  0.500000  0.294457  0.433225  1
  Co  Co10  1  0.500000  0.705543  0.433225  1
  Co  Co11  1  0.000000  0.201750  0.569564  1
  Co  Co12  1  0.000000  0.798250  0.569564  1
  Co  Co13  1  0.500000  0.880113  0.707197  1
  Co  Co14  1  0.500000  0.119887  0.707197  1
  Co  Co15  1  0.000000  0.623807  0.295091  1
  Co  Co16  1  0.000000  0.376193  0.295091  1
  Co  Co17  1  0.500000  0.325772  0.991108  1
  Co  Co18  1  0.500000  0.674228  0.991108  1
  Co  Co19  1  0.000000  0.161875  0.002462  1
  Co  Co20  1  0.000000  0.838125  0.002462  1
  Co  Co21  1  0.000000  0.000000  0.836605  1
  Co  Co22  1  0.500000  0.500000  0.704111  1
  Co  Co23  1  0.000000  0.000000  0.294685  1
  P  P24  1  0.500000  0.309557  0.617580  1
  P  P25  1  0.500000  0.690443  0.617580  1
  P  P26  1  0.000000  0.187883  0.384415  1
  P  P27  1  0.000000  0.812117  0.384415  1
  P  P28  1  0.500000  0.500000  0.884192  1
  P  P29  1  0.000000  0.000000  0.117427  1
  P  P30  1  0.500000  0.852172  0.888723  1
  P  P31  1  0.500000  0.147828  0.888723  1
  P  P32  1  0.000000  0.664821  0.103785  1
  P  P33  1  0.000000  0.335179  0.103785  1
  P  P34  1  0.500000  0.500000  0.358477  1
  P  P35  1  0.000000  0.000000  0.653448  1
