# generated using pymatgen
data_HfMn4In3Rh8
_symmetry_space_group_name_H-M   'P 1'
_cell_length_a   6.29606900
_cell_length_b   4.47325000
_cell_length_c   8.92557000
_cell_angle_alpha   90.00000000
_cell_angle_beta   90.00032429
_cell_angle_gamma   90.00000000
_symmetry_Int_Tables_number   1
_chemical_formula_structural   HfMn4In3Rh8
_chemical_formula_sum   'Hf1 Mn4 In3 Rh8'
_cell_volume   251.37877750
_cell_formula_units_Z   1
loop_
 _symmetry_equiv_pos_site_id
 _symmetry_equiv_pos_as_xyz
  1  'x, y, z'
loop_
 _atom_site_type_symbol
 _atom_site_label
 _atom_site_symmetry_multiplicity
 _atom_site_fract_x
 _atom_site_fract_y
 _atom_site_fract_z
 _atom_site_occupancy
  Hf  Hf0  1  0.249980  0.750000  0.875038  1
  Mn  Mn1  1  0.250025  0.250001  0.127126  1
  Mn  Mn2  1  0.750039  0.750000  0.374989  1
  Mn  Mn3  1  0.249976  0.250001  0.622897  1
  Mn  Mn4  1  0.749961  0.750000  0.874985  1
  In  In5  1  0.750018  0.250001  0.125015  1
  In  In6  1  0.250026  0.750000  0.375031  1
  In  In7  1  0.749978  0.250001  0.624889  1
  Rh  Rh8  1  0.495840  0.750000  0.120797  1
  Rh  Rh9  1  0.004194  0.750000  0.120801  1
  Rh  Rh10  1  0.499332  0.250001  0.374979  1
  Rh  Rh11  1  0.000698  0.250001  0.374987  1
  Rh  Rh12  1  0.004135  0.750000  0.629233  1
  Rh  Rh13  1  0.495835  0.750000  0.629237  1
  Rh  Rh14  1  0.005420  0.250001  0.874996  1
  Rh  Rh15  1  0.494543  0.250001  0.875002  1
