# generated using pymatgen
data_Dy20Tl5Bi3Ru4
_symmetry_space_group_name_H-M   'P 1'
_cell_length_a   7.75627758
_cell_length_b   9.14756718
_cell_length_c   12.22068200
_cell_angle_alpha   90.46214477
_cell_angle_beta   90.37324661
_cell_angle_gamma   89.97593203
_symmetry_Int_Tables_number   1
_chemical_formula_structural   Dy20Tl5Bi3Ru4
_chemical_formula_sum   'Dy20 Tl5 Bi3 Ru4'
_cell_volume   867.02380553
_cell_formula_units_Z   1
loop_
 _symmetry_equiv_pos_site_id
 _symmetry_equiv_pos_as_xyz
  1  'x, y, z'
loop_
 _atom_site_type_symbol
 _atom_site_label
 _atom_site_symmetry_multiplicity
 _atom_site_fract_x
 _atom_site_fract_y
 _atom_site_fract_z
 _atom_site_occupancy
  Dy  Dy0  1  0.850367  0.744933  0.786354  1
  Dy  Dy1  1  0.154039  0.251836  0.218731  1
  Dy  Dy2  1  0.351234  0.255097  0.713859  1
  Dy  Dy3  1  0.647797  0.749223  0.282113  1
  Dy  Dy4  1  0.382403  0.746033  0.692951  1
  Dy  Dy5  1  0.614988  0.253127  0.303521  1
  Dy  Dy6  1  0.884098  0.253591  0.805885  1
  Dy  Dy7  1  0.122843  0.750033  0.196928  1
  Dy  Dy8  1  0.955191  0.744494  0.502818  1
  Dy  Dy9  1  0.043561  0.255007  0.498958  1
  Dy  Dy10  1  0.456280  0.250163  0.999529  1
  Dy  Dy11  1  0.542167  0.748345  0.002633  1
  Dy  Dy12  1  0.675987  0.037633  0.566723  1
  Dy  Dy13  1  0.324217  0.963441  0.427846  1
  Dy  Dy14  1  0.177074  0.962139  0.933955  1
  Dy  Dy15  1  0.323132  0.536705  0.426304  1
  Dy  Dy16  1  0.822281  0.035276  0.068692  1
  Dy  Dy17  1  0.676533  0.462743  0.573181  1
  Dy  Dy18  1  0.826729  0.464598  0.072799  1
  Dy  Dy19  1  0.178883  0.536015  0.926892  1
  Tl  Tl20  1  0.581699  0.494157  0.833546  1
  Tl  Tl21  1  0.416212  0.504926  0.166347  1
  Tl  Tl22  1  0.080694  0.505487  0.668366  1
  Tl  Tl23  1  0.419935  0.994794  0.167304  1
  Tl  Tl24  1  0.916186  0.495060  0.331702  1
  Bi  Bi25  1  0.577764  0.005482  0.827968  1
  Bi  Bi26  1  0.918981  0.006023  0.332258  1
  Bi  Bi27  1  0.077784  0.994190  0.670194  1
  Ru  Ru28  1  0.576407  0.749338  0.505205  1
  Ru  Ru29  1  0.422094  0.250250  0.491587  1
  Ru  Ru30  1  0.078613  0.249281  0.995825  1
  Ru  Ru31  1  0.923822  0.750581  0.009025  1
