# generated using pymatgen
data_Tb6Y13ThSn16
_symmetry_space_group_name_H-M   'P 1'
_cell_length_a   8.07644640
_cell_length_b   8.20870587
_cell_length_c   15.51264763
_cell_angle_alpha   89.95566926
_cell_angle_beta   90.17742002
_cell_angle_gamma   89.86533124
_symmetry_Int_Tables_number   1
_chemical_formula_structural   Tb6Y13ThSn16
_chemical_formula_sum   'Tb6 Y13 Th1 Sn16'
_cell_volume   1028.43659864
_cell_formula_units_Z   1
loop_
 _symmetry_equiv_pos_site_id
 _symmetry_equiv_pos_as_xyz
  1  'x, y, z'
loop_
 _atom_site_type_symbol
 _atom_site_label
 _atom_site_symmetry_multiplicity
 _atom_site_fract_x
 _atom_site_fract_y
 _atom_site_fract_z
 _atom_site_occupancy
  Tb  Tb0  1  0.479442  0.678484  0.401949  1
  Tb  Tb1  1  0.978616  0.821167  0.098017  1
  Tb  Tb2  1  0.478496  0.678465  0.097920  1
  Tb  Tb3  1  0.979209  0.821361  0.401633  1
  Tb  Tb4  1  0.522185  0.321884  0.597570  1
  Tb  Tb5  1  0.022252  0.179052  0.901583  1
  Y  Y6  1  0.367785  0.836469  0.877915  1
  Y  Y7  1  0.866804  0.663061  0.622110  1
  Y  Y8  1  0.633629  0.163202  0.377434  1
  Y  Y9  1  0.132704  0.337025  0.122061  1
  Y  Y10  1  0.632113  0.163170  0.122295  1
  Y  Y11  1  0.133370  0.337012  0.377227  1
  Y  Y12  1  0.366824  0.835807  0.622373  1
  Y  Y13  1  0.867662  0.663916  0.878355  1
  Y  Y14  1  0.521743  0.322687  0.902802  1
  Y  Y15  1  0.198295  0.500923  0.750732  1
  Y  Y16  1  0.697880  0.997333  0.751084  1
  Y  Y17  1  0.801576  0.498168  0.249411  1
  Y  Y18  1  0.301796  0.001804  0.249977  1
  Th  Th19  1  0.018580  0.179962  0.596919  1
  Sn  Sn20  1  0.292567  0.035596  0.041812  1
  Sn  Sn21  1  0.793467  0.462946  0.458650  1
  Sn  Sn22  1  0.704547  0.962185  0.541260  1
  Sn  Sn23  1  0.207425  0.536049  0.958217  1
  Sn  Sn24  1  0.707702  0.965360  0.958226  1
  Sn  Sn25  1  0.208152  0.535723  0.541865  1
  Sn  Sn26  1  0.293968  0.035148  0.457797  1
  Sn  Sn27  1  0.792016  0.463955  0.041778  1
  Sn  Sn28  1  0.564632  0.619488  0.750023  1
  Sn  Sn29  1  0.064933  0.879783  0.749184  1
  Sn  Sn30  1  0.435285  0.380792  0.250052  1
  Sn  Sn31  1  0.935182  0.119260  0.249798  1
  Sn  Sn32  1  0.331519  0.147257  0.750230  1
  Sn  Sn33  1  0.827752  0.355672  0.751536  1
  Sn  Sn34  1  0.670126  0.852861  0.250141  1
  Sn  Sn35  1  0.169766  0.646975  0.250068  1
