# generated using pymatgen
data_SrAgP2O7
_symmetry_space_group_name_H-M   'P 1'
_cell_length_a   5.55725202
_cell_length_b   7.47335883
_cell_length_c   7.46247681
_cell_angle_alpha   103.41870242
_cell_angle_beta   91.15639511
_cell_angle_gamma   95.44893430
_symmetry_Int_Tables_number   1
_chemical_formula_structural   SrAgP2O7
_chemical_formula_sum   'Sr2 Ag2 P4 O14'
_cell_volume   299.81807458
_cell_formula_units_Z   2
loop_
 _symmetry_equiv_pos_site_id
 _symmetry_equiv_pos_as_xyz
  1  'x, y, z'
loop_
 _atom_site_type_symbol
 _atom_site_label
 _atom_site_symmetry_multiplicity
 _atom_site_fract_x
 _atom_site_fract_y
 _atom_site_fract_z
 _atom_site_occupancy
  Sr  Sr0  1  0.779899  0.725696  0.065071  1
  Sr  Sr1  1  0.220101  0.274304  0.934929  1
  Ag  Ag2  1  0.804832  0.830371  0.594462  1
  Ag  Ag3  1  0.195168  0.169629  0.405538  1
  P  P4  1  0.275315  0.666440  0.385323  1
  P  P5  1  0.724685  0.333560  0.614677  1
  P  P6  1  0.301306  0.760126  0.796529  1
  P  P7  1  0.698694  0.239874  0.203471  1
  O  O8  1  0.526042  0.770619  0.368619  1
  O  O9  1  0.473958  0.229381  0.631381  1
  O  O10  1  0.271927  0.625965  0.590967  1
  O  O11  1  0.728073  0.374035  0.409033  1
  O  O12  1  0.281883  0.635602  0.931752  1
  O  O13  1  0.718117  0.364398  0.068248  1
  O  O14  1  0.227280  0.479410  0.254632  1
  O  O15  1  0.772720  0.520590  0.745368  1
  O  O16  1  0.901506  0.107373  0.184730  1
  O  O17  1  0.098494  0.892627  0.815270  1
  O  O18  1  0.448337  0.124581  0.183952  1
  O  O19  1  0.551663  0.875419  0.816048  1
  O  O20  1  0.927841  0.204535  0.623741  1
  O  O21  1  0.072159  0.795465  0.376259  1
