# generated using pymatgen
data_Zr6Ta4AlGa11Ir7
_symmetry_space_group_name_H-M   'P 1'
_cell_length_a   8.87604828
_cell_length_b   8.87617306
_cell_length_c   8.86119888
_cell_angle_alpha   59.94469613
_cell_angle_beta   59.94634897
_cell_angle_gamma   59.99882012
_symmetry_Int_Tables_number   1
_chemical_formula_structural   Zr6Ta4AlGa11Ir7
_chemical_formula_sum   'Zr6 Ta4 Al1 Ga11 Ir7'
_cell_volume   493.24300610
_cell_formula_units_Z   1
loop_
 _symmetry_equiv_pos_site_id
 _symmetry_equiv_pos_as_xyz
  1  'x, y, z'
loop_
 _atom_site_type_symbol
 _atom_site_label
 _atom_site_symmetry_multiplicity
 _atom_site_fract_x
 _atom_site_fract_y
 _atom_site_fract_z
 _atom_site_occupancy
  Zr  Zr0  1  0.692978  0.692948  0.307248  1
  Zr  Zr1  1  0.306784  0.693009  0.307219  1
  Zr  Zr2  1  0.693001  0.306810  0.307238  1
  Zr  Zr3  1  0.306905  0.306912  0.694028  1
  Zr  Zr4  1  0.692160  0.306917  0.694002  1
  Zr  Zr5  1  0.306909  0.692157  0.694015  1
  Ta  Ta6  1  0.878559  0.878560  0.364323  1
  Ta  Ta7  1  0.877919  0.366443  0.877704  1
  Ta  Ta8  1  0.366443  0.877923  0.877705  1
  Ta  Ta9  1  0.877922  0.877932  0.877701  1
  Al  Al10  1  0.123712  0.123704  0.628882  1
  Ga  Ga11  1  0.121214  0.634935  0.122668  1
  Ga  Ga12  1  0.634931  0.121209  0.122662  1
  Ga  Ga13  1  0.121202  0.121185  0.122667  1
  Ga  Ga14  1  0.654687  0.654694  0.035922  1
  Ga  Ga15  1  0.655247  0.035038  0.654446  1
  Ga  Ga16  1  0.035027  0.655258  0.654448  1
  Ga  Ga17  1  0.655251  0.655266  0.654445  1
  Ga  Ga18  1  0.342978  0.342973  0.971079  1
  Ga  Ga19  1  0.343393  0.968746  0.344483  1
  Ga  Ga20  1  0.968775  0.343377  0.344476  1
  Ga  Ga21  1  0.343399  0.343389  0.344489  1
  Ir  Ir22  1  0.002318  0.002321  0.993036  1
  Ir  Ir23  1  0.996165  0.996171  0.505754  1
  Ir  Ir24  1  0.501902  0.996164  0.505767  1
  Ir  Ir25  1  0.996163  0.501905  0.505760  1
  Ir  Ir26  1  0.504135  0.504139  0.995939  1
  Ir  Ir27  1  0.995794  0.504126  0.995951  1
  Ir  Ir28  1  0.504128  0.995790  0.995945  1
