# generated using pymatgen
data_Gd4H9
_symmetry_space_group_name_H-M   'P 1'
_cell_length_a   6.53834183
_cell_length_b   6.53834224
_cell_length_c   6.53834203
_cell_angle_alpha   132.08622134
_cell_angle_beta   132.08622623
_cell_angle_gamma   70.09288270
_symmetry_Int_Tables_number   1
_chemical_formula_structural   Gd4H9
_chemical_formula_sum   'Gd4 H9'
_cell_volume   150.91690827
_cell_formula_units_Z   1
loop_
 _symmetry_equiv_pos_site_id
 _symmetry_equiv_pos_as_xyz
  1  'x, y, z'
loop_
 _atom_site_type_symbol
 _atom_site_label
 _atom_site_symmetry_multiplicity
 _atom_site_fract_x
 _atom_site_fract_y
 _atom_site_fract_z
 _atom_site_occupancy
  Gd  Gd0  1  0.754282  0.754282  0.000000  1
  Gd  Gd1  1  0.245718  0.245718  0.000000  1
  Gd  Gd2  1  0.500000  0.000000  0.500000  1
  Gd  Gd3  1  0.000000  0.500000  0.500000  1
  H  H4  1  0.131955  0.131955  0.517557  1
  H  H5  1  0.614398  0.614398  0.482443  1
  H  H6  1  0.131955  0.614398  0.000000  1
  H  H7  1  0.614398  0.131955  0.000000  1
  H  H8  1  0.868045  0.868045  0.482443  1
  H  H9  1  0.385602  0.385602  0.517557  1
  H  H10  1  0.868045  0.385602  0.000000  1
  H  H11  1  0.385602  0.868045  0.000000  1
  H  H12  1  0.000000  0.000000  0.000000  1
