# generated using pymatgen
data_Ce3Sm6U(Al2Ru3)2
_symmetry_space_group_name_H-M   'P 1'
_cell_length_a   8.49650759
_cell_length_b   8.49650725
_cell_length_c   8.49650682
_cell_angle_alpha   109.88797848
_cell_angle_beta   109.88796768
_cell_angle_gamma   109.88796867
_symmetry_Int_Tables_number   1
_chemical_formula_structural   Ce3Sm6U(Al2Ru3)2
_chemical_formula_sum   'Ce3 Sm6 U1 Al4 Ru6'
_cell_volume   464.74290472
_cell_formula_units_Z   1
loop_
 _symmetry_equiv_pos_site_id
 _symmetry_equiv_pos_as_xyz
  1  'x, y, z'
loop_
 _atom_site_type_symbol
 _atom_site_label
 _atom_site_symmetry_multiplicity
 _atom_site_fract_x
 _atom_site_fract_y
 _atom_site_fract_z
 _atom_site_occupancy
  Ce  Ce0  1  0.270054  0.209981  0.954639  1
  Ce  Ce1  1  0.954639  0.270054  0.209981  1
  Ce  Ce2  1  0.209981  0.954639  0.270054  1
  Sm  Sm3  1  0.309241  0.560151  0.748111  1
  Sm  Sm4  1  0.748111  0.309241  0.560151  1
  Sm  Sm5  1  0.560151  0.748111  0.309241  1
  Sm  Sm6  1  0.724527  0.503746  0.985524  1
  Sm  Sm7  1  0.985524  0.724527  0.503746  1
  Sm  Sm8  1  0.503746  0.985524  0.724527  1
  U  U9  1  0.835752  0.835752  0.835752  1
  Al  Al10  1  0.433690  0.433690  0.433690  1
  Al  Al11  1  0.093917  0.490826  0.993621  1
  Al  Al12  1  0.993621  0.093917  0.490826  1
  Al  Al13  1  0.490826  0.993621  0.093917  1
  Ru  Ru14  1  0.886116  0.088535  0.750076  1
  Ru  Ru15  1  0.750076  0.886116  0.088535  1
  Ru  Ru16  1  0.088535  0.750076  0.886116  1
  Ru  Ru17  1  0.215138  0.591155  0.355200  1
  Ru  Ru18  1  0.355200  0.215138  0.591155  1
  Ru  Ru19  1  0.591155  0.355200  0.215138  1
