# generated using pymatgen
data_HoMg(AlPt)2
_symmetry_space_group_name_H-M   'P 1'
_cell_length_a   4.24272800
_cell_length_b   6.85031800
_cell_length_c   7.66424900
_cell_angle_alpha   90.00000000
_cell_angle_beta   90.00000000
_cell_angle_gamma   90.00000000
_symmetry_Int_Tables_number   1
_chemical_formula_structural   HoMg(AlPt)2
_chemical_formula_sum   'Ho2 Mg2 Al4 Pt4'
_cell_volume   222.75400875
_cell_formula_units_Z   2
loop_
 _symmetry_equiv_pos_site_id
 _symmetry_equiv_pos_as_xyz
  1  'x, y, z'
loop_
 _atom_site_type_symbol
 _atom_site_label
 _atom_site_symmetry_multiplicity
 _atom_site_fract_x
 _atom_site_fract_y
 _atom_site_fract_z
 _atom_site_occupancy
  Ho  Ho0  1  0.750000  0.975769  0.330941  1
  Ho  Ho1  1  0.750000  0.475769  0.169059  1
  Mg  Mg2  1  0.250000  0.026876  0.679238  1
  Mg  Mg3  1  0.250000  0.526876  0.820762  1
  Al  Al4  1  0.250000  0.143354  0.054743  1
  Al  Al5  1  0.250000  0.643354  0.445257  1
  Al  Al6  1  0.750000  0.858048  0.933105  1
  Al  Al7  1  0.750000  0.358048  0.566895  1
  Pt  Pt8  1  0.250000  0.274273  0.379574  1
  Pt  Pt9  1  0.250000  0.774273  0.120426  1
  Pt  Pt10  1  0.750000  0.721680  0.625261  1
  Pt  Pt11  1  0.750000  0.221680  0.874739  1
