# generated using pymatgen
data_Hf8FeNiRh2
_symmetry_space_group_name_H-M   'P 1'
_cell_length_a   8.59706839
_cell_length_b   8.59706831
_cell_length_c   8.58722300
_cell_angle_alpha   60.03787935
_cell_angle_beta   60.03787964
_cell_angle_gamma   60.09144056
_symmetry_Int_Tables_number   1
_chemical_formula_structural   Hf8FeNiRh2
_chemical_formula_sum   'Hf16 Fe2 Ni2 Rh4'
_cell_volume   449.35180416
_cell_formula_units_Z   2
loop_
 _symmetry_equiv_pos_site_id
 _symmetry_equiv_pos_as_xyz
  1  'x, y, z'
loop_
 _atom_site_type_symbol
 _atom_site_label
 _atom_site_symmetry_multiplicity
 _atom_site_fract_x
 _atom_site_fract_y
 _atom_site_fract_z
 _atom_site_occupancy
  Hf  Hf0  1  0.675567  0.109728  0.107352  1
  Hf  Hf1  1  0.109728  0.675567  0.107352  1
  Hf  Hf2  1  0.107940  0.107940  0.678336  1
  Hf  Hf3  1  0.107940  0.107940  0.105784  1
  Hf  Hf4  1  0.311647  0.311647  0.688353  1
  Hf  Hf5  1  0.686371  0.686371  0.313629  1
  Hf  Hf6  1  0.313800  0.687519  0.312111  1
  Hf  Hf7  1  0.687519  0.313800  0.686570  1
  Hf  Hf8  1  0.687519  0.313800  0.312111  1
  Hf  Hf9  1  0.313800  0.687519  0.686570  1
  Hf  Hf10  1  0.945163  0.945163  0.554837  1
  Hf  Hf11  1  0.558007  0.558007  0.941993  1
  Hf  Hf12  1  0.942764  0.552785  0.942758  1
  Hf  Hf13  1  0.552785  0.942764  0.561694  1
  Hf  Hf14  1  0.552785  0.942764  0.942758  1
  Hf  Hf15  1  0.942764  0.552785  0.561694  1
  Fe  Fe16  1  0.317773  0.895284  0.893472  1
  Fe  Fe17  1  0.895284  0.317773  0.893472  1
  Ni  Ni18  1  0.894868  0.894868  0.315821  1
  Ni  Ni19  1  0.894868  0.894868  0.894443  1
  Rh  Rh20  1  0.994260  0.335389  0.335175  1
  Rh  Rh21  1  0.335389  0.994260  0.335175  1
  Rh  Rh22  1  0.335731  0.335731  0.994092  1
  Rh  Rh23  1  0.335731  0.335731  0.334446  1
