# generated using pymatgen
data_Ta3TiGa3BMo
_symmetry_space_group_name_H-M   'P 1'
_cell_length_a   7.75255200
_cell_length_b   7.75255202
_cell_length_c   5.22335400
_cell_angle_alpha   90.00000000
_cell_angle_beta   90.00000000
_cell_angle_gamma   119.99999991
_symmetry_Int_Tables_number   1
_chemical_formula_structural   Ta3TiGa3BMo
_chemical_formula_sum   'Ta6 Ti2 Ga6 B2 Mo2'
_cell_volume   271.87512200
_cell_formula_units_Z   2
loop_
 _symmetry_equiv_pos_site_id
 _symmetry_equiv_pos_as_xyz
  1  'x, y, z'
loop_
 _atom_site_type_symbol
 _atom_site_label
 _atom_site_symmetry_multiplicity
 _atom_site_fract_x
 _atom_site_fract_y
 _atom_site_fract_z
 _atom_site_occupancy
  Ta  Ta0  1  0.242419  0.000000  0.249819  1
  Ta  Ta1  1  0.757581  0.000000  0.750181  1
  Ta  Ta2  1  0.000000  0.242419  0.249819  1
  Ta  Ta3  1  0.000000  0.757581  0.750181  1
  Ta  Ta4  1  0.757581  0.757581  0.249819  1
  Ta  Ta5  1  0.242419  0.242419  0.750181  1
  Ti  Ti6  1  0.666667  0.333333  0.500000  1
  Ti  Ti7  1  0.333333  0.666667  0.500000  1
  Ga  Ga8  1  0.595666  0.000000  0.249582  1
  Ga  Ga9  1  0.404334  0.000000  0.750418  1
  Ga  Ga10  1  0.000000  0.595666  0.249582  1
  Ga  Ga11  1  0.000000  0.404334  0.750418  1
  Ga  Ga12  1  0.404334  0.404334  0.249582  1
  Ga  Ga13  1  0.595666  0.595666  0.750418  1
  B  B14  1  0.000000  0.000000  0.000000  1
  B  B15  1  0.000000  0.000000  0.500000  1
  Mo  Mo16  1  0.333333  0.666667  0.000000  1
  Mo  Mo17  1  0.666667  0.333333  0.000000  1
