# generated using pymatgen
data_Zr11Sc(Si3Os)4
_symmetry_space_group_name_H-M   'P 1'
_cell_length_a   3.95124800
_cell_length_b   10.36341471
_cell_length_c   11.77695600
_cell_angle_alpha   90.02155159
_cell_angle_beta   90.00000000
_cell_angle_gamma   90.00000000
_symmetry_Int_Tables_number   1
_chemical_formula_structural   Zr11Sc(Si3Os)4
_chemical_formula_sum   'Zr11 Sc1 Si12 Os4'
_cell_volume   482.24772609
_cell_formula_units_Z   1
loop_
 _symmetry_equiv_pos_site_id
 _symmetry_equiv_pos_as_xyz
  1  'x, y, z'
loop_
 _atom_site_type_symbol
 _atom_site_label
 _atom_site_symmetry_multiplicity
 _atom_site_fract_x
 _atom_site_fract_y
 _atom_site_fract_z
 _atom_site_occupancy
  Zr  Zr0  1  0.250000  0.875451  0.020158  1
  Zr  Zr1  1  0.250000  0.625183  0.520140  1
  Zr  Zr2  1  0.750000  0.123681  0.980115  1
  Zr  Zr3  1  0.750000  0.375897  0.479699  1
  Zr  Zr4  1  0.250000  0.923932  0.597560  1
  Zr  Zr5  1  0.250000  0.575666  0.098384  1
  Zr  Zr6  1  0.750000  0.075315  0.400680  1
  Zr  Zr7  1  0.750000  0.423342  0.901979  1
  Zr  Zr8  1  0.250000  0.658050  0.800580  1
  Zr  Zr9  1  0.250000  0.841632  0.300276  1
  Zr  Zr10  1  0.750000  0.341814  0.199410  1
  Sc  Sc11  1  0.750000  0.158956  0.700055  1
  Si  Si12  1  0.250000  0.015175  0.824064  1
  Si  Si13  1  0.250000  0.485171  0.325114  1
  Si  Si14  1  0.750000  0.984478  0.174583  1
  Si  Si15  1  0.750000  0.514742  0.674878  1
  Si  Si16  1  0.250000  0.249288  0.841501  1
  Si  Si17  1  0.250000  0.250677  0.342712  1
  Si  Si18  1  0.750000  0.750075  0.157846  1
  Si  Si19  1  0.750000  0.750174  0.658209  1
  Si  Si20  1  0.250000  0.194426  0.545713  1
  Si  Si21  1  0.250000  0.305542  0.044010  1
  Si  Si22  1  0.750000  0.806574  0.455730  1
  Si  Si23  1  0.750000  0.694520  0.955689  1
  Os  Os24  1  0.250000  0.386494  0.678631  1
  Os  Os25  1  0.250000  0.113662  0.178918  1
  Os  Os26  1  0.750000  0.613343  0.321315  1
  Os  Os27  1  0.750000  0.886742  0.822053  1
