# generated using pymatgen
data_Zr6MnAs5Ru6
_symmetry_space_group_name_H-M   'P 1'
_cell_length_a   7.70658630
_cell_length_b   7.72458710
_cell_length_c   7.70658737
_cell_angle_alpha   128.82210308
_cell_angle_beta   119.02018518
_cell_angle_gamma   83.49892059
_symmetry_Int_Tables_number   1
_chemical_formula_structural   Zr6MnAs5Ru6
_chemical_formula_sum   'Zr6 Mn1 As5 Ru6'
_cell_volume   300.03270834
_cell_formula_units_Z   1
loop_
 _symmetry_equiv_pos_site_id
 _symmetry_equiv_pos_as_xyz
  1  'x, y, z'
loop_
 _atom_site_type_symbol
 _atom_site_label
 _atom_site_symmetry_multiplicity
 _atom_site_fract_x
 _atom_site_fract_y
 _atom_site_fract_z
 _atom_site_occupancy
  Zr  Zr0  1  0.450528  0.657955  0.707427  1
  Zr  Zr1  1  0.532301  0.251649  0.219349  1
  Zr  Zr2  1  0.749606  0.839251  0.589646  1
  Zr  Zr3  1  0.249700  0.842943  0.093241  1
  Zr  Zr4  1  0.053707  0.254619  0.700912  1
  Zr  Zr5  1  0.961163  0.674054  0.212890  1
  Mn  Mn6  1  0.256010  0.250403  0.494395  1
  As  As7  1  0.743726  0.256938  0.013210  1
  As  As8  1  0.333321  0.586843  0.252729  1
  As  As9  1  0.668938  0.919646  0.254807  1
  As  As10  1  0.164840  0.919646  0.750707  1
  As  As11  1  0.834114  0.586843  0.753522  1
  Ru  Ru12  1  0.498709  0.493526  0.991723  1
  Ru  Ru13  1  0.001804  0.493526  0.494816  1
  Ru  Ru14  1  0.108813  0.252952  0.120579  1
  Ru  Ru15  1  0.880000  0.012927  0.132579  1
  Ru  Ru16  1  0.380347  0.012927  0.632928  1
  Ru  Ru17  1  0.632373  0.252952  0.644139  1
