# generated using pymatgen
data_Pa8Ta11Si16Tc
_symmetry_space_group_name_H-M   'P 1'
_cell_length_a   6.83333100
_cell_length_b   7.05416894
_cell_length_c   13.35666000
_cell_angle_alpha   90.00000000
_cell_angle_beta   90.00000000
_cell_angle_gamma   90.02953253
_symmetry_Int_Tables_number   1
_chemical_formula_structural   Pa8Ta11Si16Tc
_chemical_formula_sum   'Pa8 Ta11 Si16 Tc1'
_cell_volume   643.83729114
_cell_formula_units_Z   1
loop_
 _symmetry_equiv_pos_site_id
 _symmetry_equiv_pos_as_xyz
  1  'x, y, z'
loop_
 _atom_site_type_symbol
 _atom_site_label
 _atom_site_symmetry_multiplicity
 _atom_site_fract_x
 _atom_site_fract_y
 _atom_site_fract_z
 _atom_site_occupancy
  Pa  Pa0  1  0.497475  0.669761  0.595244  1
  Pa  Pa1  1  0.998820  0.829288  0.904235  1
  Pa  Pa2  1  0.502208  0.331187  0.093131  1
  Pa  Pa3  1  0.001989  0.169762  0.406202  1
  Pa  Pa4  1  0.502208  0.331187  0.406869  1
  Pa  Pa5  1  0.001989  0.169762  0.093798  1
  Pa  Pa6  1  0.497475  0.669761  0.904756  1
  Pa  Pa7  1  0.998820  0.829288  0.595765  1
  Ta  Ta8  1  0.661623  0.173772  0.624554  1
  Ta  Ta9  1  0.162279  0.325240  0.875258  1
  Ta  Ta10  1  0.337424  0.827039  0.124134  1
  Ta  Ta11  1  0.837867  0.672310  0.377109  1
  Ta  Ta12  1  0.337424  0.827039  0.375866  1
  Ta  Ta13  1  0.837867  0.672310  0.122891  1
  Ta  Ta14  1  0.661623  0.173772  0.875446  1
  Ta  Ta15  1  0.162279  0.325240  0.624742  1
  Ta  Ta16  1  0.332928  0.999145  0.750000  1
  Ta  Ta17  1  0.166982  0.499601  0.250000  1
  Ta  Ta18  1  0.666892  0.000033  0.250000  1
  Si  Si19  1  0.663337  0.959492  0.459014  1
  Si  Si20  1  0.163553  0.540990  0.040658  1
  Si  Si21  1  0.336760  0.039752  0.958043  1
  Si  Si22  1  0.836754  0.458838  0.543189  1
  Si  Si23  1  0.336760  0.039752  0.541957  1
  Si  Si24  1  0.836754  0.458838  0.956811  1
  Si  Si25  1  0.663337  0.959492  0.040986  1
  Si  Si26  1  0.163553  0.540990  0.459342  1
  Si  Si27  1  0.461381  0.379841  0.750000  1
  Si  Si28  1  0.954660  0.125961  0.750000  1
  Si  Si29  1  0.542883  0.623148  0.250000  1
  Si  Si30  1  0.041224  0.876787  0.250000  1
  Si  Si31  1  0.702852  0.869704  0.750000  1
  Si  Si32  1  0.197210  0.623530  0.750000  1
  Si  Si33  1  0.300828  0.129961  0.250000  1
  Si  Si34  1  0.799807  0.371247  0.250000  1
  Tc  Tc35  1  0.832175  0.506177  0.750000  1
