# generated using pymatgen
data_Nd3Al10(SiOs2)2
_symmetry_space_group_name_H-M   'P 1'
_cell_length_a   8.80414300
_cell_length_b   8.80414332
_cell_length_c   9.73490500
_cell_angle_alpha   90.00000000
_cell_angle_beta   90.00000000
_cell_angle_gamma   120.00001007
_symmetry_Int_Tables_number   1
_chemical_formula_structural   Nd3Al10(SiOs2)2
_chemical_formula_sum   'Nd6 Al20 Si4 Os8'
_cell_volume   653.48631458
_cell_formula_units_Z   2
loop_
 _symmetry_equiv_pos_site_id
 _symmetry_equiv_pos_as_xyz
  1  'x, y, z'
loop_
 _atom_site_type_symbol
 _atom_site_label
 _atom_site_symmetry_multiplicity
 _atom_site_fract_x
 _atom_site_fract_y
 _atom_site_fract_z
 _atom_site_occupancy
  Nd  Nd0  1  0.194062  0.388126  0.250000  1
  Nd  Nd1  1  0.805938  0.611874  0.750000  1
  Nd  Nd2  1  0.611874  0.805938  0.250000  1
  Nd  Nd3  1  0.388126  0.194062  0.750000  1
  Nd  Nd4  1  0.194062  0.805938  0.250000  1
  Nd  Nd5  1  0.805938  0.194062  0.750000  1
  Al  Al6  1  0.164533  0.329066  0.573456  1
  Al  Al7  1  0.835467  0.670934  0.426544  1
  Al  Al8  1  0.670934  0.835467  0.573456  1
  Al  Al9  1  0.835467  0.670934  0.073456  1
  Al  Al10  1  0.329066  0.164533  0.426544  1
  Al  Al11  1  0.164533  0.329066  0.926544  1
  Al  Al12  1  0.164533  0.835467  0.573456  1
  Al  Al13  1  0.329066  0.164533  0.073456  1
  Al  Al14  1  0.835467  0.164533  0.426544  1
  Al  Al15  1  0.670934  0.835467  0.926544  1
  Al  Al16  1  0.835467  0.164533  0.073456  1
  Al  Al17  1  0.164533  0.835467  0.926544  1
  Al  Al18  1  0.565115  0.130230  0.250000  1
  Al  Al19  1  0.434885  0.869770  0.750000  1
  Al  Al20  1  0.869770  0.434885  0.250000  1
  Al  Al21  1  0.130230  0.565115  0.750000  1
  Al  Al22  1  0.565115  0.434885  0.250000  1
  Al  Al23  1  0.434885  0.565115  0.750000  1
  Al  Al24  1  0.000000  0.000000  0.250000  1
  Al  Al25  1  0.000000  0.000000  0.750000  1
  Si  Si26  1  0.333333  0.666667  0.028348  1
  Si  Si27  1  0.666667  0.333333  0.971652  1
  Si  Si28  1  0.666667  0.333333  0.528348  1
  Si  Si29  1  0.333333  0.666667  0.471652  1
  Os  Os30  1  0.500000  0.000000  0.000000  1
  Os  Os31  1  0.000000  0.500000  0.000000  1
  Os  Os32  1  0.500000  0.000000  0.500000  1
  Os  Os33  1  0.500000  0.500000  0.000000  1
  Os  Os34  1  0.000000  0.500000  0.500000  1
  Os  Os35  1  0.500000  0.500000  0.500000  1
  Os  Os36  1  0.000000  0.000000  0.000000  1
  Os  Os37  1  0.000000  0.000000  0.500000  1
