# generated using pymatgen
data_Ba11Sr2Al6Si8O
_symmetry_space_group_name_H-M   'P 1'
_cell_length_a   12.10640735
_cell_length_b   12.10640742
_cell_length_c   17.87147673
_cell_angle_alpha   56.21975840
_cell_angle_beta   56.21975755
_cell_angle_gamma   24.34460098
_symmetry_Int_Tables_number   1
_chemical_formula_structural   Ba11Sr2Al6Si8O
_chemical_formula_sum   'Ba11 Sr2 Al6 Si8 O1'
_cell_volume   888.07229524
_cell_formula_units_Z   1
loop_
 _symmetry_equiv_pos_site_id
 _symmetry_equiv_pos_as_xyz
  1  'x, y, z'
loop_
 _atom_site_type_symbol
 _atom_site_label
 _atom_site_symmetry_multiplicity
 _atom_site_fract_x
 _atom_site_fract_y
 _atom_site_fract_z
 _atom_site_occupancy
  Ba  Ba0  1  0.192118  0.192118  0.854335  1
  Ba  Ba1  1  0.997520  0.997520  0.358208  1
  Ba  Ba2  1  0.997773  0.997773  0.120206  1
  Ba  Ba3  1  0.191157  0.191157  0.611042  1
  Ba  Ba4  1  0.185208  0.185208  0.106542  1
  Ba  Ba5  1  0.152601  0.152601  0.385766  1
  Ba  Ba6  1  0.847188  0.847188  0.616706  1
  Ba  Ba7  1  0.806647  0.806647  0.389900  1
  Ba  Ba8  1  0.816953  0.816953  0.890780  1
  Ba  Ba9  1  0.807908  0.807908  0.145368  1
  Ba  Ba10  1  0.002179  0.002179  0.879276  1
  Sr  Sr11  1  0.500203  0.500203  0.502633  1
  Sr  Sr12  1  0.002173  0.002173  0.642401  1
  Al  Al13  1  0.436130  0.436130  0.807117  1
  Al  Al14  1  0.567941  0.567941  0.948437  1
  Al  Al15  1  0.429005  0.429005  0.292406  1
  Al  Al16  1  0.564886  0.564886  0.190087  1
  Al  Al17  1  0.570142  0.570142  0.706427  1
  Al  Al18  1  0.432161  0.432161  0.051071  1
  Si  Si19  1  0.635114  0.635114  0.018232  1
  Si  Si20  1  0.639168  0.639168  0.775109  1
  Si  Si21  1  0.360033  0.360033  0.224327  1
  Si  Si22  1  0.374757  0.374757  0.730969  1
  Si  Si23  1  0.369809  0.369809  0.461454  1
  Si  Si24  1  0.627613  0.627613  0.539155  1
  Si  Si25  1  0.626994  0.626994  0.266644  1
  Si  Si26  1  0.366221  0.366221  0.979323  1
  O  O27  1  0.000400  0.000400  0.506080  1
