# generated using pymatgen
data_Y3Tm17(NiAg3)2
_symmetry_space_group_name_H-M   'P 1'
_cell_length_a   9.38285600
_cell_length_b   9.38285630
_cell_length_c   9.44808500
_cell_angle_alpha   90.00000000
_cell_angle_beta   90.00000000
_cell_angle_gamma   119.99999895
_symmetry_Int_Tables_number   1
_chemical_formula_structural   Y3Tm17(NiAg3)2
_chemical_formula_sum   'Y3 Tm17 Ni2 Ag6'
_cell_volume   720.35163169
_cell_formula_units_Z   1
loop_
 _symmetry_equiv_pos_site_id
 _symmetry_equiv_pos_as_xyz
  1  'x, y, z'
loop_
 _atom_site_type_symbol
 _atom_site_label
 _atom_site_symmetry_multiplicity
 _atom_site_fract_x
 _atom_site_fract_y
 _atom_site_fract_z
 _atom_site_occupancy
  Y  Y0  1  0.457278  0.542722  0.750000  1
  Y  Y1  1  0.457278  0.914556  0.750000  1
  Y  Y2  1  0.085444  0.542722  0.750000  1
  Tm  Tm3  1  0.000000  0.000000  0.499490  1
  Tm  Tm4  1  0.000000  0.000000  0.000510  1
  Tm  Tm5  1  0.543642  0.456358  0.250000  1
  Tm  Tm6  1  0.543642  0.087283  0.250000  1
  Tm  Tm7  1  0.912717  0.456358  0.250000  1
  Tm  Tm8  1  0.209827  0.790173  0.438717  1
  Tm  Tm9  1  0.209827  0.419655  0.438717  1
  Tm  Tm10  1  0.580345  0.790173  0.438717  1
  Tm  Tm11  1  0.789699  0.210301  0.558459  1
  Tm  Tm12  1  0.789699  0.579395  0.558459  1
  Tm  Tm13  1  0.420605  0.210301  0.558459  1
  Tm  Tm14  1  0.789699  0.210301  0.941541  1
  Tm  Tm15  1  0.789699  0.579395  0.941541  1
  Tm  Tm16  1  0.420605  0.210301  0.941541  1
  Tm  Tm17  1  0.209827  0.790173  0.061283  1
  Tm  Tm18  1  0.209827  0.419655  0.061283  1
  Tm  Tm19  1  0.580345  0.790173  0.061283  1
  Ni  Ni20  1  0.333333  0.666667  0.250000  1
  Ni  Ni21  1  0.666667  0.333333  0.750000  1
  Ag  Ag22  1  0.883674  0.116326  0.250000  1
  Ag  Ag23  1  0.883674  0.767347  0.250000  1
  Ag  Ag24  1  0.232653  0.116326  0.250000  1
  Ag  Ag25  1  0.114597  0.885403  0.750000  1
  Ag  Ag26  1  0.114597  0.229193  0.750000  1
  Ag  Ag27  1  0.770807  0.885403  0.750000  1
