# generated using pymatgen
data_Eu3GdH10
_symmetry_space_group_name_H-M   'P 1'
_cell_length_a   6.53577253
_cell_length_b   6.53577234
_cell_length_c   6.53577200
_cell_angle_alpha   131.31832699
_cell_angle_beta   130.71487391
_cell_angle_gamma   71.78780656
_symmetry_Int_Tables_number   1
_chemical_formula_structural   Eu3GdH10
_chemical_formula_sum   'Eu3 Gd1 H10'
_cell_volume   155.47184763
_cell_formula_units_Z   1
loop_
 _symmetry_equiv_pos_site_id
 _symmetry_equiv_pos_as_xyz
  1  'x, y, z'
loop_
 _atom_site_type_symbol
 _atom_site_label
 _atom_site_symmetry_multiplicity
 _atom_site_fract_x
 _atom_site_fract_y
 _atom_site_fract_z
 _atom_site_occupancy
  Eu  Eu0  1  0.765748  0.765748  0.000000  1
  Eu  Eu1  1  0.985778  0.485778  0.500000  1
  Eu  Eu2  1  0.237730  0.237730  0.000000  1
  Gd  Gd3  1  0.516146  0.016146  0.500000  1
  H  H4  1  0.381010  0.392052  0.533745  1
  H  H5  1  0.858306  0.847264  0.466255  1
  H  H6  1  0.593140  0.119349  0.953545  1
  H  H7  1  0.165804  0.639596  0.046455  1
  H  H8  1  0.381010  0.847264  0.988958  1
  H  H9  1  0.858306  0.392052  0.011042  1
  H  H10  1  0.593140  0.639596  0.473791  1
  H  H11  1  0.165804  0.119349  0.526209  1
  H  H12  1  0.746526  0.246526  0.500000  1
  H  H13  1  0.001554  0.001554  0.000000  1
