# generated using pymatgen
data_Sn7Ru2Rh
_symmetry_space_group_name_H-M   'P 1'
_cell_length_a   8.21840572
_cell_length_b   8.21840600
_cell_length_c   8.22480210
_cell_angle_alpha   109.41835306
_cell_angle_beta   109.41834542
_cell_angle_gamma   109.54555651
_symmetry_Int_Tables_number   1
_chemical_formula_structural   Sn7Ru2Rh
_chemical_formula_sum   'Sn14 Ru4 Rh2'
_cell_volume   427.80555565
_cell_formula_units_Z   2
loop_
 _symmetry_equiv_pos_site_id
 _symmetry_equiv_pos_as_xyz
  1  'x, y, z'
loop_
 _atom_site_type_symbol
 _atom_site_label
 _atom_site_symmetry_multiplicity
 _atom_site_fract_x
 _atom_site_fract_y
 _atom_site_fract_z
 _atom_site_occupancy
  Sn  Sn0  1  0.252507  0.752507  0.505013  1
  Sn  Sn1  1  0.752507  0.252507  0.505013  1
  Sn  Sn2  1  0.748791  0.502547  0.251339  1
  Sn  Sn3  1  0.251286  0.503189  0.754474  1
  Sn  Sn4  1  0.502547  0.748791  0.251339  1
  Sn  Sn5  1  0.503189  0.251286  0.754474  1
  Sn  Sn6  1  0.997493  0.997493  0.323910  1
  Sn  Sn7  1  0.673458  0.997801  0.997821  1
  Sn  Sn8  1  0.997801  0.673458  0.997821  1
  Sn  Sn9  1  0.326418  0.326418  0.323910  1
  Sn  Sn10  1  0.000021  0.324363  0.997821  1
  Sn  Sn11  1  0.675531  0.675531  0.675700  1
  Sn  Sn12  1  0.324363  0.000021  0.997821  1
  Sn  Sn13  1  0.000169  0.000169  0.675700  1
  Ru  Ru14  1  0.999732  0.652533  0.652265  1
  Ru  Ru15  1  0.344018  0.344018  0.999369  1
  Ru  Ru16  1  0.655350  0.655350  0.999369  1
  Ru  Ru17  1  0.652533  0.999732  0.652265  1
  Rh  Rh18  1  0.342632  0.999654  0.342288  1
  Rh  Rh19  1  0.999654  0.342632  0.342288  1
