# generated using pymatgen
data_Eu3ZrH10
_symmetry_space_group_name_H-M   'P 1'
_cell_length_a   6.42444988
_cell_length_b   6.42445101
_cell_length_c   6.42445026
_cell_angle_alpha   130.76762438
_cell_angle_beta   130.58056704
_cell_angle_gamma   72.33148973
_symmetry_Int_Tables_number   1
_chemical_formula_structural   Eu3ZrH10
_chemical_formula_sum   'Eu3 Zr1 H10'
_cell_volume   149.09481441
_cell_formula_units_Z   1
loop_
 _symmetry_equiv_pos_site_id
 _symmetry_equiv_pos_as_xyz
  1  'x, y, z'
loop_
 _atom_site_type_symbol
 _atom_site_label
 _atom_site_symmetry_multiplicity
 _atom_site_fract_x
 _atom_site_fract_y
 _atom_site_fract_z
 _atom_site_occupancy
  Eu  Eu0  1  0.490341  0.990341  0.500000  1
  Eu  Eu1  1  0.739842  0.739842  0.000000  1
  Eu  Eu2  1  0.014344  0.514344  0.500000  1
  Zr  Zr3  1  0.267971  0.267971  0.000000  1
  H  H4  1  0.364412  0.341359  0.432356  1
  H  H5  1  0.909003  0.932056  0.567644  1
  H  H6  1  0.623196  0.140965  0.036425  1
  H  H7  1  0.104540  0.586771  0.963575  1
  H  H8  1  0.364412  0.932056  0.023053  1
  H  H9  1  0.909003  0.341359  0.976947  1
  H  H10  1  0.623196  0.586771  0.482231  1
  H  H11  1  0.104540  0.140965  0.517769  1
  H  H12  1  0.254379  0.754379  0.500000  1
  H  H13  1  0.480817  0.480817  0.000000  1
