# generated using pymatgen
data_Tb2Y2ScOs7
_symmetry_space_group_name_H-M   'P 1'
_cell_length_a   5.40373100
_cell_length_b   5.40373134
_cell_length_c   8.90777800
_cell_angle_alpha   90.00000000
_cell_angle_beta   90.00000000
_cell_angle_gamma   119.99999181
_symmetry_Int_Tables_number   1
_chemical_formula_structural   Tb2Y2ScOs7
_chemical_formula_sum   'Tb2 Y2 Sc1 Os7'
_cell_volume   225.26178580
_cell_formula_units_Z   1
loop_
 _symmetry_equiv_pos_site_id
 _symmetry_equiv_pos_as_xyz
  1  'x, y, z'
loop_
 _atom_site_type_symbol
 _atom_site_label
 _atom_site_symmetry_multiplicity
 _atom_site_fract_x
 _atom_site_fract_y
 _atom_site_fract_z
 _atom_site_occupancy
  Tb  Tb0  1  0.666667  0.333333  0.939363  1
  Tb  Tb1  1  0.333333  0.666667  0.060637  1
  Y  Y2  1  0.333333  0.666667  0.422929  1
  Y  Y3  1  0.666667  0.333333  0.577071  1
  Sc  Sc4  1  0.000000  0.000000  0.500000  1
  Os  Os5  1  0.000000  0.000000  0.000000  1
  Os  Os6  1  0.827662  0.172338  0.245000  1
  Os  Os7  1  0.827662  0.655325  0.245000  1
  Os  Os8  1  0.344675  0.172338  0.245000  1
  Os  Os9  1  0.172338  0.827662  0.755000  1
  Os  Os10  1  0.172338  0.344675  0.755000  1
  Os  Os11  1  0.655325  0.827662  0.755000  1
