# generated using pymatgen
data_CsZnSbTe3
_symmetry_space_group_name_H-M   'P 1'
_cell_length_a   8.84903460
_cell_length_b   8.84903445
_cell_length_c   11.69124700
_cell_angle_alpha   90.00000000
_cell_angle_beta   90.00000000
_cell_angle_gamma   150.49391662
_symmetry_Int_Tables_number   1
_chemical_formula_structural   CsZnSbTe3
_chemical_formula_sum   'Cs2 Zn2 Sb2 Te6'
_cell_volume   450.89241508
_cell_formula_units_Z   2
loop_
 _symmetry_equiv_pos_site_id
 _symmetry_equiv_pos_as_xyz
  1  'x, y, z'
loop_
 _atom_site_type_symbol
 _atom_site_label
 _atom_site_symmetry_multiplicity
 _atom_site_fract_x
 _atom_site_fract_y
 _atom_site_fract_z
 _atom_site_occupancy
  Cs  Cs0  1  0.255757  0.744243  0.250000  1
  Cs  Cs1  1  0.744243  0.255757  0.750000  1
  Zn  Zn2  1  0.538961  0.461039  0.250000  1
  Zn  Zn3  1  0.461039  0.538961  0.750000  1
  Sb  Sb4  1  0.000000  0.000000  0.500000  1
  Sb  Sb5  1  0.000000  0.000000  0.000000  1
  Te  Te6  1  0.619034  0.380966  0.445920  1
  Te  Te7  1  0.380966  0.619034  0.554080  1
  Te  Te8  1  0.619034  0.380966  0.054080  1
  Te  Te9  1  0.380966  0.619034  0.945920  1
  Te  Te10  1  0.942978  0.057022  0.250000  1
  Te  Te11  1  0.057022  0.942978  0.750000  1
