# generated using pymatgen
data_Zn21Co3CuPd
_symmetry_space_group_name_H-M   'P 1'
_cell_length_a   7.75654551
_cell_length_b   7.81982348
_cell_length_c   7.80042379
_cell_angle_alpha   109.67087374
_cell_angle_beta   109.34276145
_cell_angle_gamma   109.33707911
_symmetry_Int_Tables_number   1
_chemical_formula_structural   Zn21Co3CuPd
_chemical_formula_sum   'Zn21 Co3 Cu1 Pd1'
_cell_volume   364.49779161
_cell_formula_units_Z   1
loop_
 _symmetry_equiv_pos_site_id
 _symmetry_equiv_pos_as_xyz
  1  'x, y, z'
loop_
 _atom_site_type_symbol
 _atom_site_label
 _atom_site_symmetry_multiplicity
 _atom_site_fract_x
 _atom_site_fract_y
 _atom_site_fract_z
 _atom_site_occupancy
  Zn  Zn0  1  0.996531  0.643779  0.643467  1
  Zn  Zn1  1  0.353066  0.000318  0.356534  1
  Zn  Zn2  1  0.994884  0.353503  0.354192  1
  Zn  Zn3  1  0.640690  0.999313  0.645809  1
  Zn  Zn4  1  0.637524  0.643353  0.000001  1
  Zn  Zn5  1  0.202292  0.209429  0.205399  1
  Zn  Zn6  1  0.996900  0.004037  0.794612  1
  Zn  Zn7  1  0.992255  0.790500  0.000004  1
  Zn  Zn8  1  0.780277  0.999653  0.000002  1
  Zn  Zn9  1  0.379119  0.721654  0.719586  1
  Zn  Zn10  1  0.659536  0.002068  0.280412  1
  Zn  Zn11  1  0.651921  0.279929  0.999999  1
  Zn  Zn12  1  0.008028  0.651289  0.260621  1
  Zn  Zn13  1  0.747411  0.390668  0.739381  1
  Zn  Zn14  1  0.256488  0.636663  0.999999  1
  Zn  Zn15  1  0.012627  0.260327  0.655125  1
  Zn  Zn16  1  0.256083  0.007168  0.646994  1
  Zn  Zn17  1  0.746382  0.740013  0.389855  1
  Zn  Zn18  1  0.609096  0.360171  0.352999  1
  Zn  Zn19  1  0.357496  0.605203  0.344867  1
  Zn  Zn20  1  0.356515  0.350150  0.610150  1
  Co  Co21  1  0.996006  0.340853  0.000001  1
  Co  Co22  1  0.001595  0.000028  0.341205  1
  Co  Co23  1  0.660383  0.658818  0.658787  1
  Cu  Cu24  1  0.354127  0.356807  0.999999  1
  Pd  Pd25  1  0.352768  0.994307  0.000000  1
