# generated using pymatgen
data_KPrP2S7
_symmetry_space_group_name_H-M   'P 1'
_cell_length_a   9.08356300
_cell_length_b   9.88057249
_cell_length_c   12.51778300
_cell_angle_alpha   90.00000000
_cell_angle_beta   90.00000000
_cell_angle_gamma   90.24656710
_symmetry_Int_Tables_number   1
_chemical_formula_structural   KPrP2S7
_chemical_formula_sum   'K4 Pr4 P8 S28'
_cell_volume   1123.47066917
_cell_formula_units_Z   4
loop_
 _symmetry_equiv_pos_site_id
 _symmetry_equiv_pos_as_xyz
  1  'x, y, z'
loop_
 _atom_site_type_symbol
 _atom_site_label
 _atom_site_symmetry_multiplicity
 _atom_site_fract_x
 _atom_site_fract_y
 _atom_site_fract_z
 _atom_site_occupancy
  K  K0  1  0.867264  0.396381  0.692745  1
  K  K1  1  0.632736  0.603619  0.192745  1
  K  K2  1  0.132736  0.603619  0.307255  1
  K  K3  1  0.367264  0.396381  0.807255  1
  Pr  Pr4  1  0.106967  0.859562  0.641871  1
  Pr  Pr5  1  0.393033  0.140438  0.141871  1
  Pr  Pr6  1  0.893033  0.140438  0.358129  1
  Pr  Pr7  1  0.606967  0.859562  0.858129  1
  P  P8  1  0.197124  0.186337  0.536394  1
  P  P9  1  0.302876  0.813663  0.036394  1
  P  P10  1  0.802876  0.813663  0.463606  1
  P  P11  1  0.697124  0.186337  0.963606  1
  P  P12  1  0.977873  0.727552  0.896270  1
  P  P13  1  0.522127  0.272448  0.396270  1
  P  P14  1  0.022127  0.272448  0.103730  1
  P  P15  1  0.477873  0.727552  0.603730  1
  S  S16  1  0.179619  0.018627  0.442018  1
  S  S17  1  0.320381  0.981373  0.942018  1
  S  S18  1  0.820381  0.981373  0.557982  1
  S  S19  1  0.679619  0.018627  0.057982  1
  S  S20  1  0.931769  0.665082  0.522529  1
  S  S21  1  0.568231  0.334918  0.022529  1
  S  S22  1  0.068231  0.334918  0.477471  1
  S  S23  1  0.431769  0.665082  0.977471  1
  S  S24  1  0.148761  0.151402  0.692735  1
  S  S25  1  0.351239  0.848598  0.192735  1
  S  S26  1  0.851239  0.848598  0.307265  1
  S  S27  1  0.648761  0.151402  0.807265  1
  S  S28  1  0.290853  0.635167  0.556300  1
  S  S29  1  0.209147  0.364833  0.056300  1
  S  S30  1  0.709147  0.364833  0.443700  1
  S  S31  1  0.790853  0.635167  0.943700  1
  S  S32  1  0.927767  0.911554  0.831749  1
  S  S33  1  0.572233  0.088446  0.331749  1
  S  S34  1  0.072233  0.088446  0.168251  1
  S  S35  1  0.427767  0.911554  0.668251  1
  S  S36  1  0.109623  0.630578  0.791108  1
  S  S37  1  0.390377  0.369421  0.291108  1
  S  S38  1  0.890377  0.369421  0.208892  1
  S  S39  1  0.609623  0.630578  0.708892  1
  S  S40  1  0.078536  0.752170  0.050243  1
  S  S41  1  0.421464  0.247830  0.550243  1
  S  S42  1  0.921464  0.247830  0.949757  1
  S  S43  1  0.578536  0.752170  0.449757  1
