# generated using pymatgen
data_La4Er5TmSi8
_symmetry_space_group_name_H-M   'P 1'
_cell_length_a   7.77028201
_cell_length_b   7.77028900
_cell_length_c   14.47617803
_cell_angle_alpha   90.00069090
_cell_angle_beta   90.00694412
_cell_angle_gamma   90.00017695
_symmetry_Int_Tables_number   1
_chemical_formula_structural   La4Er5TmSi8
_chemical_formula_sum   'La8 Er10 Tm2 Si16'
_cell_volume   874.03307074
_cell_formula_units_Z   2
loop_
 _symmetry_equiv_pos_site_id
 _symmetry_equiv_pos_as_xyz
  1  'x, y, z'
loop_
 _atom_site_type_symbol
 _atom_site_label
 _atom_site_symmetry_multiplicity
 _atom_site_fract_x
 _atom_site_fract_y
 _atom_site_fract_z
 _atom_site_occupancy
  La  La0  1  0.988243  0.636718  0.043758  1
  La  La1  1  0.011692  0.363355  0.543876  1
  La  La2  1  0.636700  0.988294  0.956153  1
  La  La3  1  0.136631  0.511809  0.793808  1
  La  La4  1  0.863301  0.488290  0.293846  1
  La  La5  1  0.511770  0.136712  0.206246  1
  La  La6  1  0.488315  0.863372  0.706125  1
  La  La7  1  0.363356  0.011813  0.456198  1
  Er  Er8  1  0.364147  0.490015  0.374536  1
  Er  Er9  1  0.864135  0.010009  0.375718  1
  Er  Er10  1  0.989898  0.135847  0.124366  1
  Er  Er11  1  0.009819  0.864184  0.624424  1
  Er  Er12  1  0.635884  0.509928  0.874322  1
  Er  Er13  1  0.490051  0.364127  0.625540  1
  Er  Er14  1  0.510109  0.635789  0.125610  1
  Er  Er15  1  0.135907  0.990071  0.875492  1
  Er  Er16  1  0.185147  0.814991  0.250064  1
  Er  Er17  1  0.314976  0.314919  0.999973  1
  Tm  Tm18  1  0.684919  0.684795  0.499999  1
  Tm  Tm19  1  0.815067  0.184805  0.749986  1
  Si  Si20  1  0.068444  0.714333  0.437397  1
  Si  Si21  1  0.931121  0.285586  0.937084  1
  Si  Si22  1  0.714371  0.068609  0.562888  1
  Si  Si23  1  0.214382  0.431293  0.187387  1
  Si  Si24  1  0.785621  0.568606  0.687103  1
  Si  Si25  1  0.431536  0.214342  0.812602  1
  Si  Si26  1  0.568879  0.785585  0.312912  1
  Si  Si27  1  0.285616  0.931289  0.062613  1
  Si  Si28  1  0.842500  0.800754  0.805731  1
  Si  Si29  1  0.157390  0.199523  0.305822  1
  Si  Si30  1  0.800527  0.842521  0.194248  1
  Si  Si31  1  0.300677  0.657463  0.555791  1
  Si  Si32  1  0.699454  0.342513  0.055748  1
  Si  Si33  1  0.657498  0.300761  0.444262  1
  Si  Si34  1  0.342608  0.699516  0.944178  1
  Si  Si35  1  0.199313  0.157462  0.694197  1
