# generated using pymatgen
data_Er3In3IrPtAu
_symmetry_space_group_name_H-M   'P 1'
_cell_length_a   7.76197900
_cell_length_b   7.76197839
_cell_length_c   3.79182500
_cell_angle_alpha   90.00000000
_cell_angle_beta   90.00000000
_cell_angle_gamma   120.00000688
_symmetry_Int_Tables_number   1
_chemical_formula_structural   Er3In3IrPtAu
_chemical_formula_sum   'Er3 In3 Ir1 Pt1 Au1'
_cell_volume   197.84440804
_cell_formula_units_Z   1
loop_
 _symmetry_equiv_pos_site_id
 _symmetry_equiv_pos_as_xyz
  1  'x, y, z'
loop_
 _atom_site_type_symbol
 _atom_site_label
 _atom_site_symmetry_multiplicity
 _atom_site_fract_x
 _atom_site_fract_y
 _atom_site_fract_z
 _atom_site_occupancy
  Er  Er0  1  0.607700  0.023441  0.500000  1
  Er  Er1  1  0.415740  0.392300  0.500000  1
  Er  Er2  1  0.976559  0.584260  0.500000  1
  In  In3  1  0.000291  0.262976  0.000000  1
  In  In4  1  0.737024  0.737314  0.000000  1
  In  In5  1  0.262686  0.999709  0.000000  1
  Ir  Ir6  1  0.666667  0.333333  0.000000  1
  Pt  Pt7  1  0.000000  0.000000  0.500000  1
  Au  Au8  1  0.333333  0.666667  0.000000  1
