# generated using pymatgen
data_Er2Mo(SeO4)3
_symmetry_space_group_name_H-M   'P 1'
_cell_length_a   6.55581194
_cell_length_b   7.12717395
_cell_length_c   10.81216490
_cell_angle_alpha   84.84643703
_cell_angle_beta   73.27618922
_cell_angle_gamma   86.63631152
_symmetry_Int_Tables_number   1
_chemical_formula_structural   Er2Mo(SeO4)3
_chemical_formula_sum   'Er4 Mo2 Se6 O24'
_cell_volume   481.58265310
_cell_formula_units_Z   2
loop_
 _symmetry_equiv_pos_site_id
 _symmetry_equiv_pos_as_xyz
  1  'x, y, z'
loop_
 _atom_site_type_symbol
 _atom_site_label
 _atom_site_symmetry_multiplicity
 _atom_site_fract_x
 _atom_site_fract_y
 _atom_site_fract_z
 _atom_site_occupancy
  Er  Er0  1  0.732867  0.637725  0.508537  1
  Er  Er1  1  0.267133  0.362275  0.491463  1
  Er  Er2  1  0.205339  0.182679  0.168810  1
  Er  Er3  1  0.794661  0.817321  0.831190  1
  Mo  Mo4  1  0.722743  0.892977  0.205819  1
  Mo  Mo5  1  0.277257  0.107023  0.794181  1
  Se  Se6  1  0.203687  0.659463  0.215999  1
  Se  Se7  1  0.796313  0.340537  0.784001  1
  Se  Se8  1  0.658251  0.365097  0.142060  1
  Se  Se9  1  0.341749  0.634903  0.857940  1
  Se  Se10  1  0.788806  0.140469  0.494153  1
  Se  Se11  1  0.211194  0.859531  0.505847  1
  O  O12  1  0.693477  0.670916  0.299702  1
  O  O13  1  0.306523  0.329084  0.700298  1
  O  O14  1  0.717876  0.957955  0.417707  1
  O  O15  1  0.282124  0.042045  0.582293  1
  O  O16  1  0.449682  0.975118  0.232410  1
  O  O17  1  0.550318  0.024882  0.767590  1
  O  O18  1  0.826046  0.172231  0.178761  1
  O  O19  1  0.173954  0.827769  0.821239  1
  O  O20  1  0.784672  0.832416  0.043243  1
  O  O21  1  0.215328  0.167584  0.956757  1
  O  O22  1  0.060458  0.874638  0.194218  1
  O  O23  1  0.939542  0.125362  0.805782  1
  O  O24  1  0.100058  0.496317  0.147667  1
  O  O25  1  0.899942  0.503683  0.852333  1
  O  O26  1  0.080865  0.600714  0.383942  1
  O  O27  1  0.919135  0.399286  0.616058  1
  O  O28  1  0.548194  0.272209  0.037642  1
  O  O29  1  0.451806  0.727791  0.962358  1
  O  O30  1  0.423055  0.347030  0.271206  1
  O  O31  1  0.576945  0.652970  0.728794  1
  O  O32  1  0.044302  0.191579  0.391687  1
  O  O33  1  0.955698  0.808421  0.608313  1
  O  O34  1  0.639385  0.340049  0.460358  1
  O  O35  1  0.360615  0.659951  0.539642  1
