# generated using pymatgen
data_Ti12Mn5CoIr6
_symmetry_space_group_name_H-M   'P 1'
_cell_length_a   4.31042300
_cell_length_b   6.11323900
_cell_length_c   12.95171400
_cell_angle_alpha   90.00000000
_cell_angle_beta   89.99995128
_cell_angle_gamma   90.00000000
_symmetry_Int_Tables_number   1
_chemical_formula_structural   Ti12Mn5CoIr6
_chemical_formula_sum   'Ti12 Mn5 Co1 Ir6'
_cell_volume   341.28603058
_cell_formula_units_Z   1
loop_
 _symmetry_equiv_pos_site_id
 _symmetry_equiv_pos_as_xyz
  1  'x, y, z'
loop_
 _atom_site_type_symbol
 _atom_site_label
 _atom_site_symmetry_multiplicity
 _atom_site_fract_x
 _atom_site_fract_y
 _atom_site_fract_z
 _atom_site_occupancy
  Ti  Ti0  1  0.500000  0.251537  0.000000  1
  Ti  Ti1  1  0.500000  0.748464  0.000000  1
  Ti  Ti2  1  0.000001  0.250327  0.167654  1
  Ti  Ti3  1  0.000001  0.749672  0.167654  1
  Ti  Ti4  1  0.500014  0.249890  0.333582  1
  Ti  Ti5  1  0.500014  0.750111  0.333582  1
  Ti  Ti6  1  0.000000  0.249723  0.500000  1
  Ti  Ti7  1  0.000000  0.750276  0.500000  1
  Ti  Ti8  1  0.499988  0.249890  0.666418  1
  Ti  Ti9  1  0.499988  0.750111  0.666418  1
  Ti  Ti10  1  0.999999  0.250327  0.832346  1
  Ti  Ti11  1  0.999999  0.749672  0.832346  1
  Mn  Mn12  1  0.500009  0.500000  0.166408  1
  Mn  Mn13  1  0.000007  0.000000  0.333174  1
  Mn  Mn14  1  0.500000  0.500000  0.500000  1
  Mn  Mn15  1  0.999993  0.000000  0.666826  1
  Mn  Mn16  1  0.499989  0.500000  0.833591  1
  Co  Co17  1  0.000000  0.000000  0.000000  1
  Ir  Ir18  1  0.000000  0.500000  0.000000  1
  Ir  Ir19  1  0.499999  0.000000  0.166450  1
  Ir  Ir20  1  0.000014  0.500000  0.333213  1
  Ir  Ir21  1  0.500000  0.000000  0.500000  1
  Ir  Ir22  1  0.999986  0.500000  0.666787  1
  Ir  Ir23  1  0.500000  0.000000  0.833550  1
