# generated using pymatgen
data_Tb2PdN2
_symmetry_space_group_name_H-M   'P 1'
_cell_length_a   3.47856933
_cell_length_b   3.47856346
_cell_length_c   6.86260594
_cell_angle_alpha   104.66285456
_cell_angle_beta   104.68139563
_cell_angle_gamma   90.00000367
_symmetry_Int_Tables_number   1
_chemical_formula_structural   Tb2PdN2
_chemical_formula_sum   'Tb2 Pd1 N2'
_cell_volume   77.53020583
_cell_formula_units_Z   1
loop_
 _symmetry_equiv_pos_site_id
 _symmetry_equiv_pos_as_xyz
  1  'x, y, z'
loop_
 _atom_site_type_symbol
 _atom_site_label
 _atom_site_symmetry_multiplicity
 _atom_site_fract_x
 _atom_site_fract_y
 _atom_site_fract_z
 _atom_site_occupancy
  Tb  Tb0  1  0.155167  0.155256  0.810332  1
  Tb  Tb1  1  0.844833  0.844744  0.189668  1
  Pd  Pd2  1  0.500000  0.500000  0.500000  1
  N  N3  1  0.665380  0.665261  0.830759  1
  N  N4  1  0.334620  0.334739  0.169241  1
