# generated using pymatgen
data_Yb6Fe18P13Pt2
_symmetry_space_group_name_H-M   'P 1'
_cell_length_a   12.69340500
_cell_length_b   12.69340509
_cell_length_c   3.73640100
_cell_angle_alpha   90.00000000
_cell_angle_beta   90.00000000
_cell_angle_gamma   120.00000238
_symmetry_Int_Tables_number   1
_chemical_formula_structural   Yb6Fe18P13Pt2
_chemical_formula_sum   'Yb6 Fe18 P13 Pt2'
_cell_volume   521.36320511
_cell_formula_units_Z   1
loop_
 _symmetry_equiv_pos_site_id
 _symmetry_equiv_pos_as_xyz
  1  'x, y, z'
loop_
 _atom_site_type_symbol
 _atom_site_label
 _atom_site_symmetry_multiplicity
 _atom_site_fract_x
 _atom_site_fract_y
 _atom_site_fract_z
 _atom_site_occupancy
  Yb  Yb0  1  0.466841  0.188682  0.000000  1
  Yb  Yb1  1  0.721842  0.533159  0.000000  1
  Yb  Yb2  1  0.811318  0.278158  0.000000  1
  Yb  Yb3  1  0.532661  0.813188  0.500000  1
  Yb  Yb4  1  0.280528  0.467339  0.500000  1
  Yb  Yb5  1  0.186812  0.719472  0.500000  1
  Fe  Fe6  1  0.194099  0.089770  0.000000  1
  Fe  Fe7  1  0.895670  0.805901  0.000000  1
  Fe  Fe8  1  0.910230  0.104330  0.000000  1
  Fe  Fe9  1  0.851904  0.932606  0.500000  1
  Fe  Fe10  1  0.080702  0.148096  0.500000  1
  Fe  Fe11  1  0.067394  0.919298  0.500000  1
  Fe  Fe12  1  0.438804  0.418832  0.000000  1
  Fe  Fe13  1  0.980029  0.561196  0.000000  1
  Fe  Fe14  1  0.581168  0.019971  0.000000  1
  Fe  Fe15  1  0.569609  0.589928  0.500000  1
  Fe  Fe16  1  0.020318  0.430391  0.500000  1
  Fe  Fe17  1  0.410072  0.979682  0.500000  1
  Fe  Fe18  1  0.074294  0.310218  0.000000  1
  Fe  Fe19  1  0.235923  0.925706  0.000000  1
  Fe  Fe20  1  0.689782  0.764077  0.000000  1
  Fe  Fe21  1  0.930336  0.683291  0.500000  1
  Fe  Fe22  1  0.752955  0.069664  0.500000  1
  Fe  Fe23  1  0.316709  0.247045  0.500000  1
  P  P24  1  0.236587  0.279563  0.000000  1
  P  P25  1  0.042977  0.763413  0.000000  1
  P  P26  1  0.720437  0.957023  0.000000  1
  P  P27  1  0.774455  0.727874  0.500000  1
  P  P28  1  0.953418  0.225545  0.500000  1
  P  P29  1  0.272126  0.046582  0.500000  1
  P  P30  1  0.494774  0.615592  0.000000  1
  P  P31  1  0.120818  0.505226  0.000000  1
  P  P32  1  0.384408  0.879182  0.000000  1
  P  P33  1  0.510835  0.391515  0.500000  1
  P  P34  1  0.880679  0.489165  0.500000  1
  P  P35  1  0.608485  0.119321  0.500000  1
  P  P36  1  0.000000  0.000000  0.000000  1
  Pt  Pt37  1  0.333333  0.666667  0.000000  1
  Pt  Pt38  1  0.666667  0.333333  0.500000  1
