# generated using pymatgen
data_Nd4Re3Tc2B12Ru
_symmetry_space_group_name_H-M   'P 1'
_cell_length_a   6.30733516
_cell_length_b   6.32632249
_cell_length_c   7.61123891
_cell_angle_alpha   90.47891122
_cell_angle_beta   90.74923038
_cell_angle_gamma   114.93275117
_symmetry_Int_Tables_number   1
_chemical_formula_structural   Nd4Re3Tc2B12Ru
_chemical_formula_sum   'Nd4 Re3 Tc2 B12 Ru1'
_cell_volume   275.34530583
_cell_formula_units_Z   1
loop_
 _symmetry_equiv_pos_site_id
 _symmetry_equiv_pos_as_xyz
  1  'x, y, z'
loop_
 _atom_site_type_symbol
 _atom_site_label
 _atom_site_symmetry_multiplicity
 _atom_site_fract_x
 _atom_site_fract_y
 _atom_site_fract_z
 _atom_site_occupancy
  Nd  Nd0  1  0.096414  0.450668  0.326113  1
  Nd  Nd1  1  0.570971  0.909572  0.173358  1
  Nd  Nd2  1  0.905130  0.556803  0.674234  1
  Nd  Nd3  1  0.435608  0.090688  0.827599  1
  Re  Re4  1  0.194921  0.012373  0.408988  1
  Re  Re5  1  0.010271  0.200056  0.913746  1
  Re  Re6  1  0.803221  0.988829  0.588223  1
  Tc  Tc7  1  0.585394  0.416567  0.251665  1
  Tc  Tc8  1  0.417586  0.584420  0.752418  1
  B  B9  1  0.230060  0.151257  0.134011  1
  B  B10  1  0.845582  0.755355  0.372348  1
  B  B11  1  0.759560  0.849536  0.864079  1
  B  B12  1  0.153233  0.240837  0.630374  1
  B  B13  1  0.582875  0.157920  0.482864  1
  B  B14  1  0.839989  0.412353  0.018923  1
  B  B15  1  0.415240  0.843235  0.515699  1
  B  B16  1  0.162218  0.584452  0.979075  1
  B  B17  1  0.440669  0.349500  0.533671  1
  B  B18  1  0.651424  0.555753  0.967261  1
  B  B19  1  0.557988  0.650628  0.467402  1
  B  B20  1  0.351921  0.442018  0.034381  1
  Ru  Ru21  1  0.989726  0.797182  0.083567  1
