# generated using pymatgen
data_Zr6In4GeBr18
_symmetry_space_group_name_H-M   'P 1'
_cell_length_a   10.51929883
_cell_length_b   10.68725932
_cell_length_c   10.74462597
_cell_angle_alpha   118.24776661
_cell_angle_beta   100.18138319
_cell_angle_gamma   103.84302325
_symmetry_Int_Tables_number   1
_chemical_formula_structural   Zr6In4GeBr18
_chemical_formula_sum   'Zr6 In4 Ge1 Br18'
_cell_volume   971.97691057
_cell_formula_units_Z   1
loop_
 _symmetry_equiv_pos_site_id
 _symmetry_equiv_pos_as_xyz
  1  'x, y, z'
loop_
 _atom_site_type_symbol
 _atom_site_label
 _atom_site_symmetry_multiplicity
 _atom_site_fract_x
 _atom_site_fract_y
 _atom_site_fract_z
 _atom_site_occupancy
  Zr  Zr0  1  0.159644  0.058895  0.244163  1
  Zr  Zr1  1  0.840356  0.941105  0.755837  1
  Zr  Zr2  1  0.854637  0.134511  0.141313  1
  Zr  Zr3  1  0.145363  0.865489  0.858687  1
  Zr  Zr4  1  0.153462  0.252095  0.046854  1
  Zr  Zr5  1  0.846538  0.747905  0.953146  1
  In  In6  1  0.649685  0.536429  0.225369  1
  In  In7  1  0.350315  0.463571  0.774631  1
  In  In8  1  0.682022  0.224431  0.559395  1
  In  In9  1  0.317978  0.775569  0.440605  1
  Ge  Ge10  1  0.000000  0.000000  0.000000  1
  Br  Br11  1  0.008981  0.415310  0.199663  1
  Br  Br12  1  0.991019  0.584690  0.800337  1
  Br  Br13  1  0.333485  0.336592  0.314564  1
  Br  Br14  1  0.666515  0.663408  0.685436  1
  Br  Br15  1  0.331954  0.528292  0.102627  1
  Br  Br16  1  0.668046  0.471708  0.897373  1
  Br  Br17  1  0.005446  0.793044  0.213292  1
  Br  Br18  1  0.994554  0.206956  0.786708  1
  Br  Br19  1  0.698906  0.283284  0.297834  1
  Br  Br20  1  0.301094  0.716716  0.702166  1
  Br  Br21  1  0.320437  0.128251  0.900741  1
  Br  Br22  1  0.679563  0.871749  0.099259  1
  Br  Br23  1  0.016126  0.207100  0.414583  1
  Br  Br24  1  0.983874  0.792900  0.585417  1
  Br  Br25  1  0.324705  0.919378  0.111044  1
  Br  Br26  1  0.675295  0.080622  0.888956  1
  Br  Br27  1  0.342689  0.124261  0.510936  1
  Br  Br28  1  0.657311  0.875739  0.489064  1
