# generated using pymatgen
data_Dy11YAl12V8O48
_symmetry_space_group_name_H-M   'P 1'
_cell_length_a   10.65901396
_cell_length_b   10.67036657
_cell_length_c   10.65892994
_cell_angle_alpha   109.57497090
_cell_angle_beta   109.22828333
_cell_angle_gamma   109.56810187
_symmetry_Int_Tables_number   1
_chemical_formula_structural   Dy11YAl12V8O48
_chemical_formula_sum   'Dy11 Y1 Al12 V8 O48'
_cell_volume   933.70725848
_cell_formula_units_Z   1
loop_
 _symmetry_equiv_pos_site_id
 _symmetry_equiv_pos_as_xyz
  1  'x, y, z'
loop_
 _atom_site_type_symbol
 _atom_site_label
 _atom_site_symmetry_multiplicity
 _atom_site_fract_x
 _atom_site_fract_y
 _atom_site_fract_z
 _atom_site_occupancy
  Dy  Dy0  1  0.374996  0.750018  0.124994  1
  Dy  Dy1  1  0.247912  0.374533  0.124566  1
  Dy  Dy2  1  0.375405  0.125468  0.252116  1
  Dy  Dy3  1  0.873431  0.625586  0.250129  1
  Dy  Dy4  1  0.750055  0.125467  0.373428  1
  Dy  Dy5  1  0.124998  0.249977  0.374992  1
  Dy  Dy6  1  0.249877  0.874448  0.626552  1
  Dy  Dy7  1  0.875006  0.750026  0.625017  1
  Dy  Dy8  1  0.126598  0.374504  0.749945  1
  Dy  Dy9  1  0.624578  0.874442  0.747825  1
  Dy  Dy10  1  0.752151  0.625558  0.875460  1
  Y  Y11  1  0.625006  0.249991  0.875009  1
  Al  Al12  1  0.875300  0.249989  0.125313  1
  Al  Al13  1  0.750086  0.875031  0.125195  1
  Al  Al14  1  0.124957  0.875029  0.249863  1
  Al  Al15  1  0.625190  0.375091  0.250224  1
  Al  Al16  1  0.250146  0.624953  0.375074  1
  Al  Al17  1  0.625193  0.749996  0.375213  1
  Al  Al18  1  0.749869  0.375101  0.624814  1
  Al  Al19  1  0.374693  0.249999  0.624678  1
  Al  Al20  1  0.875162  0.124922  0.750131  1
  Al  Al21  1  0.374852  0.624959  0.749951  1
  Al  Al22  1  0.249743  0.124921  0.874769  1
  Al  Al23  1  0.124816  0.750018  0.874808  1
  V  V24  1  0.000009  0.999881  0.000054  1
  V  V25  1  0.499877  0.999825  0.999959  1
  V  V26  1  0.499930  0.500145  0.000039  1
  V  V27  1  0.000246  0.500156  0.000043  1
  V  V28  1  0.499952  0.999848  0.499754  1
  V  V29  1  0.000161  0.500121  0.500138  1
  V  V30  1  0.999843  0.999880  0.499809  1
  V  V31  1  0.499937  0.500085  0.499996  1
  O  O32  1  0.208104  0.122764  0.023755  1
  O  O33  1  0.314957  0.900759  0.023992  1
  O  O34  1  0.709282  0.685075  0.085173  1
  O  O35  1  0.877227  0.401009  0.086168  1
  O  O36  1  0.975772  0.685099  0.099931  1
  O  O37  1  0.624367  0.413897  0.100039  1
  O  O38  1  0.599665  0.913479  0.124462  1
  O  O39  1  0.025154  0.211457  0.124075  1
  O  O40  1  0.210904  0.586494  0.186180  1
  O  O41  1  0.476049  0.599236  0.185009  1
  O  O42  1  0.585191  0.185042  0.209194  1
  O  O43  1  0.123481  0.024305  0.209762  1
  O  O44  1  0.476192  0.377190  0.291798  1
  O  O45  1  0.313885  0.913500  0.289124  1
  O  O46  1  0.912577  0.288528  0.313665  1
  O  O47  1  0.900915  0.024275  0.314681  1
  O  O48  1  0.290439  0.475762  0.376634  1
  O  O49  1  0.585757  0.900773  0.376872  1
  O  O50  1  0.814669  0.524338  0.401030  1
  O  O51  1  0.085398  0.877191  0.400982  1
  O  O52  1  0.813577  0.788546  0.412534  1
  O  O53  1  0.099024  0.622712  0.414632  1
  O  O54  1  0.375983  0.288587  0.474884  1
  O  O55  1  0.599921  0.185129  0.475719  1
  O  O56  1  0.400060  0.814880  0.524275  1
  O  O57  1  0.623969  0.711400  0.525046  1
  O  O58  1  0.901008  0.377287  0.585351  1
  O  O59  1  0.186355  0.211464  0.587431  1
  O  O60  1  0.914626  0.122816  0.598996  1
  O  O61  1  0.185402  0.475687  0.599073  1
  O  O62  1  0.709517  0.524262  0.623299  1
  O  O63  1  0.413867  0.099019  0.622740  1
  O  O64  1  0.098989  0.975702  0.685255  1
  O  O65  1  0.087464  0.711462  0.686407  1
  O  O66  1  0.686101  0.086087  0.710419  1
  O  O67  1  0.523775  0.622805  0.708228  1
  O  O68  1  0.414839  0.814968  0.790832  1
  O  O69  1  0.876595  0.975675  0.790291  1
  O  O70  1  0.789560  0.413925  0.813843  1
  O  O71  1  0.523762  0.400962  0.814817  1
  O  O72  1  0.974922  0.788557  0.875981  1
  O  O73  1  0.399936  0.086108  0.875589  1
  O  O74  1  0.024240  0.314893  0.900095  1
  O  O75  1  0.375589  0.586521  0.900370  1
  O  O76  1  0.290700  0.314920  0.914805  1
  O  O77  1  0.123166  0.599193  0.914221  1
  O  O78  1  0.685226  0.099046  0.976203  1
  O  O79  1  0.791878  0.877244  0.976285  1
