# generated using pymatgen
data_Eu2Al20IrOs3
_symmetry_space_group_name_H-M   'P 1'
_cell_length_a   6.88008180
_cell_length_b   6.87784638
_cell_length_c   9.16219155
_cell_angle_alpha   90.22204828
_cell_angle_beta   89.96538993
_cell_angle_gamma   96.59957241
_symmetry_Int_Tables_number   1
_chemical_formula_structural   Eu2Al20IrOs3
_chemical_formula_sum   'Eu2 Al20 Ir1 Os3'
_cell_volume   430.68009194
_cell_formula_units_Z   1
loop_
 _symmetry_equiv_pos_site_id
 _symmetry_equiv_pos_as_xyz
  1  'x, y, z'
loop_
 _atom_site_type_symbol
 _atom_site_label
 _atom_site_symmetry_multiplicity
 _atom_site_fract_x
 _atom_site_fract_y
 _atom_site_fract_z
 _atom_site_occupancy
  Eu  Eu0  1  0.875901  0.121909  0.749633  1
  Eu  Eu1  1  0.124099  0.878091  0.250367  1
  Al  Al2  1  0.620694  0.376408  0.550255  1
  Al  Al3  1  0.379306  0.623592  0.449745  1
  Al  Al4  1  0.376869  0.623362  0.048531  1
  Al  Al5  1  0.623131  0.376638  0.951469  1
  Al  Al6  1  0.224856  0.223165  0.499150  1
  Al  Al7  1  0.775144  0.776835  0.500850  1
  Al  Al8  1  0.775527  0.775964  0.999941  1
  Al  Al9  1  0.224473  0.224036  0.000059  1
  Al  Al10  1  0.841104  0.159758  0.100743  1
  Al  Al11  1  0.158896  0.840242  0.899257  1
  Al  Al12  1  0.160152  0.841871  0.602195  1
  Al  Al13  1  0.839848  0.158129  0.397805  1
  Al  Al14  1  0.856020  0.586555  0.750966  1
  Al  Al15  1  0.143980  0.413445  0.249034  1
  Al  Al16  1  0.413710  0.143108  0.750395  1
  Al  Al17  1  0.586290  0.856892  0.249605  1
  Al  Al18  1  0.219668  0.481397  0.751848  1
  Al  Al19  1  0.780332  0.518603  0.248152  1
  Al  Al20  1  0.518222  0.781082  0.749225  1
  Al  Al21  1  0.481778  0.218918  0.250775  1
  Ir  Ir22  1  0.000000  0.500000  0.500000  1
  Os  Os23  1  0.000000  0.500000  0.000000  1
  Os  Os24  1  0.500000  0.000000  0.000000  1
  Os  Os25  1  0.500000  0.000000  0.500000  1
