# generated using pymatgen
data_Ca3Te2(IO3)2
_symmetry_space_group_name_H-M   'P 1'
_cell_length_a   6.41241039
_cell_length_b   6.41241065
_cell_length_c   8.80342622
_cell_angle_alpha   112.39478598
_cell_angle_beta   112.39478532
_cell_angle_gamma   68.13634986
_symmetry_Int_Tables_number   1
_chemical_formula_structural   Ca3Te2(IO3)2
_chemical_formula_sum   'Ca3 Te2 I2 O6'
_cell_volume   298.31113300
_cell_formula_units_Z   1
loop_
 _symmetry_equiv_pos_site_id
 _symmetry_equiv_pos_as_xyz
  1  'x, y, z'
loop_
 _atom_site_type_symbol
 _atom_site_label
 _atom_site_symmetry_multiplicity
 _atom_site_fract_x
 _atom_site_fract_y
 _atom_site_fract_z
 _atom_site_occupancy
  Ca  Ca0  1  0.037156  0.037156  0.318806  1
  Ca  Ca1  1  0.500000  0.500000  0.500001  1
  Ca  Ca2  1  0.962843  0.962843  0.681192  1
  Te  Te3  1  0.646692  0.646692  0.243613  1
  Te  Te4  1  0.353310  0.353310  0.756384  1
  I  I5  1  0.219277  0.219277  0.110805  1
  I  I6  1  0.780723  0.780723  0.889196  1
  O  O7  1  0.778281  0.404051  0.352806  1
  O  O8  1  0.404051  0.778281  0.352806  1
  O  O9  1  0.846249  0.846249  0.380309  1
  O  O10  1  0.153750  0.153750  0.619689  1
  O  O11  1  0.595947  0.221722  0.647196  1
  O  O12  1  0.221722  0.595947  0.647196  1
