# generated using pymatgen
data_Tb9Dy(RuPb3)2
_symmetry_space_group_name_H-M   'P 1'
_cell_length_a   9.35410900
_cell_length_b   9.35410872
_cell_length_c   6.62751700
_cell_angle_alpha   90.00000000
_cell_angle_beta   90.00000000
_cell_angle_gamma   119.99687954
_symmetry_Int_Tables_number   1
_chemical_formula_structural   Tb9Dy(RuPb3)2
_chemical_formula_sum   'Tb9 Dy1 Ru2 Pb6'
_cell_volume   502.22690730
_cell_formula_units_Z   1
loop_
 _symmetry_equiv_pos_site_id
 _symmetry_equiv_pos_as_xyz
  1  'x, y, z'
loop_
 _atom_site_type_symbol
 _atom_site_label
 _atom_site_symmetry_multiplicity
 _atom_site_fract_x
 _atom_site_fract_y
 _atom_site_fract_z
 _atom_site_occupancy
  Tb  Tb0  1  0.237770  0.000008  0.250000  1
  Tb  Tb1  1  0.999975  0.762200  0.750000  1
  Tb  Tb2  1  0.000008  0.237770  0.250000  1
  Tb  Tb3  1  0.333369  0.666680  0.500010  1
  Tb  Tb4  1  0.762200  0.999975  0.750000  1
  Tb  Tb5  1  0.666680  0.333369  0.500010  1
  Tb  Tb6  1  0.237818  0.237818  0.750000  1
  Tb  Tb7  1  0.333369  0.666680  0.999990  1
  Tb  Tb8  1  0.666680  0.333369  0.999990  1
  Dy  Dy9  1  0.762283  0.762283  0.250000  1
  Ru  Ru10  1  0.999908  0.999908  0.000092  1
  Ru  Ru11  1  0.999908  0.999908  0.499908  1
  Pb  Pb12  1  0.598641  0.999950  0.250000  1
  Pb  Pb13  1  0.401384  0.999992  0.750000  1
  Pb  Pb14  1  0.999950  0.598641  0.250000  1
  Pb  Pb15  1  0.598630  0.598630  0.750000  1
  Pb  Pb16  1  0.401436  0.401436  0.250000  1
  Pb  Pb17  1  0.999992  0.401384  0.750000  1
