# generated using pymatgen
data_Nd3AgSn3Ir2
_symmetry_space_group_name_H-M   'P 1'
_cell_length_a   7.66777700
_cell_length_b   7.66777703
_cell_length_c   4.14841100
_cell_angle_alpha   90.00000000
_cell_angle_beta   90.00000000
_cell_angle_gamma   119.99999554
_symmetry_Int_Tables_number   1
_chemical_formula_structural   Nd3AgSn3Ir2
_chemical_formula_sum   'Nd3 Ag1 Sn3 Ir2'
_cell_volume   211.22794706
_cell_formula_units_Z   1
loop_
 _symmetry_equiv_pos_site_id
 _symmetry_equiv_pos_as_xyz
  1  'x, y, z'
loop_
 _atom_site_type_symbol
 _atom_site_label
 _atom_site_symmetry_multiplicity
 _atom_site_fract_x
 _atom_site_fract_y
 _atom_site_fract_z
 _atom_site_occupancy
  Nd  Nd0  1  0.600757  0.016609  0.000000  1
  Nd  Nd1  1  0.983391  0.584148  0.000000  1
  Nd  Nd2  1  0.415852  0.399243  0.000000  1
  Ag  Ag3  1  0.333333  0.666667  0.500000  1
  Sn  Sn4  1  0.250070  0.003102  0.500000  1
  Sn  Sn5  1  0.996898  0.246968  0.500000  1
  Sn  Sn6  1  0.753032  0.749930  0.500000  1
  Ir  Ir7  1  0.666667  0.333333  0.500000  1
  Ir  Ir8  1  0.000000  0.000000  0.000000  1
