# generated using pymatgen
data_Nd10GaSiI15
_symmetry_space_group_name_H-M   'P 1'
_cell_length_a   9.98382295
_cell_length_b   10.77860630
_cell_length_c   11.78689300
_cell_angle_alpha   91.20082890
_cell_angle_beta   114.59899816
_cell_angle_gamma   110.68090010
_symmetry_Int_Tables_number   1
_chemical_formula_structural   Nd10GaSiI15
_chemical_formula_sum   'Nd10 Ga1 Si1 I15'
_cell_volume   1057.73215372
_cell_formula_units_Z   1
loop_
 _symmetry_equiv_pos_site_id
 _symmetry_equiv_pos_as_xyz
  1  'x, y, z'
loop_
 _atom_site_type_symbol
 _atom_site_label
 _atom_site_symmetry_multiplicity
 _atom_site_fract_x
 _atom_site_fract_y
 _atom_site_fract_z
 _atom_site_occupancy
  Nd  Nd0  1  0.801082  0.410897  0.277750  1
  Nd  Nd1  1  0.193880  0.583769  0.717824  1
  Nd  Nd2  1  0.677319  0.741388  0.819436  1
  Nd  Nd3  1  0.324558  0.255540  0.177021  1
  Nd  Nd4  1  0.526591  0.697769  0.102105  1
  Nd  Nd5  1  0.474939  0.301716  0.903576  1
  Nd  Nd6  1  0.584892  0.039621  0.326632  1
  Nd  Nd7  1  0.413637  0.964255  0.669154  1
  Nd  Nd8  1  0.734666  0.082589  0.054042  1
  Nd  Nd9  1  0.267021  0.925774  0.951720  1
  Ga  Ga10  1  0.468243  0.823043  0.880250  1
  Si  Si11  1  0.531325  0.173926  0.117673  1
  I  I12  1  0.998939  0.999165  0.000387  1
  I  I13  1  0.640631  0.882068  0.581955  1
  I  I14  1  0.359102  0.118693  0.417321  1
  I  I15  1  0.885481  0.296887  0.532038  1
  I  I16  1  0.113928  0.702307  0.466824  1
  I  I17  1  0.285598  0.759165  0.179818  1
  I  I18  1  0.713991  0.241066  0.820760  1
  I  I19  1  0.064753  0.349004  0.231847  1
  I  I20  1  0.160979  0.058236  0.701551  1
  I  I21  1  0.839644  0.942740  0.299593  1
  I  I22  1  0.226482  0.409149  0.942400  1
  I  I23  1  0.773824  0.591562  0.058322  1
  I  I24  1  0.405970  0.457936  0.651700  1
  I  I25  1  0.594292  0.539535  0.348429  1
  I  I26  1  0.938232  0.652200  0.769873  1
