# generated using pymatgen
data_Tb8Y11HoSn16
_symmetry_space_group_name_H-M   'P 1'
_cell_length_a   8.04983900
_cell_length_b   8.19891514
_cell_length_c   15.50223400
_cell_angle_alpha   90.00000000
_cell_angle_beta   90.00000000
_cell_angle_gamma   89.95858784
_symmetry_Int_Tables_number   1
_chemical_formula_structural   Tb8Y11HoSn16
_chemical_formula_sum   'Tb8 Y11 Ho1 Sn16'
_cell_volume   1023.14635303
_cell_formula_units_Z   1
loop_
 _symmetry_equiv_pos_site_id
 _symmetry_equiv_pos_as_xyz
  1  'x, y, z'
loop_
 _atom_site_type_symbol
 _atom_site_label
 _atom_site_symmetry_multiplicity
 _atom_site_fract_x
 _atom_site_fract_y
 _atom_site_fract_z
 _atom_site_occupancy
  Tb  Tb0  1  0.520055  0.320747  0.902089  1
  Tb  Tb1  1  0.020301  0.179732  0.597913  1
  Tb  Tb2  1  0.479915  0.679533  0.402617  1
  Tb  Tb3  1  0.979903  0.820361  0.097553  1
  Tb  Tb4  1  0.479915  0.679533  0.097383  1
  Tb  Tb5  1  0.979903  0.820361  0.402447  1
  Tb  Tb6  1  0.520055  0.320747  0.597911  1
  Tb  Tb7  1  0.020301  0.179732  0.902087  1
  Y  Y8  1  0.367084  0.836507  0.877639  1
  Y  Y9  1  0.867461  0.663237  0.622293  1
  Y  Y10  1  0.632727  0.163457  0.378238  1
  Y  Y11  1  0.132823  0.336642  0.121462  1
  Y  Y12  1  0.632727  0.163457  0.121762  1
  Y  Y13  1  0.132823  0.336642  0.378538  1
  Y  Y14  1  0.367084  0.836507  0.622361  1
  Y  Y15  1  0.867461  0.663237  0.877707  1
  Y  Y16  1  0.698625  0.997856  0.750000  1
  Y  Y17  1  0.801099  0.497589  0.250000  1
  Y  Y18  1  0.301095  0.002268  0.250000  1
  Ho  Ho19  1  0.198874  0.502811  0.750000  1
  Sn  Sn20  1  0.293044  0.035739  0.041501  1
  Sn  Sn21  1  0.792785  0.463910  0.458526  1
  Sn  Sn22  1  0.706992  0.963967  0.541963  1
  Sn  Sn23  1  0.207108  0.535714  0.957537  1
  Sn  Sn24  1  0.706992  0.963967  0.958037  1
  Sn  Sn25  1  0.207108  0.535714  0.542463  1
  Sn  Sn26  1  0.293044  0.035739  0.458499  1
  Sn  Sn27  1  0.792785  0.463910  0.041474  1
  Sn  Sn28  1  0.564559  0.618460  0.750000  1
  Sn  Sn29  1  0.065209  0.880757  0.750000  1
  Sn  Sn30  1  0.434638  0.381196  0.250000  1
  Sn  Sn31  1  0.934897  0.118866  0.250000  1
  Sn  Sn32  1  0.328391  0.147646  0.750000  1
  Sn  Sn33  1  0.829490  0.353664  0.750000  1
  Sn  Sn34  1  0.671246  0.853627  0.250000  1
  Sn  Sn35  1  0.171481  0.646171  0.250000  1
