# generated using pymatgen
data_Zr16Ta3Ni4Pt
_symmetry_space_group_name_H-M   'P 1'
_cell_length_a   8.86315067
_cell_length_b   8.87387112
_cell_length_c   8.87387100
_cell_angle_alpha   59.99999671
_cell_angle_beta   59.95997694
_cell_angle_gamma   59.95997595
_symmetry_Int_Tables_number   1
_chemical_formula_structural   Zr16Ta3Ni4Pt
_chemical_formula_sum   'Zr16 Ta3 Ni4 Pt1'
_cell_volume   493.21509198
_cell_formula_units_Z   1
loop_
 _symmetry_equiv_pos_site_id
 _symmetry_equiv_pos_as_xyz
  1  'x, y, z'
loop_
 _atom_site_type_symbol
 _atom_site_label
 _atom_site_symmetry_multiplicity
 _atom_site_fract_x
 _atom_site_fract_y
 _atom_site_fract_z
 _atom_site_occupancy
  Zr  Zr0  1  0.191632  0.602790  0.602790  1
  Zr  Zr1  1  0.600074  0.198379  0.600774  1
  Zr  Zr2  1  0.600074  0.600774  0.600774  1
  Zr  Zr3  1  0.600074  0.600774  0.198379  1
  Zr  Zr4  1  0.449334  0.452226  0.049219  1
  Zr  Zr5  1  0.049087  0.045869  0.452522  1
  Zr  Zr6  1  0.449334  0.049219  0.049219  1
  Zr  Zr7  1  0.049087  0.452522  0.452522  1
  Zr  Zr8  1  0.049087  0.452522  0.045869  1
  Zr  Zr9  1  0.449334  0.049219  0.452226  1
  Zr  Zr10  1  0.812328  0.815451  0.186110  1
  Zr  Zr11  1  0.181796  0.185287  0.816458  1
  Zr  Zr12  1  0.812328  0.186110  0.186110  1
  Zr  Zr13  1  0.181796  0.816458  0.816458  1
  Zr  Zr14  1  0.181796  0.816458  0.185287  1
  Zr  Zr15  1  0.812328  0.186110  0.815451  1
  Ta  Ta16  1  0.836292  0.498576  0.832566  1
  Ta  Ta17  1  0.836292  0.832566  0.832566  1
  Ta  Ta18  1  0.836292  0.832566  0.498576  1
  Ni  Ni19  1  0.826683  0.391106  0.391106  1
  Ni  Ni20  1  0.395080  0.827546  0.388687  1
  Ni  Ni21  1  0.395080  0.388687  0.388687  1
  Ni  Ni22  1  0.395080  0.388687  0.827546  1
  Pt  Pt23  1  0.509713  0.830096  0.830096  1
