# generated using pymatgen
data_TbDy(Si7Ir3)2
_symmetry_space_group_name_H-M   'P 1'
_cell_length_a   8.05718274
_cell_length_b   8.05718196
_cell_length_c   8.05718117
_cell_angle_alpha   56.49330999
_cell_angle_beta   56.49331593
_cell_angle_gamma   56.49331432
_symmetry_Int_Tables_number   1
_chemical_formula_structural   TbDy(Si7Ir3)2
_chemical_formula_sum   'Tb1 Dy1 Si14 Ir6'
_cell_volume   339.87891672
_cell_formula_units_Z   1
loop_
 _symmetry_equiv_pos_site_id
 _symmetry_equiv_pos_as_xyz
  1  'x, y, z'
loop_
 _atom_site_type_symbol
 _atom_site_label
 _atom_site_symmetry_multiplicity
 _atom_site_fract_x
 _atom_site_fract_y
 _atom_site_fract_z
 _atom_site_occupancy
  Tb  Tb0  1  0.500000  0.500000  0.500000  1
  Dy  Dy1  1  0.000000  0.000000  0.000000  1
  Si  Si2  1  0.850239  0.064072  0.672783  1
  Si  Si3  1  0.672783  0.850239  0.064072  1
  Si  Si4  1  0.064072  0.672783  0.850239  1
  Si  Si5  1  0.649352  0.827397  0.436013  1
  Si  Si6  1  0.249852  0.249852  0.249852  1
  Si  Si7  1  0.750148  0.750148  0.750148  1
  Si  Si8  1  0.172603  0.563987  0.350648  1
  Si  Si9  1  0.563987  0.350648  0.172603  1
  Si  Si10  1  0.350648  0.172603  0.563987  1
  Si  Si11  1  0.935928  0.327217  0.149761  1
  Si  Si12  1  0.327217  0.149761  0.935928  1
  Si  Si13  1  0.149761  0.935928  0.327217  1
  Si  Si14  1  0.827397  0.436013  0.649352  1
  Si  Si15  1  0.436013  0.649352  0.827397  1
  Ir  Ir16  1  0.750273  0.070241  0.429384  1
  Ir  Ir17  1  0.429384  0.750273  0.070241  1
  Ir  Ir18  1  0.070241  0.429384  0.750273  1
  Ir  Ir19  1  0.249727  0.929759  0.570616  1
  Ir  Ir20  1  0.570616  0.249727  0.929759  1
  Ir  Ir21  1  0.929759  0.570616  0.249727  1
