# generated using pymatgen
data_CaNd3Al15(SiRh2)3
_symmetry_space_group_name_H-M   'P 1'
_cell_length_a   7.59680621
_cell_length_b   7.54156091
_cell_length_c   9.54247092
_cell_angle_alpha   89.92396124
_cell_angle_beta   89.98114753
_cell_angle_gamma   119.66850691
_symmetry_Int_Tables_number   1
_chemical_formula_structural   CaNd3Al15(SiRh2)3
_chemical_formula_sum   'Ca1 Nd3 Al15 Si3 Rh6'
_cell_volume   475.03338008
_cell_formula_units_Z   1
loop_
 _symmetry_equiv_pos_site_id
 _symmetry_equiv_pos_as_xyz
  1  'x, y, z'
loop_
 _atom_site_type_symbol
 _atom_site_label
 _atom_site_symmetry_multiplicity
 _atom_site_fract_x
 _atom_site_fract_y
 _atom_site_fract_z
 _atom_site_occupancy
  Ca  Ca0  1  0.993728  0.664405  0.746541  1
  Nd  Nd1  1  0.005579  0.341983  0.254491  1
  Nd  Nd2  1  0.675340  0.001683  0.746729  1
  Nd  Nd3  1  0.319777  0.991300  0.250715  1
  Al  Al4  1  0.130288  0.127689  0.749703  1
  Al  Al5  1  0.869843  0.869406  0.249446  1
  Al  Al6  1  0.336266  0.002040  0.922423  1
  Al  Al7  1  0.003606  0.333731  0.928914  1
  Al  Al8  1  0.666129  0.999940  0.073138  1
  Al  Al9  1  0.662041  0.995376  0.423924  1
  Al  Al10  1  0.335499  0.002072  0.577968  1
  Al  Al11  1  0.334545  0.332403  0.051121  1
  Al  Al12  1  0.664882  0.666826  0.947757  1
  Al  Al13  1  0.664073  0.665759  0.554033  1
  Al  Al14  1  0.336854  0.333155  0.449434  1
  Al  Al15  1  0.338814  0.549941  0.749887  1
  Al  Al16  1  0.661290  0.452272  0.250922  1
  Al  Al17  1  0.548104  0.344433  0.749998  1
  Al  Al18  1  0.458221  0.657915  0.249808  1
  Si  Si19  1  0.005315  0.331283  0.577122  1
  Si  Si20  1  0.993729  0.670881  0.433516  1
  Si  Si21  1  0.995856  0.665400  0.061163  1
  Rh  Rh22  1  0.687408  0.337213  0.501318  1
  Rh  Rh23  1  0.311975  0.662538  0.497128  1
  Rh  Rh24  1  0.320546  0.669742  0.003104  1
  Rh  Rh25  1  0.679219  0.336993  0.000458  1
  Rh  Rh26  1  0.000264  0.000054  0.498914  1
  Rh  Rh27  1  0.000811  0.993563  0.000324  1
