# generated using pymatgen
data_NpUTl2F12
_symmetry_space_group_name_H-M   'P 1'
_cell_length_a   5.63115900
_cell_length_b   5.63115861
_cell_length_c   9.59100000
_cell_angle_alpha   90.00000000
_cell_angle_beta   90.00000000
_cell_angle_gamma   89.19512837
_symmetry_Int_Tables_number   1
_chemical_formula_structural   NpUTl2F12
_chemical_formula_sum   'Np1 U1 Tl2 F12'
_cell_volume   304.10011790
_cell_formula_units_Z   1
loop_
 _symmetry_equiv_pos_site_id
 _symmetry_equiv_pos_as_xyz
  1  'x, y, z'
loop_
 _atom_site_type_symbol
 _atom_site_label
 _atom_site_symmetry_multiplicity
 _atom_site_fract_x
 _atom_site_fract_y
 _atom_site_fract_z
 _atom_site_occupancy
  Np  Np0  1  0.000000  0.000000  0.250000  1
  U  U1  1  0.000000  0.000000  0.750000  1
  Tl  Tl2  1  0.500000  0.500000  0.494246  1
  Tl  Tl3  1  0.500000  0.500000  0.005754  1
  F  F4  1  0.737195  0.262805  0.250000  1
  F  F5  1  0.262805  0.737195  0.250000  1
  F  F6  1  0.739295  0.739295  0.750000  1
  F  F7  1  0.260705  0.260705  0.750000  1
  F  F8  1  0.189269  0.188828  0.399036  1
  F  F9  1  0.810731  0.811172  0.399036  1
  F  F10  1  0.190606  0.809744  0.898904  1
  F  F11  1  0.809394  0.190256  0.898904  1
  F  F12  1  0.190256  0.809394  0.601096  1
  F  F13  1  0.809744  0.190606  0.601096  1
  F  F14  1  0.811172  0.810731  0.100964  1
  F  F15  1  0.188828  0.189269  0.100964  1
