# generated using pymatgen
data_Pr4Tc3OsBr2
_symmetry_space_group_name_H-M   'P 1'
_cell_length_a   4.18813300
_cell_length_b   4.18813225
_cell_length_c   17.67824300
_cell_angle_alpha   90.00000000
_cell_angle_beta   90.00000000
_cell_angle_gamma   119.99999799
_symmetry_Int_Tables_number   1
_chemical_formula_structural   Pr4Tc3OsBr2
_chemical_formula_sum   'Pr4 Tc3 Os1 Br2'
_cell_volume   268.54099402
_cell_formula_units_Z   1
loop_
 _symmetry_equiv_pos_site_id
 _symmetry_equiv_pos_as_xyz
  1  'x, y, z'
loop_
 _atom_site_type_symbol
 _atom_site_label
 _atom_site_symmetry_multiplicity
 _atom_site_fract_x
 _atom_site_fract_y
 _atom_site_fract_z
 _atom_site_occupancy
  Pr  Pr0  1  0.000000  0.000000  0.116897  1
  Pr  Pr1  1  0.000000  0.000000  0.883336  1
  Pr  Pr2  1  0.000000  0.000000  0.618261  1
  Pr  Pr3  1  0.000000  0.000000  0.381506  1
  Tc  Tc4  1  0.333333  0.666667  0.515720  1
  Tc  Tc5  1  0.666667  0.333333  0.484220  1
  Tc  Tc6  1  0.666667  0.333333  0.013563  1
  Os  Os7  1  0.333333  0.666667  0.986112  1
  Br  Br8  1  0.333333  0.666667  0.249236  1
  Br  Br9  1  0.666667  0.333333  0.751149  1
