# generated using pymatgen
data_Pr5Th3(CdOs)2
_symmetry_space_group_name_H-M   'P 1'
_cell_length_a   9.91300821
_cell_length_b   10.06104430
_cell_length_c   10.06104339
_cell_angle_alpha   59.02891381
_cell_angle_beta   60.48554160
_cell_angle_gamma   60.48554360
_symmetry_Int_Tables_number   1
_chemical_formula_structural   Pr5Th3(CdOs)2
_chemical_formula_sum   'Pr10 Th6 Cd4 Os4'
_cell_volume   709.23667076
_cell_formula_units_Z   2
loop_
 _symmetry_equiv_pos_site_id
 _symmetry_equiv_pos_as_xyz
  1  'x, y, z'
loop_
 _atom_site_type_symbol
 _atom_site_label
 _atom_site_symmetry_multiplicity
 _atom_site_fract_x
 _atom_site_fract_y
 _atom_site_fract_z
 _atom_site_occupancy
  Pr  Pr0  1  0.191554  0.808446  0.191554  1
  Pr  Pr1  1  0.808446  0.191554  0.808446  1
  Pr  Pr2  1  0.191554  0.191554  0.808446  1
  Pr  Pr3  1  0.808446  0.808446  0.191554  1
  Pr  Pr4  1  0.940090  0.559910  0.559910  1
  Pr  Pr5  1  0.559910  0.940090  0.940090  1
  Pr  Pr6  1  0.559230  0.940770  0.559230  1
  Pr  Pr7  1  0.940770  0.559230  0.940770  1
  Pr  Pr8  1  0.559230  0.559230  0.940770  1
  Pr  Pr9  1  0.940770  0.940770  0.559230  1
  Th  Th10  1  0.342551  0.347057  0.347057  1
  Th  Th11  1  0.347057  0.342551  0.963334  1
  Th  Th12  1  0.347057  0.963334  0.342551  1
  Th  Th13  1  0.963334  0.347057  0.347057  1
  Th  Th14  1  0.812551  0.187449  0.187449  1
  Th  Th15  1  0.187449  0.812551  0.812551  1
  Cd  Cd16  1  0.579371  0.579905  0.579905  1
  Cd  Cd17  1  0.579905  0.579371  0.260818  1
  Cd  Cd18  1  0.579905  0.260818  0.579371  1
  Cd  Cd19  1  0.260818  0.579905  0.579905  1
  Os  Os20  1  0.127280  0.150899  0.150899  1
  Os  Os21  1  0.150899  0.127280  0.570919  1
  Os  Os22  1  0.150899  0.570919  0.127280  1
  Os  Os23  1  0.570919  0.150899  0.150899  1
