# generated using pymatgen
data_Tb5Y(SnRh)6
_symmetry_space_group_name_H-M   'P 1'
_cell_length_a   7.51085309
_cell_length_b   7.50385536
_cell_length_c   7.92870200
_cell_angle_alpha   90.00000000
_cell_angle_beta   90.00000000
_cell_angle_gamma   119.96717394
_symmetry_Int_Tables_number   1
_chemical_formula_structural   Tb5Y(SnRh)6
_chemical_formula_sum   'Tb5 Y1 Sn6 Rh6'
_cell_volume   387.12392085
_cell_formula_units_Z   1
loop_
 _symmetry_equiv_pos_site_id
 _symmetry_equiv_pos_as_xyz
  1  'x, y, z'
loop_
 _atom_site_type_symbol
 _atom_site_label
 _atom_site_symmetry_multiplicity
 _atom_site_fract_x
 _atom_site_fract_y
 _atom_site_fract_z
 _atom_site_occupancy
  Tb  Tb0  1  0.000013  0.407947  0.750000  1
  Tb  Tb1  1  0.591781  0.592376  0.750000  1
  Tb  Tb2  1  0.408061  0.000383  0.750000  1
  Tb  Tb3  1  0.592095  0.591416  0.250000  1
  Tb  Tb4  1  0.408041  0.999651  0.250000  1
  Y  Y5  1  0.999793  0.407091  0.250000  1
  Sn  Sn6  1  0.256847  0.257332  0.499839  1
  Sn  Sn7  1  0.000009  0.742043  0.500010  1
  Sn  Sn8  1  0.000009  0.742043  0.999990  1
  Sn  Sn9  1  0.743183  0.000448  0.499843  1
  Sn  Sn10  1  0.743183  0.000448  0.000157  1
  Sn  Sn11  1  0.256847  0.257332  0.000161  1
  Rh  Rh12  1  0.334366  0.667726  0.501219  1
  Rh  Rh13  1  0.665718  0.333375  0.501454  1
  Rh  Rh14  1  0.334366  0.667726  0.998781  1
  Rh  Rh15  1  0.999965  0.000248  0.750000  1
  Rh  Rh16  1  0.000004  0.999043  0.250000  1
  Rh  Rh17  1  0.665718  0.333375  0.998546  1
