# generated using pymatgen
data_Tm8B24MoOs3
_symmetry_space_group_name_H-M   'P 1'
_cell_length_a   3.61869400
_cell_length_b   9.10681472
_cell_length_c   11.48577868
_cell_angle_alpha   89.89653102
_cell_angle_beta   90.00000000
_cell_angle_gamma   90.00000000
_symmetry_Int_Tables_number   1
_chemical_formula_structural   Tm8B24MoOs3
_chemical_formula_sum   'Tm8 B24 Mo1 Os3'
_cell_volume   378.51064369
_cell_formula_units_Z   1
loop_
 _symmetry_equiv_pos_site_id
 _symmetry_equiv_pos_as_xyz
  1  'x, y, z'
loop_
 _atom_site_type_symbol
 _atom_site_label
 _atom_site_symmetry_multiplicity
 _atom_site_fract_x
 _atom_site_fract_y
 _atom_site_fract_z
 _atom_site_occupancy
  Tm  Tm0  1  0.000000  0.321726  0.413204  1
  Tm  Tm1  1  0.000000  0.677367  0.584674  1
  Tm  Tm2  1  0.000000  0.820263  0.087431  1
  Tm  Tm3  1  0.000000  0.177723  0.914479  1
  Tm  Tm4  1  0.000000  0.945045  0.372947  1
  Tm  Tm5  1  0.000000  0.057364  0.628046  1
  Tm  Tm6  1  0.000000  0.443367  0.126684  1
  Tm  Tm7  1  0.000000  0.556765  0.871601  1
  B  B8  1  0.500000  0.550915  0.436031  1
  B  B9  1  0.500000  0.446419  0.567726  1
  B  B10  1  0.500000  0.053195  0.066571  1
  B  B11  1  0.500000  0.946695  0.933491  1
  B  B12  1  0.500000  0.751128  0.422129  1
  B  B13  1  0.500000  0.251727  0.580733  1
  B  B14  1  0.500000  0.248679  0.079918  1
  B  B15  1  0.500000  0.751133  0.919292  1
  B  B16  1  0.500000  0.794821  0.264472  1
  B  B17  1  0.500000  0.208039  0.734584  1
  B  B18  1  0.500000  0.291166  0.233060  1
  B  B19  1  0.500000  0.708758  0.765814  1
  B  B20  1  0.500000  0.631837  0.182798  1
  B  B21  1  0.500000  0.368169  0.815230  1
  B  B22  1  0.500000  0.131309  0.314130  1
  B  B23  1  0.500000  0.869503  0.685548  1
  B  B24  1  0.500000  0.982693  0.212760  1
  B  B25  1  0.500000  0.018031  0.788081  1
  B  B26  1  0.500000  0.477894  0.286505  1
  B  B27  1  0.500000  0.517060  0.713025  1
  B  B28  1  0.500000  0.605221  0.027743  1
  B  B29  1  0.500000  0.394329  0.969958  1
  B  B30  1  0.500000  0.106324  0.471056  1
  B  B31  1  0.500000  0.896657  0.530213  1
  Mo  Mo32  1  0.000000  0.637422  0.321365  1
  Os  Os33  1  0.000000  0.361143  0.680261  1
  Os  Os34  1  0.000000  0.137468  0.177307  1
  Os  Os35  1  0.000000  0.862642  0.821134  1
