# generated using pymatgen
data_EuVBO4
_symmetry_space_group_name_H-M   'P 1'
_cell_length_a   6.12989800
_cell_length_b   6.15408100
_cell_length_c   9.00626200
_cell_angle_alpha   90.00000000
_cell_angle_beta   90.00000000
_cell_angle_gamma   90.00000000
_symmetry_Int_Tables_number   1
_chemical_formula_structural   EuVBO4
_chemical_formula_sum   'Eu4 V4 B4 O16'
_cell_volume   339.75122632
_cell_formula_units_Z   4
loop_
 _symmetry_equiv_pos_site_id
 _symmetry_equiv_pos_as_xyz
  1  'x, y, z'
loop_
 _atom_site_type_symbol
 _atom_site_label
 _atom_site_symmetry_multiplicity
 _atom_site_fract_x
 _atom_site_fract_y
 _atom_site_fract_z
 _atom_site_occupancy
  Eu  Eu0  1  0.250000  0.479534  0.155770  1
  Eu  Eu1  1  0.750000  0.520466  0.844230  1
  Eu  Eu2  1  0.250000  0.979534  0.344230  1
  Eu  Eu3  1  0.750000  0.020466  0.655770  1
  V  V4  1  0.000000  0.500000  0.500000  1
  V  V5  1  0.500000  0.500000  0.500000  1
  V  V6  1  0.500000  0.000000  0.000000  1
  V  V7  1  0.000000  0.000000  0.000000  1
  B  B8  1  0.250000  0.789494  0.733223  1
  B  B9  1  0.250000  0.289494  0.766777  1
  B  B10  1  0.750000  0.710506  0.233223  1
  B  B11  1  0.750000  0.210506  0.266777  1
  O  O12  1  0.052239  0.318352  0.693692  1
  O  O13  1  0.552239  0.681648  0.306308  1
  O  O14  1  0.447761  0.818352  0.806308  1
  O  O15  1  0.947761  0.181648  0.193692  1
  O  O16  1  0.250000  0.232739  0.919164  1
  O  O17  1  0.750000  0.267261  0.419164  1
  O  O18  1  0.750000  0.767261  0.080836  1
  O  O19  1  0.250000  0.732739  0.580836  1
  O  O20  1  0.250000  0.855549  0.095281  1
  O  O21  1  0.750000  0.144451  0.904719  1
  O  O22  1  0.250000  0.355549  0.404719  1
  O  O23  1  0.750000  0.644451  0.595281  1
  O  O24  1  0.052239  0.818352  0.806308  1
  O  O25  1  0.552239  0.181648  0.193692  1
  O  O26  1  0.447761  0.318352  0.693692  1
  O  O27  1  0.947761  0.681648  0.306308  1
