# generated using pymatgen
data_EuAl2SiNi
_symmetry_space_group_name_H-M   'P 1'
_cell_length_a   6.00963453
_cell_length_b   6.00963474
_cell_length_c   6.00963424
_cell_angle_alpha   139.64924786
_cell_angle_beta   139.64924568
_cell_angle_gamma   58.38625503
_symmetry_Int_Tables_number   1
_chemical_formula_structural   EuAl2SiNi
_chemical_formula_sum   'Eu1 Al2 Si1 Ni1'
_cell_volume   90.15340912
_cell_formula_units_Z   1
loop_
 _symmetry_equiv_pos_site_id
 _symmetry_equiv_pos_as_xyz
  1  'x, y, z'
loop_
 _atom_site_type_symbol
 _atom_site_label
 _atom_site_symmetry_multiplicity
 _atom_site_fract_x
 _atom_site_fract_y
 _atom_site_fract_z
 _atom_site_occupancy
  Eu  Eu0  1  0.985384  0.985384  0.000000  1
  Al  Al1  1  0.741717  0.241717  0.500000  1
  Al  Al2  1  0.241717  0.741717  0.500000  1
  Si  Si3  1  0.406516  0.406516  0.000000  1
  Ni  Ni4  1  0.624665  0.624665  0.000000  1
