# generated using pymatgen
data_CaNd2Si2(AsPd5)4
_symmetry_space_group_name_H-M   'P 1'
_cell_length_a   8.85317835
_cell_length_b   8.85317924
_cell_length_c   8.92759900
_cell_angle_alpha   59.72154398
_cell_angle_beta   59.72154060
_cell_angle_gamma   60.55691526
_symmetry_Int_Tables_number   1
_chemical_formula_structural   CaNd2Si2(AsPd5)4
_chemical_formula_sum   'Ca1 Nd2 Si2 As4 Pd20'
_cell_volume   494.71633046
_cell_formula_units_Z   1
loop_
 _symmetry_equiv_pos_site_id
 _symmetry_equiv_pos_as_xyz
  1  'x, y, z'
loop_
 _atom_site_type_symbol
 _atom_site_label
 _atom_site_symmetry_multiplicity
 _atom_site_fract_x
 _atom_site_fract_y
 _atom_site_fract_z
 _atom_site_occupancy
  Ca  Ca0  1  0.000000  0.000000  0.000000  1
  Nd  Nd1  1  0.250000  0.250000  0.250000  1
  Nd  Nd2  1  0.750000  0.750000  0.750000  1
  Si  Si3  1  0.264818  0.264818  0.735182  1
  Si  Si4  1  0.735182  0.735182  0.264818  1
  As  As5  1  0.736758  0.263242  0.263242  1
  As  As6  1  0.263242  0.736758  0.736758  1
  As  As7  1  0.263242  0.736758  0.263242  1
  As  As8  1  0.736758  0.263242  0.736758  1
  Pd  Pd9  1  0.348401  0.007681  0.992319  1
  Pd  Pd10  1  0.651599  0.992319  0.007681  1
  Pd  Pd11  1  0.007681  0.348401  0.651599  1
  Pd  Pd12  1  0.992319  0.651599  0.348401  1
  Pd  Pd13  1  0.007681  0.348401  0.992319  1
  Pd  Pd14  1  0.651599  0.992319  0.348401  1
  Pd  Pd15  1  0.992319  0.651599  0.007681  1
  Pd  Pd16  1  0.348401  0.007681  0.651599  1
  Pd  Pd17  1  0.000000  0.000000  0.348838  1
  Pd  Pd18  1  0.000000  0.000000  0.651162  1
  Pd  Pd19  1  0.651162  0.348838  0.000000  1
  Pd  Pd20  1  0.348838  0.651162  0.000000  1
  Pd  Pd21  1  0.381917  0.381917  0.390244  1
  Pd  Pd22  1  0.618083  0.618083  0.609756  1
  Pd  Pd23  1  0.381917  0.381917  0.845922  1
  Pd  Pd24  1  0.390244  0.845922  0.381917  1
  Pd  Pd25  1  0.618083  0.618083  0.154078  1
  Pd  Pd26  1  0.609756  0.154078  0.618083  1
  Pd  Pd27  1  0.845922  0.390244  0.381917  1
  Pd  Pd28  1  0.154078  0.609756  0.618083  1
