# generated using pymatgen
data_Tm2Hf3Ge4
_symmetry_space_group_name_H-M   'P 1'
_cell_length_a   7.36142000
_cell_length_b   7.36142000
_cell_length_c   13.46202300
_cell_angle_alpha   90.00000000
_cell_angle_beta   90.00000000
_cell_angle_gamma   90.00000000
_symmetry_Int_Tables_number   1
_chemical_formula_structural   Tm2Hf3Ge4
_chemical_formula_sum   'Tm8 Hf12 Ge16'
_cell_volume   729.51381684
_cell_formula_units_Z   4
loop_
 _symmetry_equiv_pos_site_id
 _symmetry_equiv_pos_as_xyz
  1  'x, y, z'
loop_
 _atom_site_type_symbol
 _atom_site_label
 _atom_site_symmetry_multiplicity
 _atom_site_fract_x
 _atom_site_fract_y
 _atom_site_fract_z
 _atom_site_occupancy
  Tm  Tm0  1  0.996911  0.342746  0.217971  1
  Tm  Tm1  1  0.003089  0.657254  0.717971  1
  Tm  Tm2  1  0.157254  0.496911  0.467971  1
  Tm  Tm3  1  0.503089  0.842746  0.032029  1
  Tm  Tm4  1  0.842746  0.503089  0.967971  1
  Tm  Tm5  1  0.496911  0.157254  0.532029  1
  Tm  Tm6  1  0.342746  0.996911  0.782029  1
  Tm  Tm7  1  0.657254  0.003089  0.282029  1
  Hf  Hf8  1  0.173341  0.173341  0.000000  1
  Hf  Hf9  1  0.826659  0.826659  0.500000  1
  Hf  Hf10  1  0.326659  0.673341  0.250000  1
  Hf  Hf11  1  0.673341  0.326659  0.750000  1
  Hf  Hf12  1  0.153377  0.996920  0.375015  1
  Hf  Hf13  1  0.846623  0.003080  0.875015  1
  Hf  Hf14  1  0.503080  0.653377  0.625015  1
  Hf  Hf15  1  0.346623  0.496920  0.874985  1
  Hf  Hf16  1  0.496920  0.346623  0.125015  1
  Hf  Hf17  1  0.653377  0.503080  0.374985  1
  Hf  Hf18  1  0.996920  0.153377  0.624985  1
  Hf  Hf19  1  0.003080  0.846623  0.124985  1
  Ge  Ge20  1  0.362994  0.300611  0.323150  1
  Ge  Ge21  1  0.637006  0.699389  0.823150  1
  Ge  Ge22  1  0.199389  0.862994  0.573150  1
  Ge  Ge23  1  0.137006  0.800611  0.926850  1
  Ge  Ge24  1  0.800611  0.137006  0.073150  1
  Ge  Ge25  1  0.862994  0.199389  0.426850  1
  Ge  Ge26  1  0.300611  0.362994  0.676850  1
  Ge  Ge27  1  0.699389  0.637006  0.176850  1
  Ge  Ge28  1  0.298656  0.039113  0.181426  1
  Ge  Ge29  1  0.701344  0.960887  0.681426  1
  Ge  Ge30  1  0.460887  0.798656  0.431426  1
  Ge  Ge31  1  0.201344  0.539113  0.068574  1
  Ge  Ge32  1  0.539113  0.201344  0.931426  1
  Ge  Ge33  1  0.798656  0.460887  0.568574  1
  Ge  Ge34  1  0.039113  0.298656  0.818574  1
  Ge  Ge35  1  0.960887  0.701344  0.318574  1
