# generated using pymatgen
data_CsGd2CuS4
_symmetry_space_group_name_H-M   'P 1'
_cell_length_a   4.07067400
_cell_length_b   7.38652282
_cell_length_c   13.92220100
_cell_angle_alpha   90.00000000
_cell_angle_beta   90.00000000
_cell_angle_gamma   74.00536301
_symmetry_Int_Tables_number   1
_chemical_formula_structural   CsGd2CuS4
_chemical_formula_sum   'Cs2 Gd4 Cu2 S8'
_cell_volume   402.40888241
_cell_formula_units_Z   2
loop_
 _symmetry_equiv_pos_site_id
 _symmetry_equiv_pos_as_xyz
  1  'x, y, z'
loop_
 _atom_site_type_symbol
 _atom_site_label
 _atom_site_symmetry_multiplicity
 _atom_site_fract_x
 _atom_site_fract_y
 _atom_site_fract_z
 _atom_site_occupancy
  Cs  Cs0  1  0.894872  0.210257  0.250000  1
  Cs  Cs1  1  0.105130  0.789742  0.750000  1
  Gd  Gd2  1  0.633828  0.732346  0.060191  1
  Gd  Gd3  1  0.633828  0.732346  0.439809  1
  Gd  Gd4  1  0.366173  0.267655  0.560192  1
  Gd  Gd5  1  0.366173  0.267655  0.939809  1
  Cu  Cu6  1  0.167809  0.664382  0.250000  1
  Cu  Cu7  1  0.832192  0.335617  0.750000  1
  S  S8  1  0.000000  0.000000  0.000000  1
  S  S9  1  0.254341  0.491318  0.106453  1
  S  S10  1  0.583048  0.833906  0.250000  1
  S  S11  1  0.254341  0.491318  0.393547  1
  S  S12  1  0.000000  0.000000  0.500000  1
  S  S13  1  0.745660  0.508682  0.606453  1
  S  S14  1  0.416954  0.166093  0.750000  1
  S  S15  1  0.745660  0.508682  0.893546  1
