# generated using pymatgen
data_Tb20Tc3Bi8Au
_symmetry_space_group_name_H-M   'P 1'
_cell_length_a   8.05188245
_cell_length_b   9.16952600
_cell_length_c   12.43292556
_cell_angle_alpha   90.00000000
_cell_angle_beta   89.84393469
_cell_angle_gamma   90.00000000
_symmetry_Int_Tables_number   1
_chemical_formula_structural   Tb20Tc3Bi8Au
_chemical_formula_sum   'Tb20 Tc3 Bi8 Au1'
_cell_volume   917.94367656
_cell_formula_units_Z   1
loop_
 _symmetry_equiv_pos_site_id
 _symmetry_equiv_pos_as_xyz
  1  'x, y, z'
loop_
 _atom_site_type_symbol
 _atom_site_label
 _atom_site_symmetry_multiplicity
 _atom_site_fract_x
 _atom_site_fract_y
 _atom_site_fract_z
 _atom_site_occupancy
  Tb  Tb0  1  0.847325  0.750000  0.795950  1
  Tb  Tb1  1  0.157141  0.250000  0.209308  1
  Tb  Tb2  1  0.339812  0.250000  0.710800  1
  Tb  Tb3  1  0.671639  0.750000  0.277975  1
  Tb  Tb4  1  0.366139  0.750000  0.702375  1
  Tb  Tb5  1  0.622720  0.250000  0.304852  1
  Tb  Tb6  1  0.880091  0.250000  0.805276  1
  Tb  Tb7  1  0.123535  0.750000  0.195740  1
  Tb  Tb8  1  0.956404  0.750000  0.502896  1
  Tb  Tb9  1  0.047775  0.250000  0.497141  1
  Tb  Tb10  1  0.445618  0.250000  0.996122  1
  Tb  Tb11  1  0.551008  0.750000  0.001110  1
  Tb  Tb12  1  0.679134  0.054888  0.565932  1
  Tb  Tb13  1  0.321784  0.968906  0.432660  1
  Tb  Tb14  1  0.175547  0.960570  0.937741  1
  Tb  Tb15  1  0.321784  0.531094  0.432660  1
  Tb  Tb16  1  0.823296  0.039994  0.063397  1
  Tb  Tb17  1  0.679134  0.445112  0.565932  1
  Tb  Tb18  1  0.823296  0.460006  0.063397  1
  Tb  Tb19  1  0.175547  0.539430  0.937741  1
  Tc  Tc20  1  0.417795  0.250000  0.487338  1
  Tc  Tc21  1  0.080098  0.250000  0.987413  1
  Tc  Tc22  1  0.917151  0.750000  0.018403  1
  Bi  Bi23  1  0.572565  0.493001  0.825858  1
  Bi  Bi24  1  0.428731  0.507804  0.171705  1
  Bi  Bi25  1  0.071566  0.507947  0.671573  1
  Bi  Bi26  1  0.428731  0.992196  0.171705  1
  Bi  Bi27  1  0.926630  0.491849  0.328886  1
  Bi  Bi28  1  0.572565  0.006999  0.825858  1
  Bi  Bi29  1  0.926630  0.008151  0.328886  1
  Bi  Bi30  1  0.071566  0.992053  0.671573  1
  Au  Au31  1  0.577242  0.750000  0.511801  1
