# generated using pymatgen
data_AgSb(PS3)2
_symmetry_space_group_name_H-M   'P 1'
_cell_length_a   14.67479056
_cell_length_b   14.67479085
_cell_length_c   14.67479059
_cell_angle_alpha   25.19763396
_cell_angle_beta   25.19763351
_cell_angle_gamma   25.19763795
_symmetry_Int_Tables_number   1
_chemical_formula_structural   AgSb(PS3)2
_chemical_formula_sum   'Ag2 Sb2 P4 S12'
_cell_volume   504.05533056
_cell_formula_units_Z   2
loop_
 _symmetry_equiv_pos_site_id
 _symmetry_equiv_pos_as_xyz
  1  'x, y, z'
loop_
 _atom_site_type_symbol
 _atom_site_label
 _atom_site_symmetry_multiplicity
 _atom_site_fract_x
 _atom_site_fract_y
 _atom_site_fract_z
 _atom_site_occupancy
  Ag  Ag0  1  0.594173  0.594173  0.594173  1
  Ag  Ag1  1  0.405827  0.405827  0.405827  1
  Sb  Sb2  1  0.086594  0.086594  0.086594  1
  Sb  Sb3  1  0.913406  0.913406  0.913406  1
  P  P4  1  0.724092  0.724092  0.724092  1
  P  P5  1  0.776946  0.776946  0.776946  1
  P  P6  1  0.223054  0.223054  0.223054  1
  P  P7  1  0.275908  0.275908  0.275908  1
  S  S8  1  0.492871  0.771518  0.105343  1
  S  S9  1  0.002586  0.733311  0.393737  1
  S  S10  1  0.606263  0.997414  0.266689  1
  S  S11  1  0.733311  0.393737  0.002586  1
  S  S12  1  0.771518  0.105343  0.492871  1
  S  S13  1  0.393737  0.002586  0.733311  1
  S  S14  1  0.266689  0.606263  0.997414  1
  S  S15  1  0.105343  0.492871  0.771518  1
  S  S16  1  0.997414  0.266689  0.606263  1
  S  S17  1  0.894657  0.507129  0.228482  1
  S  S18  1  0.228482  0.894657  0.507129  1
  S  S19  1  0.507129  0.228482  0.894657  1
