# generated using pymatgen
data_Ac2PaRh2
_symmetry_space_group_name_H-M   'P 1'
_cell_length_a   6.51998973
_cell_length_b   6.51998790
_cell_length_c   6.51999004
_cell_angle_alpha   145.05865794
_cell_angle_beta   117.99001179
_cell_angle_gamma   73.19852584
_symmetry_Int_Tables_number   1
_chemical_formula_structural   Ac2PaRh2
_chemical_formula_sum   'Ac2 Pa1 Rh2'
_cell_volume   137.64486668
_cell_formula_units_Z   1
loop_
 _symmetry_equiv_pos_site_id
 _symmetry_equiv_pos_as_xyz
  1  'x, y, z'
loop_
 _atom_site_type_symbol
 _atom_site_label
 _atom_site_symmetry_multiplicity
 _atom_site_fract_x
 _atom_site_fract_y
 _atom_site_fract_z
 _atom_site_occupancy
  Ac  Ac0  1  0.697121  0.197121  0.500000  1
  Ac  Ac1  1  0.302879  0.802879  0.500000  1
  Pa  Pa2  1  0.000000  0.000000  0.000000  1
  Rh  Rh3  1  0.276606  0.500000  0.776606  1
  Rh  Rh4  1  0.723394  0.500000  0.223394  1
