# generated using pymatgen
data_Be3Ga2SiRh6
_symmetry_space_group_name_H-M   'P 1'
_cell_length_a   4.11371200
_cell_length_b   5.81109800
_cell_length_c   12.34090400
_cell_angle_alpha   90.00000000
_cell_angle_beta   90.00000000
_cell_angle_gamma   90.00000000
_symmetry_Int_Tables_number   1
_chemical_formula_structural   Be3Ga2SiRh6
_chemical_formula_sum   'Be6 Ga4 Si2 Rh12'
_cell_volume   295.01157561
_cell_formula_units_Z   2
loop_
 _symmetry_equiv_pos_site_id
 _symmetry_equiv_pos_as_xyz
  1  'x, y, z'
loop_
 _atom_site_type_symbol
 _atom_site_label
 _atom_site_symmetry_multiplicity
 _atom_site_fract_x
 _atom_site_fract_y
 _atom_site_fract_z
 _atom_site_occupancy
  Be  Be0  1  0.000024  0.000000  0.002470  1
  Be  Be1  1  0.499152  0.500000  0.168062  1
  Be  Be2  1  0.999153  0.000000  0.331938  1
  Be  Be3  1  0.500024  0.500000  0.497530  1
  Be  Be4  1  0.000898  0.000000  0.665207  1
  Be  Be5  1  0.500898  0.500000  0.834793  1
  Ga  Ga6  1  0.000116  0.500000  0.997783  1
  Ga  Ga7  1  0.499208  0.000000  0.165208  1
  Ga  Ga8  1  0.999208  0.500000  0.334791  1
  Ga  Ga9  1  0.500116  0.000000  0.502217  1
  Si  Si10  1  0.000680  0.500000  0.667973  1
  Si  Si11  1  0.500681  0.000000  0.832028  1
  Rh  Rh12  1  0.500101  0.245235  0.992432  1
  Rh  Rh13  1  0.500101  0.754765  0.992432  1
  Rh  Rh14  1  0.999329  0.251191  0.164831  1
  Rh  Rh15  1  0.999329  0.748810  0.164831  1
  Rh  Rh16  1  0.499326  0.248809  0.335169  1
  Rh  Rh17  1  0.499326  0.751191  0.335169  1
  Rh  Rh18  1  0.000101  0.254765  0.507568  1
  Rh  Rh19  1  0.000101  0.745235  0.507568  1
  Rh  Rh20  1  0.500532  0.254272  0.671726  1
  Rh  Rh21  1  0.500532  0.745728  0.671726  1
  Rh  Rh22  1  0.000532  0.245728  0.828274  1
  Rh  Rh23  1  0.000532  0.754273  0.828274  1
