# generated using pymatgen
data_Ga(BrO3)3
_symmetry_space_group_name_H-M   'P 1'
_cell_length_a   9.02146800
_cell_length_b   9.02146723
_cell_length_c   5.68109000
_cell_angle_alpha   90.00000000
_cell_angle_beta   90.00000000
_cell_angle_gamma   119.99999746
_symmetry_Int_Tables_number   1
_chemical_formula_structural   Ga(BrO3)3
_chemical_formula_sum   'Ga2 Br6 O18'
_cell_volume   400.42086651
_cell_formula_units_Z   2
loop_
 _symmetry_equiv_pos_site_id
 _symmetry_equiv_pos_as_xyz
  1  'x, y, z'
loop_
 _atom_site_type_symbol
 _atom_site_label
 _atom_site_symmetry_multiplicity
 _atom_site_fract_x
 _atom_site_fract_y
 _atom_site_fract_z
 _atom_site_occupancy
  Ga  Ga0  1  0.666667  0.333333  0.690048  1
  Ga  Ga1  1  0.333333  0.666667  0.190048  1
  Br  Br2  1  0.676235  0.021971  0.360401  1
  Br  Br3  1  0.323765  0.978029  0.860401  1
  Br  Br4  1  0.021971  0.345736  0.860401  1
  Br  Br5  1  0.345736  0.323765  0.360401  1
  Br  Br6  1  0.978029  0.654264  0.360401  1
  Br  Br7  1  0.654264  0.676235  0.860401  1
  O  O8  1  0.778034  0.830146  0.040127  1
  O  O9  1  0.947888  0.778034  0.540127  1
  O  O10  1  0.830146  0.052112  0.540127  1
  O  O11  1  0.169854  0.947888  0.040127  1
  O  O12  1  0.052112  0.221966  0.040127  1
  O  O13  1  0.221966  0.169854  0.540127  1
  O  O14  1  0.714622  0.524750  0.914559  1
  O  O15  1  0.189872  0.714622  0.414559  1
  O  O16  1  0.549465  0.427719  0.487797  1
  O  O17  1  0.121746  0.549465  0.987797  1
  O  O18  1  0.427719  0.878254  0.987797  1
  O  O19  1  0.572281  0.121746  0.487797  1
  O  O20  1  0.878254  0.450535  0.487797  1
  O  O21  1  0.450535  0.572281  0.987797  1
  O  O22  1  0.285378  0.475250  0.414559  1
  O  O23  1  0.810128  0.285378  0.914559  1
  O  O24  1  0.475250  0.189872  0.914559  1
  O  O25  1  0.524750  0.810128  0.414559  1
