# generated using pymatgen
data_LaYb2(Ga8Pd3)3
_symmetry_space_group_name_H-M   'P 1'
_cell_length_a   8.53961378
_cell_length_b   8.52055064
_cell_length_c   8.53961509
_cell_angle_alpha   90.11222805
_cell_angle_beta   90.40107811
_cell_angle_gamma   90.11222873
_symmetry_Int_Tables_number   1
_chemical_formula_structural   LaYb2(Ga8Pd3)3
_chemical_formula_sum   'La1 Yb2 Ga24 Pd9'
_cell_volume   621.34365656
_cell_formula_units_Z   1
loop_
 _symmetry_equiv_pos_site_id
 _symmetry_equiv_pos_as_xyz
  1  'x, y, z'
loop_
 _atom_site_type_symbol
 _atom_site_label
 _atom_site_symmetry_multiplicity
 _atom_site_fract_x
 _atom_site_fract_y
 _atom_site_fract_z
 _atom_site_occupancy
  La  La0  1  0.000000  0.500000  0.000000  1
  Yb  Yb1  1  0.500000  0.000000  0.000000  1
  Yb  Yb2  1  0.000000  0.000000  0.500000  1
  Ga  Ga3  1  0.989108  0.644802  0.642805  1
  Ga  Ga4  1  0.642805  0.644802  0.989108  1
  Ga  Ga5  1  0.643380  0.989590  0.643380  1
  Ga  Ga6  1  0.010892  0.355198  0.357195  1
  Ga  Ga7  1  0.357195  0.355198  0.010892  1
  Ga  Ga8  1  0.356620  0.010410  0.356620  1
  Ga  Ga9  1  0.737842  0.500000  0.262158  1
  Ga  Ga10  1  0.262158  0.500000  0.737842  1
  Ga  Ga11  1  0.500773  0.255352  0.742611  1
  Ga  Ga12  1  0.499227  0.744648  0.257389  1
  Ga  Ga13  1  0.257389  0.744648  0.499227  1
  Ga  Ga14  1  0.742611  0.255352  0.500773  1
  Ga  Ga15  1  0.838887  0.141367  0.838887  1
  Ga  Ga16  1  0.141893  0.840248  0.838378  1
  Ga  Ga17  1  0.838378  0.840248  0.141893  1
  Ga  Ga18  1  0.161113  0.858633  0.161113  1
  Ga  Ga19  1  0.858107  0.159752  0.161622  1
  Ga  Ga20  1  0.161622  0.159752  0.858107  1
  Ga  Ga21  1  0.728958  0.483985  0.728958  1
  Ga  Ga22  1  0.485342  0.733905  0.732379  1
  Ga  Ga23  1  0.732379  0.733905  0.485342  1
  Ga  Ga24  1  0.271042  0.516015  0.271042  1
  Ga  Ga25  1  0.514658  0.266095  0.267621  1
  Ga  Ga26  1  0.267621  0.266095  0.514658  1
  Pd  Pd27  1  0.834336  0.834284  0.834336  1
  Pd  Pd28  1  0.165664  0.165716  0.165664  1
  Pd  Pd29  1  0.661146  0.333013  0.000372  1
  Pd  Pd30  1  0.000372  0.333013  0.661146  1
  Pd  Pd31  1  0.334973  0.000000  0.665027  1
  Pd  Pd32  1  0.338854  0.666987  0.999628  1
  Pd  Pd33  1  0.999628  0.666987  0.338854  1
  Pd  Pd34  1  0.665027  0.000000  0.334973  1
  Pd  Pd35  1  0.500000  0.500000  0.500000  1
