# generated using pymatgen
data_Th4Fe(Si2Ir)5
_symmetry_space_group_name_H-M   'P 1'
_cell_length_a   8.22141344
_cell_length_b   8.22141256
_cell_length_c   8.22141245
_cell_angle_alpha   137.66195948
_cell_angle_beta   105.09162949
_cell_angle_gamma   90.02592350
_symmetry_Int_Tables_number   1
_chemical_formula_structural   Th4Fe(Si2Ir)5
_chemical_formula_sum   'Th4 Fe1 Si10 Ir5'
_cell_volume   345.08994766
_cell_formula_units_Z   1
loop_
 _symmetry_equiv_pos_site_id
 _symmetry_equiv_pos_as_xyz
  1  'x, y, z'
loop_
 _atom_site_type_symbol
 _atom_site_label
 _atom_site_symmetry_multiplicity
 _atom_site_fract_x
 _atom_site_fract_y
 _atom_site_fract_z
 _atom_site_occupancy
  Th  Th0  1  0.862382  0.627948  0.230505  1
  Th  Th1  1  0.137619  0.368123  0.765566  1
  Th  Th2  1  0.397444  0.131877  0.269495  1
  Th  Th3  1  0.602556  0.872052  0.734434  1
  Fe  Fe4  1  0.000000  0.750000  0.750000  1
  Si  Si5  1  0.500000  0.750000  0.250000  1
  Si  Si6  1  0.500000  0.250000  0.750000  1
  Si  Si7  1  0.225437  0.975437  0.750000  1
  Si  Si8  1  0.774563  0.524563  0.750000  1
  Si  Si9  1  0.773119  0.023119  0.250000  1
  Si  Si10  1  0.226881  0.476881  0.250000  1
  Si  Si11  1  0.042282  0.883193  0.134667  1
  Si  Si12  1  0.957718  0.092385  0.840911  1
  Si  Si13  1  0.748527  0.407615  0.365333  1
  Si  Si14  1  0.251473  0.616807  0.659089  1
  Ir  Ir15  1  0.000000  0.250000  0.250000  1
  Ir  Ir16  1  0.245843  0.860702  0.384551  1
  Ir  Ir17  1  0.754157  0.138710  0.614861  1
  Ir  Ir18  1  0.476152  0.361290  0.115449  1
  Ir  Ir19  1  0.523848  0.639298  0.885139  1
