# generated using pymatgen
data_TmTa4(TiSn3)2
_symmetry_space_group_name_H-M   'P 1'
_cell_length_a   5.75019447
_cell_length_b   5.75019561
_cell_length_c   9.67074000
_cell_angle_alpha   90.00000000
_cell_angle_beta   90.00000000
_cell_angle_gamma   120.37910108
_symmetry_Int_Tables_number   1
_chemical_formula_structural   TmTa4(TiSn3)2
_chemical_formula_sum   'Tm1 Ta4 Ti2 Sn6'
_cell_volume   275.85683286
_cell_formula_units_Z   1
loop_
 _symmetry_equiv_pos_site_id
 _symmetry_equiv_pos_as_xyz
  1  'x, y, z'
loop_
 _atom_site_type_symbol
 _atom_site_label
 _atom_site_symmetry_multiplicity
 _atom_site_fract_x
 _atom_site_fract_y
 _atom_site_fract_z
 _atom_site_occupancy
  Tm  Tm0  1  0.000000  0.000000  0.000000  1
  Ta  Ta1  1  0.000000  0.500000  0.752487  1
  Ta  Ta2  1  0.500000  0.000000  0.247513  1
  Ta  Ta3  1  0.000000  0.500000  0.247513  1
  Ta  Ta4  1  0.500000  0.000000  0.752487  1
  Ti  Ti5  1  0.500000  0.500000  0.248978  1
  Ti  Ti6  1  0.500000  0.500000  0.751022  1
  Sn  Sn7  1  0.664247  0.335753  0.500000  1
  Sn  Sn8  1  0.000000  0.000000  0.322549  1
  Sn  Sn9  1  0.000000  0.000000  0.677451  1
  Sn  Sn10  1  0.336261  0.663739  0.000000  1
  Sn  Sn11  1  0.663739  0.336261  0.000000  1
  Sn  Sn12  1  0.335753  0.664247  0.500000  1
