# generated using pymatgen
data_SrPr2Nd4FeBr12
_symmetry_space_group_name_H-M   'P 1'
_cell_length_a   9.71387660
_cell_length_b   9.70734905
_cell_length_c   9.35006200
_cell_angle_alpha   106.01796065
_cell_angle_beta   105.94286160
_cell_angle_gamma   106.57378806
_symmetry_Int_Tables_number   1
_chemical_formula_structural   SrPr2Nd4FeBr12
_chemical_formula_sum   'Sr1 Pr2 Nd4 Fe1 Br12'
_cell_volume   750.09693742
_cell_formula_units_Z   1
loop_
 _symmetry_equiv_pos_site_id
 _symmetry_equiv_pos_as_xyz
  1  'x, y, z'
loop_
 _atom_site_type_symbol
 _atom_site_label
 _atom_site_symmetry_multiplicity
 _atom_site_fract_x
 _atom_site_fract_y
 _atom_site_fract_z
 _atom_site_occupancy
  Sr  Sr0  1  0.501785  0.499524  0.498448  1
  Pr  Pr1  1  0.106347  0.312804  0.014856  1
  Pr  Pr2  1  0.311376  0.017712  0.107086  1
  Nd  Nd3  1  0.018196  0.095136  0.283737  1
  Nd  Nd4  1  0.980060  0.905881  0.716786  1
  Nd  Nd5  1  0.688578  0.981198  0.893892  1
  Nd  Nd6  1  0.893101  0.689256  0.985565  1
  Fe  Fe7  1  0.998981  0.999867  0.000113  1
  Br  Br8  1  0.211521  0.680735  0.074018  1
  Br  Br9  1  0.449076  0.359552  0.142898  1
  Br  Br10  1  0.684996  0.072247  0.217933  1
  Br  Br11  1  0.933483  0.790135  0.325827  1
  Br  Br12  1  0.154068  0.443713  0.365069  1
  Br  Br13  1  0.362346  0.154991  0.453876  1
  Br  Br14  1  0.635718  0.846982  0.548420  1
  Br  Br15  1  0.850020  0.558599  0.638428  1
  Br  Br16  1  0.069190  0.210143  0.673403  1
  Br  Br17  1  0.312502  0.925204  0.779736  1
  Br  Br18  1  0.553411  0.638809  0.854216  1
  Br  Br19  1  0.785243  0.317514  0.925694  1
