# generated using pymatgen
data_Nd3Th5(Nb3Si4)4
_symmetry_space_group_name_H-M   'P 1'
_cell_length_a   7.19872059
_cell_length_b   7.19718459
_cell_length_c   13.37920658
_cell_angle_alpha   90.03937249
_cell_angle_beta   89.96053377
_cell_angle_gamma   89.97552976
_symmetry_Int_Tables_number   1
_chemical_formula_structural   Nd3Th5(Nb3Si4)4
_chemical_formula_sum   'Nd3 Th5 Nb12 Si16'
_cell_volume   693.18327086
_cell_formula_units_Z   1
loop_
 _symmetry_equiv_pos_site_id
 _symmetry_equiv_pos_as_xyz
  1  'x, y, z'
loop_
 _atom_site_type_symbol
 _atom_site_label
 _atom_site_symmetry_multiplicity
 _atom_site_fract_x
 _atom_site_fract_y
 _atom_site_fract_z
 _atom_site_occupancy
  Nd  Nd0  1  0.497625  0.160134  0.533041  1
  Nd  Nd1  1  0.339644  0.998246  0.782688  1
  Nd  Nd2  1  0.660232  0.002273  0.283193  1
  Th  Th3  1  0.997709  0.338542  0.217735  1
  Th  Th4  1  0.002663  0.661180  0.717128  1
  Th  Th5  1  0.161419  0.497435  0.467466  1
  Th  Th6  1  0.502322  0.839292  0.032822  1
  Th  Th7  1  0.838829  0.502374  0.967598  1
  Nb  Nb8  1  0.170339  0.170810  0.000518  1
  Nb  Nb9  1  0.831101  0.827580  0.500434  1
  Nb  Nb10  1  0.328001  0.669131  0.249788  1
  Nb  Nb11  1  0.672245  0.331275  0.749925  1
  Nb  Nb12  1  0.155552  0.993041  0.374057  1
  Nb  Nb13  1  0.843110  0.006148  0.874422  1
  Nb  Nb14  1  0.507006  0.655592  0.624203  1
  Nb  Nb15  1  0.343955  0.493264  0.875583  1
  Nb  Nb16  1  0.493300  0.344435  0.123929  1
  Nb  Nb17  1  0.657271  0.508156  0.375158  1
  Nb  Nb18  1  0.991554  0.156903  0.625130  1
  Nb  Nb19  1  0.007098  0.843010  0.124924  1
  Si  Si20  1  0.290575  0.042678  0.187559  1
  Si  Si21  1  0.709107  0.957949  0.686487  1
  Si  Si22  1  0.457992  0.791125  0.436738  1
  Si  Si23  1  0.211575  0.543091  0.063612  1
  Si  Si24  1  0.541975  0.210556  0.935574  1
  Si  Si25  1  0.787348  0.455468  0.563122  1
  Si  Si26  1  0.044417  0.286934  0.813094  1
  Si  Si27  1  0.955849  0.712921  0.313565  1
  Si  Si28  1  0.374436  0.297673  0.314471  1
  Si  Si29  1  0.625900  0.702506  0.813979  1
  Si  Si30  1  0.202190  0.874216  0.564167  1
  Si  Si31  1  0.127980  0.799238  0.935034  1
  Si  Si32  1  0.798296  0.126604  0.064539  1
  Si  Si33  1  0.870195  0.200853  0.435917  1
  Si  Si34  1  0.299434  0.370717  0.685865  1
  Si  Si35  1  0.701753  0.628649  0.186534  1
