# generated using pymatgen
data_Nd16Cd4RuPt3
_symmetry_space_group_name_H-M   'P 1'
_cell_length_a   10.01868610
_cell_length_b   10.01868629
_cell_length_c   10.01868567
_cell_angle_alpha   59.76841138
_cell_angle_beta   59.76841320
_cell_angle_gamma   59.76841371
_symmetry_Int_Tables_number   1
_chemical_formula_structural   Nd16Cd4RuPt3
_chemical_formula_sum   'Nd16 Cd4 Ru1 Pt3'
_cell_volume   707.33906401
_cell_formula_units_Z   1
loop_
 _symmetry_equiv_pos_site_id
 _symmetry_equiv_pos_as_xyz
  1  'x, y, z'
loop_
 _atom_site_type_symbol
 _atom_site_label
 _atom_site_symmetry_multiplicity
 _atom_site_fract_x
 _atom_site_fract_y
 _atom_site_fract_z
 _atom_site_occupancy
  Nd  Nd0  1  0.350498  0.350498  0.350498  1
  Nd  Nd1  1  0.347946  0.347946  0.950841  1
  Nd  Nd2  1  0.347946  0.950841  0.347946  1
  Nd  Nd3  1  0.950841  0.347946  0.347946  1
  Nd  Nd4  1  0.815571  0.189443  0.189443  1
  Nd  Nd5  1  0.189718  0.808833  0.808833  1
  Nd  Nd6  1  0.189443  0.815571  0.189443  1
  Nd  Nd7  1  0.808833  0.189718  0.808833  1
  Nd  Nd8  1  0.189443  0.189443  0.815571  1
  Nd  Nd9  1  0.808833  0.808833  0.189718  1
  Nd  Nd10  1  0.937434  0.564034  0.564034  1
  Nd  Nd11  1  0.559704  0.937332  0.937332  1
  Nd  Nd12  1  0.564034  0.937434  0.564034  1
  Nd  Nd13  1  0.937332  0.559704  0.937332  1
  Nd  Nd14  1  0.564034  0.564034  0.937434  1
  Nd  Nd15  1  0.937332  0.937332  0.559704  1
  Cd  Cd16  1  0.579961  0.579961  0.579961  1
  Cd  Cd17  1  0.580239  0.580239  0.257852  1
  Cd  Cd18  1  0.580239  0.257852  0.580239  1
  Cd  Cd19  1  0.257852  0.580239  0.580239  1
  Ru  Ru20  1  0.142637  0.142637  0.142637  1
  Pt  Pt21  1  0.144086  0.144086  0.571957  1
  Pt  Pt22  1  0.144086  0.571957  0.144086  1
  Pt  Pt23  1  0.571957  0.144086  0.144086  1
