# generated using pymatgen
data_Y3Tm5(HgIr)2
_symmetry_space_group_name_H-M   'P 1'
_cell_length_a   9.53997104
_cell_length_b   9.53997085
_cell_length_c   9.53997000
_cell_angle_alpha   59.99999600
_cell_angle_beta   59.99999669
_cell_angle_gamma   59.99999310
_symmetry_Int_Tables_number   1
_chemical_formula_structural   Y3Tm5(HgIr)2
_chemical_formula_sum   'Y6 Tm10 Hg4 Ir4'
_cell_volume   613.94019597
_cell_formula_units_Z   2
loop_
 _symmetry_equiv_pos_site_id
 _symmetry_equiv_pos_as_xyz
  1  'x, y, z'
loop_
 _atom_site_type_symbol
 _atom_site_label
 _atom_site_symmetry_multiplicity
 _atom_site_fract_x
 _atom_site_fract_y
 _atom_site_fract_z
 _atom_site_occupancy
  Y  Y0  1  0.939875  0.560125  0.560125  1
  Y  Y1  1  0.560125  0.939875  0.939875  1
  Y  Y2  1  0.560125  0.939875  0.560125  1
  Y  Y3  1  0.939875  0.560125  0.939875  1
  Y  Y4  1  0.560125  0.560125  0.939875  1
  Y  Y5  1  0.939875  0.939875  0.560125  1
  Tm  Tm6  1  0.350049  0.350049  0.350049  1
  Tm  Tm7  1  0.350049  0.350049  0.949854  1
  Tm  Tm8  1  0.350049  0.949854  0.350049  1
  Tm  Tm9  1  0.949854  0.350049  0.350049  1
  Tm  Tm10  1  0.810682  0.189318  0.189318  1
  Tm  Tm11  1  0.189318  0.810682  0.810682  1
  Tm  Tm12  1  0.189318  0.810682  0.189318  1
  Tm  Tm13  1  0.810682  0.189318  0.810682  1
  Tm  Tm14  1  0.189318  0.189318  0.810682  1
  Tm  Tm15  1  0.810682  0.810682  0.189318  1
  Hg  Hg16  1  0.584000  0.584000  0.584000  1
  Hg  Hg17  1  0.584000  0.584000  0.248003  1
  Hg  Hg18  1  0.584000  0.248003  0.584000  1
  Hg  Hg19  1  0.248003  0.584000  0.584000  1
  Ir  Ir20  1  0.141917  0.141917  0.141917  1
  Ir  Ir21  1  0.141917  0.141917  0.574249  1
  Ir  Ir22  1  0.141917  0.574249  0.141917  1
  Ir  Ir23  1  0.574249  0.141917  0.141917  1
