# generated using pymatgen
data_Ho4MnNiC8
_symmetry_space_group_name_H-M   'P 1'
_cell_length_a   6.57398201
_cell_length_b   6.57398085
_cell_length_c   6.57398138
_cell_angle_alpha   134.80009316
_cell_angle_beta   110.33310028
_cell_angle_gamma   87.01280088
_symmetry_Int_Tables_number   1
_chemical_formula_structural   Ho4MnNiC8
_chemical_formula_sum   'Ho4 Mn1 Ni1 C8'
_cell_volume   180.92917174
_cell_formula_units_Z   1
loop_
 _symmetry_equiv_pos_site_id
 _symmetry_equiv_pos_as_xyz
  1  'x, y, z'
loop_
 _atom_site_type_symbol
 _atom_site_label
 _atom_site_symmetry_multiplicity
 _atom_site_fract_x
 _atom_site_fract_y
 _atom_site_fract_z
 _atom_site_occupancy
  Ho  Ho0  1  0.512322  0.355311  0.157416  1
  Ho  Ho1  1  0.487678  0.645094  0.842990  1
  Ho  Ho2  1  0.197894  0.854906  0.342584  1
  Ho  Ho3  1  0.802106  0.144689  0.657010  1
  Mn  Mn4  1  0.000000  0.750000  0.750000  1
  Ni  Ni5  1  0.000000  0.250000  0.250000  1
  C  C6  1  0.252148  0.050729  0.142602  1
  C  C7  1  0.747852  0.890455  0.798582  1
  C  C8  1  0.908128  0.609545  0.357398  1
  C  C9  1  0.091872  0.449271  0.701418  1
  C  C10  1  0.469268  0.132657  0.345434  1
  C  C11  1  0.530732  0.876165  0.663388  1
  C  C12  1  0.787223  0.623835  0.154566  1
  C  C13  1  0.212777  0.367343  0.836612  1
