# generated using pymatgen
data_Pr3CuIr8
_symmetry_space_group_name_H-M   'P 1'
_cell_length_a   9.27336270
_cell_length_b   9.27336208
_cell_length_c   9.27336206
_cell_angle_alpha   33.85944370
_cell_angle_beta   33.85945210
_cell_angle_gamma   33.85944566
_symmetry_Int_Tables_number   1
_chemical_formula_structural   Pr3CuIr8
_chemical_formula_sum   'Pr3 Cu1 Ir8'
_cell_volume   220.61104313
_cell_formula_units_Z   1
loop_
 _symmetry_equiv_pos_site_id
 _symmetry_equiv_pos_as_xyz
  1  'x, y, z'
loop_
 _atom_site_type_symbol
 _atom_site_label
 _atom_site_symmetry_multiplicity
 _atom_site_fract_x
 _atom_site_fract_y
 _atom_site_fract_z
 _atom_site_occupancy
  Pr  Pr0  1  0.858367  0.858367  0.858367  1
  Pr  Pr1  1  0.139006  0.139006  0.139006  1
  Pr  Pr2  1  0.999614  0.999614  0.999614  1
  Cu  Cu3  1  0.333311  0.333311  0.333311  1
  Ir  Ir4  1  0.417393  0.922836  0.417393  1
  Ir  Ir5  1  0.417393  0.417393  0.922836  1
  Ir  Ir6  1  0.922836  0.417393  0.417393  1
  Ir  Ir7  1  0.578517  0.085438  0.578517  1
  Ir  Ir8  1  0.578517  0.578517  0.085438  1
  Ir  Ir9  1  0.085438  0.578517  0.578517  1
  Ir  Ir10  1  0.667908  0.667908  0.667908  1
  Ir  Ir11  1  0.501698  0.501698  0.501698  1
