# generated using pymatgen
data_Cs2NaTbSb2
_symmetry_space_group_name_H-M   'P 1'
_cell_length_a   10.35941801
_cell_length_b   10.35941769
_cell_length_c   10.35941801
_cell_angle_alpha   136.49308224
_cell_angle_beta   63.14564288
_cell_angle_gamma   136.58817763
_symmetry_Int_Tables_number   1
_chemical_formula_structural   Cs2NaTbSb2
_chemical_formula_sum   'Cs4 Na2 Tb2 Sb4'
_cell_volume   519.31551311
_cell_formula_units_Z   2
loop_
 _symmetry_equiv_pos_site_id
 _symmetry_equiv_pos_as_xyz
  1  'x, y, z'
loop_
 _atom_site_type_symbol
 _atom_site_label
 _atom_site_symmetry_multiplicity
 _atom_site_fract_x
 _atom_site_fract_y
 _atom_site_fract_z
 _atom_site_occupancy
  Cs  Cs0  1  0.822835  0.225207  0.048043  1
  Cs  Cs1  1  0.677164  0.725207  0.402371  1
  Cs  Cs2  1  0.322835  0.274793  0.597628  1
  Cs  Cs3  1  0.177165  0.774794  0.951957  1
  Na  Na4  1  0.250000  0.250000  0.000000  1
  Na  Na5  1  0.750000  0.750000  0.000000  1
  Tb  Tb6  1  0.750000  0.250000  0.500000  1
  Tb  Tb7  1  0.250000  0.749999  0.500000  1
  Sb  Sb8  1  0.406696  0.774033  0.180728  1
  Sb  Sb9  1  0.093304  0.274033  0.367336  1
  Sb  Sb10  1  0.906695  0.725967  0.632663  1
  Sb  Sb11  1  0.593305  0.225967  0.819272  1
