# generated using pymatgen
data_CS27
_symmetry_space_group_name_H-M   'P 1'
_cell_length_a   14.86451515
_cell_length_b   14.86450951
_cell_length_c   14.86452242
_cell_angle_alpha   118.67335313
_cell_angle_beta   118.67342300
_cell_angle_gamma   118.67334093
_symmetry_Int_Tables_number   1
_chemical_formula_structural   CS27
_chemical_formula_sum   'C1 S27'
_cell_volume   976.51903635
_cell_formula_units_Z   1
loop_
 _symmetry_equiv_pos_site_id
 _symmetry_equiv_pos_as_xyz
  1  'x, y, z'
loop_
 _atom_site_type_symbol
 _atom_site_label
 _atom_site_symmetry_multiplicity
 _atom_site_fract_x
 _atom_site_fract_y
 _atom_site_fract_z
 _atom_site_occupancy
  C  C0  1  0.940356  0.940355  0.940355  1
  S  S1  1  0.801052  0.521156  0.521156  1
  S  S2  1  0.521153  0.521153  0.801050  1
  S  S3  1  0.521154  0.801050  0.521154  1
  S  S4  1  0.245471  0.376915  0.634049  1
  S  S5  1  0.349506  0.951998  0.349505  1
  S  S6  1  0.349506  0.349505  0.951999  1
  S  S7  1  0.951998  0.349505  0.349505  1
  S  S8  1  0.124750  0.740145  0.256008  1
  S  S9  1  0.256009  0.124750  0.740145  1
  S  S10  1  0.740144  0.256008  0.124749  1
  S  S11  1  0.740144  0.124749  0.256008  1
  S  S12  1  0.256009  0.740145  0.124750  1
  S  S13  1  0.124751  0.256010  0.740146  1
  S  S14  1  0.345678  0.879559  0.531135  1
  S  S15  1  0.531136  0.345678  0.879559  1
  S  S16  1  0.879558  0.531135  0.345678  1
  S  S17  1  0.879557  0.345677  0.531134  1
  S  S18  1  0.531136  0.879559  0.345678  1
  S  S19  1  0.345679  0.531135  0.879560  1
  S  S20  1  0.245470  0.634049  0.376915  1
  S  S21  1  0.376915  0.245471  0.634049  1
  S  S22  1  0.634050  0.376916  0.245472  1
  S  S23  1  0.634049  0.245471  0.376915  1
  S  S24  1  0.376916  0.634049  0.245471  1
  S  S25  1  0.865942  0.978605  0.978605  1
  S  S26  1  0.978605  0.978605  0.865942  1
  S  S27  1  0.978605  0.865943  0.978605  1
