# generated using pymatgen
data_Ba3Zr2PbO9
_symmetry_space_group_name_H-M   'P 1'
_cell_length_a   6.04765885
_cell_length_b   6.04765907
_cell_length_c   14.84331793
_cell_angle_alpha   89.73417913
_cell_angle_beta   89.73418133
_cell_angle_gamma   60.00373282
_symmetry_Int_Tables_number   1
_chemical_formula_structural   Ba3Zr2PbO9
_chemical_formula_sum   'Ba6 Zr4 Pb2 O18'
_cell_volume   470.16068262
_cell_formula_units_Z   2
loop_
 _symmetry_equiv_pos_site_id
 _symmetry_equiv_pos_as_xyz
  1  'x, y, z'
loop_
 _atom_site_type_symbol
 _atom_site_label
 _atom_site_symmetry_multiplicity
 _atom_site_fract_x
 _atom_site_fract_y
 _atom_site_fract_z
 _atom_site_occupancy
  Ba  Ba0  1  0.668279  0.668279  0.917584  1
  Ba  Ba1  1  0.999691  0.999691  0.248851  1
  Ba  Ba2  1  0.333552  0.333552  0.585375  1
  Ba  Ba3  1  0.000309  0.000309  0.751149  1
  Ba  Ba4  1  0.331721  0.331721  0.082416  1
  Ba  Ba5  1  0.666448  0.666448  0.414625  1
  Zr  Zr6  1  0.666296  0.666296  0.163979  1
  Zr  Zr7  1  0.000000  0.000000  0.500000  1
  Zr  Zr8  1  0.333704  0.333704  0.836021  1
  Zr  Zr9  1  0.000000  0.000000  0.000000  1
  Pb  Pb10  1  0.333313  0.333313  0.332150  1
  Pb  Pb11  1  0.666687  0.666687  0.667850  1
  O  O12  1  0.511598  0.511598  0.768036  1
  O  O13  1  0.845318  0.845318  0.094608  1
  O  O14  1  0.179444  0.179444  0.433540  1
  O  O15  1  0.154682  0.154682  0.905392  1
  O  O16  1  0.488402  0.488402  0.231964  1
  O  O17  1  0.820556  0.820556  0.566460  1
  O  O18  1  0.487460  0.978341  0.253922  1
  O  O19  1  0.819895  0.310483  0.590446  1
  O  O20  1  0.153787  0.654095  0.924353  1
  O  O21  1  0.345905  0.846213  0.075647  1
  O  O22  1  0.689517  0.180105  0.409554  1
  O  O23  1  0.021659  0.512540  0.746078  1
  O  O24  1  0.978341  0.487460  0.253922  1
  O  O25  1  0.310483  0.819895  0.590446  1
  O  O26  1  0.654095  0.153787  0.924353  1
  O  O27  1  0.846213  0.345905  0.075647  1
  O  O28  1  0.180105  0.689517  0.409554  1
  O  O29  1  0.512540  0.021659  0.746078  1
