# generated using pymatgen
data_Sc2CoNiSb2
_symmetry_space_group_name_H-M   'P 1'
_cell_length_a   7.48121142
_cell_length_b   7.48121187
_cell_length_c   7.48121273
_cell_angle_alpha   33.64252655
_cell_angle_beta   33.64252128
_cell_angle_gamma   33.64252273
_symmetry_Int_Tables_number   1
_chemical_formula_structural   Sc2CoNiSb2
_chemical_formula_sum   'Sc2 Co1 Ni1 Sb2'
_cell_volume   114.48650091
_cell_formula_units_Z   1
loop_
 _symmetry_equiv_pos_site_id
 _symmetry_equiv_pos_as_xyz
  1  'x, y, z'
loop_
 _atom_site_type_symbol
 _atom_site_label
 _atom_site_symmetry_multiplicity
 _atom_site_fract_x
 _atom_site_fract_y
 _atom_site_fract_z
 _atom_site_occupancy
  Sc  Sc0  1  0.248988  0.248988  0.248988  1
  Sc  Sc1  1  0.751151  0.751151  0.751151  1
  Co  Co2  1  0.874446  0.874446  0.874446  1
  Ni  Ni3  1  0.375668  0.375668  0.375668  1
  Sb  Sb4  1  0.998951  0.998951  0.998951  1
  Sb  Sb5  1  0.500798  0.500798  0.500798  1
