# generated using pymatgen
data_Na4Si12(AsP3)3
_symmetry_space_group_name_H-M   'P 1'
_cell_length_a   3.55330900
_cell_length_b   9.87782667
_cell_length_c   18.03602797
_cell_angle_alpha   90.51276185
_cell_angle_beta   90.00000000
_cell_angle_gamma   90.00000000
_symmetry_Int_Tables_number   1
_chemical_formula_structural   Na4Si12(AsP3)3
_chemical_formula_sum   'Na4 Si12 As3 P9'
_cell_volume   633.02066137
_cell_formula_units_Z   1
loop_
 _symmetry_equiv_pos_site_id
 _symmetry_equiv_pos_as_xyz
  1  'x, y, z'
loop_
 _atom_site_type_symbol
 _atom_site_label
 _atom_site_symmetry_multiplicity
 _atom_site_fract_x
 _atom_site_fract_y
 _atom_site_fract_z
 _atom_site_occupancy
  Na  Na0  1  0.000000  0.322215  0.304892  1
  Na  Na1  1  0.000000  0.674102  0.696920  1
  Na  Na2  1  0.000000  0.184579  0.802492  1
  Na  Na3  1  0.000000  0.814326  0.197153  1
  Si  Si4  1  0.500000  0.405105  0.034670  1
  Si  Si5  1  0.500000  0.597173  0.960101  1
  Si  Si6  1  0.500000  0.097411  0.537372  1
  Si  Si7  1  0.500000  0.902060  0.462617  1
  Si  Si8  1  0.000000  0.114677  0.015685  1
  Si  Si9  1  0.000000  0.885386  0.984952  1
  Si  Si10  1  0.000000  0.385935  0.515596  1
  Si  Si11  1  0.000000  0.613877  0.484533  1
  Si  Si12  1  0.000000  0.175885  0.141261  1
  Si  Si13  1  0.000000  0.822728  0.859617  1
  Si  Si14  1  0.000000  0.323494  0.640559  1
  Si  Si15  1  0.000000  0.675913  0.359522  1
  As  As16  1  0.500000  0.100082  0.214326  1
  As  As17  1  0.500000  0.896842  0.786040  1
  As  As18  1  0.000000  0.419942  0.121236  1
  P  P19  1  0.500000  0.390980  0.707970  1
  P  P20  1  0.500000  0.608127  0.292171  1
  P  P21  1  0.500000  0.281997  0.458865  1
  P  P22  1  0.500000  0.717730  0.541273  1
  P  P23  1  0.500000  0.215877  0.958316  1
  P  P24  1  0.500000  0.781563  0.040831  1
  P  P25  1  0.000000  0.592468  0.881082  1
  P  P26  1  0.000000  0.092874  0.616304  1
  P  P27  1  0.000000  0.906651  0.383645  1
