# generated using pymatgen
data_La4Ga14IrPt
_symmetry_space_group_name_H-M   'P 1'
_cell_length_a   6.19197605
_cell_length_b   6.17465582
_cell_length_c   11.47218100
_cell_angle_alpha   74.38843238
_cell_angle_beta   74.34351274
_cell_angle_gamma   89.99999945
_symmetry_Int_Tables_number   1
_chemical_formula_structural   La4Ga14IrPt
_chemical_formula_sum   'La4 Ga14 Ir1 Pt1'
_cell_volume   405.51514920
_cell_formula_units_Z   1
loop_
 _symmetry_equiv_pos_site_id
 _symmetry_equiv_pos_as_xyz
  1  'x, y, z'
loop_
 _atom_site_type_symbol
 _atom_site_label
 _atom_site_symmetry_multiplicity
 _atom_site_fract_x
 _atom_site_fract_y
 _atom_site_fract_z
 _atom_site_occupancy
  La  La0  1  0.995390  0.995390  0.009221  1
  La  La1  1  0.496203  0.496203  0.007592  1
  La  La2  1  0.749073  0.249073  0.501853  1
  La  La3  1  0.247506  0.747506  0.504990  1
  Ga  Ga4  1  0.200326  0.200326  0.599347  1
  Ga  Ga5  1  0.810581  0.810581  0.378838  1
  Ga  Ga6  1  0.615474  0.124944  0.252748  1
  Ga  Ga7  1  0.131776  0.622306  0.252748  1
  Ga  Ga8  1  0.615474  0.622306  0.252748  1
  Ga  Ga9  1  0.131776  0.124944  0.252748  1
  Ga  Ga10  1  0.875760  0.366574  0.751107  1
  Ga  Ga11  1  0.373133  0.882319  0.751107  1
  Ga  Ga12  1  0.875760  0.882319  0.751107  1
  Ga  Ga13  1  0.373133  0.366574  0.751107  1
  Ga  Ga14  1  0.693062  0.693062  0.613875  1
  Ga  Ga15  1  0.060508  0.560508  0.878984  1
  Ga  Ga16  1  0.448034  0.948034  0.103932  1
  Ga  Ga17  1  0.943497  0.443497  0.113009  1
  Ir  Ir18  1  0.314706  0.314706  0.370589  1
  Pt  Pt19  1  0.563659  0.063659  0.872683  1
