# generated using pymatgen
data_CdBi3IrRu3O14
_symmetry_space_group_name_H-M   'P 1'
_cell_length_a   7.26537590
_cell_length_b   7.26537637
_cell_length_c   7.26537662
_cell_angle_alpha   60.97800030
_cell_angle_beta   60.97800103
_cell_angle_gamma   60.97799310
_symmetry_Int_Tables_number   1
_chemical_formula_structural   CdBi3IrRu3O14
_chemical_formula_sum   'Cd1 Bi3 Ir1 Ru3 O14'
_cell_volume   277.15586477
_cell_formula_units_Z   1
loop_
 _symmetry_equiv_pos_site_id
 _symmetry_equiv_pos_as_xyz
  1  'x, y, z'
loop_
 _atom_site_type_symbol
 _atom_site_label
 _atom_site_symmetry_multiplicity
 _atom_site_fract_x
 _atom_site_fract_y
 _atom_site_fract_z
 _atom_site_occupancy
  Cd  Cd0  1  0.125000  0.125000  0.125000  1
  Bi  Bi1  1  0.125000  0.625000  0.125000  1
  Bi  Bi2  1  0.125000  0.125000  0.625000  1
  Bi  Bi3  1  0.625000  0.125000  0.125000  1
  Ir  Ir4  1  0.625000  0.625000  0.625000  1
  Ru  Ru5  1  0.625000  0.125000  0.625000  1
  Ru  Ru6  1  0.625000  0.625000  0.125000  1
  Ru  Ru7  1  0.125000  0.625000  0.625000  1
  O  O8  1  0.705685  0.705685  0.296604  1
  O  O9  1  0.953396  0.544315  0.544315  1
  O  O10  1  0.561093  0.948366  0.948366  1
  O  O11  1  0.948366  0.948366  0.561093  1
  O  O12  1  0.948366  0.561093  0.948366  1
  O  O13  1  0.544315  0.953396  0.544315  1
  O  O14  1  0.301634  0.688907  0.301634  1
  O  O15  1  0.296604  0.705685  0.705685  1
  O  O16  1  0.688907  0.301634  0.301634  1
  O  O17  1  0.705685  0.296604  0.705685  1
  O  O18  1  0.544315  0.544315  0.953396  1
  O  O19  1  0.301634  0.301634  0.688907  1
  O  O20  1  0.244803  0.244803  0.244803  1
  O  O21  1  0.005197  0.005197  0.005197  1
