# generated using pymatgen
data_Dy12Co3NiBiRu
_symmetry_space_group_name_H-M   'P 1'
_cell_length_a   8.33333898
_cell_length_b   8.33333895
_cell_length_c   8.33333931
_cell_angle_alpha   111.13380053
_cell_angle_beta   109.89867381
_cell_angle_gamma   107.40326195
_symmetry_Int_Tables_number   1
_chemical_formula_structural   Dy12Co3NiBiRu
_chemical_formula_sum   'Dy12 Co3 Ni1 Bi1 Ru1'
_cell_volume   445.00018709
_cell_formula_units_Z   1
loop_
 _symmetry_equiv_pos_site_id
 _symmetry_equiv_pos_as_xyz
  1  'x, y, z'
loop_
 _atom_site_type_symbol
 _atom_site_label
 _atom_site_symmetry_multiplicity
 _atom_site_fract_x
 _atom_site_fract_y
 _atom_site_fract_z
 _atom_site_occupancy
  Dy  Dy0  1  0.820585  0.711811  0.532396  1
  Dy  Dy1  1  0.182250  0.286049  0.468300  1
  Dy  Dy2  1  0.182250  0.713951  0.896200  1
  Dy  Dy3  1  0.820585  0.288189  0.108775  1
  Dy  Dy4  1  0.682678  0.373627  0.686753  1
  Dy  Dy5  1  0.313126  0.626373  0.309052  1
  Dy  Dy6  1  0.682678  0.995925  0.309052  1
  Dy  Dy7  1  0.313126  0.004075  0.686753  1
  Dy  Dy8  1  0.594066  0.787140  0.806927  1
  Dy  Dy9  1  0.404805  0.211952  0.192852  1
  Dy  Dy10  1  0.980900  0.788048  0.192852  1
  Dy  Dy11  1  0.019787  0.212860  0.806927  1
  Co  Co12  1  0.363291  0.000000  0.363291  1
  Co  Co13  1  0.114444  0.612427  0.502017  1
  Co  Co14  1  0.889590  0.387573  0.502017  1
  Ni  Ni15  1  0.635255  0.000000  0.635255  1
  Bi  Bi16  1  0.500956  0.500000  0.000956  1
  Ru  Ru17  1  0.999628  0.000000  0.999628  1
