# generated using pymatgen
data_Y2Tm3(GaSi)2
_symmetry_space_group_name_H-M   'P 1'
_cell_length_a   7.39146600
_cell_length_b   7.67410000
_cell_length_c   14.79190900
_cell_angle_alpha   90.00000000
_cell_angle_beta   90.00000000
_cell_angle_gamma   90.00000000
_symmetry_Int_Tables_number   1
_chemical_formula_structural   Y2Tm3(GaSi)2
_chemical_formula_sum   'Y8 Tm12 Ga8 Si8'
_cell_volume   839.03922404
_cell_formula_units_Z   4
loop_
 _symmetry_equiv_pos_site_id
 _symmetry_equiv_pos_as_xyz
  1  'x, y, z'
loop_
 _atom_site_type_symbol
 _atom_site_label
 _atom_site_symmetry_multiplicity
 _atom_site_fract_x
 _atom_site_fract_y
 _atom_site_fract_z
 _atom_site_occupancy
  Y  Y0  1  0.013491  0.178614  0.099776  1
  Y  Y1  1  0.986509  0.821386  0.900224  1
  Y  Y2  1  0.486509  0.678614  0.900224  1
  Y  Y3  1  0.986509  0.821386  0.599776  1
  Y  Y4  1  0.513491  0.321386  0.099776  1
  Y  Y5  1  0.013491  0.178614  0.400224  1
  Y  Y6  1  0.513491  0.321386  0.400224  1
  Y  Y7  1  0.486509  0.678614  0.599776  1
  Tm  Tm8  1  0.163607  0.507458  0.750000  1
  Tm  Tm9  1  0.836393  0.492542  0.250000  1
  Tm  Tm10  1  0.336393  0.007458  0.250000  1
  Tm  Tm11  1  0.663607  0.992542  0.750000  1
  Tm  Tm12  1  0.329551  0.174611  0.623445  1
  Tm  Tm13  1  0.670449  0.825389  0.376555  1
  Tm  Tm14  1  0.170449  0.674611  0.376555  1
  Tm  Tm15  1  0.670449  0.825389  0.123445  1
  Tm  Tm16  1  0.829551  0.325389  0.623445  1
  Tm  Tm17  1  0.329551  0.174611  0.876555  1
  Tm  Tm18  1  0.829551  0.325389  0.876555  1
  Tm  Tm19  1  0.170449  0.674611  0.123445  1
  Ga  Ga20  1  0.159885  0.467349  0.539766  1
  Ga  Ga21  1  0.840115  0.532651  0.460234  1
  Ga  Ga22  1  0.340115  0.967349  0.460234  1
  Ga  Ga23  1  0.840115  0.532651  0.039766  1
  Ga  Ga24  1  0.659885  0.032651  0.539766  1
  Ga  Ga25  1  0.159885  0.467349  0.960234  1
  Ga  Ga26  1  0.659885  0.032651  0.960234  1
  Ga  Ga27  1  0.340115  0.967349  0.039766  1
  Si  Si28  1  0.034099  0.106167  0.750000  1
  Si  Si29  1  0.965901  0.893833  0.250000  1
  Si  Si30  1  0.465901  0.606167  0.250000  1
  Si  Si31  1  0.534099  0.393833  0.750000  1
  Si  Si32  1  0.278647  0.875156  0.750000  1
  Si  Si33  1  0.721353  0.124844  0.250000  1
  Si  Si34  1  0.221353  0.375156  0.250000  1
  Si  Si35  1  0.778647  0.624844  0.750000  1
