# generated using pymatgen
data_Er4TmLu3Au4
_symmetry_space_group_name_H-M   'P 1'
_cell_length_a   4.85220200
_cell_length_b   7.05373955
_cell_length_c   8.83510949
_cell_angle_alpha   90.15740460
_cell_angle_beta   90.00000000
_cell_angle_gamma   90.00000000
_symmetry_Int_Tables_number   1
_chemical_formula_structural   Er4TmLu3Au4
_chemical_formula_sum   'Er4 Tm1 Lu3 Au4'
_cell_volume   302.39081083
_cell_formula_units_Z   1
loop_
 _symmetry_equiv_pos_site_id
 _symmetry_equiv_pos_as_xyz
  1  'x, y, z'
loop_
 _atom_site_type_symbol
 _atom_site_label
 _atom_site_symmetry_multiplicity
 _atom_site_fract_x
 _atom_site_fract_y
 _atom_site_fract_z
 _atom_site_occupancy
  Er  Er0  1  0.750000  0.649449  0.422551  1
  Er  Er1  1  0.250000  0.482564  0.177958  1
  Er  Er2  1  0.250000  0.983935  0.321859  1
  Er  Er3  1  0.750000  0.516933  0.822003  1
  Tm  Tm4  1  0.750000  0.017430  0.678446  1
  Lu  Lu5  1  0.250000  0.850757  0.922869  1
  Lu  Lu6  1  0.250000  0.350564  0.577617  1
  Lu  Lu7  1  0.750000  0.149256  0.076711  1
  Au  Au8  1  0.250000  0.255059  0.897678  1
  Au  Au9  1  0.250000  0.756000  0.603355  1
  Au  Au10  1  0.750000  0.745002  0.101014  1
  Au  Au11  1  0.750000  0.243050  0.397940  1
