# generated using pymatgen
data_Dy3Al12Ru3Rh
_symmetry_space_group_name_H-M   'P 1'
_cell_length_a   8.79400648
_cell_length_b   8.79400634
_cell_length_c   9.55159400
_cell_angle_alpha   90.00000000
_cell_angle_beta   90.00000000
_cell_angle_gamma   119.43609902
_symmetry_Int_Tables_number   1
_chemical_formula_structural   Dy3Al12Ru3Rh
_chemical_formula_sum   'Dy6 Al24 Ru6 Rh2'
_cell_volume   643.30935580
_cell_formula_units_Z   2
loop_
 _symmetry_equiv_pos_site_id
 _symmetry_equiv_pos_as_xyz
  1  'x, y, z'
loop_
 _atom_site_type_symbol
 _atom_site_label
 _atom_site_symmetry_multiplicity
 _atom_site_fract_x
 _atom_site_fract_y
 _atom_site_fract_z
 _atom_site_occupancy
  Dy  Dy0  1  0.194602  0.805398  0.250000  1
  Dy  Dy1  1  0.189996  0.386280  0.250000  1
  Dy  Dy2  1  0.613720  0.810004  0.250000  1
  Dy  Dy3  1  0.805398  0.194602  0.750000  1
  Dy  Dy4  1  0.810004  0.613720  0.750000  1
  Dy  Dy5  1  0.386280  0.189996  0.750000  1
  Al  Al6  1  0.561171  0.438829  0.250000  1
  Al  Al7  1  0.560572  0.122496  0.250000  1
  Al  Al8  1  0.877504  0.439428  0.250000  1
  Al  Al9  1  0.438829  0.561171  0.750000  1
  Al  Al10  1  0.439428  0.877504  0.750000  1
  Al  Al11  1  0.122496  0.560572  0.750000  1
  Al  Al12  1  0.323856  0.161214  0.422032  1
  Al  Al13  1  0.837091  0.162909  0.422480  1
  Al  Al14  1  0.838786  0.676144  0.422032  1
  Al  Al15  1  0.676144  0.838786  0.577968  1
  Al  Al16  1  0.162909  0.837091  0.577520  1
  Al  Al17  1  0.161214  0.323856  0.577968  1
  Al  Al18  1  0.676144  0.838786  0.922032  1
  Al  Al19  1  0.162909  0.837091  0.922480  1
  Al  Al20  1  0.161214  0.323856  0.922032  1
  Al  Al21  1  0.323856  0.161214  0.077968  1
  Al  Al22  1  0.837091  0.162909  0.077520  1
  Al  Al23  1  0.838786  0.676144  0.077968  1
  Al  Al24  1  0.667884  0.332116  0.518124  1
  Al  Al25  1  0.332116  0.667884  0.481876  1
  Al  Al26  1  0.332116  0.667884  0.018124  1
  Al  Al27  1  0.667884  0.332116  0.981876  1
  Al  Al28  1  0.999460  0.000540  0.250000  1
  Al  Al29  1  0.000540  0.999460  0.750000  1
  Ru  Ru30  1  0.000000  0.000000  0.500000  1
  Ru  Ru31  1  0.000000  0.000000  0.000000  1
  Ru  Ru32  1  0.500000  0.000000  0.500000  1
  Ru  Ru33  1  0.000000  0.500000  0.500000  1
  Ru  Ru34  1  0.500000  0.000000  0.000000  1
  Ru  Ru35  1  0.000000  0.500000  0.000000  1
  Rh  Rh36  1  0.500000  0.500000  0.500000  1
  Rh  Rh37  1  0.500000  0.500000  0.000000  1
