# generated using pymatgen
data_Ho9Ga(Co2Pd)2
_symmetry_space_group_name_H-M   'P 1'
_cell_length_a   7.21600146
_cell_length_b   7.21600130
_cell_length_c   8.42025468
_cell_angle_alpha   115.37181262
_cell_angle_beta   115.37181676
_cell_angle_gamma   89.99999964
_symmetry_Int_Tables_number   1
_chemical_formula_structural   Ho9Ga(Co2Pd)2
_chemical_formula_sum   'Ho9 Ga1 Co4 Pd2'
_cell_volume   348.77772225
_cell_formula_units_Z   1
loop_
 _symmetry_equiv_pos_site_id
 _symmetry_equiv_pos_as_xyz
  1  'x, y, z'
loop_
 _atom_site_type_symbol
 _atom_site_label
 _atom_site_symmetry_multiplicity
 _atom_site_fract_x
 _atom_site_fract_y
 _atom_site_fract_z
 _atom_site_occupancy
  Ho  Ho0  1  0.000000  0.000000  0.000000  1
  Ho  Ho1  1  0.474325  0.318809  0.265556  1
  Ho  Ho2  1  0.946749  0.474325  0.265556  1
  Ho  Ho3  1  0.318809  0.791231  0.265556  1
  Ho  Ho4  1  0.791231  0.946749  0.265556  1
  Ho  Ho5  1  0.208768  0.053252  0.734443  1
  Ho  Ho6  1  0.681190  0.208768  0.734443  1
  Ho  Ho7  1  0.053252  0.525674  0.734443  1
  Ho  Ho8  1  0.525674  0.681190  0.734443  1
  Ga  Ga9  1  0.500000  0.500000  0.000000  1
  Co  Co10  1  0.622660  0.128677  0.000000  1
  Co  Co11  1  0.128677  0.377341  0.000000  1
  Co  Co12  1  0.871323  0.622660  0.000000  1
  Co  Co13  1  0.377341  0.871323  0.000000  1
  Pd  Pd14  1  0.241452  0.241452  0.482904  1
  Pd  Pd15  1  0.758548  0.758548  0.517096  1
