# generated using pymatgen
data_Ac4Sb(AsO2)2
_symmetry_space_group_name_H-M   'P 1'
_cell_length_a   7.61345028
_cell_length_b   7.61344957
_cell_length_c   8.51079000
_cell_angle_alpha   87.57550638
_cell_angle_beta   92.42449339
_cell_angle_gamma   147.78410800
_symmetry_Int_Tables_number   1
_chemical_formula_structural   Ac4Sb(AsO2)2
_chemical_formula_sum   'Ac4 Sb1 As2 O4'
_cell_volume   262.74174043
_cell_formula_units_Z   1
loop_
 _symmetry_equiv_pos_site_id
 _symmetry_equiv_pos_as_xyz
  1  'x, y, z'
loop_
 _atom_site_type_symbol
 _atom_site_label
 _atom_site_symmetry_multiplicity
 _atom_site_fract_x
 _atom_site_fract_y
 _atom_site_fract_z
 _atom_site_occupancy
  Ac  Ac0  1  0.313450  0.686550  0.749899  1
  Ac  Ac1  1  0.326730  0.673270  0.231327  1
  Ac  Ac2  1  0.986143  0.013857  0.509806  1
  Ac  Ac3  1  0.999941  0.000059  0.994968  1
  Sb  Sb4  1  0.634427  0.365573  0.287734  1
  As  As5  1  0.621868  0.378132  0.743017  1
  As  As6  1  0.700334  0.299666  0.999161  1
  O  O7  1  0.395246  0.604754  0.500675  1
  O  O8  1  0.412491  0.587509  0.990859  1
  O  O9  1  0.898697  0.101303  0.747826  1
  O  O10  1  0.911884  0.088116  0.244730  1
