# generated using pymatgen
data_Tb5YCuRh17
_symmetry_space_group_name_H-M   'P 1'
_cell_length_a   5.29142808
_cell_length_b   5.29205392
_cell_length_c   17.40120500
_cell_angle_alpha   89.99988827
_cell_angle_beta   89.99988990
_cell_angle_gamma   119.98899759
_symmetry_Int_Tables_number   1
_chemical_formula_structural   Tb5YCuRh17
_chemical_formula_sum   'Tb5 Y1 Cu1 Rh17'
_cell_volume   422.04159134
_cell_formula_units_Z   1
loop_
 _symmetry_equiv_pos_site_id
 _symmetry_equiv_pos_as_xyz
  1  'x, y, z'
loop_
 _atom_site_type_symbol
 _atom_site_label
 _atom_site_symmetry_multiplicity
 _atom_site_fract_x
 _atom_site_fract_y
 _atom_site_fract_z
 _atom_site_occupancy
  Tb  Tb0  1  0.333333  0.666696  0.957859  1
  Tb  Tb1  1  0.666665  0.333321  0.042058  1
  Tb  Tb2  1  0.666669  0.333326  0.457935  1
  Tb  Tb3  1  0.333330  0.666651  0.749976  1
  Tb  Tb4  1  0.666678  0.333327  0.250002  1
  Y  Y5  1  0.333333  0.666702  0.542163  1
  Cu  Cu6  1  0.333365  0.666678  0.249998  1
  Rh  Rh7  1  0.168542  0.831447  0.373388  1
  Rh  Rh8  1  0.168529  0.337056  0.373376  1
  Rh  Rh9  1  0.662917  0.831448  0.373391  1
  Rh  Rh10  1  0.832930  0.167048  0.624955  1
  Rh  Rh11  1  0.832942  0.665898  0.624965  1
  Rh  Rh12  1  0.334100  0.167049  0.624958  1
  Rh  Rh13  1  0.832904  0.167076  0.875032  1
  Rh  Rh14  1  0.832916  0.665851  0.875021  1
  Rh  Rh15  1  0.334154  0.167074  0.875028  1
  Rh  Rh16  1  0.168572  0.831425  0.126627  1
  Rh  Rh17  1  0.168559  0.337108  0.126639  1
  Rh  Rh18  1  0.662864  0.831424  0.126624  1
  Rh  Rh19  1  0.666668  0.333310  0.749987  1
  Rh  Rh20  1  0.999988  0.999968  0.249990  1
  Rh  Rh21  1  0.000018  0.000070  0.749958  1
  Rh  Rh22  1  0.000013  0.000026  0.497896  1
  Rh  Rh23  1  0.000010  0.000021  0.002173  1
