# generated using pymatgen
data_LiEr9(Bi3C)2
_symmetry_space_group_name_H-M   'P 1'
_cell_length_a   9.02599400
_cell_length_b   9.02599391
_cell_length_c   6.41734400
_cell_angle_alpha   90.00000000
_cell_angle_beta   90.00000000
_cell_angle_gamma   120.00000031
_symmetry_Int_Tables_number   1
_chemical_formula_structural   LiEr9(Bi3C)2
_chemical_formula_sum   'Li1 Er9 Bi6 C2'
_cell_volume   452.76831532
_cell_formula_units_Z   1
loop_
 _symmetry_equiv_pos_site_id
 _symmetry_equiv_pos_as_xyz
  1  'x, y, z'
loop_
 _atom_site_type_symbol
 _atom_site_label
 _atom_site_symmetry_multiplicity
 _atom_site_fract_x
 _atom_site_fract_y
 _atom_site_fract_z
 _atom_site_occupancy
  Li  Li0  1  0.666667  0.333333  0.000000  1
  Er  Er1  1  0.333333  0.666667  0.000000  1
  Er  Er2  1  0.333333  0.666667  0.500000  1
  Er  Er3  1  0.666667  0.333333  0.500000  1
  Er  Er4  1  0.791530  0.791957  0.750077  1
  Er  Er5  1  0.208043  0.999573  0.750077  1
  Er  Er6  1  0.000427  0.208470  0.750077  1
  Er  Er7  1  0.208043  0.208470  0.249923  1
  Er  Er8  1  0.791530  0.999573  0.249923  1
  Er  Er9  1  0.000427  0.791957  0.249923  1
  Bi  Bi10  1  0.404615  0.401238  0.753696  1
  Bi  Bi11  1  0.598762  0.003377  0.753696  1
  Bi  Bi12  1  0.996623  0.595385  0.753696  1
  Bi  Bi13  1  0.598762  0.595385  0.246304  1
  Bi  Bi14  1  0.404615  0.003377  0.246304  1
  Bi  Bi15  1  0.996623  0.401238  0.246304  1
  C  C16  1  0.000000  0.000000  0.000000  1
  C  C17  1  0.000000  0.000000  0.500000  1
