# generated using pymatgen
data_KLiHgSe2
_symmetry_space_group_name_H-M   'P 1'
_cell_length_a   7.77038648
_cell_length_b   7.77038654
_cell_length_c   7.77038642
_cell_angle_alpha   147.38544084
_cell_angle_beta   147.38544893
_cell_angle_gamma   46.79340708
_symmetry_Int_Tables_number   1
_chemical_formula_structural   KLiHgSe2
_chemical_formula_sum   'K1 Li1 Hg1 Se2'
_cell_volume   135.79514581
_cell_formula_units_Z   1
loop_
 _symmetry_equiv_pos_site_id
 _symmetry_equiv_pos_as_xyz
  1  'x, y, z'
loop_
 _atom_site_type_symbol
 _atom_site_label
 _atom_site_symmetry_multiplicity
 _atom_site_fract_x
 _atom_site_fract_y
 _atom_site_fract_z
 _atom_site_occupancy
  K  K0  1  0.000000  0.000000  0.000000  1
  Li  Li1  1  0.750000  0.250000  0.500000  1
  Hg  Hg2  1  0.250000  0.750000  0.500000  1
  Se  Se3  1  0.636230  0.636230  0.000000  1
  Se  Se4  1  0.363770  0.363770  0.000000  1
