# generated using pymatgen
data_NdSm5Cd23Ge
_symmetry_space_group_name_H-M   'P 1'
_cell_length_a   10.05266843
_cell_length_b   10.05266728
_cell_length_c   10.04255700
_cell_angle_alpha   60.03326045
_cell_angle_beta   60.03326423
_cell_angle_gamma   59.93347015
_symmetry_Int_Tables_number   1
_chemical_formula_structural   NdSm5Cd23Ge
_chemical_formula_sum   'Nd1 Sm5 Cd23 Ge1'
_cell_volume   717.61429241
_cell_formula_units_Z   1
loop_
 _symmetry_equiv_pos_site_id
 _symmetry_equiv_pos_as_xyz
  1  'x, y, z'
loop_
 _atom_site_type_symbol
 _atom_site_label
 _atom_site_symmetry_multiplicity
 _atom_site_fract_x
 _atom_site_fract_y
 _atom_site_fract_z
 _atom_site_occupancy
  Nd  Nd0  1  0.793155  0.793155  0.206845  1
  Sm  Sm1  1  0.206642  0.793588  0.206412  1
  Sm  Sm2  1  0.793588  0.206642  0.206412  1
  Sm  Sm3  1  0.205887  0.205887  0.794113  1
  Sm  Sm4  1  0.793588  0.206642  0.793358  1
  Sm  Sm5  1  0.206642  0.793588  0.793358  1
  Cd  Cd6  1  0.836422  0.836422  0.492741  1
  Cd  Cd7  1  0.835851  0.491086  0.836530  1
  Cd  Cd8  1  0.491086  0.835851  0.836530  1
  Cd  Cd9  1  0.836422  0.836422  0.834413  1
  Cd  Cd10  1  0.163470  0.163470  0.508914  1
  Cd  Cd11  1  0.165587  0.507259  0.163578  1
  Cd  Cd12  1  0.507259  0.165587  0.163578  1
  Cd  Cd13  1  0.163470  0.163470  0.164149  1
  Cd  Cd14  1  0.622317  0.622317  0.132472  1
  Cd  Cd15  1  0.621201  0.133417  0.622692  1
  Cd  Cd16  1  0.133417  0.621201  0.622692  1
  Cd  Cd17  1  0.622317  0.622317  0.622896  1
  Cd  Cd18  1  0.377308  0.377308  0.866583  1
  Cd  Cd19  1  0.377104  0.867528  0.377683  1
  Cd  Cd20  1  0.867528  0.377104  0.377683  1
  Cd  Cd21  1  0.377308  0.377308  0.378799  1
  Cd  Cd22  1  0.000225  0.000225  0.499775  1
  Cd  Cd23  1  0.499876  0.000262  0.500124  1
  Cd  Cd24  1  0.000262  0.499876  0.500124  1
  Cd  Cd25  1  0.500225  0.500225  0.999775  1
  Cd  Cd26  1  0.000262  0.499876  0.999738  1
  Cd  Cd27  1  0.499876  0.000262  0.999738  1
  Cd  Cd28  1  0.500475  0.500475  0.499525  1
  Ge  Ge29  1  0.001231  0.001231  0.998769  1
