# generated using pymatgen
data_Dy2Y4MnB14Os
_symmetry_space_group_name_H-M   'P 1'
_cell_length_a   8.06263003
_cell_length_b   8.06263001
_cell_length_c   9.32447603
_cell_angle_alpha   89.99035831
_cell_angle_beta   90.00964166
_cell_angle_gamma   155.00594620
_symmetry_Int_Tables_number   1
_chemical_formula_structural   Dy2Y4MnB14Os
_chemical_formula_sum   'Dy2 Y4 Mn1 B14 Os1'
_cell_volume   256.11173800
_cell_formula_units_Z   1
loop_
 _symmetry_equiv_pos_site_id
 _symmetry_equiv_pos_as_xyz
  1  'x, y, z'
loop_
 _atom_site_type_symbol
 _atom_site_label
 _atom_site_symmetry_multiplicity
 _atom_site_fract_x
 _atom_site_fract_y
 _atom_site_fract_z
 _atom_site_occupancy
  Dy  Dy0  1  0.894743  0.105257  0.442437  1
  Dy  Dy1  1  0.104674  0.895326  0.563645  1
  Y  Y2  1  0.894669  0.105331  0.057687  1
  Y  Y3  1  0.104739  0.895261  0.936173  1
  Y  Y4  1  0.244101  0.755899  0.250031  1
  Y  Y5  1  0.759254  0.240746  0.749978  1
  Mn  Mn6  1  0.946953  0.053047  0.749917  1
  B  B7  1  0.727074  0.272926  0.466420  1
  B  B8  1  0.272325  0.727675  0.533906  1
  B  B9  1  0.727082  0.272918  0.033608  1
  B  B10  1  0.272316  0.727684  0.966074  1
  B  B11  1  0.631748  0.368252  0.150318  1
  B  B12  1  0.370151  0.629849  0.846272  1
  B  B13  1  0.631744  0.368256  0.349778  1
  B  B14  1  0.370157  0.629843  0.653639  1
  B  B15  1  0.520530  0.479470  0.095768  1
  B  B16  1  0.478238  0.521762  0.901447  1
  B  B17  1  0.520525  0.479475  0.404272  1
  B  B18  1  0.478237  0.521763  0.598515  1
  B  B19  1  0.456963  0.543037  0.250080  1
  B  B20  1  0.539844  0.460156  0.749928  1
  Os  Os21  1  0.053932  0.946068  0.250107  1
