# generated using pymatgen
data_KCe(ReH9)2
_symmetry_space_group_name_H-M   'P 1'
_cell_length_a   4.96482200
_cell_length_b   4.96482252
_cell_length_c   9.54580000
_cell_angle_alpha   90.00000000
_cell_angle_beta   90.00000000
_cell_angle_gamma   120.00000986
_symmetry_Int_Tables_number   1
_chemical_formula_structural   KCe(ReH9)2
_chemical_formula_sum   'K1 Ce1 Re2 H18'
_cell_volume   203.77473184
_cell_formula_units_Z   1
loop_
 _symmetry_equiv_pos_site_id
 _symmetry_equiv_pos_as_xyz
  1  'x, y, z'
loop_
 _atom_site_type_symbol
 _atom_site_label
 _atom_site_symmetry_multiplicity
 _atom_site_fract_x
 _atom_site_fract_y
 _atom_site_fract_z
 _atom_site_occupancy
  K  K0  1  0.000000  0.000000  0.000000  1
  Ce  Ce1  1  0.000000  0.000000  0.500000  1
  Re  Re2  1  0.333333  0.666667  0.275764  1
  Re  Re3  1  0.666667  0.333333  0.724236  1
  H  H4  1  0.481957  0.518043  0.399229  1
  H  H5  1  0.481957  0.963914  0.399229  1
  H  H6  1  0.036086  0.518043  0.399229  1
  H  H7  1  0.934290  0.467145  0.852812  1
  H  H8  1  0.138612  0.277224  0.263038  1
  H  H9  1  0.861388  0.138612  0.736962  1
  H  H10  1  0.277224  0.138612  0.736962  1
  H  H11  1  0.722776  0.861388  0.263038  1
  H  H12  1  0.138612  0.861388  0.263038  1
  H  H13  1  0.861388  0.722776  0.736962  1
  H  H14  1  0.467145  0.934290  0.147188  1
  H  H15  1  0.518043  0.481957  0.600771  1
  H  H16  1  0.963914  0.481957  0.600771  1
  H  H17  1  0.065710  0.532855  0.147188  1
  H  H18  1  0.467145  0.532855  0.147188  1
  H  H19  1  0.532855  0.065710  0.852812  1
  H  H20  1  0.532855  0.467145  0.852812  1
  H  H21  1  0.518043  0.036086  0.600771  1
