# generated using pymatgen
data_Li3Dy3HgP2
_symmetry_space_group_name_H-M   'P 1'
_cell_length_a   7.01782100
_cell_length_b   7.01782139
_cell_length_c   4.12927500
_cell_angle_alpha   90.00000000
_cell_angle_beta   90.00000000
_cell_angle_gamma   119.99999347
_symmetry_Int_Tables_number   1
_chemical_formula_structural   Li3Dy3HgP2
_chemical_formula_sum   'Li3 Dy3 Hg1 P2'
_cell_volume   176.12015719
_cell_formula_units_Z   1
loop_
 _symmetry_equiv_pos_site_id
 _symmetry_equiv_pos_as_xyz
  1  'x, y, z'
loop_
 _atom_site_type_symbol
 _atom_site_label
 _atom_site_symmetry_multiplicity
 _atom_site_fract_x
 _atom_site_fract_y
 _atom_site_fract_z
 _atom_site_occupancy
  Li  Li0  1  0.745457  0.745457  0.500000  1
  Li  Li1  1  0.254543  0.000000  0.500000  1
  Li  Li2  1  0.000000  0.254543  0.500000  1
  Dy  Dy3  1  0.434209  0.434209  0.000000  1
  Dy  Dy4  1  0.565791  0.000000  0.000000  1
  Dy  Dy5  1  0.000000  0.565791  0.000000  1
  Hg  Hg6  1  0.000000  0.000000  0.000000  1
  P  P7  1  0.666667  0.333333  0.500000  1
  P  P8  1  0.333333  0.666667  0.500000  1
