# generated using pymatgen
data_Tb3Dy16TmSn16
_symmetry_space_group_name_H-M   'P 1'
_cell_length_a   8.03644807
_cell_length_b   8.18074123
_cell_length_c   15.46126915
_cell_angle_alpha   90.00498669
_cell_angle_beta   90.01530976
_cell_angle_gamma   89.94903144
_symmetry_Int_Tables_number   1
_chemical_formula_structural   Tb3Dy16TmSn16
_chemical_formula_sum   'Tb3 Dy16 Tm1 Sn16'
_cell_volume   1016.48681520
_cell_formula_units_Z   1
loop_
 _symmetry_equiv_pos_site_id
 _symmetry_equiv_pos_as_xyz
  1  'x, y, z'
loop_
 _atom_site_type_symbol
 _atom_site_label
 _atom_site_symmetry_multiplicity
 _atom_site_fract_x
 _atom_site_fract_y
 _atom_site_fract_z
 _atom_site_occupancy
  Tb  Tb0  1  0.979880  0.820187  0.402338  1
  Tb  Tb1  1  0.519970  0.320635  0.597860  1
  Tb  Tb2  1  0.020345  0.179902  0.902126  1
  Dy  Dy3  1  0.367277  0.836249  0.877859  1
  Dy  Dy4  1  0.867817  0.663332  0.622129  1
  Dy  Dy5  1  0.632496  0.163664  0.378137  1
  Dy  Dy6  1  0.132544  0.336403  0.121502  1
  Dy  Dy7  1  0.632491  0.163631  0.121814  1
  Dy  Dy8  1  0.132550  0.336365  0.378508  1
  Dy  Dy9  1  0.367210  0.836295  0.622167  1
  Dy  Dy10  1  0.867827  0.663341  0.877909  1
  Dy  Dy11  1  0.520044  0.320692  0.902027  1
  Dy  Dy12  1  0.020383  0.179909  0.598005  1
  Dy  Dy13  1  0.479946  0.679690  0.402461  1
  Dy  Dy14  1  0.979819  0.820197  0.097770  1
  Dy  Dy15  1  0.479931  0.679699  0.097495  1
  Dy  Dy16  1  0.698534  0.997755  0.749982  1
  Dy  Dy17  1  0.801091  0.497475  0.249975  1
  Dy  Dy18  1  0.301173  0.002467  0.249928  1
  Tm  Tm19  1  0.199113  0.502833  0.750035  1
  Sn  Sn20  1  0.292755  0.035360  0.041737  1
  Sn  Sn21  1  0.792535  0.464076  0.458291  1
  Sn  Sn22  1  0.707391  0.964247  0.542109  1
  Sn  Sn23  1  0.207629  0.535542  0.957367  1
  Sn  Sn24  1  0.707223  0.964082  0.958022  1
  Sn  Sn25  1  0.207283  0.535580  0.542606  1
  Sn  Sn26  1  0.292827  0.035681  0.458387  1
  Sn  Sn27  1  0.792419  0.464162  0.041634  1
  Sn  Sn28  1  0.564250  0.618432  0.750014  1
  Sn  Sn29  1  0.065471  0.880459  0.750001  1
  Sn  Sn30  1  0.434449  0.381220  0.249971  1
  Sn  Sn31  1  0.934822  0.119081  0.249995  1
  Sn  Sn32  1  0.328222  0.148197  0.750073  1
  Sn  Sn33  1  0.829409  0.353821  0.749935  1
  Sn  Sn34  1  0.671117  0.853342  0.249944  1
  Sn  Sn35  1  0.171755  0.645998  0.249885  1
