# generated using pymatgen
data_Nd6PuIO16
_symmetry_space_group_name_H-M   'P 1'
_cell_length_a   6.28587100
_cell_length_b   7.51491817
_cell_length_c   7.51617700
_cell_angle_alpha   69.48178879
_cell_angle_beta   90.00000000
_cell_angle_gamma   90.00000000
_symmetry_Int_Tables_number   1
_chemical_formula_structural   Nd6PuIO16
_chemical_formula_sum   'Nd6 Pu1 I1 O16'
_cell_volume   332.52378031
_cell_formula_units_Z   1
loop_
 _symmetry_equiv_pos_site_id
 _symmetry_equiv_pos_as_xyz
  1  'x, y, z'
loop_
 _atom_site_type_symbol
 _atom_site_label
 _atom_site_symmetry_multiplicity
 _atom_site_fract_x
 _atom_site_fract_y
 _atom_site_fract_z
 _atom_site_occupancy
  Nd  Nd0  1  0.750000  0.109146  0.671499  1
  Nd  Nd1  1  0.250000  0.885659  0.332551  1
  Nd  Nd2  1  0.250000  0.397230  0.397219  1
  Nd  Nd3  1  0.750000  0.601347  0.601361  1
  Nd  Nd4  1  0.250000  0.332429  0.885626  1
  Nd  Nd5  1  0.750000  0.671615  0.109161  1
  Pu  Pu6  1  0.750000  0.183001  0.182936  1
  I  I7  1  0.250000  0.817575  0.817638  1
  O  O8  1  0.001758  0.337214  0.661264  1
  O  O9  1  0.498217  0.661283  0.337234  1
  O  O10  1  0.001783  0.661283  0.337234  1
  O  O11  1  0.498242  0.337214  0.661264  1
  O  O12  1  0.949692  0.809835  0.809863  1
  O  O13  1  0.437645  0.192549  0.192525  1
  O  O14  1  0.062355  0.192549  0.192525  1
  O  O15  1  0.550308  0.809835  0.809863  1
  O  O16  1  0.750000  0.957181  0.430290  1
  O  O17  1  0.250000  0.030307  0.583450  1
  O  O18  1  0.750000  0.343586  0.343534  1
  O  O19  1  0.250000  0.662878  0.662943  1
  O  O20  1  0.750000  0.430394  0.957183  1
  O  O21  1  0.250000  0.583334  0.030322  1
  O  O22  1  0.750000  0.022742  0.022581  1
  O  O23  1  0.250000  0.969813  0.969932  1
