# generated using pymatgen
data_RbAc9(IrO6)4
_symmetry_space_group_name_H-M   'P 1'
_cell_length_a   7.89345219
_cell_length_b   7.89345195
_cell_length_c   10.70759200
_cell_angle_alpha   111.62877535
_cell_angle_beta   111.62877464
_cell_angle_gamma   90.00000093
_symmetry_Int_Tables_number   1
_chemical_formula_structural   RbAc9(IrO6)4
_chemical_formula_sum   'Rb1 Ac9 Ir4 O24'
_cell_volume   569.34453836
_cell_formula_units_Z   1
loop_
 _symmetry_equiv_pos_site_id
 _symmetry_equiv_pos_as_xyz
  1  'x, y, z'
loop_
 _atom_site_type_symbol
 _atom_site_label
 _atom_site_symmetry_multiplicity
 _atom_site_fract_x
 _atom_site_fract_y
 _atom_site_fract_z
 _atom_site_occupancy
  Rb  Rb0  1  0.499885  0.499887  0.999770  1
  Ac  Ac1  1  0.999993  0.999958  0.999966  1
  Ac  Ac2  1  0.460518  0.328419  0.288179  1
  Ac  Ac3  1  0.959729  0.459700  0.287709  1
  Ac  Ac4  1  0.327944  0.828037  0.287693  1
  Ac  Ac5  1  0.827464  0.959715  0.288148  1
  Ac  Ac6  1  0.171967  0.040489  0.711987  1
  Ac  Ac7  1  0.671866  0.172435  0.712059  1
  Ac  Ac8  1  0.040236  0.539516  0.712020  1
  Ac  Ac9  1  0.540071  0.671359  0.711986  1
  Ir  Ir10  1  0.499922  0.999965  0.999857  1
  Ir  Ir11  1  0.000114  0.500134  0.000240  1
  Ir  Ir12  1  0.239640  0.239544  0.479068  1
  Ir  Ir13  1  0.760379  0.760411  0.520884  1
  O  O14  1  0.293561  0.134993  0.999843  1
  O  O15  1  0.865227  0.293445  0.000109  1
  O  O16  1  0.134870  0.706709  0.000094  1
  O  O17  1  0.706241  0.864829  0.999878  1
  O  O18  1  0.686218  0.216065  0.170734  1
  O  O19  1  0.216357  0.484397  0.170486  1
  O  O20  1  0.954161  0.686214  0.170542  1
  O  O21  1  0.484343  0.954775  0.170742  1
  O  O22  1  0.128951  0.128863  0.257729  1
  O  O23  1  0.650888  0.650959  0.301575  1
  O  O24  1  0.477778  0.176142  0.468452  1
  O  O25  1  0.990799  0.292239  0.468300  1
  O  O26  1  0.292779  0.477554  0.468236  1
  O  O27  1  0.175298  0.990767  0.468073  1
  O  O28  1  0.823989  0.009912  0.531834  1
  O  O29  1  0.707857  0.521792  0.531752  1
  O  O30  1  0.008207  0.706937  0.531815  1
  O  O31  1  0.523490  0.824846  0.531845  1
  O  O32  1  0.349267  0.349102  0.698415  1
  O  O33  1  0.870938  0.871005  0.742135  1
  O  O34  1  0.515631  0.045572  0.829282  1
  O  O35  1  0.045870  0.314143  0.829661  1
  O  O36  1  0.783835  0.515459  0.829734  1
  O  O37  1  0.313723  0.783712  0.829173  1
