# generated using pymatgen
data_Tb4YbHoSi24Os5Ru3
_symmetry_space_group_name_H-M   'P 1'
_cell_length_a   10.13457109
_cell_length_b   10.13457223
_cell_length_c   8.16686678
_cell_angle_alpha   89.99867872
_cell_angle_beta   89.99870564
_cell_angle_gamma   132.45331045
_symmetry_Int_Tables_number   1
_chemical_formula_structural   Tb4YbHoSi24Os5Ru3
_chemical_formula_sum   'Tb4 Yb1 Ho1 Si24 Os5 Ru3'
_cell_volume   618.90098772
_cell_formula_units_Z   1
loop_
 _symmetry_equiv_pos_site_id
 _symmetry_equiv_pos_as_xyz
  1  'x, y, z'
loop_
 _atom_site_type_symbol
 _atom_site_label
 _atom_site_symmetry_multiplicity
 _atom_site_fract_x
 _atom_site_fract_y
 _atom_site_fract_z
 _atom_site_occupancy
  Tb  Tb0  1  0.501788  0.001459  0.749975  1
  Tb  Tb1  1  0.998338  0.498408  0.250055  1
  Tb  Tb2  1  0.498408  0.998338  0.250055  1
  Tb  Tb3  1  0.001459  0.501787  0.749974  1
  Yb  Yb4  1  0.999901  0.999901  0.999506  1
  Ho  Ho5  1  0.499551  0.499551  0.499978  1
  Si  Si6  1  0.796557  0.203596  0.500180  1
  Si  Si7  1  0.296774  0.703148  0.000106  1
  Si  Si8  1  0.203596  0.796557  0.500181  1
  Si  Si9  1  0.703148  0.296774  0.000106  1
  Si  Si10  1  0.331881  0.331881  0.834624  1
  Si  Si11  1  0.668362  0.668362  0.165790  1
  Si  Si12  1  0.165124  0.165124  0.330070  1
  Si  Si13  1  0.832278  0.832278  0.667272  1
  Si  Si14  1  0.122259  0.889626  0.730466  1
  Si  Si15  1  0.110959  0.879026  0.269853  1
  Si  Si16  1  0.609790  0.377147  0.228639  1
  Si  Si17  1  0.623518  0.390340  0.771455  1
  Si  Si18  1  0.879026  0.110959  0.269853  1
  Si  Si19  1  0.889626  0.122260  0.730466  1
  Si  Si20  1  0.390340  0.623519  0.771455  1
  Si  Si21  1  0.377147  0.609790  0.228639  1
  Si  Si22  1  0.345571  0.112472  0.505612  1
  Si  Si23  1  0.887277  0.654916  0.495030  1
  Si  Si24  1  0.385568  0.153665  0.006640  1
  Si  Si25  1  0.846368  0.614913  0.993773  1
  Si  Si26  1  0.654916  0.887277  0.495030  1
  Si  Si27  1  0.112472  0.345571  0.505612  1
  Si  Si28  1  0.614913  0.846368  0.993773  1
  Si  Si29  1  0.153665  0.385568  0.006640  1
  Os  Os30  1  0.669973  0.330063  0.499788  1
  Os  Os31  1  0.170958  0.828993  0.000124  1
  Os  Os32  1  0.330063  0.669973  0.499788  1
  Os  Os33  1  0.828993  0.170959  0.000123  1
  Os  Os34  1  0.127529  0.127528  0.625418  1
  Ru  Ru35  1  0.872183  0.872183  0.374172  1
  Ru  Ru36  1  0.374508  0.374508  0.128139  1
  Ru  Ru37  1  0.625217  0.625216  0.871638  1
