# generated using pymatgen
data_Li8GaSi5Pd2
_symmetry_space_group_name_H-M   'P 1'
_cell_length_a   5.94366100
_cell_length_b   5.94366100
_cell_length_c   6.04805300
_cell_angle_alpha   90.00000000
_cell_angle_beta   90.00000000
_cell_angle_gamma   90.00000000
_symmetry_Int_Tables_number   1
_chemical_formula_structural   Li8GaSi5Pd2
_chemical_formula_sum   'Li8 Ga1 Si5 Pd2'
_cell_volume   213.66020993
_cell_formula_units_Z   1
loop_
 _symmetry_equiv_pos_site_id
 _symmetry_equiv_pos_as_xyz
  1  'x, y, z'
loop_
 _atom_site_type_symbol
 _atom_site_label
 _atom_site_symmetry_multiplicity
 _atom_site_fract_x
 _atom_site_fract_y
 _atom_site_fract_z
 _atom_site_occupancy
  Li  Li0  1  0.251586  0.748414  0.241055  1
  Li  Li1  1  0.748414  0.251586  0.241055  1
  Li  Li2  1  0.251586  0.251586  0.758945  1
  Li  Li3  1  0.000000  0.000000  0.000000  1
  Li  Li4  1  0.000000  0.500000  0.500000  1
  Li  Li5  1  0.748414  0.748414  0.758945  1
  Li  Li6  1  0.500000  0.000000  0.500000  1
  Li  Li7  1  0.500000  0.500000  0.000000  1
  Ga  Ga8  1  0.000000  0.000000  0.500000  1
  Si  Si9  1  0.254516  0.254516  0.241540  1
  Si  Si10  1  0.500000  0.500000  0.500000  1
  Si  Si11  1  0.745484  0.254516  0.758460  1
  Si  Si12  1  0.745484  0.745484  0.241540  1
  Si  Si13  1  0.254516  0.745484  0.758460  1
  Pd  Pd14  1  0.000000  0.500000  0.000000  1
  Pd  Pd15  1  0.500000  0.000000  0.000000  1
