# generated using pymatgen
data_ErLu15In6CoAu
_symmetry_space_group_name_H-M   'P 1'
_cell_length_a   10.30173900
_cell_length_b   10.30173903
_cell_length_c   6.79428800
_cell_angle_alpha   90.00000000
_cell_angle_beta   90.00000000
_cell_angle_gamma   119.99999669
_symmetry_Int_Tables_number   1
_chemical_formula_structural   ErLu15In6CoAu
_chemical_formula_sum   'Er1 Lu15 In6 Co1 Au1'
_cell_volume   624.44714546
_cell_formula_units_Z   1
loop_
 _symmetry_equiv_pos_site_id
 _symmetry_equiv_pos_as_xyz
  1  'x, y, z'
loop_
 _atom_site_type_symbol
 _atom_site_label
 _atom_site_symmetry_multiplicity
 _atom_site_fract_x
 _atom_site_fract_y
 _atom_site_fract_z
 _atom_site_occupancy
  Er  Er0  1  0.000000  0.000000  0.276233  1
  Lu  Lu1  1  0.524765  0.049529  0.797261  1
  Lu  Lu2  1  0.950471  0.475235  0.797261  1
  Lu  Lu3  1  0.524765  0.475235  0.797261  1
  Lu  Lu4  1  0.465223  0.930447  0.294120  1
  Lu  Lu5  1  0.069553  0.534777  0.294120  1
  Lu  Lu6  1  0.465223  0.534777  0.294120  1
  Lu  Lu7  1  0.826372  0.652744  0.501169  1
  Lu  Lu8  1  0.347256  0.173628  0.501169  1
  Lu  Lu9  1  0.826372  0.173628  0.501169  1
  Lu  Lu10  1  0.178272  0.356542  0.005012  1
  Lu  Lu11  1  0.643458  0.821728  0.005012  1
  Lu  Lu12  1  0.178272  0.821728  0.005012  1
  Lu  Lu13  1  0.666667  0.333333  0.156214  1
  Lu  Lu14  1  0.333333  0.666667  0.684070  1
  Lu  Lu15  1  0.000000  0.000000  0.776026  1
  In  In16  1  0.837258  0.674517  0.032010  1
  In  In17  1  0.325483  0.162742  0.032010  1
  In  In18  1  0.837258  0.162742  0.032010  1
  In  In19  1  0.163185  0.326370  0.539079  1
  In  In20  1  0.673630  0.836815  0.539079  1
  In  In21  1  0.163185  0.836815  0.539079  1
  Co  Co22  1  0.333333  0.666667  0.070711  1
  Au  Au23  1  0.666667  0.333333  0.566699  1
