# generated using pymatgen
data_Ho2ErIn3Hg2Pd
_symmetry_space_group_name_H-M   'P 1'
_cell_length_a   7.74299697
_cell_length_b   7.75256368
_cell_length_c   4.11039400
_cell_angle_alpha   90.00000000
_cell_angle_beta   90.00000000
_cell_angle_gamma   120.04087725
_symmetry_Int_Tables_number   1
_chemical_formula_structural   Ho2ErIn3Hg2Pd
_chemical_formula_sum   'Ho2 Er1 In3 Hg2 Pd1'
_cell_volume   213.59421215
_cell_formula_units_Z   1
loop_
 _symmetry_equiv_pos_site_id
 _symmetry_equiv_pos_as_xyz
  1  'x, y, z'
loop_
 _atom_site_type_symbol
 _atom_site_label
 _atom_site_symmetry_multiplicity
 _atom_site_fract_x
 _atom_site_fract_y
 _atom_site_fract_z
 _atom_site_occupancy
  Ho  Ho0  1  0.397023  0.999929  0.500000  1
  Ho  Ho1  1  0.602977  0.602906  0.500000  1
  Er  Er2  1  0.000000  0.396507  0.500000  1
  In  In3  1  0.248118  0.248461  0.000000  1
  In  In4  1  0.751882  0.000342  0.000000  1
  In  In5  1  0.000000  0.751570  0.000000  1
  Hg  Hg6  1  0.667146  0.333503  0.000000  1
  Hg  Hg7  1  0.332854  0.666357  0.000000  1
  Pd  Pd8  1  0.000000  0.000425  0.500000  1
