# generated using pymatgen
data_CaLa7Ho2Si8O3
_symmetry_space_group_name_H-M   'P 1'
_cell_length_a   10.76198300
_cell_length_b   10.76198270
_cell_length_c   4.54989700
_cell_angle_alpha   90.00000000
_cell_angle_beta   90.00000000
_cell_angle_gamma   119.99770445
_symmetry_Int_Tables_number   1
_chemical_formula_structural   CaLa7Ho2Si8O3
_chemical_formula_sum   'Ca1 La7 Ho2 Si8 O3'
_cell_volume   456.38024137
_cell_formula_units_Z   1
loop_
 _symmetry_equiv_pos_site_id
 _symmetry_equiv_pos_as_xyz
  1  'x, y, z'
loop_
 _atom_site_type_symbol
 _atom_site_label
 _atom_site_symmetry_multiplicity
 _atom_site_fract_x
 _atom_site_fract_y
 _atom_site_fract_z
 _atom_site_occupancy
  Ca  Ca0  1  0.500000  0.500000  0.500000  1
  La  La1  1  0.211546  0.788454  0.000000  1
  La  La2  1  0.574778  0.781881  0.000000  1
  La  La3  1  0.781881  0.574778  0.000000  1
  La  La4  1  0.000000  0.000000  0.000000  1
  La  La5  1  0.218119  0.425222  0.000000  1
  La  La6  1  0.425222  0.218119  0.000000  1
  La  La7  1  0.788454  0.211546  0.000000  1
  Ho  Ho8  1  0.000000  0.500000  0.500000  1
  Ho  Ho9  1  0.500000  0.000000  0.500000  1
  Si  Si10  1  0.999686  0.776095  0.500000  1
  Si  Si11  1  0.000314  0.223905  0.500000  1
  Si  Si12  1  0.217954  0.217954  0.500000  1
  Si  Si13  1  0.776095  0.999686  0.500000  1
  Si  Si14  1  0.329712  0.670288  0.500000  1
  Si  Si15  1  0.223905  0.000314  0.500000  1
  Si  Si16  1  0.670288  0.329712  0.500000  1
  Si  Si17  1  0.782046  0.782046  0.500000  1
  O  O18  1  0.000000  0.500000  0.000000  1
  O  O19  1  0.500000  0.500000  0.000000  1
  O  O20  1  0.500000  0.000000  0.000000  1
