# generated using pymatgen
data_Nb4B4Os3Ru
_symmetry_space_group_name_H-M   'P 1'
_cell_length_a   3.11687200
_cell_length_b   9.08900900
_cell_length_c   15.88022000
_cell_angle_alpha   89.99728719
_cell_angle_beta   90.00000000
_cell_angle_gamma   90.00000000
_symmetry_Int_Tables_number   1
_chemical_formula_structural   Nb4B4Os3Ru
_chemical_formula_sum   'Nb12 B12 Os9 Ru3'
_cell_volume   449.87516143
_cell_formula_units_Z   3
loop_
 _symmetry_equiv_pos_site_id
 _symmetry_equiv_pos_as_xyz
  1  'x, y, z'
loop_
 _atom_site_type_symbol
 _atom_site_label
 _atom_site_symmetry_multiplicity
 _atom_site_fract_x
 _atom_site_fract_y
 _atom_site_fract_z
 _atom_site_occupancy
  Nb  Nb0  1  0.000000  0.799828  0.495266  1
  Nb  Nb1  1  0.000000  0.200085  0.504581  1
  Nb  Nb2  1  0.000000  0.300148  0.004685  1
  Nb  Nb3  1  0.000000  0.700242  0.995946  1
  Nb  Nb4  1  0.000000  0.514748  0.594323  1
  Nb  Nb5  1  0.000000  0.485226  0.405439  1
  Nb  Nb6  1  0.000000  0.015782  0.905639  1
  Nb  Nb7  1  0.000000  0.985009  0.094157  1
  Nb  Nb8  1  0.000000  0.687017  0.202620  1
  Nb  Nb9  1  0.000000  0.312842  0.797504  1
  Nb  Nb10  1  0.000000  0.187040  0.297454  1
  Nb  Nb11  1  0.000000  0.812550  0.702362  1
  B  B12  1  0.500000  0.603686  0.497865  1
  B  B13  1  0.500000  0.396227  0.502002  1
  B  B14  1  0.500000  0.104464  0.002206  1
  B  B15  1  0.500000  0.896186  0.997343  1
  B  B16  1  0.000000  0.609331  0.832173  1
  B  B17  1  0.000000  0.390446  0.167774  1
  B  B18  1  0.000000  0.109400  0.667595  1
  B  B19  1  0.000000  0.890813  0.332291  1
  B  B20  1  0.500000  0.715439  0.597851  1
  B  B21  1  0.500000  0.284730  0.402004  1
  B  B22  1  0.500000  0.216073  0.902265  1
  B  B23  1  0.500000  0.784508  0.098469  1
  Os  Os24  1  0.500000  0.780566  0.855692  1
  Os  Os25  1  0.500000  0.514958  0.094446  1
  Os  Os26  1  0.500000  0.484516  0.906002  1
  Os  Os27  1  0.500000  0.015146  0.405687  1
  Os  Os28  1  0.500000  0.984938  0.594169  1
  Os  Os29  1  0.500000  0.560771  0.734921  1
  Os  Os30  1  0.500000  0.438049  0.264933  1
  Os  Os31  1  0.500000  0.061852  0.764875  1
  Os  Os32  1  0.500000  0.938032  0.235003  1
  Ru  Ru33  1  0.500000  0.719735  0.355441  1
  Ru  Ru34  1  0.500000  0.280135  0.644416  1
  Ru  Ru35  1  0.500000  0.219482  0.144601  1
