# generated using pymatgen
data_MgAl6Fe5Rh12
_symmetry_space_group_name_H-M   'P 1'
_cell_length_a   4.27601801
_cell_length_b   6.00937600
_cell_length_c   12.83150902
_cell_angle_alpha   90.00000000
_cell_angle_beta   89.99364957
_cell_angle_gamma   90.00000000
_symmetry_Int_Tables_number   1
_chemical_formula_structural   MgAl6Fe5Rh12
_chemical_formula_sum   'Mg1 Al6 Fe5 Rh12'
_cell_volume   329.72101984
_cell_formula_units_Z   1
loop_
 _symmetry_equiv_pos_site_id
 _symmetry_equiv_pos_as_xyz
  1  'x, y, z'
loop_
 _atom_site_type_symbol
 _atom_site_label
 _atom_site_symmetry_multiplicity
 _atom_site_fract_x
 _atom_site_fract_y
 _atom_site_fract_z
 _atom_site_occupancy
  Mg  Mg0  1  0.000000  0.500001  0.000000  1
  Al  Al1  1  0.000000  0.000000  0.000000  1
  Al  Al2  1  0.499756  0.500001  0.166512  1
  Al  Al3  1  0.999702  0.000000  0.334061  1
  Al  Al4  1  0.500000  0.500001  0.500000  1
  Al  Al5  1  0.000298  0.000000  0.665939  1
  Al  Al6  1  0.500242  0.500001  0.833488  1
  Fe  Fe7  1  0.499713  0.000000  0.166913  1
  Fe  Fe8  1  0.999713  0.500001  0.333753  1
  Fe  Fe9  1  0.500000  0.000000  0.500000  1
  Fe  Fe10  1  0.000288  0.500001  0.666247  1
  Fe  Fe11  1  0.500286  0.000000  0.833087  1
  Rh  Rh12  1  0.500000  0.242770  0.000000  1
  Rh  Rh13  1  0.500000  0.757229  0.000000  1
  Rh  Rh14  1  0.999730  0.247315  0.170349  1
  Rh  Rh15  1  0.999730  0.752687  0.170349  1
  Rh  Rh16  1  0.499738  0.250031  0.334216  1
  Rh  Rh17  1  0.499738  0.749969  0.334216  1
  Rh  Rh18  1  0.000000  0.250836  0.500000  1
  Rh  Rh19  1  0.000000  0.749166  0.500000  1
  Rh  Rh20  1  0.500263  0.250031  0.665783  1
  Rh  Rh21  1  0.500263  0.749969  0.665783  1
  Rh  Rh22  1  0.000271  0.247315  0.829652  1
  Rh  Rh23  1  0.000271  0.752687  0.829652  1
