# generated using pymatgen
data_Tm8Mg2Sc9Si16Mo
_symmetry_space_group_name_H-M   'P 1'
_cell_length_a   6.92693069
_cell_length_b   7.32666822
_cell_length_c   13.80830600
_cell_angle_alpha   90.00000000
_cell_angle_beta   90.00000000
_cell_angle_gamma   89.67233352
_symmetry_Int_Tables_number   1
_chemical_formula_structural   Tm8Mg2Sc9Si16Mo
_chemical_formula_sum   'Tm8 Mg2 Sc9 Si16 Mo1'
_cell_volume   700.77833818
_cell_formula_units_Z   1
loop_
 _symmetry_equiv_pos_site_id
 _symmetry_equiv_pos_as_xyz
  1  'x, y, z'
loop_
 _atom_site_type_symbol
 _atom_site_label
 _atom_site_symmetry_multiplicity
 _atom_site_fract_x
 _atom_site_fract_y
 _atom_site_fract_z
 _atom_site_occupancy
  Tm  Tm0  1  0.013131  0.177477  0.097759  1
  Tm  Tm1  1  0.988343  0.820265  0.904992  1
  Tm  Tm2  1  0.485816  0.677303  0.907115  1
  Tm  Tm3  1  0.988343  0.820265  0.595008  1
  Tm  Tm4  1  0.510159  0.318231  0.098532  1
  Tm  Tm5  1  0.013131  0.177477  0.402241  1
  Tm  Tm6  1  0.510159  0.318231  0.401468  1
  Tm  Tm7  1  0.485816  0.677303  0.592885  1
  Mg  Mg8  1  0.155223  0.504328  0.750000  1
  Mg  Mg9  1  0.843494  0.492777  0.250000  1
  Sc  Sc10  1  0.656291  0.995894  0.750000  1
  Sc  Sc11  1  0.325151  0.177978  0.623558  1
  Sc  Sc12  1  0.674687  0.825521  0.372012  1
  Sc  Sc13  1  0.172485  0.678799  0.373353  1
  Sc  Sc14  1  0.674687  0.825521  0.127988  1
  Sc  Sc15  1  0.828687  0.325429  0.624913  1
  Sc  Sc16  1  0.325151  0.177978  0.876442  1
  Sc  Sc17  1  0.828687  0.325429  0.875087  1
  Sc  Sc18  1  0.172485  0.678799  0.126647  1
  Si  Si19  1  0.026916  0.101009  0.750000  1
  Si  Si20  1  0.982182  0.908522  0.250000  1
  Si  Si21  1  0.465060  0.618116  0.250000  1
  Si  Si22  1  0.530750  0.387985  0.750000  1
  Si  Si23  1  0.286437  0.876727  0.750000  1
  Si  Si24  1  0.707807  0.121613  0.250000  1
  Si  Si25  1  0.226521  0.361770  0.250000  1
  Si  Si26  1  0.773672  0.632414  0.750000  1
  Si  Si27  1  0.157922  0.461356  0.532672  1
  Si  Si28  1  0.838437  0.536764  0.463658  1
  Si  Si29  1  0.345161  0.967795  0.452822  1
  Si  Si30  1  0.838437  0.536764  0.036342  1
  Si  Si31  1  0.659255  0.033683  0.537244  1
  Si  Si32  1  0.157922  0.461356  0.967328  1
  Si  Si33  1  0.659255  0.033683  0.962756  1
  Si  Si34  1  0.345161  0.967795  0.047178  1
  Mo  Mo35  1  0.347180  0.997640  0.250000  1
