# generated using pymatgen
data_Ru(SeBr)4
_symmetry_space_group_name_H-M   'P 1'
_cell_length_a   9.75935500
_cell_length_b   10.21295404
_cell_length_c   12.48779841
_cell_angle_alpha   73.32290157
_cell_angle_beta   90.00000000
_cell_angle_gamma   90.00000000
_symmetry_Int_Tables_number   1
_chemical_formula_structural   Ru(SeBr)4
_chemical_formula_sum   'Ru4 Se16 Br16'
_cell_volume   1192.32718775
_cell_formula_units_Z   4
loop_
 _symmetry_equiv_pos_site_id
 _symmetry_equiv_pos_as_xyz
  1  'x, y, z'
loop_
 _atom_site_type_symbol
 _atom_site_label
 _atom_site_symmetry_multiplicity
 _atom_site_fract_x
 _atom_site_fract_y
 _atom_site_fract_z
 _atom_site_occupancy
  Ru  Ru0  1  0.802687  0.056226  0.781528  1
  Ru  Ru1  1  0.302687  0.943774  0.218472  1
  Ru  Ru2  1  0.672138  0.311394  0.713888  1
  Ru  Ru3  1  0.172138  0.688606  0.286112  1
  Se  Se4  1  0.790198  0.493406  0.783680  1
  Se  Se5  1  0.290198  0.506594  0.216320  1
  Se  Se6  1  0.399527  0.013871  0.882878  1
  Se  Se7  1  0.899527  0.986129  0.117122  1
  Se  Se8  1  0.972698  0.155636  0.207427  1
  Se  Se9  1  0.472698  0.844364  0.792573  1
  Se  Se10  1  0.307839  0.160985  0.709681  1
  Se  Se11  1  0.807839  0.839015  0.290319  1
  Se  Se12  1  0.511222  0.219033  0.606459  1
  Se  Se13  1  0.011222  0.780967  0.393541  1
  Se  Se14  1  0.868071  0.244031  0.627258  1
  Se  Se15  1  0.368071  0.755969  0.372742  1
  Se  Se16  1  0.643235  0.968309  0.673364  1
  Se  Se17  1  0.143235  0.031691  0.326636  1
  Se  Se18  1  0.642706  0.142436  0.885877  1
  Se  Se19  1  0.142706  0.857564  0.114123  1
  Br  Br20  1  0.484211  0.074084  0.302201  1
  Br  Br21  1  0.984211  0.925916  0.697799  1
  Br  Br22  1  0.008336  0.132730  0.882235  1
  Br  Br23  1  0.508336  0.867270  0.117765  1
  Br  Br24  1  0.802740  0.201608  0.452760  1
  Br  Br25  1  0.302740  0.798392  0.547240  1
  Br  Br26  1  0.810298  0.414658  0.985202  1
  Br  Br27  1  0.310298  0.585342  0.014798  1
  Br  Br28  1  0.494482  0.451279  0.789592  1
  Br  Br29  1  0.994482  0.548721  0.210408  1
  Br  Br30  1  0.029139  0.509877  0.734986  1
  Br  Br31  1  0.529139  0.490123  0.265014  1
  Br  Br32  1  0.699935  0.543057  0.554455  1
  Br  Br33  1  0.199935  0.456943  0.445545  1
  Br  Br34  1  0.803538  0.835548  0.947760  1
  Br  Br35  1  0.303538  0.164452  0.052240  1
