# generated using pymatgen
data_Dy3Tm5Tl2InPbAu8
_symmetry_space_group_name_H-M   'P 1'
_cell_length_a   8.00736317
_cell_length_b   8.00937904
_cell_length_c   7.29125800
_cell_angle_alpha   89.99380499
_cell_angle_beta   90.01174914
_cell_angle_gamma   90.19204679
_symmetry_Int_Tables_number   1
_chemical_formula_structural   Dy3Tm5Tl2InPbAu8
_chemical_formula_sum   'Dy3 Tm5 Tl2 In1 Pb1 Au8'
_cell_volume   467.61495018
_cell_formula_units_Z   1
loop_
 _symmetry_equiv_pos_site_id
 _symmetry_equiv_pos_as_xyz
  1  'x, y, z'
loop_
 _atom_site_type_symbol
 _atom_site_label
 _atom_site_symmetry_multiplicity
 _atom_site_fract_x
 _atom_site_fract_y
 _atom_site_fract_z
 _atom_site_occupancy
  Dy  Dy0  1  0.842743  0.158777  0.501023  1
  Dy  Dy1  1  0.156456  0.840648  0.501001  1
  Dy  Dy2  1  0.341238  0.343517  0.999006  1
  Tm  Tm3  1  0.658784  0.656067  0.998929  1
  Tm  Tm4  1  0.682216  0.679967  0.501006  1
  Tm  Tm5  1  0.318304  0.320599  0.500970  1
  Tm  Tm6  1  0.179809  0.817981  0.999102  1
  Tm  Tm7  1  0.820153  0.182038  0.999091  1
  Tl  Tl8  1  0.000002  0.500135  0.750068  1
  Tl  Tl9  1  0.500116  0.999913  0.750120  1
  In  In10  1  0.000035  0.500162  0.249922  1
  Pb  Pb11  1  0.500072  0.999959  0.249855  1
  Au  Au12  1  0.633026  0.377863  0.273114  1
  Au  Au13  1  0.368601  0.623914  0.273245  1
  Au  Au14  1  0.127723  0.126688  0.773995  1
  Au  Au15  1  0.870619  0.871762  0.776236  1
  Au  Au16  1  0.374019  0.628717  0.726997  1
  Au  Au17  1  0.627643  0.372843  0.726943  1
  Au  Au18  1  0.875425  0.866448  0.223480  1
  Au  Au19  1  0.123015  0.132005  0.225898  1
