# generated using pymatgen
data_ErTm3As6Ru7
_symmetry_space_group_name_H-M   'P 1'
_cell_length_a   7.19609488
_cell_length_b   7.18873275
_cell_length_c   7.19609421
_cell_angle_alpha   109.45050256
_cell_angle_beta   109.49193161
_cell_angle_gamma   109.45049989
_symmetry_Int_Tables_number   1
_chemical_formula_structural   ErTm3As6Ru7
_chemical_formula_sum   'Er1 Tm3 As6 Ru7'
_cell_volume   286.63892064
_cell_formula_units_Z   1
loop_
 _symmetry_equiv_pos_site_id
 _symmetry_equiv_pos_as_xyz
  1  'x, y, z'
loop_
 _atom_site_type_symbol
 _atom_site_label
 _atom_site_symmetry_multiplicity
 _atom_site_fract_x
 _atom_site_fract_y
 _atom_site_fract_z
 _atom_site_occupancy
  Er  Er0  1  0.000000  0.500000  0.000000  1
  Tm  Tm1  1  0.000000  0.000000  0.500000  1
  Tm  Tm2  1  0.500000  0.000000  0.000000  1
  Tm  Tm3  1  0.500000  0.500000  0.500000  1
  As  As4  1  0.315414  0.000843  0.315414  1
  As  As5  1  0.000000  0.314571  0.315414  1
  As  As6  1  0.000000  0.685429  0.684586  1
  As  As7  1  0.315414  0.314571  0.000000  1
  As  As8  1  0.684586  0.685429  0.000000  1
  As  As9  1  0.684586  0.999157  0.684586  1
  Ru  Ru10  1  0.749610  0.500000  0.250390  1
  Ru  Ru11  1  0.500781  0.750390  0.250390  1
  Ru  Ru12  1  0.499219  0.249610  0.749610  1
  Ru  Ru13  1  0.749610  0.249610  0.499219  1
  Ru  Ru14  1  0.250390  0.750390  0.500781  1
  Ru  Ru15  1  0.250390  0.500000  0.749610  1
  Ru  Ru16  1  0.000000  0.000000  0.000000  1
