# generated using pymatgen
data_Tb2Lu2Al13Ga4SiIr6
_symmetry_space_group_name_H-M   'P 1'
_cell_length_a   7.54370900
_cell_length_b   7.54370761
_cell_length_c   9.39210100
_cell_angle_alpha   90.00000000
_cell_angle_beta   90.00000000
_cell_angle_gamma   119.66431112
_symmetry_Int_Tables_number   1
_chemical_formula_structural   Tb2Lu2Al13Ga4SiIr6
_chemical_formula_sum   'Tb2 Lu2 Al13 Ga4 Si1 Ir6'
_cell_volume   464.43217439
_cell_formula_units_Z   1
loop_
 _symmetry_equiv_pos_site_id
 _symmetry_equiv_pos_as_xyz
  1  'x, y, z'
loop_
 _atom_site_type_symbol
 _atom_site_label
 _atom_site_symmetry_multiplicity
 _atom_site_fract_x
 _atom_site_fract_y
 _atom_site_fract_z
 _atom_site_occupancy
  Tb  Tb0  1  0.003694  0.330971  0.750000  1
  Tb  Tb1  1  0.331035  0.002380  0.750000  1
  Lu  Lu2  1  0.997549  0.677263  0.250000  1
  Lu  Lu3  1  0.674706  0.994417  0.250000  1
  Al  Al4  1  0.999515  0.336856  0.080189  1
  Al  Al5  1  0.996809  0.665894  0.927879  1
  Al  Al6  1  0.996809  0.665894  0.572121  1
  Al  Al7  1  0.337509  0.000223  0.419787  1
  Al  Al8  1  0.999515  0.336856  0.419811  1
  Al  Al9  1  0.666225  0.997474  0.571715  1
  Al  Al10  1  0.666225  0.997474  0.928285  1
  Al  Al11  1  0.337509  0.000223  0.080213  1
  Al  Al12  1  0.332941  0.332714  0.552615  1
  Al  Al13  1  0.664090  0.663778  0.438494  1
  Al  Al14  1  0.664090  0.663778  0.061506  1
  Al  Al15  1  0.332941  0.332714  0.947385  1
  Al  Al16  1  0.550533  0.337177  0.250000  1
  Ga  Ga17  1  0.875429  0.875364  0.750000  1
  Ga  Ga18  1  0.337990  0.550542  0.250000  1
  Ga  Ga19  1  0.661336  0.453260  0.750000  1
  Ga  Ga20  1  0.453781  0.660870  0.750000  1
  Si  Si21  1  0.128437  0.128551  0.250000  1
  Ir  Ir22  1  0.670179  0.326955  0.003410  1
  Ir  Ir23  1  0.326040  0.671313  0.000487  1
  Ir  Ir24  1  0.326040  0.671313  0.499513  1
  Ir  Ir25  1  0.670179  0.326955  0.496590  1
  Ir  Ir26  1  0.999447  0.999396  0.012009  1
  Ir  Ir27  1  0.999447  0.999396  0.487991  1
