# generated using pymatgen
data_HoEr4GePb3
_symmetry_space_group_name_H-M   'P 1'
_cell_length_a   9.27873800
_cell_length_b   9.27456782
_cell_length_c   6.50413900
_cell_angle_alpha   90.00000000
_cell_angle_beta   90.00000000
_cell_angle_gamma   120.01488922
_symmetry_Int_Tables_number   1
_chemical_formula_structural   HoEr4GePb3
_chemical_formula_sum   'Ho2 Er8 Ge2 Pb6'
_cell_volume   484.66076189
_cell_formula_units_Z   2
loop_
 _symmetry_equiv_pos_site_id
 _symmetry_equiv_pos_as_xyz
  1  'x, y, z'
loop_
 _atom_site_type_symbol
 _atom_site_label
 _atom_site_symmetry_multiplicity
 _atom_site_fract_x
 _atom_site_fract_y
 _atom_site_fract_z
 _atom_site_occupancy
  Ho  Ho0  1  0.251765  0.000000  0.250000  1
  Ho  Ho1  1  0.748235  0.000000  0.750000  1
  Er  Er2  1  0.000069  0.251468  0.250000  1
  Er  Er3  1  0.999931  0.748532  0.750000  1
  Er  Er4  1  0.748601  0.748532  0.250000  1
  Er  Er5  1  0.251399  0.251468  0.750000  1
  Er  Er6  1  0.333304  0.666610  0.000000  1
  Er  Er7  1  0.666696  0.333390  0.000000  1
  Er  Er8  1  0.666696  0.333390  0.500000  1
  Er  Er9  1  0.333304  0.666610  0.500000  1
  Ge  Ge10  1  0.000000  0.000000  0.000000  1
  Ge  Ge11  1  0.000000  0.000000  0.500000  1
  Pb  Pb12  1  0.607182  0.000000  0.250000  1
  Pb  Pb13  1  0.392818  0.000000  0.750000  1
  Pb  Pb14  1  0.999836  0.606706  0.250000  1
  Pb  Pb15  1  0.000164  0.393294  0.750000  1
  Pb  Pb16  1  0.393130  0.393294  0.250000  1
  Pb  Pb17  1  0.606870  0.606706  0.750000  1
