# generated using pymatgen
data_Tb3Cd3In2Rh
_symmetry_space_group_name_H-M   'P 1'
_cell_length_a   8.17074800
_cell_length_b   8.17074944
_cell_length_c   3.79223900
_cell_angle_alpha   90.00000000
_cell_angle_beta   90.00000000
_cell_angle_gamma   119.99999417
_symmetry_Int_Tables_number   1
_chemical_formula_structural   Tb3Cd3In2Rh
_chemical_formula_sum   'Tb3 Cd3 In2 Rh1'
_cell_volume   219.25528307
_cell_formula_units_Z   1
loop_
 _symmetry_equiv_pos_site_id
 _symmetry_equiv_pos_as_xyz
  1  'x, y, z'
loop_
 _atom_site_type_symbol
 _atom_site_label
 _atom_site_symmetry_multiplicity
 _atom_site_fract_x
 _atom_site_fract_y
 _atom_site_fract_z
 _atom_site_occupancy
  Tb  Tb0  1  0.620583  0.042149  0.000000  1
  Tb  Tb1  1  0.957851  0.578434  0.000000  1
  Tb  Tb2  1  0.421566  0.379417  0.000000  1
  Cd  Cd3  1  0.281392  0.998180  0.500000  1
  Cd  Cd4  1  0.001820  0.283212  0.500000  1
  Cd  Cd5  1  0.716788  0.718608  0.500000  1
  In  In6  1  0.333333  0.666667  0.500000  1
  In  In7  1  0.000000  0.000000  0.000000  1
  Rh  Rh8  1  0.666667  0.333333  0.500000  1
