# generated using pymatgen
data_ThAl3CoSn
_symmetry_space_group_name_H-M   'P 1'
_cell_length_a   8.16262704
_cell_length_b   8.16262617
_cell_length_c   6.85035600
_cell_angle_alpha   90.00000000
_cell_angle_beta   90.00000000
_cell_angle_gamma   150.12481939
_symmetry_Int_Tables_number   1
_chemical_formula_structural   ThAl3CoSn
_chemical_formula_sum   'Th2 Al6 Co2 Sn2'
_cell_volume   227.35272064
_cell_formula_units_Z   2
loop_
 _symmetry_equiv_pos_site_id
 _symmetry_equiv_pos_as_xyz
  1  'x, y, z'
loop_
 _atom_site_type_symbol
 _atom_site_label
 _atom_site_symmetry_multiplicity
 _atom_site_fract_x
 _atom_site_fract_y
 _atom_site_fract_z
 _atom_site_occupancy
  Th  Th0  1  0.385327  0.614673  0.750000  1
  Th  Th1  1  0.614673  0.385327  0.250000  1
  Al  Al2  1  0.802278  0.197722  0.059015  1
  Al  Al3  1  0.197722  0.802278  0.940985  1
  Al  Al4  1  0.197722  0.802278  0.559015  1
  Al  Al5  1  0.802278  0.197722  0.440985  1
  Al  Al6  1  0.414766  0.585234  0.250000  1
  Al  Al7  1  0.585234  0.414766  0.750000  1
  Co  Co8  1  0.731720  0.268280  0.750000  1
  Co  Co9  1  0.268280  0.731720  0.250000  1
  Sn  Sn10  1  0.000000  0.000000  0.000000  1
  Sn  Sn11  1  0.000000  0.000000  0.500000  1
