# generated using pymatgen
data_RbAc6OsI12
_symmetry_space_group_name_H-M   'P 1'
_cell_length_a   10.62062398
_cell_length_b   10.62062475
_cell_length_c   10.62062400
_cell_angle_alpha   105.07738428
_cell_angle_beta   105.07738539
_cell_angle_gamma   105.07737179
_symmetry_Int_Tables_number   1
_chemical_formula_structural   RbAc6OsI12
_chemical_formula_sum   'Rb1 Ac6 Os1 I12'
_cell_volume   1045.61591426
_cell_formula_units_Z   1
loop_
 _symmetry_equiv_pos_site_id
 _symmetry_equiv_pos_as_xyz
  1  'x, y, z'
loop_
 _atom_site_type_symbol
 _atom_site_label
 _atom_site_symmetry_multiplicity
 _atom_site_fract_x
 _atom_site_fract_y
 _atom_site_fract_z
 _atom_site_occupancy
  Rb  Rb0  1  0.500000  0.500000  0.500000  1
  Ac  Ac1  1  0.094353  0.297303  0.015184  1
  Ac  Ac2  1  0.297302  0.015183  0.094353  1
  Ac  Ac3  1  0.015183  0.094353  0.297303  1
  Ac  Ac4  1  0.984816  0.905647  0.702697  1
  Ac  Ac5  1  0.702698  0.984816  0.905646  1
  Ac  Ac6  1  0.905647  0.702697  0.984816  1
  Os  Os7  1  0.000000  0.000000  0.000000  1
  I  I8  1  0.221447  0.675764  0.075388  1
  I  I9  1  0.431481  0.346053  0.117041  1
  I  I10  1  0.675764  0.075389  0.221447  1
  I  I11  1  0.924612  0.778554  0.324237  1
  I  I12  1  0.117041  0.431481  0.346053  1
  I  I13  1  0.346053  0.117041  0.431482  1
  I  I14  1  0.653947  0.882959  0.568518  1
  I  I15  1  0.882958  0.568519  0.653947  1
  I  I16  1  0.075389  0.221447  0.675764  1
  I  I17  1  0.324237  0.924612  0.778553  1
  I  I18  1  0.568518  0.653946  0.882959  1
  I  I19  1  0.778553  0.324237  0.924612  1
