# generated using pymatgen
data_Na2Zr4VSe10
_symmetry_space_group_name_H-M   'P 1'
_cell_length_a   6.52377081
_cell_length_b   10.59434970
_cell_length_c   8.34151216
_cell_angle_alpha   62.33138081
_cell_angle_beta   66.66141056
_cell_angle_gamma   89.86557615
_symmetry_Int_Tables_number   1
_chemical_formula_structural   Na2Zr4VSe10
_chemical_formula_sum   'Na2 Zr4 V1 Se10'
_cell_volume   456.97863299
_cell_formula_units_Z   1
loop_
 _symmetry_equiv_pos_site_id
 _symmetry_equiv_pos_as_xyz
  1  'x, y, z'
loop_
 _atom_site_type_symbol
 _atom_site_label
 _atom_site_symmetry_multiplicity
 _atom_site_fract_x
 _atom_site_fract_y
 _atom_site_fract_z
 _atom_site_occupancy
  Na  Na0  1  0.791581  0.084992  0.414590  1
  Na  Na1  1  0.008419  0.515008  0.985410  1
  Zr  Zr2  1  0.802273  0.608037  0.394724  1
  Zr  Zr3  1  0.204533  0.413086  0.582412  1
  Zr  Zr4  1  0.595467  0.186914  0.817588  1
  Zr  Zr5  1  0.997727  0.991963  0.005276  1
  V  V6  1  0.400000  0.800000  0.200000  1
  Se  Se7  1  0.991203  0.842000  0.371901  1
  Se  Se8  1  0.571473  0.034537  0.181924  1
  Se  Se9  1  0.178564  0.243790  0.970411  1
  Se  Se10  1  0.778600  0.442966  0.771191  1
  Se  Se11  1  0.380738  0.650607  0.562716  1
  Se  Se12  1  0.419262  0.949393  0.837284  1
  Se  Se13  1  0.021400  0.157034  0.628809  1
  Se  Se14  1  0.621436  0.356210  0.429589  1
  Se  Se15  1  0.228527  0.565463  0.218076  1
  Se  Se16  1  0.808797  0.758000  0.028099  1
