# generated using pymatgen
data_Zr3ScSi5GeIr7
_symmetry_space_group_name_H-M   'P 1'
_cell_length_a   7.03702117
_cell_length_b   7.03702139
_cell_length_c   7.03778748
_cell_angle_alpha   109.62189257
_cell_angle_beta   109.62189484
_cell_angle_gamma   108.96094626
_symmetry_Int_Tables_number   1
_chemical_formula_structural   Zr3ScSi5GeIr7
_chemical_formula_sum   'Zr3 Sc1 Si5 Ge1 Ir7'
_cell_volume   268.96286819
_cell_formula_units_Z   1
loop_
 _symmetry_equiv_pos_site_id
 _symmetry_equiv_pos_as_xyz
  1  'x, y, z'
loop_
 _atom_site_type_symbol
 _atom_site_label
 _atom_site_symmetry_multiplicity
 _atom_site_fract_x
 _atom_site_fract_y
 _atom_site_fract_z
 _atom_site_occupancy
  Zr  Zr0  1  0.001077  0.001077  0.517445  1
  Zr  Zr1  1  0.000822  0.484330  0.999913  1
  Zr  Zr2  1  0.484330  0.000822  0.999913  1
  Sc  Sc3  1  0.487810  0.487810  0.486639  1
  Si  Si4  1  0.317693  0.999949  0.321126  1
  Si  Si5  1  0.999949  0.317693  0.321126  1
  Si  Si6  1  0.330211  0.330211  0.003479  1
  Si  Si7  1  0.674934  0.994718  0.678353  1
  Si  Si8  1  0.994718  0.674934  0.678353  1
  Ge  Ge9  1  0.693969  0.693969  0.997567  1
  Ir  Ir10  1  0.749583  0.249202  0.499692  1
  Ir  Ir11  1  0.751599  0.499220  0.251667  1
  Ir  Ir12  1  0.499096  0.246986  0.748201  1
  Ir  Ir13  1  0.246986  0.499096  0.748201  1
  Ir  Ir14  1  0.249202  0.749583  0.499692  1
  Ir  Ir15  1  0.499220  0.751599  0.251667  1
  Ir  Ir16  1  0.018801  0.018801  0.996965  1
