# generated using pymatgen
data_Y3Tm2Tl3
_symmetry_space_group_name_H-M   'P 1'
_cell_length_a   6.57463300
_cell_length_b   9.04647771
_cell_length_c   9.04843400
_cell_angle_alpha   119.99284891
_cell_angle_beta   90.00000000
_cell_angle_gamma   90.00000000
_symmetry_Int_Tables_number   1
_chemical_formula_structural   Y3Tm2Tl3
_chemical_formula_sum   'Y6 Tm4 Tl6'
_cell_volume   466.10780786
_cell_formula_units_Z   2
loop_
 _symmetry_equiv_pos_site_id
 _symmetry_equiv_pos_as_xyz
  1  'x, y, z'
loop_
 _atom_site_type_symbol
 _atom_site_label
 _atom_site_symmetry_multiplicity
 _atom_site_fract_x
 _atom_site_fract_y
 _atom_site_fract_z
 _atom_site_occupancy
  Y  Y0  1  0.749995  0.236241  0.000000  1
  Y  Y1  1  0.749976  0.763725  0.763749  1
  Y  Y2  1  0.749976  0.999976  0.236251  1
  Y  Y3  1  0.250026  0.763761  0.000000  1
  Y  Y4  1  0.250011  0.236284  0.236256  1
  Y  Y5  1  0.250011  0.000029  0.763744  1
  Tm  Tm6  1  0.500000  0.333331  0.666710  1
  Tm  Tm7  1  0.500000  0.666621  0.333290  1
  Tm  Tm8  1  0.999993  0.666660  0.333298  1
  Tm  Tm9  1  0.999993  0.333362  0.666702  1
  Tl  Tl10  1  0.750008  0.597054  0.000000  1
  Tl  Tl11  1  0.750010  0.402819  0.402828  1
  Tl  Tl12  1  0.750010  0.999991  0.597172  1
  Tl  Tl13  1  0.249995  0.402961  0.000000  1
  Tl  Tl14  1  0.249999  0.597178  0.597171  1
  Tl  Tl15  1  0.249999  0.000008  0.402829  1
