# generated using pymatgen
data_Rb4U2Te5Se
_symmetry_space_group_name_H-M   'P 1'
_cell_length_a   8.14109302
_cell_length_b   8.14803293
_cell_length_c   8.86009798
_cell_angle_alpha   81.14409477
_cell_angle_beta   81.08221601
_cell_angle_gamma   119.53759529
_symmetry_Int_Tables_number   1
_chemical_formula_structural   Rb4U2Te5Se
_chemical_formula_sum   'Rb4 U2 Te5 Se1'
_cell_volume   486.67552220
_cell_formula_units_Z   1
loop_
 _symmetry_equiv_pos_site_id
 _symmetry_equiv_pos_as_xyz
  1  'x, y, z'
loop_
 _atom_site_type_symbol
 _atom_site_label
 _atom_site_symmetry_multiplicity
 _atom_site_fract_x
 _atom_site_fract_y
 _atom_site_fract_z
 _atom_site_occupancy
  Rb  Rb0  1  0.505512  0.505505  0.004785  1
  Rb  Rb1  1  0.654835  0.350254  0.498899  1
  Rb  Rb2  1  0.350324  0.654844  0.498866  1
  Rb  Rb3  1  0.993769  0.993816  0.494281  1
  U  U4  1  0.831357  0.155621  0.005630  1
  U  U5  1  0.155267  0.831180  0.006427  1
  Te  Te6  1  0.194573  0.195118  0.794281  1
  Te  Te7  1  0.428416  0.051765  0.208605  1
  Te  Te8  1  0.564487  0.945966  0.797204  1
  Te  Te9  1  0.945409  0.563321  0.797056  1
  Te  Te10  1  0.051168  0.427069  0.208525  1
  Se  Se11  1  0.824882  0.825541  0.185441  1
