# generated using pymatgen
data_Nd4GaGePd28
_symmetry_space_group_name_H-M   'P 1'
_cell_length_a   8.98209900
_cell_length_b   8.98209900
_cell_length_c   7.24971100
_cell_angle_alpha   90.00000000
_cell_angle_beta   90.00000000
_cell_angle_gamma   90.00000000
_symmetry_Int_Tables_number   1
_chemical_formula_structural   Nd4GaGePd28
_chemical_formula_sum   'Nd4 Ga1 Ge1 Pd28'
_cell_volume   584.89292676
_cell_formula_units_Z   1
loop_
 _symmetry_equiv_pos_site_id
 _symmetry_equiv_pos_as_xyz
  1  'x, y, z'
loop_
 _atom_site_type_symbol
 _atom_site_label
 _atom_site_symmetry_multiplicity
 _atom_site_fract_x
 _atom_site_fract_y
 _atom_site_fract_z
 _atom_site_occupancy
  Nd  Nd0  1  0.500000  0.000000  0.935259  1
  Nd  Nd1  1  0.000000  0.500000  0.063221  1
  Nd  Nd2  1  0.000000  0.000000  0.499715  1
  Nd  Nd3  1  0.500000  0.500000  0.499715  1
  Ga  Ga4  1  0.500000  0.000000  0.451122  1
  Ge  Ge5  1  0.000000  0.500000  0.549280  1
  Pd  Pd6  1  0.328154  0.828154  0.623448  1
  Pd  Pd7  1  0.328154  0.171846  0.623448  1
  Pd  Pd8  1  0.671846  0.828154  0.623448  1
  Pd  Pd9  1  0.671846  0.171846  0.623448  1
  Pd  Pd10  1  0.169799  0.669799  0.377698  1
  Pd  Pd11  1  0.169799  0.330201  0.377698  1
  Pd  Pd12  1  0.830201  0.669799  0.377698  1
  Pd  Pd13  1  0.830201  0.330201  0.377698  1
  Pd  Pd14  1  0.500000  0.765549  0.252472  1
  Pd  Pd15  1  0.500000  0.234451  0.252472  1
  Pd  Pd16  1  0.265549  0.000000  0.252472  1
  Pd  Pd17  1  0.734451  0.000000  0.252472  1
  Pd  Pd18  1  0.000000  0.732570  0.746739  1
  Pd  Pd19  1  0.000000  0.267430  0.746739  1
  Pd  Pd20  1  0.232570  0.500000  0.746739  1
  Pd  Pd21  1  0.767430  0.500000  0.746739  1
  Pd  Pd22  1  0.500000  0.349024  0.856936  1
  Pd  Pd23  1  0.500000  0.650976  0.856936  1
  Pd  Pd24  1  0.849024  0.000000  0.856936  1
  Pd  Pd25  1  0.150976  0.000000  0.856936  1
  Pd  Pd26  1  0.000000  0.151445  0.142567  1
  Pd  Pd27  1  0.000000  0.848555  0.142567  1
  Pd  Pd28  1  0.651445  0.500000  0.142567  1
  Pd  Pd29  1  0.348555  0.500000  0.142567  1
  Pd  Pd30  1  0.250132  0.750132  0.000562  1
  Pd  Pd31  1  0.250132  0.249868  0.000562  1
  Pd  Pd32  1  0.749868  0.750132  0.000562  1
  Pd  Pd33  1  0.749868  0.249868  0.000562  1
