# generated using pymatgen
data_Yb3IO6
_symmetry_space_group_name_H-M   'P 1'
_cell_length_a   5.87788352
_cell_length_b   5.87788056
_cell_length_c   5.87788103
_cell_angle_alpha   58.31915738
_cell_angle_beta   58.31918078
_cell_angle_gamma   58.31917835
_symmetry_Int_Tables_number   1
_chemical_formula_structural   Yb3IO6
_chemical_formula_sum   'Yb3 I1 O6'
_cell_volume   138.07076171
_cell_formula_units_Z   1
loop_
 _symmetry_equiv_pos_site_id
 _symmetry_equiv_pos_as_xyz
  1  'x, y, z'
loop_
 _atom_site_type_symbol
 _atom_site_label
 _atom_site_symmetry_multiplicity
 _atom_site_fract_x
 _atom_site_fract_y
 _atom_site_fract_z
 _atom_site_occupancy
  Yb  Yb0  1  0.369782  0.369782  0.369782  1
  Yb  Yb1  1  0.643748  0.643748  0.643748  1
  Yb  Yb2  1  0.862540  0.862540  0.862540  1
  I  I3  1  0.153816  0.153816  0.153816  1
  O  O4  1  0.420027  0.802160  0.028771  1
  O  O5  1  0.957768  0.495457  0.265932  1
  O  O6  1  0.802161  0.028771  0.420026  1
  O  O7  1  0.265931  0.957769  0.495457  1
  O  O8  1  0.028771  0.420027  0.802160  1
  O  O9  1  0.495457  0.265931  0.957768  1
