# generated using pymatgen
data_Nd10Si4HgAu
_symmetry_space_group_name_H-M   'P 1'
_cell_length_a   7.79704228
_cell_length_b   7.79704125
_cell_length_c   9.34534500
_cell_angle_alpha   114.65552313
_cell_angle_beta   114.65553581
_cell_angle_gamma   89.99999886
_symmetry_Int_Tables_number   1
_chemical_formula_structural   Nd10Si4HgAu
_chemical_formula_sum   'Nd10 Si4 Hg1 Au1'
_cell_volume   458.73607379
_cell_formula_units_Z   1
loop_
 _symmetry_equiv_pos_site_id
 _symmetry_equiv_pos_as_xyz
  1  'x, y, z'
loop_
 _atom_site_type_symbol
 _atom_site_label
 _atom_site_symmetry_multiplicity
 _atom_site_fract_x
 _atom_site_fract_y
 _atom_site_fract_z
 _atom_site_occupancy
  Nd  Nd0  1  0.475404  0.475404  0.950808  1
  Nd  Nd1  1  0.024596  0.024596  0.049192  1
  Nd  Nd2  1  0.950220  0.800910  0.275896  1
  Nd  Nd3  1  0.325677  0.474986  0.275896  1
  Nd  Nd4  1  0.800910  0.325677  0.275896  1
  Nd  Nd5  1  0.474986  0.950220  0.275896  1
  Nd  Nd6  1  0.025014  0.174323  0.724104  1
  Nd  Nd7  1  0.699090  0.549780  0.724104  1
  Nd  Nd8  1  0.174323  0.699090  0.724104  1
  Nd  Nd9  1  0.549780  0.025014  0.724104  1
  Si  Si10  1  0.616292  0.883708  0.000000  1
  Si  Si11  1  0.383708  0.116292  0.000000  1
  Si  Si12  1  0.883708  0.383708  0.000000  1
  Si  Si13  1  0.116292  0.616292  0.000000  1
  Hg  Hg14  1  0.250000  0.250000  0.500000  1
  Au  Au15  1  0.750000  0.750000  0.500000  1
