# generated using pymatgen
data_La3PrNd8(PtBr3)4
_symmetry_space_group_name_H-M   'P 1'
_cell_length_a   10.62265539
_cell_length_b   10.62304812
_cell_length_c   10.61207918
_cell_angle_alpha   109.38832195
_cell_angle_beta   109.68028569
_cell_angle_gamma   109.29344962
_symmetry_Int_Tables_number   1
_chemical_formula_structural   La3PrNd8(PtBr3)4
_chemical_formula_sum   'La3 Pr1 Nd8 Pt4 Br12'
_cell_volume   922.42927411
_cell_formula_units_Z   1
loop_
 _symmetry_equiv_pos_site_id
 _symmetry_equiv_pos_as_xyz
  1  'x, y, z'
loop_
 _atom_site_type_symbol
 _atom_site_label
 _atom_site_symmetry_multiplicity
 _atom_site_fract_x
 _atom_site_fract_y
 _atom_site_fract_z
 _atom_site_occupancy
  La  La0  1  0.485623  0.236732  0.472961  1
  La  La1  1  0.014732  0.485270  0.750261  1
  La  La2  1  0.263754  0.014294  0.026958  1
  Pr  Pr3  1  0.235546  0.264074  0.749919  1
  Nd  Nd4  1  0.468917  0.486503  0.233705  1
  Nd  Nd5  1  0.750258  0.233525  0.264980  1
  Nd  Nd6  1  0.749642  0.014427  0.483274  1
  Nd  Nd7  1  0.233659  0.467792  0.482580  1
  Nd  Nd8  1  0.266844  0.749821  0.235068  1
  Nd  Nd9  1  0.031933  0.265940  0.017283  1
  Nd  Nd10  1  0.013556  0.031354  0.266252  1
  Nd  Nd11  1  0.485685  0.750337  0.016946  1
  Pt  Pt12  1  0.250545  0.249594  0.250004  1
  Pt  Pt13  1  0.499685  0.000407  0.249975  1
  Pt  Pt14  1  0.999760  0.249989  0.500026  1
  Pt  Pt15  1  0.249935  0.500090  0.999904  1
  Br  Br16  1  0.253676  0.752215  0.745019  1
  Br  Br17  1  0.506424  0.506642  0.755057  1
  Br  Br18  1  0.992951  0.747848  0.001353  1
  Br  Br19  1  0.747573  0.246122  0.754970  1
  Br  Br20  1  0.993108  0.993267  0.744862  1
  Br  Br21  1  0.246380  0.993105  0.500416  1
  Br  Br22  1  0.752361  0.507275  0.498675  1
  Br  Br23  1  0.507091  0.253683  0.999507  1
  Br  Br24  1  0.753096  0.747065  0.250163  1
  Br  Br25  1  0.747084  0.997290  0.994503  1
  Br  Br26  1  0.997360  0.502568  0.249862  1
  Br  Br27  1  0.502822  0.752769  0.505513  1
