# generated using pymatgen
data_Dy13Er3MgAg3Rh4
_symmetry_space_group_name_H-M   'P 1'
_cell_length_a   9.52476144
_cell_length_b   9.55112542
_cell_length_c   9.54185473
_cell_angle_alpha   60.31764770
_cell_angle_beta   60.30272857
_cell_angle_gamma   60.29776834
_symmetry_Int_Tables_number   1
_chemical_formula_structural   Dy13Er3MgAg3Rh4
_chemical_formula_sum   'Dy13 Er3 Mg1 Ag3 Rh4'
_cell_volume   618.05014119
_cell_formula_units_Z   1
loop_
 _symmetry_equiv_pos_site_id
 _symmetry_equiv_pos_as_xyz
  1  'x, y, z'
loop_
 _atom_site_type_symbol
 _atom_site_label
 _atom_site_symmetry_multiplicity
 _atom_site_fract_x
 _atom_site_fract_y
 _atom_site_fract_z
 _atom_site_occupancy
  Dy  Dy0  1  0.436124  0.064087  0.064193  1
  Dy  Dy1  1  0.436080  0.434923  0.064533  1
  Dy  Dy2  1  0.189893  0.188922  0.811063  1
  Dy  Dy3  1  0.813804  0.186653  0.187294  1
  Dy  Dy4  1  0.066422  0.435858  0.063725  1
  Dy  Dy5  1  0.436738  0.064218  0.435006  1
  Dy  Dy6  1  0.062045  0.645581  0.645677  1
  Dy  Dy7  1  0.188976  0.812009  0.812651  1
  Dy  Dy8  1  0.649103  0.650296  0.049567  1
  Dy  Dy9  1  0.188951  0.811309  0.188772  1
  Dy  Dy10  1  0.066402  0.063370  0.435609  1
  Dy  Dy11  1  0.814376  0.186574  0.813226  1
  Dy  Dy12  1  0.648012  0.650820  0.650032  1
  Er  Er13  1  0.066815  0.435888  0.435180  1
  Er  Er14  1  0.649289  0.048672  0.650511  1
  Er  Er15  1  0.814998  0.812843  0.187033  1
  Mg  Mg16  1  0.715721  0.427640  0.427994  1
  Ag  Ag17  1  0.417691  0.415218  0.750003  1
  Ag  Ag18  1  0.417117  0.415408  0.416321  1
  Ag  Ag19  1  0.417644  0.750345  0.415560  1
  Rh  Rh20  1  0.858437  0.429550  0.854506  1
  Rh  Rh21  1  0.429448  0.857476  0.855806  1
  Rh  Rh22  1  0.857662  0.855282  0.429551  1
  Rh  Rh23  1  0.858256  0.857060  0.856188  1
