# generated using pymatgen
data_La3Dy2Tc3(P3Ir4)4
_symmetry_space_group_name_H-M   'P 1'
_cell_length_a   12.76185700
_cell_length_b   12.76185730
_cell_length_c   4.01102400
_cell_angle_alpha   90.00000000
_cell_angle_beta   90.00000000
_cell_angle_gamma   119.99999662
_symmetry_Int_Tables_number   1
_chemical_formula_structural   La3Dy2Tc3(P3Ir4)4
_chemical_formula_sum   'La3 Dy2 Tc3 P12 Ir16'
_cell_volume   565.73580429
_cell_formula_units_Z   1
loop_
 _symmetry_equiv_pos_site_id
 _symmetry_equiv_pos_as_xyz
  1  'x, y, z'
loop_
 _atom_site_type_symbol
 _atom_site_label
 _atom_site_symmetry_multiplicity
 _atom_site_fract_x
 _atom_site_fract_y
 _atom_site_fract_z
 _atom_site_occupancy
  La  La0  1  0.000000  0.813995  0.000000  1
  La  La1  1  0.186005  0.186005  0.000000  1
  La  La2  1  0.813995  0.000000  0.000000  1
  Dy  Dy3  1  0.333333  0.666667  0.500000  1
  Dy  Dy4  1  0.666667  0.333333  0.500000  1
  Tc  Tc5  1  0.000000  0.454555  0.500000  1
  Tc  Tc6  1  0.545445  0.545445  0.500000  1
  Tc  Tc7  1  0.454555  0.000000  0.500000  1
  P  P8  1  0.000000  0.634877  0.500000  1
  P  P9  1  0.365123  0.365123  0.500000  1
  P  P10  1  0.634877  0.000000  0.500000  1
  P  P11  1  0.514878  0.686414  0.000000  1
  P  P12  1  0.313586  0.828464  0.000000  1
  P  P13  1  0.171536  0.485122  0.000000  1
  P  P14  1  0.485122  0.171536  0.000000  1
  P  P15  1  0.686414  0.514878  0.000000  1
  P  P16  1  0.828464  0.313586  0.000000  1
  P  P17  1  0.000000  0.180987  0.500000  1
  P  P18  1  0.819013  0.819013  0.500000  1
  P  P19  1  0.180987  0.000000  0.500000  1
  Ir  Ir20  1  0.508334  0.868864  0.000000  1
  Ir  Ir21  1  0.131136  0.639471  0.000000  1
  Ir  Ir22  1  0.360529  0.491666  0.000000  1
  Ir  Ir23  1  0.491666  0.360529  0.000000  1
  Ir  Ir24  1  0.868864  0.508334  0.000000  1
  Ir  Ir25  1  0.639471  0.131136  0.000000  1
  Ir  Ir26  1  0.000000  0.292130  0.000000  1
  Ir  Ir27  1  0.707870  0.707870  0.000000  1
  Ir  Ir28  1  0.292130  0.000000  0.000000  1
  Ir  Ir29  1  0.619940  0.799520  0.500000  1
  Ir  Ir30  1  0.200480  0.820421  0.500000  1
  Ir  Ir31  1  0.179579  0.380060  0.500000  1
  Ir  Ir32  1  0.380060  0.179579  0.500000  1
  Ir  Ir33  1  0.799520  0.619940  0.500000  1
  Ir  Ir34  1  0.820421  0.200480  0.500000  1
  Ir  Ir35  1  0.000000  0.000000  0.500000  1
