# generated using pymatgen
data_Tm9ZrRh6
_symmetry_space_group_name_H-M   'P 1'
_cell_length_a   10.76928900
_cell_length_b   10.76928900
_cell_length_c   6.23817100
_cell_angle_alpha   90.00000000
_cell_angle_beta   90.00000000
_cell_angle_gamma   90.00000000
_symmetry_Int_Tables_number   1
_chemical_formula_structural   Tm9ZrRh6
_chemical_formula_sum   'Tm18 Zr2 Rh12'
_cell_volume   723.48801092
_cell_formula_units_Z   2
loop_
 _symmetry_equiv_pos_site_id
 _symmetry_equiv_pos_as_xyz
  1  'x, y, z'
loop_
 _atom_site_type_symbol
 _atom_site_label
 _atom_site_symmetry_multiplicity
 _atom_site_fract_x
 _atom_site_fract_y
 _atom_site_fract_z
 _atom_site_occupancy
  Tm  Tm0  1  0.288973  0.086893  0.374799  1
  Tm  Tm1  1  0.288973  0.913107  0.874799  1
  Tm  Tm2  1  0.711027  0.086893  0.874799  1
  Tm  Tm3  1  0.711027  0.913107  0.374799  1
  Tm  Tm4  1  0.588022  0.792153  0.875021  1
  Tm  Tm5  1  0.588022  0.207847  0.375021  1
  Tm  Tm6  1  0.411978  0.792153  0.375021  1
  Tm  Tm7  1  0.411978  0.207847  0.875021  1
  Tm  Tm8  1  0.207847  0.411978  0.624979  1
  Tm  Tm9  1  0.207847  0.588022  0.124979  1
  Tm  Tm10  1  0.792153  0.411978  0.124979  1
  Tm  Tm11  1  0.792153  0.588022  0.624979  1
  Tm  Tm12  1  0.913107  0.711027  0.125201  1
  Tm  Tm13  1  0.913107  0.288973  0.625201  1
  Tm  Tm14  1  0.086893  0.711027  0.625201  1
  Tm  Tm15  1  0.086893  0.288973  0.125201  1
  Tm  Tm16  1  0.500000  0.500000  0.000000  1
  Tm  Tm17  1  0.500000  0.500000  0.500000  1
  Zr  Zr18  1  0.000000  0.000000  0.500000  1
  Zr  Zr19  1  0.000000  0.000000  0.000000  1
  Rh  Rh20  1  0.853136  0.146864  0.250000  1
  Rh  Rh21  1  0.853136  0.853136  0.750000  1
  Rh  Rh22  1  0.146864  0.146864  0.750000  1
  Rh  Rh23  1  0.146864  0.853136  0.250000  1
  Rh  Rh24  1  0.654759  0.345241  0.750000  1
  Rh  Rh25  1  0.654759  0.654759  0.250000  1
  Rh  Rh26  1  0.345241  0.345241  0.250000  1
  Rh  Rh27  1  0.345241  0.654759  0.750000  1
  Rh  Rh28  1  0.500000  0.000000  0.122444  1
  Rh  Rh29  1  0.500000  0.000000  0.622444  1
  Rh  Rh30  1  0.000000  0.500000  0.877556  1
  Rh  Rh31  1  0.000000  0.500000  0.377556  1
