# generated using pymatgen
data_DyEr3InNi
_symmetry_space_group_name_H-M   'P 1'
_cell_length_a   9.53938857
_cell_length_b   9.53938741
_cell_length_c   9.53938900
_cell_angle_alpha   59.99999794
_cell_angle_beta   60.00000197
_cell_angle_gamma   59.99999929
_symmetry_Int_Tables_number   1
_chemical_formula_structural   DyEr3InNi
_chemical_formula_sum   'Dy4 Er12 In4 Ni4'
_cell_volume   613.82784320
_cell_formula_units_Z   4
loop_
 _symmetry_equiv_pos_site_id
 _symmetry_equiv_pos_as_xyz
  1  'x, y, z'
loop_
 _atom_site_type_symbol
 _atom_site_label
 _atom_site_symmetry_multiplicity
 _atom_site_fract_x
 _atom_site_fract_y
 _atom_site_fract_z
 _atom_site_occupancy
  Dy  Dy0  1  0.348079  0.348079  0.348079  1
  Dy  Dy1  1  0.348079  0.348079  0.955765  1
  Dy  Dy2  1  0.348079  0.955765  0.348079  1
  Dy  Dy3  1  0.955765  0.348079  0.348079  1
  Er  Er4  1  0.812273  0.187727  0.187727  1
  Er  Er5  1  0.187727  0.812273  0.812273  1
  Er  Er6  1  0.187727  0.812273  0.187727  1
  Er  Er7  1  0.812273  0.187727  0.812273  1
  Er  Er8  1  0.187727  0.187727  0.812273  1
  Er  Er9  1  0.812273  0.812273  0.187727  1
  Er  Er10  1  0.937475  0.562525  0.562525  1
  Er  Er11  1  0.562525  0.937475  0.937475  1
  Er  Er12  1  0.562525  0.937475  0.562525  1
  Er  Er13  1  0.937475  0.562525  0.937475  1
  Er  Er14  1  0.562525  0.562525  0.937475  1
  Er  Er15  1  0.937475  0.937475  0.562525  1
  In  In16  1  0.582713  0.582713  0.582713  1
  In  In17  1  0.582713  0.582713  0.251859  1
  In  In18  1  0.582713  0.251859  0.582713  1
  In  In19  1  0.251859  0.582713  0.582713  1
  Ni  Ni20  1  0.142049  0.142049  0.142049  1
  Ni  Ni21  1  0.142049  0.142049  0.573853  1
  Ni  Ni22  1  0.142049  0.573853  0.142049  1
  Ni  Ni23  1  0.573853  0.142049  0.142049  1
