# generated using pymatgen
data_Nd12AlSi4Bi
_symmetry_space_group_name_H-M   'P 1'
_cell_length_a   8.79478533
_cell_length_b   8.79496154
_cell_length_c   8.79478400
_cell_angle_alpha   112.68770061
_cell_angle_beta   110.16715852
_cell_angle_gamma   105.63561836
_symmetry_Int_Tables_number   1
_chemical_formula_structural   Nd12AlSi4Bi
_chemical_formula_sum   'Nd12 Al1 Si4 Bi1'
_cell_volume   521.66479653
_cell_formula_units_Z   1
loop_
 _symmetry_equiv_pos_site_id
 _symmetry_equiv_pos_as_xyz
  1  'x, y, z'
loop_
 _atom_site_type_symbol
 _atom_site_label
 _atom_site_symmetry_multiplicity
 _atom_site_fract_x
 _atom_site_fract_y
 _atom_site_fract_z
 _atom_site_occupancy
  Nd  Nd0  1  0.435831  0.231466  0.204379  1
  Nd  Nd1  1  0.564169  0.768534  0.795621  1
  Nd  Nd2  1  0.027086  0.231466  0.795634  1
  Nd  Nd3  1  0.972914  0.768534  0.204366  1
  Nd  Nd4  1  0.182720  0.272343  0.455063  1
  Nd  Nd5  1  0.817280  0.727657  0.544937  1
  Nd  Nd6  1  0.182718  0.727657  0.910377  1
  Nd  Nd7  1  0.817282  0.272343  0.089623  1
  Nd  Nd8  1  0.318490  0.614174  0.295683  1
  Nd  Nd9  1  0.681510  0.385826  0.704317  1
  Nd  Nd10  1  0.318474  0.022793  0.704319  1
  Nd  Nd11  1  0.681526  0.977207  0.295681  1
  Al  Al12  1  0.000000  0.000000  0.000000  1
  Si  Si13  1  0.376234  0.000000  0.376234  1
  Si  Si14  1  0.623766  0.000000  0.623766  1
  Si  Si15  1  0.111806  0.611804  0.499998  1
  Si  Si16  1  0.888194  0.388196  0.500002  1
  Bi  Bi17  1  0.500000  0.500000  0.000000  1
