# generated using pymatgen
data_ScZn2Ni2Hg
_symmetry_space_group_name_H-M   'P 1'
_cell_length_a   5.01234263
_cell_length_b   5.01234342
_cell_length_c   5.01234328
_cell_angle_alpha   119.54568741
_cell_angle_beta   118.41457116
_cell_angle_gamma   91.77844169
_symmetry_Int_Tables_number   1
_chemical_formula_structural   ScZn2Ni2Hg
_chemical_formula_sum   'Sc1 Zn2 Ni2 Hg1'
_cell_volume   90.35950389
_cell_formula_units_Z   1
loop_
 _symmetry_equiv_pos_site_id
 _symmetry_equiv_pos_as_xyz
  1  'x, y, z'
loop_
 _atom_site_type_symbol
 _atom_site_label
 _atom_site_symmetry_multiplicity
 _atom_site_fract_x
 _atom_site_fract_y
 _atom_site_fract_z
 _atom_site_occupancy
  Sc  Sc0  1  0.010972  0.010972  0.000000  1
  Zn  Zn1  1  0.623287  0.873735  0.250449  1
  Zn  Zn2  1  0.623287  0.372839  0.749551  1
  Ni  Ni3  1  0.123456  0.372723  0.750734  1
  Ni  Ni4  1  0.621989  0.372723  0.249266  1
  Hg  Hg5  1  0.247009  0.747009  0.500000  1
