# generated using pymatgen
data_Ba4Pr5Nd3Be4O20
_symmetry_space_group_name_H-M   'P 1'
_cell_length_a   7.49324071
_cell_length_b   6.78376437
_cell_length_c   9.88082589
_cell_angle_alpha   90.03756572
_cell_angle_beta   90.75256382
_cell_angle_gamma   90.00207611
_symmetry_Int_Tables_number   1
_chemical_formula_structural   Ba4Pr5Nd3Be4O20
_chemical_formula_sum   'Ba4 Pr5 Nd3 Be4 O20'
_cell_volume   502.22245630
_cell_formula_units_Z   1
loop_
 _symmetry_equiv_pos_site_id
 _symmetry_equiv_pos_as_xyz
  1  'x, y, z'
loop_
 _atom_site_type_symbol
 _atom_site_label
 _atom_site_symmetry_multiplicity
 _atom_site_fract_x
 _atom_site_fract_y
 _atom_site_fract_z
 _atom_site_occupancy
  Ba  Ba0  1  0.979800  0.917468  0.172624  1
  Ba  Ba1  1  0.020429  0.417925  0.326907  1
  Ba  Ba2  1  0.979110  0.581909  0.673642  1
  Ba  Ba3  1  0.021404  0.081676  0.827128  1
  Pr  Pr4  1  0.743521  0.407991  0.020918  1
  Pr  Pr5  1  0.521417  0.917285  0.175302  1
  Pr  Pr6  1  0.478541  0.417659  0.324310  1
  Pr  Pr7  1  0.256577  0.908013  0.479244  1
  Pr  Pr8  1  0.743582  0.092044  0.522024  1
  Nd  Nd9  1  0.520668  0.582317  0.677005  1
  Nd  Nd10  1  0.478828  0.082334  0.823579  1
  Nd  Nd11  1  0.257424  0.590351  0.979120  1
  Be  Be12  1  0.260547  0.192663  0.096023  1
  Be  Be13  1  0.739444  0.692416  0.403765  1
  Be  Be14  1  0.261123  0.308042  0.597583  1
  Be  Be15  1  0.738680  0.807576  0.902567  1
  O  O16  1  0.279545  0.982198  0.009048  1
  O  O17  1  0.069743  0.307975  0.061431  1
  O  O18  1  0.439717  0.320474  0.064652  1
  O  O19  1  0.283186  0.664954  0.214942  1
  O  O20  1  0.721605  0.630421  0.232255  1
  O  O21  1  0.278469  0.130578  0.267394  1
  O  O22  1  0.716447  0.166095  0.283204  1
  O  O23  1  0.559485  0.819443  0.434481  1
  O  O24  1  0.931062  0.806810  0.437990  1
  O  O25  1  0.720376  0.482502  0.490938  1
  O  O26  1  0.279655  0.518824  0.511428  1
  O  O27  1  0.069482  0.193612  0.562870  1
  O  O28  1  0.440248  0.180192  0.566038  1
  O  O29  1  0.286360  0.834727  0.717289  1
  O  O30  1  0.719294  0.868094  0.732172  1
  O  O31  1  0.280518  0.369488  0.768826  1
  O  O32  1  0.713652  0.334284  0.782536  1
  O  O33  1  0.558684  0.679902  0.934657  1
  O  O34  1  0.931161  0.693139  0.937567  1
  O  O35  1  0.720216  0.018613  0.988540  1
