# generated using pymatgen
data_Hf3Zr2GaPb3
_symmetry_space_group_name_H-M   'P 1'
_cell_length_a   8.81418238
_cell_length_b   8.81780392
_cell_length_c   5.92421400
_cell_angle_alpha   90.00000000
_cell_angle_beta   90.00000000
_cell_angle_gamma   120.01358964
_symmetry_Int_Tables_number   1
_chemical_formula_structural   Hf3Zr2GaPb3
_chemical_formula_sum   'Hf6 Zr4 Ga2 Pb6'
_cell_volume   398.69827061
_cell_formula_units_Z   2
loop_
 _symmetry_equiv_pos_site_id
 _symmetry_equiv_pos_as_xyz
  1  'x, y, z'
loop_
 _atom_site_type_symbol
 _atom_site_label
 _atom_site_symmetry_multiplicity
 _atom_site_fract_x
 _atom_site_fract_y
 _atom_site_fract_z
 _atom_site_occupancy
  Hf  Hf0  1  0.332955  0.666478  0.000000  1
  Hf  Hf1  1  0.665989  0.332994  0.500000  1
  Hf  Hf2  1  0.665989  0.332994  0.000000  1
  Hf  Hf3  1  0.332955  0.666478  0.500000  1
  Hf  Hf4  1  0.263531  0.000853  0.250000  1
  Hf  Hf5  1  0.263531  0.262679  0.750000  1
  Zr  Zr6  1  0.000134  0.736931  0.750000  1
  Zr  Zr7  1  0.000134  0.263204  0.250000  1
  Zr  Zr8  1  0.736740  0.737481  0.250000  1
  Zr  Zr9  1  0.736740  0.999259  0.750000  1
  Ga  Ga10  1  0.001625  0.000813  0.000000  1
  Ga  Ga11  1  0.001625  0.000813  0.500000  1
  Pb  Pb12  1  0.610077  0.999991  0.250000  1
  Pb  Pb13  1  0.610077  0.610086  0.750000  1
  Pb  Pb14  1  0.000111  0.388529  0.750000  1
  Pb  Pb15  1  0.000111  0.611582  0.250000  1
  Pb  Pb16  1  0.388838  0.388704  0.250000  1
  Pb  Pb17  1  0.388838  0.000134  0.750000  1
