# generated using pymatgen
data_La2Be23Cu3
_symmetry_space_group_name_H-M   'P 1'
_cell_length_a   7.44344909
_cell_length_b   7.47088238
_cell_length_c   7.40285608
_cell_angle_alpha   60.05648088
_cell_angle_beta   60.11414456
_cell_angle_gamma   59.51841545
_symmetry_Int_Tables_number   1
_chemical_formula_structural   La2Be23Cu3
_chemical_formula_sum   'La2 Be23 Cu3'
_cell_volume   290.38848449
_cell_formula_units_Z   1
loop_
 _symmetry_equiv_pos_site_id
 _symmetry_equiv_pos_as_xyz
  1  'x, y, z'
loop_
 _atom_site_type_symbol
 _atom_site_label
 _atom_site_symmetry_multiplicity
 _atom_site_fract_x
 _atom_site_fract_y
 _atom_site_fract_z
 _atom_site_occupancy
  La  La0  1  0.251717  0.248824  0.250944  1
  La  La1  1  0.749056  0.751485  0.748283  1
  Be  Be2  1  0.500339  0.500569  0.499661  1
  Be  Be3  1  0.999809  0.999840  0.000191  1
  Be  Be4  1  0.435232  0.208387  0.564768  1
  Be  Be5  1  0.282565  0.935878  0.717435  1
  Be  Be6  1  0.717292  0.070267  0.282708  1
  Be  Be7  1  0.932179  0.278223  0.067821  1
  Be  Be8  1  0.069574  0.721710  0.930426  1
  Be  Be9  1  0.206924  0.793781  0.562326  1
  Be  Be10  1  0.790422  0.204978  0.440057  1
  Be  Be11  1  0.437674  0.563031  0.793076  1
  Be  Be12  1  0.559943  0.435457  0.209578  1
  Be  Be13  1  0.715369  0.283078  0.935324  1
  Be  Be14  1  0.283677  0.716716  0.065568  1
  Be  Be15  1  0.064676  0.933771  0.284631  1
  Be  Be16  1  0.934432  0.065962  0.716323  1
  Be  Be17  1  0.568359  0.209510  0.787089  1
  Be  Be18  1  0.429934  0.789094  0.210409  1
  Be  Be19  1  0.789591  0.429436  0.570066  1
  Be  Be20  1  0.212911  0.564957  0.431641  1
  Be  Be21  1  0.939467  0.716255  0.283630  1
  Be  Be22  1  0.063849  0.283076  0.714353  1
  Be  Be23  1  0.285647  0.061277  0.936151  1
  Be  Be24  1  0.716370  0.939353  0.060533  1
  Cu  Cu25  1  0.801710  0.557039  0.198290  1
  Cu  Cu26  1  0.201021  0.438671  0.798979  1
  Cu  Cu27  1  0.560260  0.799375  0.439740  1
