# generated using pymatgen
data_Tm6Sc6Tc3Sn2
_symmetry_space_group_name_H-M   'P 1'
_cell_length_a   8.08098631
_cell_length_b   8.19042451
_cell_length_c   8.19042400
_cell_angle_alpha   110.00523227
_cell_angle_beta   109.17705871
_cell_angle_gamma   109.77426761
_symmetry_Int_Tables_number   1
_chemical_formula_structural   Tm6Sc6Tc3Sn2
_chemical_formula_sum   'Tm6 Sc6 Tc3 Sn2'
_cell_volume   414.46983270
_cell_formula_units_Z   1
loop_
 _symmetry_equiv_pos_site_id
 _symmetry_equiv_pos_as_xyz
  1  'x, y, z'
loop_
 _atom_site_type_symbol
 _atom_site_label
 _atom_site_symmetry_multiplicity
 _atom_site_fract_x
 _atom_site_fract_y
 _atom_site_fract_z
 _atom_site_occupancy
  Tm  Tm0  1  0.440324  0.192632  0.247691  1
  Tm  Tm1  1  0.559676  0.807368  0.752309  1
  Tm  Tm2  1  0.309535  0.306784  0.626573  1
  Tm  Tm3  1  0.690465  0.693216  0.373427  1
  Tm  Tm4  1  0.690465  0.317037  0.997250  1
  Tm  Tm5  1  0.309535  0.682963  0.002750  1
  Sc  Sc6  1  0.180814  0.417459  0.236156  1
  Sc  Sc7  1  0.819186  0.582541  0.763844  1
  Sc  Sc8  1  0.180814  0.944659  0.763355  1
  Sc  Sc9  1  0.945987  0.185357  0.760628  1
  Sc  Sc10  1  0.819186  0.055341  0.236645  1
  Sc  Sc11  1  0.054013  0.814643  0.239372  1
  Tc  Tc12  1  0.336388  0.338577  0.997811  1
  Tc  Tc13  1  0.663612  0.661423  0.002189  1
  Tc  Tc14  1  0.000000  0.000000  0.000000  1
  Sn  Sn15  1  0.000000  0.500000  0.500000  1
  Sn  Sn16  1  0.500000  0.000000  0.500000  1
