# generated using pymatgen
data_Dy10Y2Co4NiSn
_symmetry_space_group_name_H-M   'P 1'
_cell_length_a   8.30871187
_cell_length_b   8.30871253
_cell_length_c   8.30871238
_cell_angle_alpha   107.22345847
_cell_angle_beta   110.56930251
_cell_angle_gamma   110.64402145
_symmetry_Int_Tables_number   1
_chemical_formula_structural   Dy10Y2Co4NiSn
_chemical_formula_sum   'Dy10 Y2 Co4 Ni1 Sn1'
_cell_volume   441.04200082
_cell_formula_units_Z   1
loop_
 _symmetry_equiv_pos_site_id
 _symmetry_equiv_pos_as_xyz
  1  'x, y, z'
loop_
 _atom_site_type_symbol
 _atom_site_label
 _atom_site_symmetry_multiplicity
 _atom_site_fract_x
 _atom_site_fract_y
 _atom_site_fract_z
 _atom_site_occupancy
  Dy  Dy0  1  0.892397  0.705574  0.186824  1
  Dy  Dy1  1  0.518751  0.705574  0.813176  1
  Dy  Dy2  1  0.306274  0.620731  0.314457  1
  Dy  Dy3  1  0.306274  0.991818  0.685543  1
  Dy  Dy4  1  0.694045  0.380293  0.686248  1
  Dy  Dy5  1  0.694045  0.007797  0.313752  1
  Dy  Dy6  1  0.195615  0.208455  0.404062  1
  Dy  Dy7  1  0.804392  0.791553  0.595938  1
  Dy  Dy8  1  0.195615  0.791553  0.987160  1
  Dy  Dy9  1  0.804392  0.208455  0.012840  1
  Y  Y10  1  0.482629  0.294548  0.188082  1
  Y  Y11  1  0.106467  0.294548  0.811918  1
  Co  Co12  1  0.500945  0.613118  0.112173  1
  Co  Co13  1  0.500945  0.388772  0.887827  1
  Co  Co14  1  0.377561  0.000428  0.377132  1
  Co  Co15  1  0.623296  0.000428  0.622868  1
  Ni  Ni16  1  0.996689  0.996689  0.000000  1
  Sn  Sn17  1  0.999667  0.499667  0.500000  1
