# generated using pymatgen
data_La2HoIr9
_symmetry_space_group_name_H-M   'P 1'
_cell_length_a   5.38033400
_cell_length_b   5.38033320
_cell_length_c   17.62593500
_cell_angle_alpha   90.00000000
_cell_angle_beta   90.00000000
_cell_angle_gamma   120.00000492
_symmetry_Int_Tables_number   1
_chemical_formula_structural   La2HoIr9
_chemical_formula_sum   'La4 Ho2 Ir18'
_cell_volume   441.87678237
_cell_formula_units_Z   2
loop_
 _symmetry_equiv_pos_site_id
 _symmetry_equiv_pos_as_xyz
  1  'x, y, z'
loop_
 _atom_site_type_symbol
 _atom_site_label
 _atom_site_symmetry_multiplicity
 _atom_site_fract_x
 _atom_site_fract_y
 _atom_site_fract_z
 _atom_site_occupancy
  La  La0  1  0.333333  0.666667  0.959597  1
  La  La1  1  0.666667  0.333333  0.040403  1
  La  La2  1  0.333333  0.666667  0.750590  1
  La  La3  1  0.666667  0.333333  0.249410  1
  Ho  Ho4  1  0.666667  0.333333  0.457871  1
  Ho  Ho5  1  0.333333  0.666667  0.542129  1
  Ir  Ir6  1  0.167411  0.832589  0.375049  1
  Ir  Ir7  1  0.167411  0.334822  0.375049  1
  Ir  Ir8  1  0.665178  0.832589  0.375049  1
  Ir  Ir9  1  0.832589  0.167411  0.624951  1
  Ir  Ir10  1  0.832589  0.665178  0.624951  1
  Ir  Ir11  1  0.334822  0.167411  0.624951  1
  Ir  Ir12  1  0.833838  0.166162  0.870493  1
  Ir  Ir13  1  0.833838  0.667675  0.870493  1
  Ir  Ir14  1  0.332325  0.166162  0.870493  1
  Ir  Ir15  1  0.166162  0.833838  0.129507  1
  Ir  Ir16  1  0.166162  0.332325  0.129507  1
  Ir  Ir17  1  0.667675  0.833838  0.129507  1
  Ir  Ir18  1  0.333333  0.666667  0.251105  1
  Ir  Ir19  1  0.666667  0.333333  0.748895  1
  Ir  Ir20  1  0.000000  0.000000  0.252226  1
  Ir  Ir21  1  0.000000  0.000000  0.747774  1
  Ir  Ir22  1  0.000000  0.000000  0.500000  1
  Ir  Ir23  1  0.000000  0.000000  0.000000  1
