# generated using pymatgen
data_Ce8Ta10Ti2Si15As
_symmetry_space_group_name_H-M   'P 1'
_cell_length_a   7.08866745
_cell_length_b   7.07443845
_cell_length_c   13.19452412
_cell_angle_alpha   89.95186897
_cell_angle_beta   89.86384953
_cell_angle_gamma   89.96643282
_symmetry_Int_Tables_number   1
_chemical_formula_structural   Ce8Ta10Ti2Si15As
_chemical_formula_sum   'Ce8 Ta10 Ti2 Si15 As1'
_cell_volume   661.68128798
_cell_formula_units_Z   1
loop_
 _symmetry_equiv_pos_site_id
 _symmetry_equiv_pos_as_xyz
  1  'x, y, z'
loop_
 _atom_site_type_symbol
 _atom_site_label
 _atom_site_symmetry_multiplicity
 _atom_site_fract_x
 _atom_site_fract_y
 _atom_site_fract_z
 _atom_site_occupancy
  Ce  Ce0  1  0.335735  0.002914  0.466642  1
  Ce  Ce1  1  0.496278  0.836741  0.718224  1
  Ce  Ce2  1  0.504375  0.165112  0.217530  1
  Ce  Ce3  1  0.834485  0.494289  0.282601  1
  Ce  Ce4  1  0.165345  0.503218  0.782582  1
  Ce  Ce5  1  0.667845  0.993881  0.968369  1
  Ce  Ce6  1  0.000669  0.337375  0.531327  1
  Ce  Ce7  1  0.994762  0.666969  0.032823  1
  Ta  Ta8  1  0.331430  0.331667  0.999619  1
  Ta  Ta9  1  0.169380  0.829427  0.250350  1
  Ta  Ta10  1  0.827871  0.171113  0.750309  1
  Ta  Ta11  1  0.668408  0.667670  0.499599  1
  Ta  Ta12  1  0.159948  0.007525  0.877106  1
  Ta  Ta13  1  0.494384  0.657060  0.126413  1
  Ta  Ta14  1  0.506278  0.342963  0.626999  1
  Ta  Ta15  1  0.658664  0.497885  0.874937  1
  Ta  Ta16  1  0.342513  0.505111  0.373654  1
  Ta  Ta17  1  0.841620  0.993916  0.376416  1
  Ti  Ti18  1  0.006207  0.157546  0.123679  1
  Ti  Ti19  1  0.991301  0.838216  0.621628  1
  Si  Si20  1  0.371115  0.704608  0.936002  1
  Si  Si21  1  0.627161  0.296168  0.435978  1
  Si  Si22  1  0.702445  0.370529  0.064130  1
  Si  Si23  1  0.297814  0.628678  0.563837  1
  Si  Si24  1  0.798393  0.872963  0.186391  1
  Si  Si25  1  0.127976  0.201449  0.313555  1
  Si  Si26  1  0.873483  0.799326  0.812622  1
  Si  Si27  1  0.291924  0.960437  0.065468  1
  Si  Si28  1  0.541764  0.792724  0.314275  1
  Si  Si29  1  0.466662  0.209375  0.818522  1
  Si  Si30  1  0.794147  0.542570  0.685157  1
  Si  Si31  1  0.204714  0.457771  0.184802  1
  Si  Si32  1  0.708102  0.039457  0.564918  1
  Si  Si33  1  0.959369  0.294102  0.936715  1
  Si  Si34  1  0.040553  0.706544  0.435233  1
  As  As35  1  0.196881  0.122705  0.681587  1
