# generated using pymatgen
data_Fe5Ni(BO5)2
_symmetry_space_group_name_H-M   'P 1'
_cell_length_a   3.08903100
_cell_length_b   9.55021700
_cell_length_c   12.46585500
_cell_angle_alpha   90.00000000
_cell_angle_beta   90.00000000
_cell_angle_gamma   90.00000000
_symmetry_Int_Tables_number   1
_chemical_formula_structural   Fe5Ni(BO5)2
_chemical_formula_sum   'Fe10 Ni2 B4 O20'
_cell_volume   367.75414583
_cell_formula_units_Z   2
loop_
 _symmetry_equiv_pos_site_id
 _symmetry_equiv_pos_as_xyz
  1  'x, y, z'
loop_
 _atom_site_type_symbol
 _atom_site_label
 _atom_site_symmetry_multiplicity
 _atom_site_fract_x
 _atom_site_fract_y
 _atom_site_fract_z
 _atom_site_occupancy
  Fe  Fe0  1  0.000000  0.252086  0.500250  1
  Fe  Fe1  1  0.000000  0.747914  0.000250  1
  Fe  Fe2  1  0.500000  0.249239  0.999785  1
  Fe  Fe3  1  0.500000  0.750761  0.499785  1
  Fe  Fe4  1  0.000000  0.248680  0.776518  1
  Fe  Fe5  1  0.000000  0.751320  0.276518  1
  Fe  Fe6  1  0.500000  0.507841  0.883605  1
  Fe  Fe7  1  0.500000  0.995602  0.113845  1
  Fe  Fe8  1  0.500000  0.004398  0.613845  1
  Fe  Fe9  1  0.500000  0.492159  0.383605  1
  Ni  Ni10  1  0.000000  0.249708  0.222046  1
  Ni  Ni11  1  0.000000  0.750292  0.722046  1
  B  B12  1  0.500000  0.485326  0.639298  1
  B  B13  1  0.500000  0.023036  0.361837  1
  B  B14  1  0.500000  0.976964  0.861837  1
  B  B15  1  0.500000  0.514674  0.139298  1
  O  O16  1  0.500000  0.413144  0.542155  1
  O  O17  1  0.500000  0.094511  0.459053  1
  O  O18  1  0.500000  0.905489  0.959053  1
  O  O19  1  0.500000  0.586856  0.042155  1
  O  O20  1  0.500000  0.121403  0.859495  1
  O  O21  1  0.500000  0.368972  0.143308  1
  O  O22  1  0.500000  0.631028  0.643308  1
  O  O23  1  0.500000  0.878597  0.359495  1
  O  O24  1  0.500000  0.410055  0.734419  1
  O  O25  1  0.500000  0.099276  0.265627  1
  O  O26  1  0.500000  0.900724  0.765627  1
  O  O27  1  0.500000  0.589945  0.234419  1
  O  O28  1  0.000000  0.366782  0.917253  1
  O  O29  1  0.000000  0.133335  0.083612  1
  O  O30  1  0.000000  0.866665  0.583612  1
  O  O31  1  0.000000  0.633218  0.417253  1
  O  O32  1  0.000000  0.136924  0.641073  1
  O  O33  1  0.000000  0.360673  0.356823  1
  O  O34  1  0.000000  0.639327  0.856823  1
  O  O35  1  0.000000  0.863076  0.141073  1
