# generated using pymatgen
data_Gd3Zn2SiRh6
_symmetry_space_group_name_H-M   'P 1'
_cell_length_a   5.53553200
_cell_length_b   5.53553171
_cell_length_c   15.65643600
_cell_angle_alpha   90.00000000
_cell_angle_beta   90.00000000
_cell_angle_gamma   120.00000174
_symmetry_Int_Tables_number   1
_chemical_formula_structural   Gd3Zn2SiRh6
_chemical_formula_sum   'Gd6 Zn4 Si2 Rh12'
_cell_volume   415.47245837
_cell_formula_units_Z   2
loop_
 _symmetry_equiv_pos_site_id
 _symmetry_equiv_pos_as_xyz
  1  'x, y, z'
loop_
 _atom_site_type_symbol
 _atom_site_label
 _atom_site_symmetry_multiplicity
 _atom_site_fract_x
 _atom_site_fract_y
 _atom_site_fract_z
 _atom_site_occupancy
  Gd  Gd0  1  0.666667  0.333334  0.039491  1
  Gd  Gd1  1  0.666667  0.333334  0.250000  1
  Gd  Gd2  1  0.666667  0.333334  0.460509  1
  Gd  Gd3  1  0.333333  0.666667  0.541193  1
  Gd  Gd4  1  0.333333  0.666667  0.750000  1
  Gd  Gd5  1  0.333333  0.666667  0.958807  1
  Zn  Zn6  1  0.000000  0.000000  0.994568  1
  Zn  Zn7  1  0.000000  0.000000  0.250000  1
  Zn  Zn8  1  0.333333  0.666667  0.250000  1
  Zn  Zn9  1  0.000000  0.000000  0.505432  1
  Si  Si10  1  0.000000  0.000000  0.750000  1
  Si  Si11  1  0.666667  0.333334  0.750000  1
  Rh  Rh12  1  0.168263  0.336529  0.121668  1
  Rh  Rh13  1  0.168264  0.831737  0.121668  1
  Rh  Rh14  1  0.663471  0.831737  0.121668  1
  Rh  Rh15  1  0.168263  0.336529  0.378331  1
  Rh  Rh16  1  0.168264  0.831737  0.378331  1
  Rh  Rh17  1  0.663471  0.831737  0.378331  1
  Rh  Rh18  1  0.335445  0.167722  0.636849  1
  Rh  Rh19  1  0.832279  0.167722  0.636849  1
  Rh  Rh20  1  0.832278  0.664556  0.636849  1
  Rh  Rh21  1  0.335445  0.167722  0.863151  1
  Rh  Rh22  1  0.832279  0.167722  0.863151  1
  Rh  Rh23  1  0.832278  0.664556  0.863151  1
