# generated using pymatgen
data_Lu8Ti7Si12Ge4Mo5
_symmetry_space_group_name_H-M   'P 1'
_cell_length_a   6.74497399
_cell_length_b   6.92143080
_cell_length_c   13.18844109
_cell_angle_alpha   90.03496221
_cell_angle_beta   89.95764791
_cell_angle_gamma   90.05947631
_symmetry_Int_Tables_number   1
_chemical_formula_structural   Lu8Ti7Si12Ge4Mo5
_chemical_formula_sum   'Lu8 Ti7 Si12 Ge4 Mo5'
_cell_volume   615.70005287
_cell_formula_units_Z   1
loop_
 _symmetry_equiv_pos_site_id
 _symmetry_equiv_pos_as_xyz
  1  'x, y, z'
loop_
 _atom_site_type_symbol
 _atom_site_label
 _atom_site_symmetry_multiplicity
 _atom_site_fract_x
 _atom_site_fract_y
 _atom_site_fract_z
 _atom_site_occupancy
  Lu  Lu0  1  0.502047  0.327724  0.097332  1
  Lu  Lu1  1  0.001225  0.173013  0.403095  1
  Lu  Lu2  1  0.498709  0.674658  0.596139  1
  Lu  Lu3  1  0.998252  0.827749  0.902803  1
  Lu  Lu4  1  0.501315  0.671746  0.901091  1
  Lu  Lu5  1  0.005356  0.828346  0.596762  1
  Lu  Lu6  1  0.497151  0.326647  0.404569  1
  Lu  Lu7  1  0.997380  0.173229  0.098156  1
  Ti  Ti8  1  0.841590  0.329001  0.628572  1
  Ti  Ti9  1  0.337284  0.171386  0.870664  1
  Ti  Ti10  1  0.161171  0.669675  0.129338  1
  Ti  Ti11  1  0.660517  0.829954  0.372227  1
  Ti  Ti12  1  0.167731  0.671291  0.374212  1
  Ti  Ti13  1  0.667511  0.828741  0.127039  1
  Ti  Ti14  1  0.830617  0.328032  0.871246  1
  Si  Si15  1  0.331093  0.959204  0.458796  1
  Si  Si16  1  0.834018  0.540204  0.042831  1
  Si  Si17  1  0.665190  0.039574  0.957233  1
  Si  Si18  1  0.170107  0.458749  0.543111  1
  Si  Si19  1  0.535728  0.375263  0.746593  1
  Si  Si20  1  0.039563  0.122659  0.750947  1
  Si  Si21  1  0.462172  0.623288  0.249766  1
  Si  Si22  1  0.962067  0.877159  0.251578  1
  Si  Si23  1  0.798763  0.630277  0.748809  1
  Si  Si24  1  0.301141  0.870975  0.749791  1
  Si  Si25  1  0.202314  0.369312  0.250874  1
  Si  Si26  1  0.700286  0.130690  0.250109  1
  Ge  Ge27  1  0.668184  0.039432  0.542399  1
  Ge  Ge28  1  0.167666  0.459265  0.958215  1
  Ge  Ge29  1  0.331200  0.959214  0.041396  1
  Ge  Ge30  1  0.831750  0.540066  0.458748  1
  Mo  Mo31  1  0.329984  0.169721  0.625920  1
  Mo  Mo32  1  0.665298  0.009771  0.751545  1
  Mo  Mo33  1  0.162030  0.491775  0.747369  1
  Mo  Mo34  1  0.335937  0.992986  0.252856  1
  Mo  Mo35  1  0.837654  0.509226  0.247867  1
