# generated using pymatgen
data_ScCrAg6F14
_symmetry_space_group_name_H-M   'P 1'
_cell_length_a   7.84340844
_cell_length_b   7.77383231
_cell_length_c   7.83049662
_cell_angle_alpha   118.51447808
_cell_angle_beta   121.38270595
_cell_angle_gamma   90.29602577
_symmetry_Int_Tables_number   1
_chemical_formula_structural   ScCrAg6F14
_chemical_formula_sum   'Sc1 Cr1 Ag6 F14'
_cell_volume   337.04476018
_cell_formula_units_Z   1
loop_
 _symmetry_equiv_pos_site_id
 _symmetry_equiv_pos_as_xyz
  1  'x, y, z'
loop_
 _atom_site_type_symbol
 _atom_site_label
 _atom_site_symmetry_multiplicity
 _atom_site_fract_x
 _atom_site_fract_y
 _atom_site_fract_z
 _atom_site_occupancy
  Sc  Sc0  1  0.500000  0.500000  0.500000  1
  Cr  Cr1  1  0.500000  0.000000  0.000000  1
  Ag  Ag2  1  0.000000  0.500000  0.500000  1
  Ag  Ag3  1  0.500000  0.000000  0.500000  1
  Ag  Ag4  1  0.500000  0.500000  0.000000  1
  Ag  Ag5  1  0.000000  0.000000  0.000000  1
  Ag  Ag6  1  0.000000  0.500000  0.000000  1
  Ag  Ag7  1  0.000000  0.000000  0.500000  1
  F  F8  1  0.851508  0.603175  0.252847  1
  F  F9  1  0.151664  0.901266  0.255179  1
  F  F10  1  0.195230  0.871519  0.811026  1
  F  F11  1  0.436166  0.632993  0.314262  1
  F  F12  1  0.439477  0.118583  0.813492  1
  F  F13  1  0.182049  0.375029  0.310780  1
  F  F14  1  0.817951  0.624971  0.689220  1
  F  F15  1  0.560523  0.881417  0.186508  1
  F  F16  1  0.563834  0.367007  0.685738  1
  F  F17  1  0.804770  0.128481  0.188974  1
  F  F18  1  0.489034  0.245158  0.233360  1
  F  F19  1  0.148492  0.396825  0.747153  1
  F  F20  1  0.848336  0.098734  0.744821  1
  F  F21  1  0.510966  0.754842  0.766640  1
