# generated using pymatgen
data_Pr2Zn2Si2IrRh5
_symmetry_space_group_name_H-M   'P 1'
_cell_length_a   6.80580086
_cell_length_b   6.78098716
_cell_length_c   6.80580095
_cell_angle_alpha   130.63469183
_cell_angle_beta   113.16748234
_cell_angle_gamma   87.56795376
_symmetry_Int_Tables_number   1
_chemical_formula_structural   Pr2Zn2Si2IrRh5
_chemical_formula_sum   'Pr2 Zn2 Si2 Ir1 Rh5'
_cell_volume   208.59289258
_cell_formula_units_Z   1
loop_
 _symmetry_equiv_pos_site_id
 _symmetry_equiv_pos_as_xyz
  1  'x, y, z'
loop_
 _atom_site_type_symbol
 _atom_site_label
 _atom_site_symmetry_multiplicity
 _atom_site_fract_x
 _atom_site_fract_y
 _atom_site_fract_z
 _atom_site_occupancy
  Pr  Pr0  1  0.245901  0.981733  0.734678  1
  Pr  Pr1  1  0.752944  0.018267  0.264167  1
  Zn  Zn2  1  0.072593  0.303777  0.232719  1
  Zn  Zn3  1  0.928942  0.696223  0.768817  1
  Si  Si4  1  0.403747  0.641258  0.236136  1
  Si  Si5  1  0.594877  0.358742  0.762488  1
  Ir  Ir6  1  0.729878  0.500000  0.229878  1
  Rh  Rh7  1  0.500752  0.498328  0.498839  1
  Rh  Rh8  1  0.000511  0.501672  0.002424  1
  Rh  Rh9  1  0.285771  0.000000  0.285771  1
  Rh  Rh10  1  0.714098  0.000000  0.714098  1
  Rh  Rh11  1  0.269984  0.500000  0.769984  1
