# generated using pymatgen
data_Th6Al6Pd5Pt
_symmetry_space_group_name_H-M   'P 1'
_cell_length_a   7.27310400
_cell_length_b   7.27310365
_cell_length_c   8.47180200
_cell_angle_alpha   90.00000000
_cell_angle_beta   90.00000000
_cell_angle_gamma   119.99999250
_symmetry_Int_Tables_number   1
_chemical_formula_structural   Th6Al6Pd5Pt
_chemical_formula_sum   'Th6 Al6 Pd5 Pt1'
_cell_volume   388.10213868
_cell_formula_units_Z   1
loop_
 _symmetry_equiv_pos_site_id
 _symmetry_equiv_pos_as_xyz
  1  'x, y, z'
loop_
 _atom_site_type_symbol
 _atom_site_label
 _atom_site_symmetry_multiplicity
 _atom_site_fract_x
 _atom_site_fract_y
 _atom_site_fract_z
 _atom_site_occupancy
  Th  Th0  1  0.000836  0.579437  0.750842  1
  Th  Th1  1  0.000264  0.578874  0.248991  1
  Th  Th2  1  0.578610  0.999736  0.248991  1
  Th  Th3  1  0.578601  0.999164  0.750842  1
  Th  Th4  1  0.421126  0.421390  0.248991  1
  Th  Th5  1  0.420563  0.421399  0.750842  1
  Al  Al6  1  0.999952  0.231775  0.500132  1
  Al  Al7  1  0.766267  0.766336  0.000178  1
  Al  Al8  1  0.000069  0.233733  0.000178  1
  Al  Al9  1  0.231824  0.000048  0.500132  1
  Al  Al10  1  0.233664  0.999931  0.000178  1
  Al  Al11  1  0.768225  0.768176  0.500132  1
  Pd  Pd12  1  0.333333  0.666667  0.499184  1
  Pd  Pd13  1  0.666667  0.333333  0.500671  1
  Pd  Pd14  1  0.666667  0.333333  0.999259  1
  Pd  Pd15  1  0.000000  0.000000  0.248448  1
  Pd  Pd16  1  0.000000  0.000000  0.752180  1
  Pt  Pt17  1  0.333333  0.666667  0.999828  1
