# generated using pymatgen
data_LaNd3(AgTe)12
_symmetry_space_group_name_H-M   'P 1'
_cell_length_a   7.33588311
_cell_length_b   8.29998584
_cell_length_c   13.88526600
_cell_angle_alpha   89.97563199
_cell_angle_beta   89.96849307
_cell_angle_gamma   89.81536933
_symmetry_Int_Tables_number   1
_chemical_formula_structural   LaNd3(AgTe)12
_chemical_formula_sum   'La1 Nd3 Ag12 Te12'
_cell_volume   845.43767727
_cell_formula_units_Z   1
loop_
 _symmetry_equiv_pos_site_id
 _symmetry_equiv_pos_as_xyz
  1  'x, y, z'
loop_
 _atom_site_type_symbol
 _atom_site_label
 _atom_site_symmetry_multiplicity
 _atom_site_fract_x
 _atom_site_fract_y
 _atom_site_fract_z
 _atom_site_occupancy
  La  La0  1  0.243375  0.749354  0.833785  1
  Nd  Nd1  1  0.743208  0.250539  0.334862  1
  Nd  Nd2  1  0.743317  0.250518  0.665399  1
  Nd  Nd3  1  0.243328  0.749458  0.165184  1
  Ag  Ag4  1  0.381216  0.122115  0.831941  1
  Ag  Ag5  1  0.625625  0.606965  0.000201  1
  Ag  Ag6  1  0.880970  0.878387  0.667553  1
  Ag  Ag7  1  0.607078  0.623836  0.669836  1
  Ag  Ag8  1  0.866289  0.889383  0.000380  1
  Ag  Ag9  1  0.124906  0.392391  0.499896  1
  Ag  Ag10  1  0.606510  0.624268  0.329446  1
  Ag  Ag11  1  0.367369  0.111292  0.499945  1
  Ag  Ag12  1  0.880915  0.878055  0.331874  1
  Ag  Ag13  1  0.381907  0.121871  0.168216  1
  Ag  Ag14  1  0.106523  0.375540  0.829507  1
  Ag  Ag15  1  0.105866  0.375889  0.170573  1
  Te  Te16  1  0.007442  0.560726  0.332830  1
  Te  Te17  1  0.507143  0.439093  0.167521  1
  Te  Te18  1  0.979722  0.059604  0.167795  1
  Te  Te19  1  0.005519  0.559652  0.666687  1
  Te  Te20  1  0.016000  0.567475  0.001191  1
  Te  Te21  1  0.509613  0.437421  0.832666  1
  Te  Te22  1  0.479201  0.940755  0.332542  1
  Te  Te23  1  0.481285  0.941646  0.667056  1
  Te  Te24  1  0.973437  0.072795  0.499867  1
  Te  Te25  1  0.474298  0.928760  0.001038  1
  Te  Te26  1  0.977196  0.061112  0.832329  1
  Te  Te27  1  0.516742  0.431097  0.499879  1
