# generated using pymatgen
data_YEr4Si10P2Ir19
_symmetry_space_group_name_H-M   'P 1'
_cell_length_a   12.83148404
_cell_length_b   12.83119075
_cell_length_c   3.95295300
_cell_angle_alpha   90.00000000
_cell_angle_beta   90.00000000
_cell_angle_gamma   120.15065261
_symmetry_Int_Tables_number   1
_chemical_formula_structural   YEr4Si10P2Ir19
_chemical_formula_sum   'Y1 Er4 Si10 P2 Ir19'
_cell_volume   562.77505104
_cell_formula_units_Z   1
loop_
 _symmetry_equiv_pos_site_id
 _symmetry_equiv_pos_as_xyz
  1  'x, y, z'
loop_
 _atom_site_type_symbol
 _atom_site_label
 _atom_site_symmetry_multiplicity
 _atom_site_fract_x
 _atom_site_fract_y
 _atom_site_fract_z
 _atom_site_occupancy
  Y  Y0  1  0.666539  0.333620  0.000000  1
  Er  Er1  1  0.333640  0.666514  0.000000  1
  Er  Er2  1  0.812955  0.812956  0.500000  1
  Er  Er3  1  0.186034  0.001174  0.500000  1
  Er  Er4  1  0.001174  0.186035  0.500000  1
  Si  Si5  1  0.686106  0.167387  0.500000  1
  Si  Si6  1  0.832231  0.518392  0.500000  1
  Si  Si7  1  0.481016  0.312917  0.500000  1
  Si  Si8  1  0.167601  0.686073  0.500000  1
  Si  Si9  1  0.518134  0.832012  0.500000  1
  Si  Si10  1  0.312955  0.481268  0.500000  1
  Si  Si11  1  0.633551  0.633533  0.000000  1
  Si  Si12  1  0.366855  0.000207  0.000000  1
  Si  Si13  1  0.000171  0.366838  0.000000  1
  Si  Si14  1  0.178578  0.178588  0.000000  1
  P  P15  1  0.820900  0.000850  0.000000  1
  P  P16  1  0.000876  0.820915  0.000000  1
  Ir  Ir17  1  0.806770  0.179829  0.000000  1
  Ir  Ir18  1  0.820632  0.627439  0.000000  1
  Ir  Ir19  1  0.375234  0.193677  0.000000  1
  Ir  Ir20  1  0.179909  0.806714  0.000000  1
  Ir  Ir21  1  0.627296  0.820549  0.000000  1
  Ir  Ir22  1  0.193747  0.375402  0.000000  1
  Ir  Ir23  1  0.448223  0.448221  0.000000  1
  Ir  Ir24  1  0.552133  0.999083  0.000000  1
  Ir  Ir25  1  0.999082  0.552131  0.000000  1
  Ir  Ir26  1  0.281649  0.281676  0.500000  1
  Ir  Ir27  1  0.721036  0.000175  0.500000  1
  Ir  Ir28  1  0.000216  0.721057  0.500000  1
  Ir  Ir29  1  0.872348  0.359349  0.500000  1
  Ir  Ir30  1  0.640651  0.513181  0.500000  1
  Ir  Ir31  1  0.486964  0.126235  0.500000  1
  Ir  Ir32  1  0.359309  0.871976  0.500000  1
  Ir  Ir33  1  0.512844  0.640687  0.500000  1
  Ir  Ir34  1  0.126591  0.487288  0.500000  1
  Ir  Ir35  1  0.996050  0.996054  0.000000  1
