# generated using pymatgen
data_Sr4Cu3NiAs4
_symmetry_space_group_name_H-M   'P 1'
_cell_length_a   8.77472134
_cell_length_b   4.21343900
_cell_length_c   7.32046028
_cell_angle_alpha   90.00000000
_cell_angle_beta   89.96816626
_cell_angle_gamma   90.00000000
_symmetry_Int_Tables_number   1
_chemical_formula_structural   Sr4Cu3NiAs4
_chemical_formula_sum   'Sr4 Cu3 Ni1 As4'
_cell_volume   270.65020838
_cell_formula_units_Z   1
loop_
 _symmetry_equiv_pos_site_id
 _symmetry_equiv_pos_as_xyz
  1  'x, y, z'
loop_
 _atom_site_type_symbol
 _atom_site_label
 _atom_site_symmetry_multiplicity
 _atom_site_fract_x
 _atom_site_fract_y
 _atom_site_fract_z
 _atom_site_occupancy
  Sr  Sr0  1  0.496178  0.749999  0.246213  1
  Sr  Sr1  1  0.003792  0.749999  0.247938  1
  Sr  Sr2  1  0.003186  0.250000  0.752644  1
  Sr  Sr3  1  0.496926  0.250000  0.754460  1
  Cu  Cu4  1  0.749184  0.250000  0.415656  1
  Cu  Cu5  1  0.250830  0.749999  0.584999  1
  Cu  Cu6  1  0.750765  0.749999  0.915402  1
  Ni  Ni7  1  0.249151  0.250000  0.082255  1
  As  As8  1  0.751092  0.250000  0.083267  1
  As  As9  1  0.250719  0.250000  0.410259  1
  As  As10  1  0.748864  0.749999  0.582708  1
  As  As11  1  0.249314  0.749999  0.924198  1
