# generated using pymatgen
data_Hf8In4PdPt5Rh2
_symmetry_space_group_name_H-M   'P 1'
_cell_length_a   7.57250848
_cell_length_b   7.58421971
_cell_length_c   6.68959419
_cell_angle_alpha   89.98732408
_cell_angle_beta   90.23149509
_cell_angle_gamma   90.26146975
_symmetry_Int_Tables_number   1
_chemical_formula_structural   Hf8In4PdPt5Rh2
_chemical_formula_sum   'Hf8 In4 Pd1 Pt5 Rh2'
_cell_volume   384.18674016
_cell_formula_units_Z   1
loop_
 _symmetry_equiv_pos_site_id
 _symmetry_equiv_pos_as_xyz
  1  'x, y, z'
loop_
 _atom_site_type_symbol
 _atom_site_label
 _atom_site_symmetry_multiplicity
 _atom_site_fract_x
 _atom_site_fract_y
 _atom_site_fract_z
 _atom_site_occupancy
  Hf  Hf0  1  0.155588  0.159231  0.003202  1
  Hf  Hf1  1  0.840856  0.844436  0.999020  1
  Hf  Hf2  1  0.653960  0.345942  0.500631  1
  Hf  Hf3  1  0.348120  0.651334  0.498019  1
  Hf  Hf4  1  0.674328  0.325805  0.999935  1
  Hf  Hf5  1  0.327390  0.672004  0.001251  1
  Hf  Hf6  1  0.819304  0.821384  0.501911  1
  Hf  Hf7  1  0.178835  0.180543  0.496416  1
  In  In8  1  0.498413  0.004197  0.250465  1
  In  In9  1  0.498146  0.995419  0.749597  1
  In  In10  1  0.004182  0.500319  0.250814  1
  In  In11  1  0.996389  0.503162  0.749919  1
  Pd  Pd12  1  0.132173  0.868083  0.725848  1
  Pt  Pt13  1  0.631624  0.630579  0.228568  1
  Pt  Pt14  1  0.871724  0.128885  0.729626  1
  Pt  Pt15  1  0.868825  0.130770  0.272509  1
  Pt  Pt16  1  0.369106  0.368560  0.771378  1
  Pt  Pt17  1  0.130740  0.869127  0.270888  1
  Rh  Rh18  1  0.368723  0.368603  0.230473  1
  Rh  Rh19  1  0.631569  0.631619  0.769527  1
