# generated using pymatgen
data_Dy4Si10(IrRu)3
_symmetry_space_group_name_H-M   'P 1'
_cell_length_a   8.10618148
_cell_length_b   8.10094946
_cell_length_c   5.79351500
_cell_angle_alpha   70.98619210
_cell_angle_beta   70.95571372
_cell_angle_gamma   93.90015013
_symmetry_Int_Tables_number   1
_chemical_formula_structural   Dy4Si10(IrRu)3
_chemical_formula_sum   'Dy4 Si10 Ir3 Ru3'
_cell_volume   333.47189536
_cell_formula_units_Z   1
loop_
 _symmetry_equiv_pos_site_id
 _symmetry_equiv_pos_as_xyz
  1  'x, y, z'
loop_
 _atom_site_type_symbol
 _atom_site_label
 _atom_site_symmetry_multiplicity
 _atom_site_fract_x
 _atom_site_fract_y
 _atom_site_fract_z
 _atom_site_occupancy
  Dy  Dy0  1  0.866866  0.598812  0.756592  1
  Dy  Dy1  1  0.401749  0.133181  0.740973  1
  Dy  Dy2  1  0.132489  0.400555  0.244151  1
  Dy  Dy3  1  0.599063  0.868828  0.254941  1
  Si  Si4  1  0.062864  0.259457  0.839538  1
  Si  Si5  1  0.740724  0.937736  0.660789  1
  Si  Si6  1  0.937430  0.739044  0.162208  1
  Si  Si7  1  0.263449  0.065730  0.334975  1
  Si  Si8  1  0.206846  0.792932  0.750584  1
  Si  Si9  1  0.790742  0.205456  0.250893  1
  Si  Si10  1  0.513014  0.484318  0.753578  1
  Si  Si11  1  0.486326  0.512022  0.249352  1
  Si  Si12  1  0.773469  0.223977  0.752942  1
  Si  Si13  1  0.223239  0.776088  0.249001  1
  Ir  Ir14  1  0.256719  0.542157  0.629185  1
  Ir  Ir15  1  0.458988  0.743758  0.869215  1
  Ir  Ir16  1  0.742368  0.458509  0.369682  1
  Ru  Ru17  1  0.542669  0.258928  0.130269  1
  Ru  Ru18  1  0.003686  0.995710  0.750555  1
  Ru  Ru19  1  0.997301  0.002799  0.250576  1
