# generated using pymatgen
data_Ba4YHo3(FeO4)4
_symmetry_space_group_name_H-M   'P 1'
_cell_length_a   5.74460300
_cell_length_b   10.36168400
_cell_length_c   13.32405300
_cell_angle_alpha   90.00000000
_cell_angle_beta   90.00000000
_cell_angle_gamma   90.00000000
_symmetry_Int_Tables_number   1
_chemical_formula_structural   Ba4YHo3(FeO4)4
_chemical_formula_sum   'Ba8 Y2 Ho6 Fe8 O32'
_cell_volume   793.09774621
_cell_formula_units_Z   2
loop_
 _symmetry_equiv_pos_site_id
 _symmetry_equiv_pos_as_xyz
  1  'x, y, z'
loop_
 _atom_site_type_symbol
 _atom_site_label
 _atom_site_symmetry_multiplicity
 _atom_site_fract_x
 _atom_site_fract_y
 _atom_site_fract_z
 _atom_site_occupancy
  Ba  Ba0  1  0.250000  0.826942  0.712176  1
  Ba  Ba1  1  0.250000  0.673058  0.212176  1
  Ba  Ba2  1  0.750000  0.173601  0.287562  1
  Ba  Ba3  1  0.750000  0.326399  0.787562  1
  Ba  Ba4  1  0.250000  0.103201  0.915353  1
  Ba  Ba5  1  0.250000  0.396799  0.415353  1
  Ba  Ba6  1  0.750000  0.897153  0.084619  1
  Ba  Ba7  1  0.750000  0.602847  0.584619  1
  Y  Y8  1  0.750000  0.809939  0.357270  1
  Y  Y9  1  0.750000  0.690061  0.857270  1
  Ho  Ho10  1  0.250000  0.485683  0.915943  1
  Ho  Ho11  1  0.250000  0.014317  0.415943  1
  Ho  Ho12  1  0.750000  0.513843  0.084251  1
  Ho  Ho13  1  0.750000  0.986157  0.584251  1
  Ho  Ho14  1  0.250000  0.190219  0.642847  1
  Ho  Ho15  1  0.250000  0.309781  0.142847  1
  Fe  Fe16  1  0.250000  0.782764  0.969497  1
  Fe  Fe17  1  0.250000  0.717236  0.469497  1
  Fe  Fe18  1  0.750000  0.217541  0.030652  1
  Fe  Fe19  1  0.750000  0.282459  0.530652  1
  Fe  Fe20  1  0.250000  0.475938  0.693114  1
  Fe  Fe21  1  0.250000  0.024062  0.193114  1
  Fe  Fe22  1  0.750000  0.522952  0.306473  1
  Fe  Fe23  1  0.750000  0.977048  0.806473  1
  O  O24  1  0.250000  0.881219  0.088927  1
  O  O25  1  0.250000  0.618781  0.588927  1
  O  O26  1  0.750000  0.118974  0.911249  1
  O  O27  1  0.750000  0.381026  0.411249  1
  O  O28  1  0.250000  0.318120  0.790609  1
  O  O29  1  0.250000  0.181880  0.290609  1
  O  O30  1  0.750000  0.680601  0.208635  1
  O  O31  1  0.750000  0.819399  0.708635  1
  O  O32  1  0.508655  0.138472  0.507562  1
  O  O33  1  0.991345  0.361528  0.007562  1
  O  O34  1  0.009669  0.861760  0.493040  1
  O  O35  1  0.490331  0.638240  0.993040  1
  O  O36  1  0.490331  0.861760  0.493040  1
  O  O37  1  0.009669  0.638240  0.993040  1
  O  O38  1  0.991345  0.138472  0.507562  1
  O  O39  1  0.508655  0.361528  0.007562  1
  O  O40  1  0.509663  0.058008  0.716019  1
  O  O41  1  0.990337  0.441992  0.216019  1
  O  O42  1  0.010409  0.943033  0.283708  1
  O  O43  1  0.489591  0.556967  0.783708  1
  O  O44  1  0.489591  0.943033  0.283708  1
  O  O45  1  0.010409  0.556967  0.783708  1
  O  O46  1  0.990337  0.058008  0.716019  1
  O  O47  1  0.509663  0.441992  0.216019  1
  O  O48  1  0.999798  0.366621  0.611315  1
  O  O49  1  0.500202  0.133379  0.111315  1
  O  O50  1  0.499195  0.632406  0.388768  1
  O  O51  1  0.000805  0.867594  0.888768  1
  O  O52  1  0.000805  0.632406  0.388768  1
  O  O53  1  0.499195  0.867594  0.888768  1
  O  O54  1  0.500202  0.366621  0.611315  1
  O  O55  1  0.999798  0.133379  0.111315  1
