# generated using pymatgen
data_Al8FeCo3Ir4
_symmetry_space_group_name_H-M   'P 1'
_cell_length_a   5.90370400
_cell_length_b   4.17552900
_cell_length_c   8.34870400
_cell_angle_alpha   90.00000000
_cell_angle_beta   89.99990343
_cell_angle_gamma   90.00000000
_symmetry_Int_Tables_number   1
_chemical_formula_structural   Al8FeCo3Ir4
_chemical_formula_sum   'Al8 Fe1 Co3 Ir4'
_cell_volume   205.80463081
_cell_formula_units_Z   1
loop_
 _symmetry_equiv_pos_site_id
 _symmetry_equiv_pos_as_xyz
  1  'x, y, z'
loop_
 _atom_site_type_symbol
 _atom_site_label
 _atom_site_symmetry_multiplicity
 _atom_site_fract_x
 _atom_site_fract_y
 _atom_site_fract_z
 _atom_site_occupancy
  Al  Al0  1  0.502467  0.750000  0.124993  1
  Al  Al1  1  0.997531  0.750000  0.124995  1
  Al  Al2  1  0.501486  0.250001  0.373203  1
  Al  Al3  1  0.998506  0.250001  0.373207  1
  Al  Al4  1  0.999785  0.750000  0.625006  1
  Al  Al5  1  0.500222  0.750000  0.625008  1
  Al  Al6  1  0.998513  0.250001  0.876792  1
  Al  Al7  1  0.501490  0.250001  0.876794  1
  Fe  Fe8  1  0.749999  0.250001  0.124999  1
  Co  Co9  1  0.249998  0.750000  0.376473  1
  Co  Co10  1  0.750003  0.250001  0.625000  1
  Co  Co11  1  0.250002  0.750000  0.873528  1
  Ir  Ir12  1  0.249997  0.250001  0.124999  1
  Ir  Ir13  1  0.749996  0.750000  0.377012  1
  Ir  Ir14  1  0.250003  0.250001  0.625002  1
  Ir  Ir15  1  0.750004  0.750000  0.872989  1
