# generated using pymatgen
data_Sm3GaI3
_symmetry_space_group_name_H-M   'P 1'
_cell_length_a   10.73577758
_cell_length_b   10.73577714
_cell_length_c   10.73577600
_cell_angle_alpha   109.47122415
_cell_angle_beta   109.47122332
_cell_angle_gamma   109.47121878
_symmetry_Int_Tables_number   1
_chemical_formula_structural   Sm3GaI3
_chemical_formula_sum   'Sm12 Ga4 I12'
_cell_volume   952.52968705
_cell_formula_units_Z   4
loop_
 _symmetry_equiv_pos_site_id
 _symmetry_equiv_pos_as_xyz
  1  'x, y, z'
loop_
 _atom_site_type_symbol
 _atom_site_label
 _atom_site_symmetry_multiplicity
 _atom_site_fract_x
 _atom_site_fract_y
 _atom_site_fract_z
 _atom_site_occupancy
  Sm  Sm0  1  0.250000  0.984887  0.015113  1
  Sm  Sm1  1  0.765113  0.530225  0.015113  1
  Sm  Sm2  1  0.515113  0.765113  0.030225  1
  Sm  Sm3  1  0.250000  0.765113  0.234887  1
  Sm  Sm4  1  0.984887  0.969775  0.234887  1
  Sm  Sm5  1  0.734887  0.250000  0.265113  1
  Sm  Sm6  1  0.530225  0.515113  0.265113  1
  Sm  Sm7  1  0.734887  0.984887  0.469775  1
  Sm  Sm8  1  0.515113  0.250000  0.484887  1
  Sm  Sm9  1  0.969775  0.734887  0.484887  1
  Sm  Sm10  1  0.984887  0.515113  0.750000  1
  Sm  Sm11  1  0.765113  0.734887  0.750000  1
  Ga  Ga12  1  0.000000  0.750000  0.000000  1
  Ga  Ga13  1  0.500000  0.000000  0.250000  1
  Ga  Ga14  1  0.750000  0.750000  0.250000  1
  Ga  Ga15  1  0.750000  0.500000  0.500000  1
  I  I16  1  0.242046  0.257954  0.250000  1
  I  I17  1  0.007954  0.492047  0.250001  1
  I  I18  1  0.015908  0.257954  0.507954  1
  I  I19  1  0.492047  0.750000  0.507954  1
  I  I20  1  0.257954  0.007954  0.515908  1
  I  I21  1  0.484093  0.492046  0.742046  1
  I  I22  1  0.257954  0.750000  0.742046  1
  I  I23  1  0.007953  0.015907  0.757954  1
  I  I24  1  0.750000  0.242046  0.757954  1
  I  I25  1  0.492047  0.242047  0.984093  1
  I  I26  1  0.750000  0.007954  0.992046  1
  I  I27  1  0.242046  0.484093  0.992046  1
