# generated using pymatgen
data_La8Si15Rh
_symmetry_space_group_name_H-M   'P 1'
_cell_length_a   8.28327800
_cell_length_b   8.28327871
_cell_length_c   8.73113400
_cell_angle_alpha   90.00000000
_cell_angle_beta   90.00000000
_cell_angle_gamma   119.99999715
_symmetry_Int_Tables_number   1
_chemical_formula_structural   La8Si15Rh
_chemical_formula_sum   'La8 Si15 Rh1'
_cell_volume   518.80697908
_cell_formula_units_Z   1
loop_
 _symmetry_equiv_pos_site_id
 _symmetry_equiv_pos_as_xyz
  1  'x, y, z'
loop_
 _atom_site_type_symbol
 _atom_site_label
 _atom_site_symmetry_multiplicity
 _atom_site_fract_x
 _atom_site_fract_y
 _atom_site_fract_z
 _atom_site_occupancy
  La  La0  1  0.500080  0.499920  0.752931  1
  La  La1  1  0.500081  0.499919  0.247027  1
  La  La2  1  0.999840  0.499902  0.752930  1
  La  La3  1  0.999828  0.499905  0.247019  1
  La  La4  1  0.500098  0.000160  0.752930  1
  La  La5  1  0.500095  0.000172  0.247019  1
  La  La6  1  0.999991  0.000009  0.751077  1
  La  La7  1  0.999986  0.000014  0.249055  1
  Si  Si8  1  0.666665  0.333335  0.999841  1
  Si  Si9  1  0.333336  0.666664  0.999889  1
  Si  Si10  1  0.333335  0.666665  0.499864  1
  Si  Si11  1  0.834120  0.165880  0.000059  1
  Si  Si12  1  0.167692  0.832308  0.000032  1
  Si  Si13  1  0.331767  0.165880  0.000059  1
  Si  Si14  1  0.163043  0.836957  0.500075  1
  Si  Si15  1  0.664608  0.832308  0.000032  1
  Si  Si16  1  0.829811  0.170189  0.500063  1
  Si  Si17  1  0.834120  0.668233  0.000059  1
  Si  Si18  1  0.673914  0.836960  0.500075  1
  Si  Si19  1  0.167692  0.335392  0.000032  1
  Si  Si20  1  0.340383  0.170193  0.500062  1
  Si  Si21  1  0.163040  0.326086  0.500075  1
  Si  Si22  1  0.829807  0.659617  0.500062  1
  Rh  Rh23  1  0.666664  0.333336  0.499731  1
