# generated using pymatgen
data_Zr10BeSi(BiPb)3
_symmetry_space_group_name_H-M   'P 1'
_cell_length_a   8.80311600
_cell_length_b   8.80311642
_cell_length_c   5.93045500
_cell_angle_alpha   90.00000000
_cell_angle_beta   90.00000000
_cell_angle_gamma   120.00000592
_symmetry_Int_Tables_number   1
_chemical_formula_structural   Zr10BeSi(BiPb)3
_chemical_formula_sum   'Zr10 Be1 Si1 Bi3 Pb3'
_cell_volume   398.00771526
_cell_formula_units_Z   1
loop_
 _symmetry_equiv_pos_site_id
 _symmetry_equiv_pos_as_xyz
  1  'x, y, z'
loop_
 _atom_site_type_symbol
 _atom_site_label
 _atom_site_symmetry_multiplicity
 _atom_site_fract_x
 _atom_site_fract_y
 _atom_site_fract_z
 _atom_site_occupancy
  Zr  Zr0  1  0.666667  0.333333  0.501789  1
  Zr  Zr1  1  0.333333  0.666667  0.501789  1
  Zr  Zr2  1  0.333333  0.666667  0.997926  1
  Zr  Zr3  1  0.666667  0.333333  0.997926  1
  Zr  Zr4  1  0.750411  0.750411  0.257979  1
  Zr  Zr5  1  0.249589  0.000000  0.257979  1
  Zr  Zr6  1  0.000000  0.249589  0.257979  1
  Zr  Zr7  1  0.251481  0.251481  0.741770  1
  Zr  Zr8  1  0.748519  0.000000  0.741770  1
  Zr  Zr9  1  0.000000  0.748519  0.741770  1
  Be  Be10  1  0.000000  0.000000  0.499564  1
  Si  Si11  1  0.000000  0.000000  0.999684  1
  Bi  Bi12  1  0.395530  0.395530  0.250183  1
  Bi  Bi13  1  0.604470  0.000000  0.250183  1
  Bi  Bi14  1  0.000000  0.604470  0.250183  1
  Pb  Pb15  1  0.608604  0.608604  0.750509  1
  Pb  Pb16  1  0.391396  0.000000  0.750509  1
  Pb  Pb17  1  0.000000  0.391396  0.750509  1
