# generated using pymatgen
data_KLa3(BPd4)4
_symmetry_space_group_name_H-M   'P 1'
_cell_length_a   5.53549800
_cell_length_b   6.18799815
_cell_length_c   11.89623494
_cell_angle_alpha   90.24382378
_cell_angle_beta   90.00000000
_cell_angle_gamma   90.00000000
_symmetry_Int_Tables_number   1
_chemical_formula_structural   KLa3(BPd4)4
_chemical_formula_sum   'K1 La3 B4 Pd16'
_cell_volume   407.48579514
_cell_formula_units_Z   1
loop_
 _symmetry_equiv_pos_site_id
 _symmetry_equiv_pos_as_xyz
  1  'x, y, z'
loop_
 _atom_site_type_symbol
 _atom_site_label
 _atom_site_symmetry_multiplicity
 _atom_site_fract_x
 _atom_site_fract_y
 _atom_site_fract_z
 _atom_site_occupancy
  K  K0  1  0.250000  0.187635  0.663505  1
  La  La1  1  0.750000  0.307825  0.156551  1
  La  La2  1  0.750000  0.808768  0.346803  1
  La  La3  1  0.250000  0.689702  0.837329  1
  B  B4  1  0.750000  0.400362  0.551317  1
  B  B5  1  0.750000  0.899243  0.949713  1
  B  B6  1  0.250000  0.598599  0.447788  1
  B  B7  1  0.250000  0.098538  0.051451  1
  Pd  Pd8  1  0.750000  0.389422  0.733874  1
  Pd  Pd9  1  0.750000  0.878294  0.766899  1
  Pd  Pd10  1  0.250000  0.618321  0.265144  1
  Pd  Pd11  1  0.250000  0.123085  0.233161  1
  Pd  Pd12  1  0.750000  0.058925  0.554642  1
  Pd  Pd13  1  0.750000  0.557170  0.945176  1
  Pd  Pd14  1  0.250000  0.938453  0.439957  1
  Pd  Pd15  1  0.250000  0.443596  0.055268  1
  Pd  Pd16  1  0.997034  0.160308  0.915305  1
  Pd  Pd17  1  0.501761  0.662254  0.585773  1
  Pd  Pd18  1  0.500465  0.838733  0.089696  1
  Pd  Pd19  1  0.998863  0.339737  0.409937  1
  Pd  Pd20  1  0.999535  0.838733  0.089696  1
  Pd  Pd21  1  0.501137  0.339737  0.409937  1
  Pd  Pd22  1  0.502966  0.160308  0.915305  1
  Pd  Pd23  1  0.998239  0.662254  0.585773  1
