# generated using pymatgen
data_DyHoTm6(Si3Rh)4
_symmetry_space_group_name_H-M   'P 1'
_cell_length_a   8.14230300
_cell_length_b   8.14230254
_cell_length_c   7.78180000
_cell_angle_alpha   90.00000000
_cell_angle_beta   90.00000000
_cell_angle_gamma   119.99999781
_symmetry_Int_Tables_number   1
_chemical_formula_structural   DyHoTm6(Si3Rh)4
_chemical_formula_sum   'Dy1 Ho1 Tm6 Si12 Rh4'
_cell_volume   446.79180739
_cell_formula_units_Z   1
loop_
 _symmetry_equiv_pos_site_id
 _symmetry_equiv_pos_as_xyz
  1  'x, y, z'
loop_
 _atom_site_type_symbol
 _atom_site_label
 _atom_site_symmetry_multiplicity
 _atom_site_fract_x
 _atom_site_fract_y
 _atom_site_fract_z
 _atom_site_occupancy
  Dy  Dy0  1  0.000000  0.000000  0.250000  1
  Ho  Ho1  1  0.000000  0.000000  0.750000  1
  Tm  Tm2  1  0.981523  0.490763  0.250000  1
  Tm  Tm3  1  0.509237  0.490763  0.250000  1
  Tm  Tm4  1  0.490809  0.981614  0.750000  1
  Tm  Tm5  1  0.018386  0.509191  0.750000  1
  Tm  Tm6  1  0.490809  0.509191  0.750000  1
  Tm  Tm7  1  0.509237  0.018477  0.250000  1
  Si  Si8  1  0.167172  0.832828  0.500071  1
  Si  Si9  1  0.167172  0.334343  0.500071  1
  Si  Si10  1  0.665657  0.832828  0.500071  1
  Si  Si11  1  0.334348  0.167176  0.999901  1
  Si  Si12  1  0.832824  0.665652  0.500099  1
  Si  Si13  1  0.832824  0.167176  0.999901  1
  Si  Si14  1  0.832824  0.665652  0.999901  1
  Si  Si15  1  0.167172  0.334343  0.999929  1
  Si  Si16  1  0.665657  0.832828  0.999929  1
  Si  Si17  1  0.334348  0.167176  0.500099  1
  Si  Si18  1  0.832824  0.167176  0.500099  1
  Si  Si19  1  0.167172  0.832828  0.999929  1
  Rh  Rh20  1  0.333333  0.666667  0.035497  1
  Rh  Rh21  1  0.666667  0.333333  0.964547  1
  Rh  Rh22  1  0.666667  0.333333  0.535453  1
  Rh  Rh23  1  0.333333  0.666667  0.464503  1
