# generated using pymatgen
data_NaU2S5
_symmetry_space_group_name_H-M   'P 1'
_cell_length_a   7.34763500
_cell_length_b   8.14976543
_cell_length_c   11.55147037
_cell_angle_alpha   89.44794631
_cell_angle_beta   90.00000000
_cell_angle_gamma   90.00000000
_symmetry_Int_Tables_number   1
_chemical_formula_structural   NaU2S5
_chemical_formula_sum   'Na4 U8 S20'
_cell_volume   691.68728431
_cell_formula_units_Z   4
loop_
 _symmetry_equiv_pos_site_id
 _symmetry_equiv_pos_as_xyz
  1  'x, y, z'
loop_
 _atom_site_type_symbol
 _atom_site_label
 _atom_site_symmetry_multiplicity
 _atom_site_fract_x
 _atom_site_fract_y
 _atom_site_fract_z
 _atom_site_occupancy
  Na  Na0  1  0.020901  0.996052  0.323092  1
  Na  Na1  1  0.520901  0.003948  0.176908  1
  Na  Na2  1  0.979099  0.003948  0.676908  1
  Na  Na3  1  0.479099  0.996052  0.823092  1
  U  U4  1  0.020843  0.498679  0.320167  1
  U  U5  1  0.520843  0.501321  0.179833  1
  U  U6  1  0.979157  0.501321  0.679833  1
  U  U7  1  0.479157  0.498679  0.820167  1
  U  U8  1  0.076343  0.752591  0.008105  1
  U  U9  1  0.576343  0.247409  0.491895  1
  U  U10  1  0.923657  0.247409  0.991895  1
  U  U11  1  0.423657  0.752591  0.508105  1
  S  S12  1  0.161700  0.453281  0.096570  1
  S  S13  1  0.661700  0.546719  0.403430  1
  S  S14  1  0.838300  0.546719  0.903430  1
  S  S15  1  0.338300  0.453281  0.596570  1
  S  S16  1  0.454582  0.715808  0.001021  1
  S  S17  1  0.954582  0.284192  0.498979  1
  S  S18  1  0.545418  0.284192  0.998979  1
  S  S19  1  0.045418  0.715808  0.501021  1
  S  S20  1  0.332966  0.284601  0.317059  1
  S  S21  1  0.832966  0.715399  0.182941  1
  S  S22  1  0.667034  0.715399  0.682941  1
  S  S23  1  0.167034  0.284601  0.817059  1
  S  S24  1  0.662271  0.958424  0.413472  1
  S  S25  1  0.162271  0.041576  0.086528  1
  S  S26  1  0.337729  0.041576  0.586528  1
  S  S27  1  0.837729  0.958424  0.913472  1
  S  S28  1  0.302559  0.726995  0.282008  1
  S  S29  1  0.802559  0.273005  0.217992  1
  S  S30  1  0.697441  0.273005  0.717992  1
  S  S31  1  0.197441  0.726995  0.782008  1
