# generated using pymatgen
data_Th4Mg2CuNi3
_symmetry_space_group_name_H-M   'P 1'
_cell_length_a   7.70390174
_cell_length_b   7.70390174
_cell_length_c   3.71312100
_cell_angle_alpha   90.00000000
_cell_angle_beta   90.00000000
_cell_angle_gamma   89.28792414
_symmetry_Int_Tables_number   1
_chemical_formula_structural   Th4Mg2CuNi3
_chemical_formula_sum   'Th4 Mg2 Cu1 Ni3'
_cell_volume   220.35709121
_cell_formula_units_Z   1
loop_
 _symmetry_equiv_pos_site_id
 _symmetry_equiv_pos_as_xyz
  1  'x, y, z'
loop_
 _atom_site_type_symbol
 _atom_site_label
 _atom_site_symmetry_multiplicity
 _atom_site_fract_x
 _atom_site_fract_y
 _atom_site_fract_z
 _atom_site_occupancy
  Th  Th0  1  0.338110  0.838110  0.500000  1
  Th  Th1  1  0.816103  0.670043  0.500000  1
  Th  Th2  1  0.170043  0.316103  0.500000  1
  Th  Th3  1  0.676120  0.176120  0.500000  1
  Mg  Mg4  1  0.494988  0.498913  0.000000  1
  Mg  Mg5  1  0.998913  0.994988  0.000000  1
  Cu  Cu6  1  0.124844  0.624844  0.000000  1
  Ni  Ni7  1  0.628206  0.875263  0.000000  1
  Ni  Ni8  1  0.877410  0.377410  0.000000  1
  Ni  Ni9  1  0.375263  0.128206  0.000000  1
