# generated using pymatgen
data_Sm5Co16(P4Ru)3
_symmetry_space_group_name_H-M   'P 1'
_cell_length_a   12.11124500
_cell_length_b   12.11124625
_cell_length_c   3.74686300
_cell_angle_alpha   90.00000000
_cell_angle_beta   90.00000000
_cell_angle_gamma   119.99999931
_symmetry_Int_Tables_number   1
_chemical_formula_structural   Sm5Co16(P4Ru)3
_chemical_formula_sum   'Sm5 Co16 P12 Ru3'
_cell_volume   475.96615585
_cell_formula_units_Z   1
loop_
 _symmetry_equiv_pos_site_id
 _symmetry_equiv_pos_as_xyz
  1  'x, y, z'
loop_
 _atom_site_type_symbol
 _atom_site_label
 _atom_site_symmetry_multiplicity
 _atom_site_fract_x
 _atom_site_fract_y
 _atom_site_fract_z
 _atom_site_occupancy
  Sm  Sm0  1  0.666667  0.333333  0.000000  1
  Sm  Sm1  1  0.333333  0.666667  0.000000  1
  Sm  Sm2  1  0.814355  0.814355  0.500000  1
  Sm  Sm3  1  0.185645  0.000000  0.500000  1
  Sm  Sm4  1  0.000000  0.185645  0.500000  1
  Co  Co5  1  0.875495  0.358971  0.500000  1
  Co  Co6  1  0.641029  0.516524  0.500000  1
  Co  Co7  1  0.483476  0.124505  0.500000  1
  Co  Co8  1  0.358971  0.875495  0.500000  1
  Co  Co9  1  0.516524  0.641029  0.500000  1
  Co  Co10  1  0.124505  0.483476  0.500000  1
  Co  Co11  1  0.802742  0.179915  0.000000  1
  Co  Co12  1  0.820085  0.622824  0.000000  1
  Co  Co13  1  0.377176  0.197258  0.000000  1
  Co  Co14  1  0.179915  0.802742  0.000000  1
  Co  Co15  1  0.622824  0.820085  0.000000  1
  Co  Co16  1  0.197258  0.377176  0.000000  1
  Co  Co17  1  0.283674  0.283674  0.500000  1
  Co  Co18  1  0.716326  0.000000  0.500000  1
  Co  Co19  1  0.000000  0.716326  0.500000  1
  Co  Co20  1  0.000000  0.000000  0.000000  1
  P  P21  1  0.688060  0.165070  0.500000  1
  P  P22  1  0.834930  0.522990  0.500000  1
  P  P23  1  0.477010  0.311940  0.500000  1
  P  P24  1  0.165070  0.688060  0.500000  1
  P  P25  1  0.522990  0.834930  0.500000  1
  P  P26  1  0.311940  0.477010  0.500000  1
  P  P27  1  0.182169  0.182169  0.000000  1
  P  P28  1  0.817831  0.000000  0.000000  1
  P  P29  1  0.000000  0.817831  0.000000  1
  P  P30  1  0.633904  0.633904  0.000000  1
  P  P31  1  0.366096  0.000000  0.000000  1
  P  P32  1  0.000000  0.366096  0.000000  1
  Ru  Ru33  1  0.445215  0.445215  0.000000  1
  Ru  Ru34  1  0.554785  0.000000  0.000000  1
  Ru  Ru35  1  0.000000  0.554785  0.000000  1
