# generated using pymatgen
data_La3Bi(TePt)3
_symmetry_space_group_name_H-M   'P 1'
_cell_length_a   8.79797505
_cell_length_b   8.77654213
_cell_length_c   8.77654047
_cell_angle_alpha   109.40760228
_cell_angle_beta   109.47819522
_cell_angle_gamma   109.42901277
_symmetry_Int_Tables_number   1
_chemical_formula_structural   La3Bi(TePt)3
_chemical_formula_sum   'La6 Bi2 Te6 Pt6'
_cell_volume   522.31945266
_cell_formula_units_Z   2
loop_
 _symmetry_equiv_pos_site_id
 _symmetry_equiv_pos_as_xyz
  1  'x, y, z'
loop_
 _atom_site_type_symbol
 _atom_site_label
 _atom_site_symmetry_multiplicity
 _atom_site_fract_x
 _atom_site_fract_y
 _atom_site_fract_z
 _atom_site_occupancy
  La  La0  1  0.126468  0.874065  0.253118  1
  La  La1  1  0.373532  0.626649  0.747596  1
  La  La2  1  0.872621  0.249773  0.124312  1
  La  La3  1  0.627379  0.751690  0.377151  1
  La  La4  1  0.250000  0.122712  0.872712  1
  La  La5  1  0.750000  0.375917  0.625917  1
  Bi  Bi6  1  0.499894  0.998435  0.672783  1
  Bi  Bi7  1  0.000106  0.672889  0.498540  1
  Te  Te8  1  0.334499  0.334423  0.333815  1
  Te  Te9  1  0.165501  0.499316  0.999924  1
  Te  Te10  1  0.000448  0.164259  0.499461  1
  Te  Te11  1  0.840029  0.837796  0.838515  1
  Te  Te12  1  0.499552  0.999014  0.163811  1
  Te  Te13  1  0.659971  0.498487  0.997767  1
  Pt  Pt14  1  0.624771  0.373261  0.252940  1
  Pt  Pt15  1  0.875229  0.128169  0.748489  1
  Pt  Pt16  1  0.373230  0.248797  0.621096  1
  Pt  Pt17  1  0.126770  0.747866  0.875567  1
  Pt  Pt18  1  0.250000  0.621155  0.371155  1
  Pt  Pt19  1  0.750000  0.875328  0.125328  1
