# generated using pymatgen
data_PrNd4In4PtRh
_symmetry_space_group_name_H-M   'P 1'
_cell_length_a   3.79866200
_cell_length_b   8.32184138
_cell_length_c   18.75416977
_cell_angle_alpha   89.94636300
_cell_angle_beta   90.00000000
_cell_angle_gamma   90.00000000
_symmetry_Int_Tables_number   1
_chemical_formula_structural   PrNd4In4PtRh
_chemical_formula_sum   'Pr2 Nd8 In8 Pt2 Rh2'
_cell_volume   592.85397852
_cell_formula_units_Z   2
loop_
 _symmetry_equiv_pos_site_id
 _symmetry_equiv_pos_as_xyz
  1  'x, y, z'
loop_
 _atom_site_type_symbol
 _atom_site_label
 _atom_site_symmetry_multiplicity
 _atom_site_fract_x
 _atom_site_fract_y
 _atom_site_fract_z
 _atom_site_occupancy
  Pr  Pr0  1  0.000000  0.000000  0.000000  1
  Pr  Pr1  1  0.000000  0.500000  0.500000  1
  Nd  Nd2  1  0.000000  0.116015  0.412283  1
  Nd  Nd3  1  0.000000  0.883985  0.587717  1
  Nd  Nd4  1  0.000000  0.382062  0.913795  1
  Nd  Nd5  1  0.000000  0.617938  0.086205  1
  Nd  Nd6  1  0.000000  0.238973  0.220604  1
  Nd  Nd7  1  0.000000  0.761027  0.779396  1
  Nd  Nd8  1  0.000000  0.250242  0.720289  1
  Nd  Nd9  1  0.000000  0.749758  0.279711  1
  In  In10  1  0.500000  0.427898  0.349626  1
  In  In11  1  0.500000  0.572102  0.650374  1
  In  In12  1  0.500000  0.069606  0.848521  1
  In  In13  1  0.500000  0.930394  0.151479  1
  In  In14  1  0.500000  0.292128  0.068681  1
  In  In15  1  0.500000  0.707872  0.931319  1
  In  In16  1  0.500000  0.206464  0.569965  1
  In  In17  1  0.500000  0.793536  0.430035  1
  Pt  Pt18  1  0.500000  0.481307  0.802553  1
  Pt  Pt19  1  0.500000  0.518693  0.197447  1
  Rh  Rh20  1  0.500000  0.016592  0.304905  1
  Rh  Rh21  1  0.500000  0.983408  0.695095  1
