# generated using pymatgen
data_Nd3Ho(ScIr)4
_symmetry_space_group_name_H-M   'P 1'
_cell_length_a   7.21117305
_cell_length_b   4.31977200
_cell_length_c   8.85463901
_cell_angle_alpha   90.00000000
_cell_angle_beta   89.60247795
_cell_angle_gamma   90.00000000
_symmetry_Int_Tables_number   1
_chemical_formula_structural   Nd3Ho(ScIr)4
_chemical_formula_sum   'Nd3 Ho1 Sc4 Ir4'
_cell_volume   275.82088673
_cell_formula_units_Z   1
loop_
 _symmetry_equiv_pos_site_id
 _symmetry_equiv_pos_as_xyz
  1  'x, y, z'
loop_
 _atom_site_type_symbol
 _atom_site_label
 _atom_site_symmetry_multiplicity
 _atom_site_fract_x
 _atom_site_fract_y
 _atom_site_fract_z
 _atom_site_occupancy
  Nd  Nd0  1  0.484107  0.250000  0.319707  1
  Nd  Nd1  1  0.015374  0.750000  0.822868  1
  Nd  Nd2  1  0.515737  0.750000  0.677460  1
  Ho  Ho3  1  0.979448  0.250000  0.174572  1
  Sc  Sc4  1  0.865963  0.250000  0.560863  1
  Sc  Sc5  1  0.360113  0.250000  0.938999  1
  Sc  Sc6  1  0.138707  0.750000  0.429335  1
  Sc  Sc7  1  0.639592  0.750000  0.066670  1
  Ir  Ir8  1  0.736699  0.250000  0.907364  1
  Ir  Ir9  1  0.237542  0.250000  0.599095  1
  Ir  Ir10  1  0.258979  0.750000  0.104650  1
  Ir  Ir11  1  0.767739  0.750000  0.398416  1
