# generated using pymatgen
data_Sc3NiB2IrRh3
_symmetry_space_group_name_H-M   'P 1'
_cell_length_a   3.13209700
_cell_length_b   9.39215415
_cell_length_c   9.32967817
_cell_angle_alpha   89.92211242
_cell_angle_beta   90.00000000
_cell_angle_gamma   90.00000000
_symmetry_Int_Tables_number   1
_chemical_formula_structural   Sc3NiB2IrRh3
_chemical_formula_sum   'Sc6 Ni2 B4 Ir2 Rh6'
_cell_volume   274.45217525
_cell_formula_units_Z   2
loop_
 _symmetry_equiv_pos_site_id
 _symmetry_equiv_pos_as_xyz
  1  'x, y, z'
loop_
 _atom_site_type_symbol
 _atom_site_label
 _atom_site_symmetry_multiplicity
 _atom_site_fract_x
 _atom_site_fract_y
 _atom_site_fract_z
 _atom_site_occupancy
  Sc  Sc0  1  0.000000  0.178537  0.678128  1
  Sc  Sc1  1  0.000000  0.821463  0.321872  1
  Sc  Sc2  1  0.000000  0.322257  0.177946  1
  Sc  Sc3  1  0.000000  0.677743  0.822054  1
  Sc  Sc4  1  0.000000  0.000000  0.000000  1
  Sc  Sc5  1  0.000000  0.500000  0.500000  1
  Ni  Ni6  1  0.500000  0.000000  0.500000  1
  Ni  Ni7  1  0.500000  0.500000  0.000000  1
  B  B8  1  0.000000  0.610784  0.109874  1
  B  B9  1  0.000000  0.389216  0.890126  1
  B  B10  1  0.000000  0.889022  0.611104  1
  B  B11  1  0.000000  0.110978  0.388896  1
  Ir  Ir12  1  0.500000  0.730105  0.564809  1
  Ir  Ir13  1  0.500000  0.269895  0.435191  1
  Rh  Rh14  1  0.500000  0.063219  0.227927  1
  Rh  Rh15  1  0.500000  0.936781  0.772073  1
  Rh  Rh16  1  0.500000  0.769903  0.064425  1
  Rh  Rh17  1  0.500000  0.436581  0.729378  1
  Rh  Rh18  1  0.500000  0.230097  0.935575  1
  Rh  Rh19  1  0.500000  0.563419  0.270622  1
