# generated using pymatgen
data_Ca3SnAu3
_symmetry_space_group_name_H-M   'P 1'
_cell_length_a   16.78363300
_cell_length_b   4.69360900
_cell_length_c   8.93324200
_cell_angle_alpha   90.00000000
_cell_angle_beta   90.00000000
_cell_angle_gamma   90.00000000
_symmetry_Int_Tables_number   1
_chemical_formula_structural   Ca3SnAu3
_chemical_formula_sum   'Ca12 Sn4 Au12'
_cell_volume   703.72338253
_cell_formula_units_Z   4
loop_
 _symmetry_equiv_pos_site_id
 _symmetry_equiv_pos_as_xyz
  1  'x, y, z'
loop_
 _atom_site_type_symbol
 _atom_site_label
 _atom_site_symmetry_multiplicity
 _atom_site_fract_x
 _atom_site_fract_y
 _atom_site_fract_z
 _atom_site_occupancy
  Ca  Ca0  1  0.844448  0.750000  0.025892  1
  Ca  Ca1  1  0.366938  0.250000  0.129724  1
  Ca  Ca2  1  0.055366  0.750000  0.249975  1
  Ca  Ca3  1  0.555366  0.750000  0.250026  1
  Ca  Ca4  1  0.866938  0.250000  0.370276  1
  Ca  Ca5  1  0.344447  0.750000  0.474109  1
  Ca  Ca6  1  0.655553  0.250000  0.525892  1
  Ca  Ca7  1  0.133062  0.750000  0.629723  1
  Ca  Ca8  1  0.444634  0.250000  0.749975  1
  Ca  Ca9  1  0.944634  0.250000  0.750025  1
  Ca  Ca10  1  0.633063  0.750000  0.870277  1
  Ca  Ca11  1  0.155553  0.250000  0.974108  1
  Sn  Sn12  1  0.707121  0.250000  0.136163  1
  Sn  Sn13  1  0.207121  0.250000  0.363837  1
  Sn  Sn14  1  0.792879  0.750000  0.636164  1
  Sn  Sn15  1  0.292879  0.750000  0.863836  1
  Au  Au16  1  0.548350  0.250000  0.033136  1
  Au  Au17  1  0.969823  0.250000  0.085928  1
  Au  Au18  1  0.238889  0.750000  0.174182  1
  Au  Au19  1  0.738889  0.750000  0.325818  1
  Au  Au20  1  0.469822  0.250000  0.414072  1
  Au  Au21  1  0.048350  0.250000  0.466863  1
  Au  Au22  1  0.951650  0.750000  0.533137  1
  Au  Au23  1  0.530177  0.750000  0.585927  1
  Au  Au24  1  0.261110  0.250000  0.674183  1
  Au  Au25  1  0.761111  0.250000  0.825817  1
  Au  Au26  1  0.030178  0.750000  0.914073  1
  Au  Au27  1  0.451650  0.750000  0.966863  1
