# generated using pymatgen
data_SmGaHgPt3
_symmetry_space_group_name_H-M   'P 1'
_cell_length_a   5.54949812
_cell_length_b   5.54949797
_cell_length_c   5.27665935
_cell_angle_alpha   58.27429246
_cell_angle_beta   58.27429138
_cell_angle_gamma   59.99999958
_symmetry_Int_Tables_number   1
_chemical_formula_structural   SmGaHgPt3
_chemical_formula_sum   'Sm1 Ga1 Hg1 Pt3'
_cell_volume   111.81922572
_cell_formula_units_Z   1
loop_
 _symmetry_equiv_pos_site_id
 _symmetry_equiv_pos_as_xyz
  1  'x, y, z'
loop_
 _atom_site_type_symbol
 _atom_site_label
 _atom_site_symmetry_multiplicity
 _atom_site_fract_x
 _atom_site_fract_y
 _atom_site_fract_z
 _atom_site_occupancy
  Sm  Sm0  1  0.004344  0.004344  0.986969  1
  Ga  Ga1  1  0.622495  0.622495  0.132513  1
  Hg  Hg2  1  0.252613  0.252613  0.242160  1
  Pt  Pt3  1  0.622943  0.124662  0.629453  1
  Pt  Pt4  1  0.124662  0.622943  0.629453  1
  Pt  Pt5  1  0.622943  0.622943  0.629453  1
