# generated using pymatgen
data_Ac2PrCdSn2Pt3
_symmetry_space_group_name_H-M   'P 1'
_cell_length_a   7.78473103
_cell_length_b   7.85390773
_cell_length_c   4.29813300
_cell_angle_alpha   90.00000000
_cell_angle_beta   90.00000000
_cell_angle_gamma   120.29438062
_symmetry_Int_Tables_number   1
_chemical_formula_structural   Ac2PrCdSn2Pt3
_chemical_formula_sum   'Ac2 Pr1 Cd1 Sn2 Pt3'
_cell_volume   226.90493948
_cell_formula_units_Z   1
loop_
 _symmetry_equiv_pos_site_id
 _symmetry_equiv_pos_as_xyz
  1  'x, y, z'
loop_
 _atom_site_type_symbol
 _atom_site_label
 _atom_site_symmetry_multiplicity
 _atom_site_fract_x
 _atom_site_fract_y
 _atom_site_fract_z
 _atom_site_occupancy
  Ac  Ac0  1  0.589936  0.587538  0.000000  1
  Ac  Ac1  1  0.410064  0.997602  0.000000  1
  Pr  Pr2  1  0.000000  0.413344  0.000000  1
  Cd  Cd3  1  0.000000  0.746342  0.500000  1
  Sn  Sn4  1  0.238762  0.244045  0.500000  1
  Sn  Sn5  1  0.761238  0.005283  0.500000  1
  Pt  Pt6  1  0.664837  0.327778  0.500000  1
  Pt  Pt7  1  0.000000  0.015125  0.000000  1
  Pt  Pt8  1  0.335163  0.662943  0.500000  1
