# generated using pymatgen
data_CeEu3(NiB4)4
_symmetry_space_group_name_H-M   'P 1'
_cell_length_a   6.89999959
_cell_length_b   6.89999911
_cell_length_c   6.90000025
_cell_angle_alpha   112.84808882
_cell_angle_beta   112.84808485
_cell_angle_gamma   102.91008286
_symmetry_Int_Tables_number   1
_chemical_formula_structural   CeEu3(NiB4)4
_chemical_formula_sum   'Ce1 Eu3 Ni4 B16'
_cell_volume   250.43846343
_cell_formula_units_Z   1
loop_
 _symmetry_equiv_pos_site_id
 _symmetry_equiv_pos_as_xyz
  1  'x, y, z'
loop_
 _atom_site_type_symbol
 _atom_site_label
 _atom_site_symmetry_multiplicity
 _atom_site_fract_x
 _atom_site_fract_y
 _atom_site_fract_z
 _atom_site_occupancy
  Ce  Ce0  1  0.250000  0.750000  0.500000  1
  Eu  Eu1  1  0.799630  0.799630  0.000000  1
  Eu  Eu2  1  0.200370  0.200370  0.000000  1
  Eu  Eu3  1  0.750000  0.250000  0.500000  1
  Ni  Ni4  1  0.275001  0.501668  0.773333  1
  Ni  Ni5  1  0.728336  0.501668  0.226667  1
  Ni  Ni6  1  0.498332  0.724999  0.226667  1
  Ni  Ni7  1  0.498332  0.271664  0.773333  1
  B  B8  1  0.276765  0.112157  0.389837  1
  B  B9  1  0.722319  0.886927  0.610163  1
  B  B10  1  0.276765  0.886927  0.164608  1
  B  B11  1  0.722319  0.112157  0.835392  1
  B  B12  1  0.113073  0.723235  0.835392  1
  B  B13  1  0.887843  0.277681  0.164608  1
  B  B14  1  0.113073  0.277681  0.389837  1
  B  B15  1  0.887843  0.723235  0.610163  1
  B  B16  1  0.112907  0.112476  0.528830  1
  B  B17  1  0.583646  0.584076  0.471170  1
  B  B18  1  0.112907  0.584076  0.000430  1
  B  B19  1  0.583646  0.112476  0.999570  1
  B  B20  1  0.887524  0.887093  0.471170  1
  B  B21  1  0.415924  0.416354  0.528830  1
  B  B22  1  0.887524  0.416354  0.000430  1
  B  B23  1  0.415924  0.887093  0.999570  1
