# generated using pymatgen
data_Dy4Y6IrOs3
_symmetry_space_group_name_H-M   'P 1'
_cell_length_a   6.43452462
_cell_length_b   7.36508619
_cell_length_c   8.48021232
_cell_angle_alpha   96.79730309
_cell_angle_beta   112.47804715
_cell_angle_gamma   90.05377612
_symmetry_Int_Tables_number   1
_chemical_formula_structural   Dy4Y6IrOs3
_chemical_formula_sum   'Dy4 Y6 Ir1 Os3'
_cell_volume   368.27382244
_cell_formula_units_Z   1
loop_
 _symmetry_equiv_pos_site_id
 _symmetry_equiv_pos_as_xyz
  1  'x, y, z'
loop_
 _atom_site_type_symbol
 _atom_site_label
 _atom_site_symmetry_multiplicity
 _atom_site_fract_x
 _atom_site_fract_y
 _atom_site_fract_z
 _atom_site_occupancy
  Dy  Dy0  1  0.788984  0.816709  0.434740  1
  Dy  Dy1  1  0.355851  0.681290  0.562131  1
  Dy  Dy2  1  0.425687  0.251366  0.001206  1
  Dy  Dy3  1  0.575812  0.749662  0.000070  1
  Y  Y4  1  0.792633  0.084913  0.818245  1
  Y  Y5  1  0.975652  0.416216  0.183202  1
  Y  Y6  1  0.208609  0.916479  0.186671  1
  Y  Y7  1  0.024723  0.582359  0.818501  1
  Y  Y8  1  0.208544  0.184468  0.561807  1
  Y  Y9  1  0.646468  0.317060  0.437337  1
  Ir  Ir10  1  0.175689  0.923563  0.777457  1
  Os  Os11  1  0.603863  0.424967  0.781687  1
  Os  Os12  1  0.822921  0.073903  0.218927  1
  Os  Os13  1  0.394565  0.577045  0.218018  1
