# generated using pymatgen
data_La2Y4FeI10
_symmetry_space_group_name_H-M   'P 1'
_cell_length_a   7.83466248
_cell_length_b   9.88151854
_cell_length_c   9.69210258
_cell_angle_alpha   106.55394797
_cell_angle_beta   95.41901249
_cell_angle_gamma   105.70127835
_symmetry_Int_Tables_number   1
_chemical_formula_structural   La2Y4FeI10
_chemical_formula_sum   'La2 Y4 Fe1 I10'
_cell_volume   680.33876315
_cell_formula_units_Z   1
loop_
 _symmetry_equiv_pos_site_id
 _symmetry_equiv_pos_as_xyz
  1  'x, y, z'
loop_
 _atom_site_type_symbol
 _atom_site_label
 _atom_site_symmetry_multiplicity
 _atom_site_fract_x
 _atom_site_fract_y
 _atom_site_fract_z
 _atom_site_occupancy
  La  La0  1  0.890821  0.959529  0.220330  1
  La  La1  1  0.109179  0.040471  0.779670  1
  Y  Y2  1  0.029199  0.713899  0.913601  1
  Y  Y3  1  0.970801  0.286101  0.086399  1
  Y  Y4  1  0.650516  0.874283  0.834915  1
  Y  Y5  1  0.349484  0.125717  0.165085  1
  Fe  Fe6  1  0.000000  0.000000  0.000000  1
  I  I7  1  0.651942  0.553558  0.731235  1
  I  I8  1  0.348058  0.446442  0.268765  1
  I  I9  1  0.731987  0.910507  0.543630  1
  I  I10  1  0.268013  0.089493  0.456370  1
  I  I11  1  0.082887  0.376955  0.822032  1
  I  I12  1  0.917113  0.623045  0.177968  1
  I  I13  1  0.447370  0.818001  0.090979  1
  I  I14  1  0.552630  0.181999  0.909021  1
  I  I15  1  0.225043  0.737798  0.656892  1
  I  I16  1  0.774957  0.262202  0.343108  1
