# generated using pymatgen
data_KLiNpS3
_symmetry_space_group_name_H-M   'P 1'
_cell_length_a   4.07181400
_cell_length_b   7.21638331
_cell_length_c   10.56235755
_cell_angle_alpha   89.96477994
_cell_angle_beta   90.00000000
_cell_angle_gamma   73.61305294
_symmetry_Int_Tables_number   1
_chemical_formula_structural   KLiNpS3
_chemical_formula_sum   'K2 Li2 Np2 S6'
_cell_volume   297.75439371
_cell_formula_units_Z   2
loop_
 _symmetry_equiv_pos_site_id
 _symmetry_equiv_pos_as_xyz
  1  'x, y, z'
loop_
 _atom_site_type_symbol
 _atom_site_label
 _atom_site_symmetry_multiplicity
 _atom_site_fract_x
 _atom_site_fract_y
 _atom_site_fract_z
 _atom_site_occupancy
  K  K0  1  0.736684  0.526631  0.250006  1
  K  K1  1  0.263316  0.473370  0.749994  1
  Li  Li2  1  0.460633  0.078735  0.249971  1
  Li  Li3  1  0.539367  0.921265  0.750029  1
  Np  Np4  1  0.000000  0.000000  0.000000  1
  Np  Np5  1  0.000000  0.000000  0.500000  1
  S  S6  1  0.378676  0.242651  0.052814  1
  S  S7  1  0.051402  0.897198  0.250003  1
  S  S8  1  0.378676  0.242651  0.447140  1
  S  S9  1  0.621324  0.757349  0.552860  1
  S  S10  1  0.948598  0.102802  0.749997  1
  S  S11  1  0.621324  0.757349  0.947186  1
