# generated using pymatgen
data_Er20NiBi10Os
_symmetry_space_group_name_H-M   'P 1'
_cell_length_a   8.01735781
_cell_length_b   9.36586100
_cell_length_c   12.05337515
_cell_angle_alpha   90.00000000
_cell_angle_beta   90.14904445
_cell_angle_gamma   90.00000000
_symmetry_Int_Tables_number   1
_chemical_formula_structural   Er20NiBi10Os
_chemical_formula_sum   'Er20 Ni1 Bi10 Os1'
_cell_volume   905.07835509
_cell_formula_units_Z   1
loop_
 _symmetry_equiv_pos_site_id
 _symmetry_equiv_pos_as_xyz
  1  'x, y, z'
loop_
 _atom_site_type_symbol
 _atom_site_label
 _atom_site_symmetry_multiplicity
 _atom_site_fract_x
 _atom_site_fract_y
 _atom_site_fract_z
 _atom_site_occupancy
  Er  Er0  1  0.430714  0.177931  0.562928  1
  Er  Er1  1  0.567712  0.822512  0.062725  1
  Er  Er2  1  0.070594  0.722664  0.435380  1
  Er  Er3  1  0.928635  0.275293  0.936096  1
  Er  Er4  1  0.070594  0.277336  0.435380  1
  Er  Er5  1  0.928635  0.724707  0.936096  1
  Er  Er6  1  0.430714  0.822069  0.562928  1
  Er  Er7  1  0.567712  0.177488  0.062725  1
  Er  Er8  1  0.574650  0.500000  0.773667  1
  Er  Er9  1  0.426623  0.500000  0.273210  1
  Er  Er10  1  0.909157  0.000000  0.204398  1
  Er  Er11  1  0.092026  0.000000  0.706220  1
  Er  Er12  1  0.260332  0.500000  0.993644  1
  Er  Er13  1  0.741494  0.500000  0.494265  1
  Er  Er14  1  0.200977  0.000000  0.997757  1
  Er  Er15  1  0.804769  0.000000  0.496425  1
  Er  Er16  1  0.090066  0.500000  0.718515  1
  Er  Er17  1  0.910064  0.500000  0.216786  1
  Er  Er18  1  0.376113  0.000000  0.302892  1
  Er  Er19  1  0.622998  0.000000  0.807450  1
  Ni  Ni20  1  0.829641  0.000000  0.986787  1
  Bi  Bi21  1  0.814216  0.741439  0.673167  1
  Bi  Bi22  1  0.184305  0.259264  0.171325  1
  Bi  Bi23  1  0.680295  0.242754  0.325072  1
  Bi  Bi24  1  0.319138  0.757714  0.825808  1
  Bi  Bi25  1  0.680295  0.757246  0.325072  1
  Bi  Bi26  1  0.319138  0.242286  0.825808  1
  Bi  Bi27  1  0.814216  0.258561  0.673167  1
  Bi  Bi28  1  0.184305  0.740736  0.171325  1
  Bi  Bi29  1  0.349508  0.500000  0.528878  1
  Bi  Bi30  1  0.652106  0.500000  0.028591  1
  Os  Os31  1  0.168260  0.000000  0.485517  1
