# generated using pymatgen
data_Ca3TbB24
_symmetry_space_group_name_H-M   'P 1'
_cell_length_a   7.14943109
_cell_length_b   7.14943112
_cell_length_c   5.84186000
_cell_angle_alpha   90.00000000
_cell_angle_beta   90.00000000
_cell_angle_gamma   109.42629926
_symmetry_Int_Tables_number   1
_chemical_formula_structural   Ca3TbB24
_chemical_formula_sum   'Ca3 Tb1 B24'
_cell_volume   281.60352649
_cell_formula_units_Z   1
loop_
 _symmetry_equiv_pos_site_id
 _symmetry_equiv_pos_as_xyz
  1  'x, y, z'
loop_
 _atom_site_type_symbol
 _atom_site_label
 _atom_site_symmetry_multiplicity
 _atom_site_fract_x
 _atom_site_fract_y
 _atom_site_fract_z
 _atom_site_occupancy
  Ca  Ca0  1  0.748800  0.251200  0.500000  1
  Ca  Ca1  1  0.500000  0.500000  0.000000  1
  Ca  Ca2  1  0.251200  0.748800  0.500000  1
  Tb  Tb3  1  0.000000  0.000000  0.000000  1
  B  B4  1  0.174260  0.324044  0.649460  1
  B  B5  1  0.925759  0.575292  0.149769  1
  B  B6  1  0.675956  0.825740  0.649460  1
  B  B7  1  0.424708  0.074241  0.149769  1
  B  B8  1  0.174260  0.324044  0.350540  1
  B  B9  1  0.925759  0.575292  0.850231  1
  B  B10  1  0.675956  0.825740  0.350540  1
  B  B11  1  0.424708  0.074241  0.850231  1
  B  B12  1  0.399201  0.399201  0.500000  1
  B  B13  1  0.150062  0.649237  0.000000  1
  B  B14  1  0.900090  0.900090  0.500000  1
  B  B15  1  0.649237  0.150062  0.000000  1
  B  B16  1  0.324044  0.174260  0.649460  1
  B  B17  1  0.074241  0.424708  0.149769  1
  B  B18  1  0.825740  0.675956  0.649460  1
  B  B19  1  0.575292  0.925759  0.149769  1
  B  B20  1  0.099910  0.099910  0.500000  1
  B  B21  1  0.849938  0.350763  0.000000  1
  B  B22  1  0.600799  0.600799  0.500000  1
  B  B23  1  0.350763  0.849938  0.000000  1
  B  B24  1  0.324044  0.174260  0.350540  1
  B  B25  1  0.074241  0.424708  0.850231  1
  B  B26  1  0.825740  0.675956  0.350540  1
  B  B27  1  0.575292  0.925759  0.850231  1
