# generated using pymatgen
data_Tb5NdZn4Pt13
_symmetry_space_group_name_H-M   'P 1'
_cell_length_a   8.29956440
_cell_length_b   8.29955945
_cell_length_c   8.29955941
_cell_angle_alpha   109.50716176
_cell_angle_beta   109.45118057
_cell_angle_gamma   109.45118219
_symmetry_Int_Tables_number   1
_chemical_formula_structural   Tb5NdZn4Pt13
_chemical_formula_sum   'Tb5 Nd1 Zn4 Pt13'
_cell_volume   440.11437782
_cell_formula_units_Z   1
loop_
 _symmetry_equiv_pos_site_id
 _symmetry_equiv_pos_as_xyz
  1  'x, y, z'
loop_
 _atom_site_type_symbol
 _atom_site_label
 _atom_site_symmetry_multiplicity
 _atom_site_fract_x
 _atom_site_fract_y
 _atom_site_fract_z
 _atom_site_occupancy
  Tb  Tb0  1  0.697735  0.698039  0.000209  1
  Tb  Tb1  1  0.302263  0.000383  0.302562  1
  Tb  Tb2  1  0.000085  0.303319  0.303319  1
  Tb  Tb3  1  0.302263  0.302562  0.000383  1
  Tb  Tb4  1  0.697735  0.000209  0.698039  1
  Nd  Nd5  1  0.999875  0.702208  0.702208  1
  Zn  Zn6  1  0.000008  0.999406  0.498341  1
  Zn  Zn7  1  0.000008  0.498341  0.999406  1
  Zn  Zn8  1  0.501070  0.999407  0.999407  1
  Zn  Zn9  1  0.498940  0.498337  0.498337  1
  Pt  Pt10  1  0.331572  0.331797  0.663328  1
  Pt  Pt11  1  0.668603  0.000213  0.331601  1
  Pt  Pt12  1  0.999992  0.670026  0.328065  1
  Pt  Pt13  1  0.668603  0.331601  0.000213  1
  Pt  Pt14  1  0.331572  0.663328  0.331797  1
  Pt  Pt15  1  0.999992  0.328065  0.670026  1
  Pt  Pt16  1  0.333532  0.667111  0.000647  1
  Pt  Pt17  1  0.333532  0.000647  0.667111  1
  Pt  Pt18  1  0.658301  0.328228  0.328228  1
  Pt  Pt19  1  0.666304  0.666977  0.333330  1
  Pt  Pt20  1  0.666304  0.333330  0.666977  1
  Pt  Pt21  1  0.341723  0.669888  0.669888  1
  Pt  Pt22  1  0.999992  0.006578  0.006578  1
