# generated using pymatgen
data_K2PPd2
_symmetry_space_group_name_H-M   'P 1'
_cell_length_a   8.94036261
_cell_length_b   8.19225807
_cell_length_c   5.95048304
_cell_angle_alpha   76.60192075
_cell_angle_beta   63.04765887
_cell_angle_gamma   40.35039740
_symmetry_Int_Tables_number   1
_chemical_formula_structural   K2PPd2
_chemical_formula_sum   'K4 P2 Pd4'
_cell_volume   246.59954529
_cell_formula_units_Z   2
loop_
 _symmetry_equiv_pos_site_id
 _symmetry_equiv_pos_as_xyz
  1  'x, y, z'
loop_
 _atom_site_type_symbol
 _atom_site_label
 _atom_site_symmetry_multiplicity
 _atom_site_fract_x
 _atom_site_fract_y
 _atom_site_fract_z
 _atom_site_occupancy
  K  K0  1  0.052002  0.049127  0.633131  1
  K  K1  1  0.265740  0.633131  0.049127  1
  K  K2  1  0.616869  0.984260  0.197998  1
  K  K3  1  0.200873  0.197998  0.984260  1
  P  P4  1  0.821907  0.678093  0.678093  1
  P  P5  1  0.571907  0.428093  0.428093  1
  Pd  Pd6  1  0.654943  0.582368  0.056421  1
  Pd  Pd7  1  0.706267  0.056421  0.582368  1
  Pd  Pd8  1  0.193579  0.543733  0.595057  1
  Pd  Pd9  1  0.667632  0.595057  0.543733  1
