# generated using pymatgen
data_Dy9Y6Ho5(Cd3Ru)2
_symmetry_space_group_name_H-M   'P 1'
_cell_length_a   9.60708500
_cell_length_b   9.60708554
_cell_length_c   9.84660200
_cell_angle_alpha   90.00000000
_cell_angle_beta   90.00000000
_cell_angle_gamma   120.00000159
_symmetry_Int_Tables_number   1
_chemical_formula_structural   Dy9Y6Ho5(Cd3Ru)2
_chemical_formula_sum   'Dy9 Y6 Ho5 Cd6 Ru2'
_cell_volume   787.04633262
_cell_formula_units_Z   1
loop_
 _symmetry_equiv_pos_site_id
 _symmetry_equiv_pos_as_xyz
  1  'x, y, z'
loop_
 _atom_site_type_symbol
 _atom_site_label
 _atom_site_symmetry_multiplicity
 _atom_site_fract_x
 _atom_site_fract_y
 _atom_site_fract_z
 _atom_site_occupancy
  Dy  Dy0  1  0.209843  0.790157  0.439847  1
  Dy  Dy1  1  0.209843  0.419686  0.439847  1
  Dy  Dy2  1  0.580314  0.790157  0.439847  1
  Dy  Dy3  1  0.790180  0.209820  0.560098  1
  Dy  Dy4  1  0.790180  0.580359  0.560098  1
  Dy  Dy5  1  0.419641  0.209820  0.560098  1
  Dy  Dy6  1  0.790194  0.209806  0.939937  1
  Dy  Dy7  1  0.790194  0.580389  0.939937  1
  Dy  Dy8  1  0.419611  0.209806  0.939937  1
  Y  Y9  1  0.541188  0.458812  0.249954  1
  Y  Y10  1  0.541188  0.082376  0.249954  1
  Y  Y11  1  0.917624  0.458812  0.249954  1
  Y  Y12  1  0.458758  0.541242  0.750079  1
  Y  Y13  1  0.458758  0.917516  0.750079  1
  Y  Y14  1  0.082484  0.541242  0.750079  1
  Ho  Ho15  1  0.000000  0.000000  0.500033  1
  Ho  Ho16  1  0.000000  0.000000  0.000019  1
  Ho  Ho17  1  0.209932  0.790068  0.060121  1
  Ho  Ho18  1  0.209932  0.419865  0.060121  1
  Ho  Ho19  1  0.580135  0.790068  0.060121  1
  Cd  Cd20  1  0.885472  0.114528  0.249969  1
  Cd  Cd21  1  0.885472  0.770945  0.249969  1
  Cd  Cd22  1  0.229055  0.114528  0.249969  1
  Cd  Cd23  1  0.114537  0.885463  0.750039  1
  Cd  Cd24  1  0.114537  0.229072  0.750039  1
  Cd  Cd25  1  0.770928  0.885463  0.750039  1
  Ru  Ru26  1  0.333333  0.666667  0.249841  1
  Ru  Ru27  1  0.666667  0.333333  0.749972  1
