# generated using pymatgen
data_Dy16Ho4Ir5Pt7
_symmetry_space_group_name_H-M   'P 1'
_cell_length_a   11.04742257
_cell_length_b   11.04742257
_cell_length_c   6.32597611
_cell_angle_alpha   90.01540013
_cell_angle_beta   90.01540013
_cell_angle_gamma   90.15774698
_symmetry_Int_Tables_number   1
_chemical_formula_structural   Dy16Ho4Ir5Pt7
_chemical_formula_sum   'Dy16 Ho4 Ir5 Pt7'
_cell_volume   772.05422292
_cell_formula_units_Z   1
loop_
 _symmetry_equiv_pos_site_id
 _symmetry_equiv_pos_as_xyz
  1  'x, y, z'
loop_
 _atom_site_type_symbol
 _atom_site_label
 _atom_site_symmetry_multiplicity
 _atom_site_fract_x
 _atom_site_fract_y
 _atom_site_fract_z
 _atom_site_occupancy
  Dy  Dy0  1  0.294883  0.086963  0.374135  1
  Dy  Dy1  1  0.295146  0.909162  0.874230  1
  Dy  Dy2  1  0.705054  0.087133  0.874088  1
  Dy  Dy3  1  0.705033  0.912202  0.373693  1
  Dy  Dy4  1  0.584460  0.792729  0.873402  1
  Dy  Dy5  1  0.587418  0.206122  0.375142  1
  Dy  Dy6  1  0.411031  0.792073  0.378493  1
  Dy  Dy7  1  0.412329  0.204923  0.874999  1
  Dy  Dy8  1  0.207271  0.415540  0.626598  1
  Dy  Dy9  1  0.207927  0.588969  0.121507  1
  Dy  Dy10  1  0.793878  0.412582  0.124858  1
  Dy  Dy11  1  0.795077  0.587671  0.625001  1
  Dy  Dy12  1  0.913037  0.705117  0.125865  1
  Dy  Dy13  1  0.912867  0.294946  0.625912  1
  Dy  Dy14  1  0.090838  0.704854  0.625770  1
  Dy  Dy15  1  0.087798  0.294967  0.126307  1
  Ho  Ho16  1  0.999796  0.999909  0.500099  1
  Ho  Ho17  1  0.000091  0.000204  0.999901  1
  Ho  Ho18  1  0.498193  0.501089  0.999458  1
  Ho  Ho19  1  0.498911  0.501807  0.500542  1
  Ir  Ir20  1  0.347292  0.652708  0.750000  1
  Ir  Ir21  1  0.500232  0.000384  0.122126  1
  Ir  Ir22  1  0.500107  0.000518  0.620980  1
  Ir  Ir23  1  0.999482  0.499893  0.879020  1
  Ir  Ir24  1  0.999616  0.499768  0.377874  1
  Pt  Pt25  1  0.846848  0.153152  0.250000  1
  Pt  Pt26  1  0.846611  0.847020  0.750259  1
  Pt  Pt27  1  0.152980  0.153389  0.749741  1
  Pt  Pt28  1  0.152654  0.847346  0.250000  1
  Pt  Pt29  1  0.652938  0.347062  0.750000  1
  Pt  Pt30  1  0.653935  0.653732  0.250072  1
  Pt  Pt31  1  0.346268  0.346065  0.249928  1
