# generated using pymatgen
data_Eu3Au4
_symmetry_space_group_name_H-M   'P 1'
_cell_length_a   8.43043525
_cell_length_b   8.43043501
_cell_length_c   8.43043439
_cell_angle_alpha   114.10219270
_cell_angle_beta   114.10219839
_cell_angle_gamma   114.10219925
_symmetry_Int_Tables_number   1
_chemical_formula_structural   Eu3Au4
_chemical_formula_sum   'Eu6 Au8'
_cell_volume   361.25170235
_cell_formula_units_Z   2
loop_
 _symmetry_equiv_pos_site_id
 _symmetry_equiv_pos_as_xyz
  1  'x, y, z'
loop_
 _atom_site_type_symbol
 _atom_site_label
 _atom_site_symmetry_multiplicity
 _atom_site_fract_x
 _atom_site_fract_y
 _atom_site_fract_z
 _atom_site_occupancy
  Eu  Eu0  1  0.399859  0.027281  0.281016  1
  Eu  Eu1  1  0.027281  0.281016  0.399859  1
  Eu  Eu2  1  0.281016  0.399859  0.027281  1
  Eu  Eu3  1  0.600141  0.972719  0.718984  1
  Eu  Eu4  1  0.972719  0.718984  0.600141  1
  Eu  Eu5  1  0.718984  0.600141  0.972719  1
  Au  Au6  1  0.056981  0.555371  0.222214  1
  Au  Au7  1  0.222214  0.056981  0.555371  1
  Au  Au8  1  0.555371  0.222214  0.056981  1
  Au  Au9  1  0.777786  0.943019  0.444629  1
  Au  Au10  1  0.943019  0.444629  0.777786  1
  Au  Au11  1  0.444629  0.777786  0.943019  1
  Au  Au12  1  0.500000  0.500000  0.500000  1
  Au  Au13  1  0.000000  0.000000  0.000000  1
