# generated using pymatgen
data_Rb7(FeS2)4
_symmetry_space_group_name_H-M   'P 1'
_cell_length_a   10.09686174
_cell_length_b   10.09686154
_cell_length_c   16.25764454
_cell_angle_alpha   64.72610219
_cell_angle_beta   64.72610182
_cell_angle_gamma   48.32350050
_symmetry_Int_Tables_number   1
_chemical_formula_structural   Rb7(FeS2)4
_chemical_formula_sum   'Rb14 Fe8 S16'
_cell_volume   1094.04097233
_cell_formula_units_Z   2
loop_
 _symmetry_equiv_pos_site_id
 _symmetry_equiv_pos_as_xyz
  1  'x, y, z'
loop_
 _atom_site_type_symbol
 _atom_site_label
 _atom_site_symmetry_multiplicity
 _atom_site_fract_x
 _atom_site_fract_y
 _atom_site_fract_z
 _atom_site_occupancy
  Rb  Rb0  1  0.230385  0.769615  0.750000  1
  Rb  Rb1  1  0.769615  0.230385  0.250000  1
  Rb  Rb2  1  0.242788  0.745886  0.988491  1
  Rb  Rb3  1  0.254114  0.757212  0.511509  1
  Rb  Rb4  1  0.757212  0.254114  0.011509  1
  Rb  Rb5  1  0.745886  0.242788  0.488491  1
  Rb  Rb6  1  0.002608  0.523616  0.609264  1
  Rb  Rb7  1  0.476384  0.997392  0.890736  1
  Rb  Rb8  1  0.997392  0.476384  0.390736  1
  Rb  Rb9  1  0.523616  0.002608  0.109264  1
  Rb  Rb10  1  0.011348  0.506569  0.861274  1
  Rb  Rb11  1  0.493431  0.988652  0.638726  1
  Rb  Rb12  1  0.988652  0.493431  0.138726  1
  Rb  Rb13  1  0.506569  0.011348  0.361274  1
  Fe  Fe14  1  0.678515  0.437411  0.663550  1
  Fe  Fe15  1  0.562589  0.321485  0.836450  1
  Fe  Fe16  1  0.321485  0.562589  0.336450  1
  Fe  Fe17  1  0.437411  0.678515  0.163550  1
  Fe  Fe18  1  0.900200  0.212821  0.777931  1
  Fe  Fe19  1  0.787179  0.099800  0.722069  1
  Fe  Fe20  1  0.099800  0.787179  0.222069  1
  Fe  Fe21  1  0.212821  0.900200  0.277931  1
  S  S22  1  0.652429  0.504191  0.790066  1
  S  S23  1  0.495809  0.347571  0.709934  1
  S  S24  1  0.347571  0.495809  0.209934  1
  S  S25  1  0.504191  0.652429  0.290066  1
  S  S26  1  0.969418  0.192170  0.627737  1
  S  S27  1  0.807830  0.030582  0.872263  1
  S  S28  1  0.030582  0.807830  0.372263  1
  S  S29  1  0.192170  0.969418  0.127737  1
  S  S30  1  0.673575  0.607945  0.046488  1
  S  S31  1  0.392055  0.326425  0.453512  1
  S  S32  1  0.326425  0.392055  0.953512  1
  S  S33  1  0.607945  0.673575  0.546488  1
  S  S34  1  0.867322  0.866911  0.683011  1
  S  S35  1  0.133089  0.132678  0.816989  1
  S  S36  1  0.132678  0.133089  0.316989  1
  S  S37  1  0.866911  0.867322  0.183011  1
