# generated using pymatgen
data_Dy16Cd4Co3Ni
_symmetry_space_group_name_H-M   'P 1'
_cell_length_a   9.51348142
_cell_length_b   9.51348124
_cell_length_c   9.52805790
_cell_angle_alpha   60.05058572
_cell_angle_beta   60.05058653
_cell_angle_gamma   59.99999822
_symmetry_Int_Tables_number   1
_chemical_formula_structural   Dy16Cd4Co3Ni
_chemical_formula_sum   'Dy16 Cd4 Co3 Ni1'
_cell_volume   610.23901053
_cell_formula_units_Z   1
loop_
 _symmetry_equiv_pos_site_id
 _symmetry_equiv_pos_as_xyz
  1  'x, y, z'
loop_
 _atom_site_type_symbol
 _atom_site_label
 _atom_site_symmetry_multiplicity
 _atom_site_fract_x
 _atom_site_fract_y
 _atom_site_fract_z
 _atom_site_occupancy
  Dy  Dy0  1  0.151696  0.540591  0.156015  1
  Dy  Dy1  1  0.691490  0.312289  0.683931  1
  Dy  Dy2  1  0.687520  0.312563  0.312396  1
  Dy  Dy3  1  0.936690  0.562647  0.563973  1
  Dy  Dy4  1  0.540591  0.151696  0.156015  1
  Dy  Dy5  1  0.154132  0.154132  0.537604  1
  Dy  Dy6  1  0.936690  0.936690  0.563973  1
  Dy  Dy7  1  0.312563  0.687520  0.312396  1
  Dy  Dy8  1  0.563016  0.936080  0.937887  1
  Dy  Dy9  1  0.562647  0.936690  0.563973  1
  Dy  Dy10  1  0.687520  0.687520  0.312396  1
  Dy  Dy11  1  0.563016  0.563016  0.937887  1
  Dy  Dy12  1  0.936080  0.563016  0.937887  1
  Dy  Dy13  1  0.312289  0.691490  0.683931  1
  Dy  Dy14  1  0.151696  0.151696  0.156015  1
  Dy  Dy15  1  0.312289  0.312289  0.683931  1
  Cd  Cd16  1  0.919759  0.241214  0.919269  1
  Cd  Cd17  1  0.919759  0.919759  0.919269  1
  Cd  Cd18  1  0.919232  0.919232  0.242305  1
  Cd  Cd19  1  0.241214  0.919759  0.919269  1
  Co  Co20  1  0.358964  0.923253  0.358820  1
  Co  Co21  1  0.923253  0.358964  0.358820  1
  Co  Co22  1  0.358964  0.358964  0.358820  1
  Ni  Ni23  1  0.358927  0.358927  0.923221  1
