# generated using pymatgen
data_Sc3In3HgPtRh
_symmetry_space_group_name_H-M   'P 1'
_cell_length_a   7.79857600
_cell_length_b   7.79857520
_cell_length_c   3.49020800
_cell_angle_alpha   90.00000000
_cell_angle_beta   90.00000000
_cell_angle_gamma   120.00000341
_symmetry_Int_Tables_number   1
_chemical_formula_structural   Sc3In3HgPtRh
_chemical_formula_sum   'Sc3 In3 Hg1 Pt1 Rh1'
_cell_volume   183.82835433
_cell_formula_units_Z   1
loop_
 _symmetry_equiv_pos_site_id
 _symmetry_equiv_pos_as_xyz
  1  'x, y, z'
loop_
 _atom_site_type_symbol
 _atom_site_label
 _atom_site_symmetry_multiplicity
 _atom_site_fract_x
 _atom_site_fract_y
 _atom_site_fract_z
 _atom_site_occupancy
  Sc  Sc0  1  0.596094  0.971229  0.000000  1
  Sc  Sc1  1  0.375135  0.403906  0.000000  1
  Sc  Sc2  1  0.028771  0.624865  0.000000  1
  In  In3  1  0.732018  0.727961  0.500000  1
  In  In4  1  0.995942  0.267982  0.500000  1
  In  In5  1  0.272039  0.004058  0.500000  1
  Hg  Hg6  1  0.666667  0.333333  0.500000  1
  Pt  Pt7  1  0.333333  0.666667  0.500000  1
  Rh  Rh8  1  0.000000  0.000000  0.000000  1
