# generated using pymatgen
data_Ca3IrN3
_symmetry_space_group_name_H-M   'P 1'
_cell_length_a   4.98519900
_cell_length_b   6.74519172
_cell_length_c   6.74519210
_cell_angle_alpha   101.06449975
_cell_angle_beta   90.00000000
_cell_angle_gamma   90.00000000
_symmetry_Int_Tables_number   1
_chemical_formula_structural   Ca3IrN3
_chemical_formula_sum   'Ca6 Ir2 N6'
_cell_volume   222.59857458
_cell_formula_units_Z   2
loop_
 _symmetry_equiv_pos_site_id
 _symmetry_equiv_pos_as_xyz
  1  'x, y, z'
loop_
 _atom_site_type_symbol
 _atom_site_label
 _atom_site_symmetry_multiplicity
 _atom_site_fract_x
 _atom_site_fract_y
 _atom_site_fract_z
 _atom_site_occupancy
  Ca  Ca0  1  0.250000  0.893204  0.106797  1
  Ca  Ca1  1  0.250000  0.401305  0.169552  1
  Ca  Ca2  1  0.750001  0.169552  0.401305  1
  Ca  Ca3  1  0.250000  0.830448  0.598695  1
  Ca  Ca4  1  0.750001  0.598695  0.830448  1
  Ca  Ca5  1  0.750001  0.106797  0.893204  1
  Ir  Ir6  1  0.750001  0.695145  0.304856  1
  Ir  Ir7  1  0.250000  0.304856  0.695145  1
  N  N8  1  0.750001  0.880683  0.119318  1
  N  N9  1  0.750001  0.415318  0.172287  1
  N  N10  1  0.250000  0.172287  0.415318  1
  N  N11  1  0.750001  0.827713  0.584682  1
  N  N12  1  0.250000  0.584682  0.827713  1
  N  N13  1  0.250000  0.119318  0.880683  1
