# generated using pymatgen
data_La6Pr4InGaSi4
_symmetry_space_group_name_H-M   'P 1'
_cell_length_a   7.91286600
_cell_length_b   9.32781290
_cell_length_c   7.91286600
_cell_angle_alpha   115.09715221
_cell_angle_beta   90.00000000
_cell_angle_gamma   115.09715221
_symmetry_Int_Tables_number   1
_chemical_formula_structural   La6Pr4InGaSi4
_chemical_formula_sum   'La6 Pr4 In1 Ga1 Si4'
_cell_volume   467.30514042
_cell_formula_units_Z   1
loop_
 _symmetry_equiv_pos_site_id
 _symmetry_equiv_pos_as_xyz
  1  'x, y, z'
loop_
 _atom_site_type_symbol
 _atom_site_label
 _atom_site_symmetry_multiplicity
 _atom_site_fract_x
 _atom_site_fract_y
 _atom_site_fract_z
 _atom_site_occupancy
  La  La0  1  0.974124  0.949445  0.976151  1
  La  La1  1  0.525015  0.052320  0.526692  1
  La  La2  1  0.526585  0.721642  0.673496  1
  La  La3  1  0.195029  0.720697  0.047094  1
  La  La4  1  0.673914  0.720647  0.194127  1
  La  La5  1  0.048219  0.721035  0.527093  1
  Pr  Pr6  1  0.451269  0.278240  0.304481  1
  Pr  Pr7  1  0.826560  0.277684  0.972749  1
  Pr  Pr8  1  0.305225  0.278126  0.826546  1
  Pr  Pr9  1  0.972748  0.278070  0.450622  1
  In  In10  1  0.748737  0.497134  0.748517  1
  Ga  Ga11  1  0.247309  0.494478  0.247121  1
  Si  Si12  1  0.887386  0.002543  0.615443  1
  Si  Si13  1  0.115369  0.002598  0.387054  1
  Si  Si14  1  0.615530  0.002657  0.115470  1
  Si  Si15  1  0.386981  0.002685  0.887343  1
