# generated using pymatgen
data_Ca6BiPtO12
_symmetry_space_group_name_H-M   'P 1'
_cell_length_a   6.67767710
_cell_length_b   6.67767803
_cell_length_c   6.67767700
_cell_angle_alpha   91.91645216
_cell_angle_beta   91.91644384
_cell_angle_gamma   91.91644961
_symmetry_Int_Tables_number   1
_chemical_formula_structural   Ca6BiPtO12
_chemical_formula_sum   'Ca6 Bi1 Pt1 O12'
_cell_volume   297.25571936
_cell_formula_units_Z   1
loop_
 _symmetry_equiv_pos_site_id
 _symmetry_equiv_pos_as_xyz
  1  'x, y, z'
loop_
 _atom_site_type_symbol
 _atom_site_label
 _atom_site_symmetry_multiplicity
 _atom_site_fract_x
 _atom_site_fract_y
 _atom_site_fract_z
 _atom_site_occupancy
  Ca  Ca0  1  0.068476  0.254274  0.564683  1
  Ca  Ca1  1  0.435317  0.931524  0.745726  1
  Ca  Ca2  1  0.745726  0.435317  0.931524  1
  Ca  Ca3  1  0.254274  0.564683  0.068476  1
  Ca  Ca4  1  0.564683  0.068476  0.254274  1
  Ca  Ca5  1  0.931524  0.745726  0.435317  1
  Bi  Bi6  1  0.000000  0.000000  0.000000  1
  Pt  Pt7  1  0.500000  0.500000  0.500000  1
  O  O8  1  0.071147  0.302643  0.921844  1
  O  O9  1  0.078156  0.928853  0.697357  1
  O  O10  1  0.454526  0.576797  0.781580  1
  O  O11  1  0.697357  0.078156  0.928853  1
  O  O12  1  0.218420  0.545474  0.423203  1
  O  O13  1  0.423203  0.218420  0.545474  1
  O  O14  1  0.576797  0.781580  0.454526  1
  O  O15  1  0.781580  0.454526  0.576797  1
  O  O16  1  0.302643  0.921844  0.071147  1
  O  O17  1  0.545474  0.423203  0.218420  1
  O  O18  1  0.921844  0.071147  0.302643  1
  O  O19  1  0.928853  0.697357  0.078156  1
