# generated using pymatgen
data_Ho4InPd
_symmetry_space_group_name_H-M   'P 1'
_cell_length_a   9.69016765
_cell_length_b   9.69018173
_cell_length_c   9.72829400
_cell_angle_alpha   59.86973975
_cell_angle_beta   59.86974812
_cell_angle_gamma   59.72084265
_symmetry_Int_Tables_number   1
_chemical_formula_structural   Ho4InPd
_chemical_formula_sum   'Ho16 In4 Pd4'
_cell_volume   643.28884565
_cell_formula_units_Z   4
loop_
 _symmetry_equiv_pos_site_id
 _symmetry_equiv_pos_as_xyz
  1  'x, y, z'
loop_
 _atom_site_type_symbol
 _atom_site_label
 _atom_site_symmetry_multiplicity
 _atom_site_fract_x
 _atom_site_fract_y
 _atom_site_fract_z
 _atom_site_occupancy
  Ho  Ho0  1  0.352029  0.352025  0.353475  1
  Ho  Ho1  1  0.352034  0.352028  0.942466  1
  Ho  Ho2  1  0.351985  0.941268  0.353377  1
  Ho  Ho3  1  0.941270  0.351980  0.353380  1
  Ho  Ho4  1  0.810647  0.190482  0.189652  1
  Ho  Ho5  1  0.190480  0.810659  0.809210  1
  Ho  Ho6  1  0.190482  0.810652  0.189653  1
  Ho  Ho7  1  0.810653  0.190477  0.809215  1
  Ho  Ho8  1  0.189586  0.189584  0.810410  1
  Ho  Ho9  1  0.809452  0.809458  0.190545  1
  Ho  Ho10  1  0.935127  0.564188  0.564339  1
  Ho  Ho11  1  0.564196  0.935127  0.936343  1
  Ho  Ho12  1  0.564192  0.935129  0.564335  1
  Ho  Ho13  1  0.935125  0.564194  0.936345  1
  Ho  Ho14  1  0.564837  0.564838  0.935163  1
  Ho  Ho15  1  0.936356  0.936361  0.563642  1
  In  In16  1  0.583719  0.583719  0.583420  1
  In  In17  1  0.583719  0.583719  0.249142  1
  In  In18  1  0.583210  0.250812  0.582988  1
  In  In19  1  0.250812  0.583211  0.582989  1
  Pd  Pd20  1  0.144031  0.144029  0.144359  1
  Pd  Pd21  1  0.144027  0.144029  0.567583  1
  Pd  Pd22  1  0.143675  0.568357  0.143984  1
  Pd  Pd23  1  0.568355  0.143675  0.143984  1
