# generated using pymatgen
data_Na5Pa3InI18
_symmetry_space_group_name_H-M   'P 1'
_cell_length_a   7.86745018
_cell_length_b   8.80396630
_cell_length_c   19.66956200
_cell_angle_alpha   95.35020072
_cell_angle_beta   90.01214744
_cell_angle_gamma   116.62343097
_symmetry_Int_Tables_number   1
_chemical_formula_structural   Na5Pa3InI18
_chemical_formula_sum   'Na5 Pa3 In1 I18'
_cell_volume   1211.29624224
_cell_formula_units_Z   1
loop_
 _symmetry_equiv_pos_site_id
 _symmetry_equiv_pos_as_xyz
  1  'x, y, z'
loop_
 _atom_site_type_symbol
 _atom_site_label
 _atom_site_symmetry_multiplicity
 _atom_site_fract_x
 _atom_site_fract_y
 _atom_site_fract_z
 _atom_site_occupancy
  Na  Na0  1  0.769077  0.535795  0.555240  1
  Na  Na1  1  0.906896  0.807790  0.775800  1
  Na  Na2  1  0.100955  0.202038  0.223649  1
  Na  Na3  1  0.230198  0.460893  0.440484  1
  Na  Na4  1  0.558086  0.123884  0.109191  1
  Pa  Pa5  1  0.007241  0.999364  0.002712  1
  Pa  Pa6  1  0.328038  0.668068  0.664131  1
  Pa  Pa7  1  0.666203  0.332509  0.332779  1
  In  In8  1  0.666199  0.320712  0.840513  1
  I  I9  1  0.649681  0.983933  0.738974  1
  I  I10  1  0.803552  0.219419  0.979597  1
  I  I11  1  0.205574  0.122287  0.869901  1
  I  I12  1  0.128188  0.574837  0.796208  1
  I  I13  1  0.545492  0.462911  0.694322  1
  I  I14  1  0.973777  0.651395  0.413792  1
  I  I15  1  0.692370  0.696755  0.917266  1
  I  I16  1  0.120138  0.875967  0.634302  1
  I  I17  1  0.550905  0.771180  0.535651  1
  I  I18  1  0.444903  0.223861  0.462004  1
  I  I19  1  0.877132  0.126051  0.363689  1
  I  I20  1  0.313817  0.321174  0.082106  1
  I  I21  1  0.023818  0.346342  0.585337  1
  I  I22  1  0.456051  0.539451  0.302359  1
  I  I23  1  0.886973  0.440493  0.204619  1
  I  I24  1  0.776550  0.890282  0.129245  1
  I  I25  1  0.213281  0.795913  0.029323  1
  I  I26  1  0.358241  0.013367  0.253470  1
