# generated using pymatgen
data_Tb7NdCd2OsPt
_symmetry_space_group_name_H-M   'P 1'
_cell_length_a   9.73349113
_cell_length_b   9.73349023
_cell_length_c   9.77988000
_cell_angle_alpha   59.84221650
_cell_angle_beta   59.84221960
_cell_angle_gamma   59.71073548
_symmetry_Int_Tables_number   1
_chemical_formula_structural   Tb7NdCd2OsPt
_chemical_formula_sum   'Tb14 Nd2 Cd4 Os2 Pt2'
_cell_volume   652.17178960
_cell_formula_units_Z   2
loop_
 _symmetry_equiv_pos_site_id
 _symmetry_equiv_pos_as_xyz
  1  'x, y, z'
loop_
 _atom_site_type_symbol
 _atom_site_label
 _atom_site_symmetry_multiplicity
 _atom_site_fract_x
 _atom_site_fract_y
 _atom_site_fract_z
 _atom_site_occupancy
  Tb  Tb0  1  0.350698  0.350698  0.349487  1
  Tb  Tb1  1  0.350698  0.350698  0.949118  1
  Tb  Tb2  1  0.344234  0.955858  0.349954  1
  Tb  Tb3  1  0.955858  0.344234  0.349954  1
  Tb  Tb4  1  0.815793  0.186698  0.190159  1
  Tb  Tb5  1  0.186698  0.815793  0.807351  1
  Tb  Tb6  1  0.186698  0.815793  0.190159  1
  Tb  Tb7  1  0.815793  0.186698  0.807351  1
  Tb  Tb8  1  0.189151  0.189151  0.810849  1
  Tb  Tb9  1  0.807166  0.807166  0.192834  1
  Tb  Tb10  1  0.941373  0.552266  0.564271  1
  Tb  Tb11  1  0.552266  0.941373  0.942089  1
  Tb  Tb12  1  0.552266  0.941373  0.564271  1
  Tb  Tb13  1  0.941373  0.552266  0.942089  1
  Nd  Nd14  1  0.566735  0.566735  0.933265  1
  Nd  Nd15  1  0.936034  0.936034  0.563966  1
  Cd  Cd16  1  0.580515  0.580515  0.579668  1
  Cd  Cd17  1  0.580515  0.580515  0.259303  1
  Cd  Cd18  1  0.578776  0.257053  0.582086  1
  Cd  Cd19  1  0.257053  0.578776  0.582086  1
  Os  Os20  1  0.146772  0.146772  0.132662  1
  Os  Os21  1  0.146772  0.146772  0.573792  1
  Pt  Pt22  1  0.142224  0.574541  0.141618  1
  Pt  Pt23  1  0.574541  0.142224  0.141618  1
