# generated using pymatgen
data_Sm2U(SnRh)3
_symmetry_space_group_name_H-M   'P 1'
_cell_length_a   7.51795609
_cell_length_b   7.65840897
_cell_length_c   3.96726200
_cell_angle_alpha   90.00000000
_cell_angle_beta   90.00000000
_cell_angle_gamma   120.61995369
_symmetry_Int_Tables_number   1
_chemical_formula_structural   Sm2U(SnRh)3
_chemical_formula_sum   'Sm2 U1 Sn3 Rh3'
_cell_volume   196.56796796
_cell_formula_units_Z   1
loop_
 _symmetry_equiv_pos_site_id
 _symmetry_equiv_pos_as_xyz
  1  'x, y, z'
loop_
 _atom_site_type_symbol
 _atom_site_label
 _atom_site_symmetry_multiplicity
 _atom_site_fract_x
 _atom_site_fract_y
 _atom_site_fract_z
 _atom_site_occupancy
  Sm  Sm0  1  0.408334  0.409385  0.500000  1
  Sm  Sm1  1  0.591666  0.001052  0.500000  1
  U  U2  1  0.000000  0.584400  0.500000  1
  Sn  Sn3  1  0.733741  0.743686  0.000000  1
  Sn  Sn4  1  0.266259  0.009945  0.000000  1
  Sn  Sn5  1  0.000000  0.243678  0.000000  1
  Rh  Rh6  1  0.705220  0.366436  0.000000  1
  Rh  Rh7  1  0.294780  0.661217  0.000000  1
  Rh  Rh8  1  0.000000  0.980201  0.500000  1
