# generated using pymatgen
data_Tb2Er10Os3Ru
_symmetry_space_group_name_H-M   'P 1'
_cell_length_a   6.29214301
_cell_length_b   7.33569782
_cell_length_c   9.01102000
_cell_angle_alpha   90.00000000
_cell_angle_beta   90.00000000
_cell_angle_gamma   90.05256594
_symmetry_Int_Tables_number   1
_chemical_formula_structural   Tb2Er10Os3Ru
_chemical_formula_sum   'Tb2 Er10 Os3 Ru1'
_cell_volume   415.92381558
_cell_formula_units_Z   1
loop_
 _symmetry_equiv_pos_site_id
 _symmetry_equiv_pos_as_xyz
  1  'x, y, z'
loop_
 _atom_site_type_symbol
 _atom_site_label
 _atom_site_symmetry_multiplicity
 _atom_site_fract_x
 _atom_site_fract_y
 _atom_site_fract_z
 _atom_site_occupancy
  Tb  Tb0  1  0.869453  0.541117  0.250000  1
  Tb  Tb1  1  0.632464  0.039618  0.250000  1
  Er  Er2  1  0.332642  0.674861  0.062073  1
  Er  Er3  1  0.168013  0.175782  0.437419  1
  Er  Er4  1  0.668936  0.324337  0.563913  1
  Er  Er5  1  0.830247  0.823943  0.934836  1
  Er  Er6  1  0.668936  0.324337  0.936087  1
  Er  Er7  1  0.830247  0.823943  0.565164  1
  Er  Er8  1  0.332642  0.674861  0.437927  1
  Er  Er9  1  0.168013  0.175782  0.062581  1
  Er  Er10  1  0.131751  0.460174  0.750000  1
  Er  Er11  1  0.367863  0.960519  0.750000  1
  Os  Os12  1  0.457482  0.383906  0.250000  1
  Os  Os13  1  0.960819  0.116172  0.750000  1
  Os  Os14  1  0.539154  0.616471  0.750000  1
  Ru  Ru15  1  0.041340  0.884178  0.250000  1
