# generated using pymatgen
data_Ta4Cr6SiGe
_symmetry_space_group_name_H-M   'P 1'
_cell_length_a   4.88628500
_cell_length_b   4.88628480
_cell_length_c   8.14641000
_cell_angle_alpha   90.00000000
_cell_angle_beta   90.00000000
_cell_angle_gamma   119.99999457
_symmetry_Int_Tables_number   1
_chemical_formula_structural   Ta4Cr6SiGe
_chemical_formula_sum   'Ta4 Cr6 Si1 Ge1'
_cell_volume   168.44359053
_cell_formula_units_Z   1
loop_
 _symmetry_equiv_pos_site_id
 _symmetry_equiv_pos_as_xyz
  1  'x, y, z'
loop_
 _atom_site_type_symbol
 _atom_site_label
 _atom_site_symmetry_multiplicity
 _atom_site_fract_x
 _atom_site_fract_y
 _atom_site_fract_z
 _atom_site_occupancy
  Ta  Ta0  1  0.333333  0.666667  0.433890  1
  Ta  Ta1  1  0.666667  0.333333  0.566110  1
  Ta  Ta2  1  0.666667  0.333333  0.934787  1
  Ta  Ta3  1  0.333333  0.666667  0.065213  1
  Cr  Cr4  1  0.826492  0.173508  0.247796  1
  Cr  Cr5  1  0.826492  0.652986  0.247796  1
  Cr  Cr6  1  0.347014  0.173508  0.247796  1
  Cr  Cr7  1  0.173508  0.826492  0.752204  1
  Cr  Cr8  1  0.173508  0.347014  0.752204  1
  Cr  Cr9  1  0.652986  0.826492  0.752204  1
  Si  Si10  1  0.000000  0.000000  0.000000  1
  Ge  Ge11  1  0.000000  0.000000  0.500000  1
