# generated using pymatgen
data_La3Pr6Ho7(CdIr)4
_symmetry_space_group_name_H-M   'P 1'
_cell_length_a   9.85057460
_cell_length_b   9.84746953
_cell_length_c   9.84746900
_cell_angle_alpha   59.99999843
_cell_angle_beta   60.01042517
_cell_angle_gamma   60.01042709
_symmetry_Int_Tables_number   1
_chemical_formula_structural   La3Pr6Ho7(CdIr)4
_chemical_formula_sum   'La3 Pr6 Ho7 Cd4 Ir4'
_cell_volume   675.56050601
_cell_formula_units_Z   1
loop_
 _symmetry_equiv_pos_site_id
 _symmetry_equiv_pos_as_xyz
  1  'x, y, z'
loop_
 _atom_site_type_symbol
 _atom_site_label
 _atom_site_symmetry_multiplicity
 _atom_site_fract_x
 _atom_site_fract_y
 _atom_site_fract_z
 _atom_site_occupancy
  La  La0  1  0.346863  0.349344  0.349344  1
  La  La1  1  0.346863  0.349344  0.954448  1
  La  La2  1  0.346863  0.954448  0.349344  1
  Pr  Pr3  1  0.939840  0.559840  0.559840  1
  Pr  Pr4  1  0.562430  0.938248  0.938248  1
  Pr  Pr5  1  0.562430  0.938248  0.561075  1
  Pr  Pr6  1  0.939840  0.559840  0.940480  1
  Pr  Pr7  1  0.562430  0.561075  0.938248  1
  Pr  Pr8  1  0.939840  0.940480  0.559840  1
  Ho  Ho9  1  0.955171  0.348276  0.348276  1
  Ho  Ho10  1  0.816158  0.185058  0.185058  1
  Ho  Ho11  1  0.184163  0.816207  0.816207  1
  Ho  Ho12  1  0.184163  0.816207  0.183422  1
  Ho  Ho13  1  0.816158  0.185058  0.813725  1
  Ho  Ho14  1  0.184163  0.183422  0.816207  1
  Ho  Ho15  1  0.816158  0.813725  0.185058  1
  Cd  Cd16  1  0.582463  0.577866  0.577866  1
  Cd  Cd17  1  0.582463  0.577866  0.261802  1
  Cd  Cd18  1  0.582463  0.261802  0.577866  1
  Cd  Cd19  1  0.261934  0.579355  0.579355  1
  Ir  Ir20  1  0.135137  0.142695  0.142695  1
  Ir  Ir21  1  0.135137  0.142695  0.579473  1
  Ir  Ir22  1  0.135137  0.579473  0.142695  1
  Ir  Ir23  1  0.581731  0.139423  0.139423  1
