# generated using pymatgen
data_Nd2Tm4FeCo17P12
_symmetry_space_group_name_H-M   'P 1'
_cell_length_a   3.70043000
_cell_length_b   10.53086300
_cell_length_c   12.19184700
_cell_angle_alpha   90.00000000
_cell_angle_beta   90.00000000
_cell_angle_gamma   90.00000000
_symmetry_Int_Tables_number   1
_chemical_formula_structural   Nd2Tm4FeCo17P12
_chemical_formula_sum   'Nd2 Tm4 Fe1 Co17 P12'
_cell_volume   475.10068874
_cell_formula_units_Z   1
loop_
 _symmetry_equiv_pos_site_id
 _symmetry_equiv_pos_as_xyz
  1  'x, y, z'
loop_
 _atom_site_type_symbol
 _atom_site_label
 _atom_site_symmetry_multiplicity
 _atom_site_fract_x
 _atom_site_fract_y
 _atom_site_fract_z
 _atom_site_occupancy
  Nd  Nd0  1  0.000000  0.500000  0.522178  1
  Nd  Nd1  1  0.500000  0.000000  0.477518  1
  Tm  Tm2  1  0.500000  0.818131  0.204733  1
  Tm  Tm3  1  0.500000  0.181869  0.204733  1
  Tm  Tm4  1  0.000000  0.681908  0.795806  1
  Tm  Tm5  1  0.000000  0.318092  0.795806  1
  Fe  Fe6  1  0.500000  0.500000  0.154584  1
  Co  Co7  1  0.000000  0.000000  0.843773  1
  Co  Co8  1  0.500000  0.500000  0.706558  1
  Co  Co9  1  0.000000  0.000000  0.293190  1
  Co  Co10  1  0.000000  0.500000  0.986423  1
  Co  Co11  1  0.500000  0.000000  0.013044  1
  Co  Co12  1  0.500000  0.332753  0.994617  1
  Co  Co13  1  0.500000  0.667247  0.994617  1
  Co  Co14  1  0.000000  0.166981  0.005699  1
  Co  Co15  1  0.000000  0.833019  0.005699  1
  Co  Co16  1  0.500000  0.296231  0.429012  1
  Co  Co17  1  0.500000  0.703769  0.429012  1
  Co  Co18  1  0.000000  0.203579  0.571441  1
  Co  Co19  1  0.000000  0.796421  0.571441  1
  Co  Co20  1  0.500000  0.879025  0.712818  1
  Co  Co21  1  0.500000  0.120975  0.712818  1
  Co  Co22  1  0.000000  0.621505  0.287274  1
  Co  Co23  1  0.000000  0.378495  0.287274  1
  P  P24  1  0.500000  0.500000  0.883348  1
  P  P25  1  0.000000  0.000000  0.116610  1
  P  P26  1  0.500000  0.500000  0.338737  1
  P  P27  1  0.000000  0.000000  0.660561  1
  P  P28  1  0.500000  0.308039  0.618654  1
  P  P29  1  0.500000  0.691961  0.618654  1
  P  P30  1  0.000000  0.192205  0.381554  1
  P  P31  1  0.000000  0.807795  0.381554  1
  P  P32  1  0.500000  0.845974  0.893565  1
  P  P33  1  0.500000  0.154026  0.893565  1
  P  P34  1  0.000000  0.653713  0.106565  1
  P  P35  1  0.000000  0.346287  0.106565  1
