# generated using pymatgen
data_Ti4MnCo10GeB4
_symmetry_space_group_name_H-M   'P 1'
_cell_length_a   8.40091600
_cell_length_b   8.40091600
_cell_length_c   3.02242500
_cell_angle_alpha   90.00000000
_cell_angle_beta   90.00000000
_cell_angle_gamma   90.00000000
_symmetry_Int_Tables_number   1
_chemical_formula_structural   Ti4MnCo10GeB4
_chemical_formula_sum   'Ti4 Mn1 Co10 Ge1 B4'
_cell_volume   213.30882203
_cell_formula_units_Z   1
loop_
 _symmetry_equiv_pos_site_id
 _symmetry_equiv_pos_as_xyz
  1  'x, y, z'
loop_
 _atom_site_type_symbol
 _atom_site_label
 _atom_site_symmetry_multiplicity
 _atom_site_fract_x
 _atom_site_fract_y
 _atom_site_fract_z
 _atom_site_occupancy
  Ti  Ti0  1  0.826216  0.322142  0.000000  1
  Ti  Ti1  1  0.322142  0.173784  0.000000  1
  Ti  Ti2  1  0.677858  0.826216  0.000000  1
  Ti  Ti3  1  0.173784  0.677858  0.000000  1
  Mn  Mn4  1  0.000000  0.000000  0.000000  1
  Co  Co5  1  0.500000  0.000000  0.500000  1
  Co  Co6  1  0.000000  0.500000  0.500000  1
  Co  Co7  1  0.071160  0.219588  0.500000  1
  Co  Co8  1  0.219588  0.928840  0.500000  1
  Co  Co9  1  0.780412  0.071160  0.500000  1
  Co  Co10  1  0.928840  0.780412  0.500000  1
  Co  Co11  1  0.430235  0.718447  0.500000  1
  Co  Co12  1  0.569765  0.281553  0.500000  1
  Co  Co13  1  0.718447  0.569765  0.500000  1
  Co  Co14  1  0.281553  0.430235  0.500000  1
  Ge  Ge15  1  0.500000  0.500000  0.000000  1
  B  B16  1  0.621593  0.120341  0.000000  1
  B  B17  1  0.120341  0.378407  0.000000  1
  B  B18  1  0.879659  0.621593  0.000000  1
  B  B19  1  0.378407  0.879659  0.000000  1
