# generated using pymatgen
data_Tb6YbHo(B6Ru)4
_symmetry_space_group_name_H-M   'P 1'
_cell_length_a   3.67779100
_cell_length_b   9.16502668
_cell_length_c   11.55030701
_cell_angle_alpha   89.91437574
_cell_angle_beta   90.00000000
_cell_angle_gamma   90.00000000
_symmetry_Int_Tables_number   1
_chemical_formula_structural   Tb6YbHo(B6Ru)4
_chemical_formula_sum   'Tb6 Yb1 Ho1 B24 Ru4'
_cell_volume   389.32637166
_cell_formula_units_Z   1
loop_
 _symmetry_equiv_pos_site_id
 _symmetry_equiv_pos_as_xyz
  1  'x, y, z'
loop_
 _atom_site_type_symbol
 _atom_site_label
 _atom_site_symmetry_multiplicity
 _atom_site_fract_x
 _atom_site_fract_y
 _atom_site_fract_z
 _atom_site_occupancy
  Tb  Tb0  1  0.000000  0.675196  0.585126  1
  Tb  Tb1  1  0.000000  0.822975  0.086250  1
  Tb  Tb2  1  0.000000  0.177532  0.914436  1
  Tb  Tb3  1  0.000000  0.943945  0.370959  1
  Tb  Tb4  1  0.000000  0.058280  0.628284  1
  Tb  Tb5  1  0.000000  0.442853  0.129746  1
  Yb  Yb6  1  0.000000  0.324083  0.413716  1
  Ho  Ho7  1  0.000000  0.556212  0.871793  1
  B  B8  1  0.500000  0.553813  0.432293  1
  B  B9  1  0.500000  0.445584  0.567508  1
  B  B10  1  0.500000  0.053599  0.067058  1
  B  B11  1  0.500000  0.945494  0.932145  1
  B  B12  1  0.500000  0.747557  0.418959  1
  B  B13  1  0.500000  0.253031  0.580875  1
  B  B14  1  0.500000  0.247005  0.080845  1
  B  B15  1  0.500000  0.751756  0.919269  1
  B  B16  1  0.500000  0.790550  0.266363  1
  B  B17  1  0.500000  0.210765  0.733855  1
  B  B18  1  0.500000  0.289383  0.233612  1
  B  B19  1  0.500000  0.709330  0.766658  1
  B  B20  1  0.500000  0.632182  0.186329  1
  B  B21  1  0.500000  0.368684  0.814830  1
  B  B22  1  0.500000  0.131815  0.313766  1
  B  B23  1  0.500000  0.868121  0.685677  1
  B  B24  1  0.500000  0.984334  0.211657  1
  B  B25  1  0.500000  0.015620  0.787561  1
  B  B26  1  0.500000  0.484463  0.288187  1
  B  B27  1  0.500000  0.515849  0.712808  1
  B  B28  1  0.500000  0.608476  0.029681  1
  B  B29  1  0.500000  0.392134  0.969962  1
  B  B30  1  0.500000  0.105884  0.470647  1
  B  B31  1  0.500000  0.893444  0.529462  1
  Ru  Ru32  1  0.000000  0.639016  0.320823  1
  Ru  Ru33  1  0.000000  0.362600  0.680082  1
  Ru  Ru34  1  0.000000  0.136843  0.177510  1
  Ru  Ru35  1  0.000000  0.861593  0.821268  1
