# generated using pymatgen
data_Tb2Tm10Tc3Ir
_symmetry_space_group_name_H-M   'P 1'
_cell_length_a   6.23683006
_cell_length_b   7.36185031
_cell_length_c   8.97294000
_cell_angle_alpha   90.00000000
_cell_angle_beta   90.00000000
_cell_angle_gamma   89.97378281
_symmetry_Int_Tables_number   1
_chemical_formula_structural   Tb2Tm10Tc3Ir
_chemical_formula_sum   'Tb2 Tm10 Tc3 Ir1'
_cell_volume   411.98899136
_cell_formula_units_Z   1
loop_
 _symmetry_equiv_pos_site_id
 _symmetry_equiv_pos_as_xyz
  1  'x, y, z'
loop_
 _atom_site_type_symbol
 _atom_site_label
 _atom_site_symmetry_multiplicity
 _atom_site_fract_x
 _atom_site_fract_y
 _atom_site_fract_z
 _atom_site_occupancy
  Tb  Tb0  1  0.876027  0.540949  0.250000  1
  Tb  Tb1  1  0.623120  0.038539  0.250000  1
  Tm  Tm2  1  0.334028  0.676704  0.062750  1
  Tm  Tm3  1  0.161840  0.176166  0.438143  1
  Tm  Tm4  1  0.663731  0.322318  0.562961  1
  Tm  Tm5  1  0.836610  0.825060  0.936769  1
  Tm  Tm6  1  0.663731  0.322318  0.937039  1
  Tm  Tm7  1  0.836610  0.825060  0.563231  1
  Tm  Tm8  1  0.334028  0.676704  0.437250  1
  Tm  Tm9  1  0.161840  0.176166  0.061857  1
  Tm  Tm10  1  0.131423  0.457626  0.750000  1
  Tm  Tm11  1  0.372099  0.959269  0.750000  1
  Tc  Tc12  1  0.040243  0.884232  0.250000  1
  Tc  Tc13  1  0.461633  0.386611  0.250000  1
  Tc  Tc14  1  0.961915  0.116113  0.750000  1
  Ir  Ir15  1  0.541124  0.616166  0.750000  1
