# generated using pymatgen
data_Rb4Na2CaSnSb4
_symmetry_space_group_name_H-M   'P 1'
_cell_length_a   10.03436670
_cell_length_b   10.03436569
_cell_length_c   10.03436655
_cell_angle_alpha   136.38209387
_cell_angle_beta   63.06555570
_cell_angle_gamma   136.80383378
_symmetry_Int_Tables_number   1
_chemical_formula_structural   Rb4Na2CaSnSb4
_chemical_formula_sum   'Rb4 Na2 Ca1 Sn1 Sb4'
_cell_volume   471.05897731
_cell_formula_units_Z   1
loop_
 _symmetry_equiv_pos_site_id
 _symmetry_equiv_pos_as_xyz
  1  'x, y, z'
loop_
 _atom_site_type_symbol
 _atom_site_label
 _atom_site_symmetry_multiplicity
 _atom_site_fract_x
 _atom_site_fract_y
 _atom_site_fract_z
 _atom_site_occupancy
  Rb  Rb0  1  0.324110  0.734887  0.064620  1
  Rb  Rb1  1  0.175890  0.240510  0.410776  1
  Rb  Rb2  1  0.829734  0.765114  0.589223  1
  Rb  Rb3  1  0.670267  0.259490  0.935381  1
  Na  Na4  1  0.250000  0.250000  0.000000  1
  Na  Na5  1  0.750000  0.750000  0.000000  1
  Ca  Ca6  1  0.749999  0.250000  0.500000  1
  Sn  Sn7  1  0.250000  0.750000  0.500000  1
  Sb  Sb8  1  0.917815  0.294743  0.174718  1
  Sb  Sb9  1  0.582186  0.756904  0.376928  1
  Sb  Sb10  1  0.379975  0.205258  0.623072  1
  Sb  Sb11  1  0.120024  0.743097  0.825282  1
