# generated using pymatgen
data_Zr10InCuBi6
_symmetry_space_group_name_H-M   'P 1'
_cell_length_a   8.91276700
_cell_length_b   8.91276706
_cell_length_c   5.98271600
_cell_angle_alpha   90.00000000
_cell_angle_beta   90.00000000
_cell_angle_gamma   119.99999606
_symmetry_Int_Tables_number   1
_chemical_formula_structural   Zr10InCuBi6
_chemical_formula_sum   'Zr10 In1 Cu1 Bi6'
_cell_volume   411.57988903
_cell_formula_units_Z   1
loop_
 _symmetry_equiv_pos_site_id
 _symmetry_equiv_pos_as_xyz
  1  'x, y, z'
loop_
 _atom_site_type_symbol
 _atom_site_label
 _atom_site_symmetry_multiplicity
 _atom_site_fract_x
 _atom_site_fract_y
 _atom_site_fract_z
 _atom_site_occupancy
  Zr  Zr0  1  0.728794  0.000000  0.234468  1
  Zr  Zr1  1  0.000000  0.728794  0.234468  1
  Zr  Zr2  1  0.271206  0.271206  0.234468  1
  Zr  Zr3  1  0.271206  0.000000  0.765532  1
  Zr  Zr4  1  0.000000  0.271206  0.765532  1
  Zr  Zr5  1  0.728794  0.728794  0.765532  1
  Zr  Zr6  1  0.333333  0.666667  0.500000  1
  Zr  Zr7  1  0.666667  0.333333  0.500000  1
  Zr  Zr8  1  0.666667  0.333333  0.000000  1
  Zr  Zr9  1  0.333333  0.666667  0.000000  1
  In  In10  1  0.000000  0.000000  0.500000  1
  Cu  Cu11  1  0.000000  0.000000  0.000000  1
  Bi  Bi12  1  0.383847  0.000000  0.254839  1
  Bi  Bi13  1  0.000000  0.383847  0.254839  1
  Bi  Bi14  1  0.616153  0.616153  0.254839  1
  Bi  Bi15  1  0.616153  0.000000  0.745161  1
  Bi  Bi16  1  0.000000  0.616153  0.745161  1
  Bi  Bi17  1  0.383847  0.383847  0.745161  1
