# generated using pymatgen
data_DyInSiIr2
_symmetry_space_group_name_H-M   'P 1'
_cell_length_a   4.10960300
_cell_length_b   4.10960300
_cell_length_c   11.12694800
_cell_angle_alpha   90.00000000
_cell_angle_beta   90.00000000
_cell_angle_gamma   90.00000000
_symmetry_Int_Tables_number   1
_chemical_formula_structural   DyInSiIr2
_chemical_formula_sum   'Dy2 In2 Si2 Ir4'
_cell_volume   187.92120905
_cell_formula_units_Z   2
loop_
 _symmetry_equiv_pos_site_id
 _symmetry_equiv_pos_as_xyz
  1  'x, y, z'
loop_
 _atom_site_type_symbol
 _atom_site_label
 _atom_site_symmetry_multiplicity
 _atom_site_fract_x
 _atom_site_fract_y
 _atom_site_fract_z
 _atom_site_occupancy
  Dy  Dy0  1  0.000000  0.500000  0.232636  1
  Dy  Dy1  1  0.500000  0.000000  0.767364  1
  In  In2  1  0.000000  0.000000  0.500000  1
  In  In3  1  0.500000  0.500000  0.500000  1
  Si  Si4  1  0.000000  0.500000  0.884701  1
  Si  Si5  1  0.500000  0.000000  0.115299  1
  Ir  Ir6  1  0.000000  0.000000  0.000000  1
  Ir  Ir7  1  0.500000  0.500000  0.000000  1
  Ir  Ir8  1  0.000000  0.500000  0.674554  1
  Ir  Ir9  1  0.500000  0.000000  0.325446  1
