# generated using pymatgen
data_SmGd11(CCl3)4
_symmetry_space_group_name_H-M   'P 1'
_cell_length_a   9.41082428
_cell_length_b   9.40292072
_cell_length_c   9.41082372
_cell_angle_alpha   109.63340986
_cell_angle_beta   109.29486859
_cell_angle_gamma   109.63340553
_symmetry_Int_Tables_number   1
_chemical_formula_structural   SmGd11(CCl3)4
_chemical_formula_sum   'Sm1 Gd11 C4 Cl12'
_cell_volume   639.87698882
_cell_formula_units_Z   1
loop_
 _symmetry_equiv_pos_site_id
 _symmetry_equiv_pos_as_xyz
  1  'x, y, z'
loop_
 _atom_site_type_symbol
 _atom_site_label
 _atom_site_symmetry_multiplicity
 _atom_site_fract_x
 _atom_site_fract_y
 _atom_site_fract_z
 _atom_site_occupancy
  Sm  Sm0  1  0.483321  0.750000  0.016679  1
  Gd  Gd1  1  0.749889  0.231170  0.268042  1
  Gd  Gd2  1  0.231958  0.268830  0.750111  1
  Gd  Gd3  1  0.464198  0.483484  0.231688  1
  Gd  Gd4  1  0.268312  0.016516  0.035802  1
  Gd  Gd5  1  0.231877  0.463963  0.483064  1
  Gd  Gd6  1  0.016936  0.036037  0.268123  1
  Gd  Gd7  1  0.020075  0.483581  0.751509  1
  Gd  Gd8  1  0.481342  0.232117  0.463705  1
  Gd  Gd9  1  0.748491  0.016419  0.479925  1
  Gd  Gd10  1  0.036295  0.267883  0.018658  1
  Gd  Gd11  1  0.268628  0.750000  0.231372  1
  C  C12  1  0.249818  0.250000  0.250182  1
  C  C13  1  0.999822  0.250000  0.500178  1
  C  C14  1  0.247156  0.496207  0.000043  1
  C  C15  1  0.499957  0.003793  0.252844  1
  Cl  Cl16  1  0.993979  0.988523  0.744039  1
  Cl  Cl17  1  0.758906  0.743393  0.252730  1
  Cl  Cl18  1  0.987176  0.743751  0.993945  1
  Cl  Cl19  1  0.250135  0.993921  0.505861  1
  Cl  Cl20  1  0.744766  0.995631  0.986890  1
  Cl  Cl21  1  0.505764  0.250000  0.994236  1
  Cl  Cl22  1  0.744663  0.250000  0.755337  1
  Cl  Cl23  1  0.506055  0.756249  0.512824  1
  Cl  Cl24  1  0.755961  0.511477  0.506021  1
  Cl  Cl25  1  0.247270  0.756607  0.741094  1
  Cl  Cl26  1  0.513110  0.504369  0.755234  1
  Cl  Cl27  1  0.994139  0.506079  0.249865  1
