# generated using pymatgen
data_Er3Al8(SiOs)4
_symmetry_space_group_name_H-M   'P 1'
_cell_length_a   8.66491950
_cell_length_b   8.66491964
_cell_length_c   9.39086700
_cell_angle_alpha   90.00000000
_cell_angle_beta   90.00000000
_cell_angle_gamma   120.06737662
_symmetry_Int_Tables_number   1
_chemical_formula_structural   Er3Al8(SiOs)4
_chemical_formula_sum   'Er6 Al16 Si8 Os8'
_cell_volume   610.19709549
_cell_formula_units_Z   2
loop_
 _symmetry_equiv_pos_site_id
 _symmetry_equiv_pos_as_xyz
  1  'x, y, z'
loop_
 _atom_site_type_symbol
 _atom_site_label
 _atom_site_symmetry_multiplicity
 _atom_site_fract_x
 _atom_site_fract_y
 _atom_site_fract_z
 _atom_site_occupancy
  Er  Er0  1  0.192364  0.388393  0.250000  1
  Er  Er1  1  0.807636  0.611607  0.750000  1
  Er  Er2  1  0.611607  0.807636  0.250000  1
  Er  Er3  1  0.388393  0.192364  0.750000  1
  Er  Er4  1  0.195156  0.804844  0.250000  1
  Er  Er5  1  0.804844  0.195156  0.750000  1
  Al  Al6  1  0.165406  0.329138  0.578312  1
  Al  Al7  1  0.834594  0.670862  0.421688  1
  Al  Al8  1  0.670862  0.834594  0.578312  1
  Al  Al9  1  0.834594  0.670862  0.078312  1
  Al  Al10  1  0.329138  0.165406  0.421688  1
  Al  Al11  1  0.165406  0.329138  0.921688  1
  Al  Al12  1  0.164490  0.835510  0.578215  1
  Al  Al13  1  0.329138  0.165406  0.078312  1
  Al  Al14  1  0.835510  0.164490  0.421785  1
  Al  Al15  1  0.670862  0.834594  0.921688  1
  Al  Al16  1  0.835510  0.164490  0.078215  1
  Al  Al17  1  0.164490  0.835510  0.921785  1
  Al  Al18  1  0.564807  0.435193  0.250000  1
  Al  Al19  1  0.435193  0.564807  0.750000  1
  Al  Al20  1  0.000151  0.999849  0.250000  1
  Al  Al21  1  0.999849  0.000151  0.750000  1
  Si  Si22  1  0.334933  0.665067  0.041309  1
  Si  Si23  1  0.665067  0.334933  0.958691  1
  Si  Si24  1  0.665067  0.334933  0.541309  1
  Si  Si25  1  0.334933  0.665067  0.458691  1
  Si  Si26  1  0.564029  0.124312  0.250000  1
  Si  Si27  1  0.435971  0.875688  0.750000  1
  Si  Si28  1  0.875688  0.435971  0.250000  1
  Si  Si29  1  0.124312  0.564029  0.750000  1
  Os  Os30  1  0.500000  0.000000  0.000000  1
  Os  Os31  1  0.000000  0.500000  0.000000  1
  Os  Os32  1  0.500000  0.000000  0.500000  1
  Os  Os33  1  0.500000  0.500000  0.000000  1
  Os  Os34  1  0.000000  0.500000  0.500000  1
  Os  Os35  1  0.500000  0.500000  0.500000  1
  Os  Os36  1  0.000000  0.000000  0.000000  1
  Os  Os37  1  0.000000  0.000000  0.500000  1
