# generated using pymatgen
data_BaSr17Ir3
_symmetry_space_group_name_H-M   'P 1'
_cell_length_a   12.87586800
_cell_length_b   12.92040553
_cell_length_c   7.08464297
_cell_angle_alpha   89.81160770
_cell_angle_beta   90.00000000
_cell_angle_gamma   119.88603724
_symmetry_Int_Tables_number   1
_chemical_formula_structural   BaSr17Ir3
_chemical_formula_sum   'Ba1 Sr17 Ir3'
_cell_volume   1021.87017025
_cell_formula_units_Z   1
loop_
 _symmetry_equiv_pos_site_id
 _symmetry_equiv_pos_as_xyz
  1  'x, y, z'
loop_
 _atom_site_type_symbol
 _atom_site_label
 _atom_site_symmetry_multiplicity
 _atom_site_fract_x
 _atom_site_fract_y
 _atom_site_fract_z
 _atom_site_occupancy
  Ba  Ba0  1  0.891175  0.782352  0.761961  1
  Sr  Sr1  1  0.107503  0.215006  0.237370  1
  Sr  Sr2  1  0.110163  0.894817  0.237973  1
  Sr  Sr3  1  0.784654  0.894817  0.237973  1
  Sr  Sr4  1  0.118775  0.560074  0.248733  1
  Sr  Sr5  1  0.441299  0.560074  0.248733  1
  Sr  Sr6  1  0.440577  0.881153  0.248703  1
  Sr  Sr7  1  0.452490  0.226301  0.274031  1
  Sr  Sr8  1  0.773811  0.226301  0.274031  1
  Sr  Sr9  1  0.773310  0.546621  0.271840  1
  Sr  Sr10  1  0.225815  0.451629  0.726193  1
  Sr  Sr11  1  0.227285  0.773720  0.726443  1
  Sr  Sr12  1  0.546436  0.773720  0.726443  1
  Sr  Sr13  1  0.559338  0.118676  0.751458  1
  Sr  Sr14  1  0.557098  0.438018  0.750587  1
  Sr  Sr15  1  0.880920  0.438018  0.750587  1
  Sr  Sr16  1  0.216373  0.109181  0.763656  1
  Sr  Sr17  1  0.892808  0.109181  0.763656  1
  Ir  Ir18  1  0.000338  0.000676  0.999740  1
  Ir  Ir19  1  0.333182  0.666364  0.486739  1
  Ir  Ir20  1  0.666651  0.333301  0.513144  1
