# generated using pymatgen
data_Tb3Ho(CCl)2
_symmetry_space_group_name_H-M   'P 1'
_cell_length_a   3.65132800
_cell_length_b   3.65132085
_cell_length_c   13.68409602
_cell_angle_alpha   90.00039248
_cell_angle_beta   89.99943573
_cell_angle_gamma   119.99990939
_symmetry_Int_Tables_number   1
_chemical_formula_structural   Tb3Ho(CCl)2
_chemical_formula_sum   'Tb3 Ho1 C2 Cl2'
_cell_volume   157.99668913
_cell_formula_units_Z   1
loop_
 _symmetry_equiv_pos_site_id
 _symmetry_equiv_pos_as_xyz
  1  'x, y, z'
loop_
 _atom_site_type_symbol
 _atom_site_label
 _atom_site_symmetry_multiplicity
 _atom_site_fract_x
 _atom_site_fract_y
 _atom_site_fract_z
 _atom_site_occupancy
  Tb  Tb0  1  0.666645  0.333433  0.595313  1
  Tb  Tb1  1  0.666689  0.333222  0.905566  1
  Tb  Tb2  1  0.333309  0.666796  0.405857  1
  Ho  Ho3  1  0.333359  0.666542  0.092852  1
  C  C4  1  0.000021  0.999883  0.001611  1
  C  C5  1  0.999985  0.000098  0.500607  1
  Cl  Cl6  1  0.333328  0.666666  0.750795  1
  Cl  Cl7  1  0.666664  0.333359  0.247398  1
