# generated using pymatgen
data_La2Sm2Dy2OsI10
_symmetry_space_group_name_H-M   'P 1'
_cell_length_a   7.92251462
_cell_length_b   10.03601983
_cell_length_c   9.88057073
_cell_angle_alpha   107.20056395
_cell_angle_beta   95.78863726
_cell_angle_gamma   105.68975513
_symmetry_Int_Tables_number   1
_chemical_formula_structural   La2Sm2Dy2OsI10
_chemical_formula_sum   'La2 Sm2 Dy2 Os1 I10'
_cell_volume   708.40688044
_cell_formula_units_Z   1
loop_
 _symmetry_equiv_pos_site_id
 _symmetry_equiv_pos_as_xyz
  1  'x, y, z'
loop_
 _atom_site_type_symbol
 _atom_site_label
 _atom_site_symmetry_multiplicity
 _atom_site_fract_x
 _atom_site_fract_y
 _atom_site_fract_z
 _atom_site_occupancy
  La  La0  1  0.385767  0.958338  0.731066  1
  La  La1  1  0.614233  0.041662  0.268934  1
  Sm  Sm2  1  0.471730  0.292300  0.590093  1
  Sm  Sm3  1  0.528270  0.707700  0.409907  1
  Dy  Dy4  1  0.852482  0.129052  0.668232  1
  Dy  Dy5  1  0.147518  0.870948  0.331768  1
  Os  Os6  1  0.500000  0.000000  0.500000  1
  I  I7  1  0.416520  0.626181  0.678255  1
  I  I8  1  0.583480  0.373819  0.321745  1
  I  I9  1  0.276351  0.262289  0.846430  1
  I  I10  1  0.723649  0.737711  0.153570  1
  I  I11  1  0.857537  0.448178  0.769839  1
  I  I12  1  0.142463  0.551822  0.230161  1
  I  I13  1  0.049934  0.177302  0.412884  1
  I  I14  1  0.229627  0.910202  0.045267  1
  I  I15  1  0.770373  0.089798  0.954733  1
  I  I16  1  0.950066  0.822698  0.587116  1
