# generated using pymatgen
data_La3Pr13(MgIr)4
_symmetry_space_group_name_H-M   'P 1'
_cell_length_a   10.11980511
_cell_length_b   10.13920578
_cell_length_c   10.13920600
_cell_angle_alpha   59.99999930
_cell_angle_beta   59.93656185
_cell_angle_gamma   59.93656582
_symmetry_Int_Tables_number   1
_chemical_formula_structural   La3Pr13(MgIr)4
_chemical_formula_sum   'La3 Pr13 Mg4 Ir4'
_cell_volume   734.93333910
_cell_formula_units_Z   1
loop_
 _symmetry_equiv_pos_site_id
 _symmetry_equiv_pos_as_xyz
  1  'x, y, z'
loop_
 _atom_site_type_symbol
 _atom_site_label
 _atom_site_symmetry_multiplicity
 _atom_site_fract_x
 _atom_site_fract_y
 _atom_site_fract_z
 _atom_site_occupancy
  La  La0  1  0.344110  0.345029  0.345029  1
  La  La1  1  0.344110  0.345029  0.965834  1
  La  La2  1  0.344110  0.965834  0.345029  1
  Pr  Pr3  1  0.962108  0.345964  0.345964  1
  Pr  Pr4  1  0.812628  0.187898  0.187898  1
  Pr  Pr5  1  0.187811  0.812120  0.812120  1
  Pr  Pr6  1  0.187811  0.812120  0.187948  1
  Pr  Pr7  1  0.812628  0.187898  0.811576  1
  Pr  Pr8  1  0.187811  0.187948  0.812120  1
  Pr  Pr9  1  0.812628  0.811576  0.187898  1
  Pr  Pr10  1  0.936961  0.562825  0.562825  1
  Pr  Pr11  1  0.562973  0.936840  0.936840  1
  Pr  Pr12  1  0.562973  0.936840  0.563347  1
  Pr  Pr13  1  0.936961  0.562825  0.937388  1
  Pr  Pr14  1  0.562973  0.563347  0.936840  1
  Pr  Pr15  1  0.936961  0.937388  0.562825  1
  Mg  Mg16  1  0.579456  0.578325  0.578325  1
  Mg  Mg17  1  0.579456  0.578325  0.263895  1
  Mg  Mg18  1  0.579456  0.263895  0.578325  1
  Mg  Mg19  1  0.263744  0.578752  0.578752  1
  Ir  Ir20  1  0.142652  0.141111  0.141111  1
  Ir  Ir21  1  0.142652  0.141111  0.575126  1
  Ir  Ir22  1  0.142652  0.575126  0.141111  1
  Ir  Ir23  1  0.574376  0.141875  0.141875  1
