# generated using pymatgen
data_Yb3Dy(YHg2)4
_symmetry_space_group_name_H-M   'P 1'
_cell_length_a   7.46790909
_cell_length_b   7.49404300
_cell_length_c   7.44382300
_cell_angle_alpha   90.00000000
_cell_angle_beta   89.99115388
_cell_angle_gamma   90.00000000
_symmetry_Int_Tables_number   1
_chemical_formula_structural   Yb3Dy(YHg2)4
_chemical_formula_sum   'Yb3 Dy1 Y4 Hg8'
_cell_volume   416.59229743
_cell_formula_units_Z   1
loop_
 _symmetry_equiv_pos_site_id
 _symmetry_equiv_pos_as_xyz
  1  'x, y, z'
loop_
 _atom_site_type_symbol
 _atom_site_label
 _atom_site_symmetry_multiplicity
 _atom_site_fract_x
 _atom_site_fract_y
 _atom_site_fract_z
 _atom_site_occupancy
  Yb  Yb0  1  0.749492  0.250000  0.000091  1
  Yb  Yb1  1  0.249499  0.750000  0.499901  1
  Yb  Yb2  1  0.750511  0.250000  0.500080  1
  Dy  Dy3  1  0.250517  0.750000  0.999927  1
  Y  Y4  1  0.250750  0.250000  0.000002  1
  Y  Y5  1  0.749311  0.750000  0.000000  1
  Y  Y6  1  0.750720  0.750000  0.499993  1
  Y  Y7  1  0.249285  0.250000  0.499995  1
  Hg  Hg8  1  0.000392  0.500355  0.248913  1
  Hg  Hg9  1  0.000392  0.999647  0.248913  1
  Hg  Hg10  1  0.499847  0.999826  0.251146  1
  Hg  Hg11  1  0.499847  0.500174  0.251146  1
  Hg  Hg12  1  0.499593  0.500344  0.748842  1
  Hg  Hg13  1  0.499593  0.999658  0.748842  1
  Hg  Hg14  1  0.000124  0.999822  0.751105  1
  Hg  Hg15  1  0.000124  0.500178  0.751105  1
