# generated using pymatgen
data_LiTbY5Co17P12
_symmetry_space_group_name_H-M   'P 1'
_cell_length_a   3.71696300
_cell_length_b   10.55841300
_cell_length_c   12.20113500
_cell_angle_alpha   90.00000000
_cell_angle_beta   90.00000000
_cell_angle_gamma   90.00000000
_symmetry_Int_Tables_number   1
_chemical_formula_structural   LiTbY5Co17P12
_chemical_formula_sum   'Li1 Tb1 Y5 Co17 P12'
_cell_volume   478.83635495
_cell_formula_units_Z   1
loop_
 _symmetry_equiv_pos_site_id
 _symmetry_equiv_pos_as_xyz
  1  'x, y, z'
loop_
 _atom_site_type_symbol
 _atom_site_label
 _atom_site_symmetry_multiplicity
 _atom_site_fract_x
 _atom_site_fract_y
 _atom_site_fract_z
 _atom_site_occupancy
  Li  Li0  1  0.500000  0.500000  0.152169  1
  Tb  Tb1  1  0.500000  0.000000  0.478199  1
  Y  Y2  1  0.000000  0.500000  0.522668  1
  Y  Y3  1  0.500000  0.818730  0.206096  1
  Y  Y4  1  0.500000  0.181270  0.206096  1
  Y  Y5  1  0.000000  0.682631  0.794377  1
  Y  Y6  1  0.000000  0.317369  0.794377  1
  Co  Co7  1  0.000000  0.000000  0.841125  1
  Co  Co8  1  0.500000  0.500000  0.703790  1
  Co  Co9  1  0.000000  0.000000  0.296795  1
  Co  Co10  1  0.000000  0.500000  0.985673  1
  Co  Co11  1  0.500000  0.000000  0.012434  1
  Co  Co12  1  0.500000  0.331153  0.994989  1
  Co  Co13  1  0.500000  0.668847  0.994989  1
  Co  Co14  1  0.000000  0.164917  0.003354  1
  Co  Co15  1  0.000000  0.835083  0.003354  1
  Co  Co16  1  0.500000  0.296339  0.431887  1
  Co  Co17  1  0.500000  0.703661  0.431887  1
  Co  Co18  1  0.000000  0.202325  0.570321  1
  Co  Co19  1  0.000000  0.797675  0.570321  1
  Co  Co20  1  0.500000  0.880039  0.709527  1
  Co  Co21  1  0.500000  0.119961  0.709527  1
  Co  Co22  1  0.000000  0.621900  0.292808  1
  Co  Co23  1  0.000000  0.378100  0.292808  1
  P  P24  1  0.500000  0.500000  0.884153  1
  P  P25  1  0.000000  0.000000  0.116849  1
  P  P26  1  0.500000  0.500000  0.345167  1
  P  P27  1  0.000000  0.000000  0.656610  1
  P  P28  1  0.500000  0.309550  0.616549  1
  P  P29  1  0.500000  0.690450  0.616549  1
  P  P30  1  0.000000  0.190156  0.385022  1
  P  P31  1  0.000000  0.809844  0.385022  1
  P  P32  1  0.500000  0.847872  0.892263  1
  P  P33  1  0.500000  0.152128  0.892263  1
  P  P34  1  0.000000  0.656722  0.104988  1
  P  P35  1  0.000000  0.343278  0.104988  1
