# generated using pymatgen
data_Yb5GaCu2
_symmetry_space_group_name_H-M   'P 1'
_cell_length_a   8.86753814
_cell_length_b   8.86753862
_cell_length_c   8.86753836
_cell_angle_alpha   128.80804459
_cell_angle_beta   128.80805170
_cell_angle_gamma   75.31962732
_symmetry_Int_Tables_number   1
_chemical_formula_structural   Yb5GaCu2
_chemical_formula_sum   'Yb10 Ga2 Cu4'
_cell_volume   412.11291199
_cell_formula_units_Z   2
loop_
 _symmetry_equiv_pos_site_id
 _symmetry_equiv_pos_as_xyz
  1  'x, y, z'
loop_
 _atom_site_type_symbol
 _atom_site_label
 _atom_site_symmetry_multiplicity
 _atom_site_fract_x
 _atom_site_fract_y
 _atom_site_fract_z
 _atom_site_occupancy
  Yb  Yb0  1  0.500000  0.500000  0.000000  1
  Yb  Yb1  1  0.000000  0.000000  0.000000  1
  Yb  Yb2  1  0.529499  0.029499  0.839977  1
  Yb  Yb3  1  0.189523  0.689523  0.160023  1
  Yb  Yb4  1  0.029499  0.189523  0.500000  1
  Yb  Yb5  1  0.689523  0.529499  0.500000  1
  Yb  Yb6  1  0.470501  0.970501  0.160023  1
  Yb  Yb7  1  0.810477  0.310477  0.839977  1
  Yb  Yb8  1  0.970501  0.810477  0.500000  1
  Yb  Yb9  1  0.310477  0.470501  0.500000  1
  Ga  Ga10  1  0.250000  0.250000  0.000000  1
  Ga  Ga11  1  0.750000  0.750000  0.000000  1
  Cu  Cu12  1  0.118063  0.618063  0.736126  1
  Cu  Cu13  1  0.881937  0.381937  0.263874  1
  Cu  Cu14  1  0.618063  0.881937  0.500000  1
  Cu  Cu15  1  0.381937  0.118063  0.500000  1
