# generated using pymatgen
data_ErMnCo4As3
_symmetry_space_group_name_H-M   'P 1'
_cell_length_a   3.78416000
_cell_length_b   10.75680700
_cell_length_c   12.30839800
_cell_angle_alpha   90.00000000
_cell_angle_beta   90.00000000
_cell_angle_gamma   90.00000000
_symmetry_Int_Tables_number   1
_chemical_formula_structural   ErMnCo4As3
_chemical_formula_sum   'Er4 Mn4 Co16 As12'
_cell_volume   501.01923357
_cell_formula_units_Z   4
loop_
 _symmetry_equiv_pos_site_id
 _symmetry_equiv_pos_as_xyz
  1  'x, y, z'
loop_
 _atom_site_type_symbol
 _atom_site_label
 _atom_site_symmetry_multiplicity
 _atom_site_fract_x
 _atom_site_fract_y
 _atom_site_fract_z
 _atom_site_occupancy
  Er  Er0  1  0.250000  0.579011  0.703706  1
  Er  Er1  1  0.250000  0.920989  0.203706  1
  Er  Er2  1  0.750000  0.420989  0.296294  1
  Er  Er3  1  0.750000  0.079011  0.796294  1
  Mn  Mn4  1  0.250000  0.702515  0.990351  1
  Mn  Mn5  1  0.250000  0.797485  0.490351  1
  Mn  Mn6  1  0.750000  0.297485  0.009649  1
  Mn  Mn7  1  0.750000  0.202515  0.509649  1
  Co  Co8  1  0.250000  0.405804  0.486683  1
  Co  Co9  1  0.250000  0.094196  0.986683  1
  Co  Co10  1  0.750000  0.594196  0.513317  1
  Co  Co11  1  0.750000  0.905804  0.013317  1
  Co  Co12  1  0.250000  0.216589  0.175859  1
  Co  Co13  1  0.250000  0.283411  0.675859  1
  Co  Co14  1  0.750000  0.783411  0.824141  1
  Co  Co15  1  0.750000  0.716589  0.324141  1
  Co  Co16  1  0.250000  0.882727  0.698378  1
  Co  Co17  1  0.250000  0.617273  0.198378  1
  Co  Co18  1  0.750000  0.117273  0.301622  1
  Co  Co19  1  0.750000  0.382727  0.801622  1
  Co  Co20  1  0.250000  0.465418  0.932654  1
  Co  Co21  1  0.250000  0.034582  0.432654  1
  Co  Co22  1  0.750000  0.534582  0.067346  1
  Co  Co23  1  0.750000  0.965418  0.567346  1
  As  As24  1  0.250000  0.418364  0.116516  1
  As  As25  1  0.250000  0.081636  0.616516  1
  As  As26  1  0.750000  0.581636  0.883484  1
  As  As27  1  0.750000  0.918364  0.383484  1
  As  As28  1  0.250000  0.266208  0.865566  1
  As  As29  1  0.250000  0.233792  0.365566  1
  As  As30  1  0.750000  0.733792  0.134434  1
  As  As31  1  0.750000  0.766208  0.634434  1
  As  As32  1  0.250000  0.597031  0.390701  1
  As  As33  1  0.250000  0.902969  0.890701  1
  As  As34  1  0.750000  0.402969  0.609299  1
  As  As35  1  0.750000  0.097031  0.109299  1
