# generated using pymatgen
data_Ho4Al4Ni3Ru
_symmetry_space_group_name_H-M   'P 1'
_cell_length_a   4.14876800
_cell_length_b   6.72667635
_cell_length_c   7.78512170
_cell_angle_alpha   90.41061244
_cell_angle_beta   90.00000000
_cell_angle_gamma   90.00000000
_symmetry_Int_Tables_number   1
_chemical_formula_structural   Ho4Al4Ni3Ru
_chemical_formula_sum   'Ho4 Al4 Ni3 Ru1'
_cell_volume   217.25707876
_cell_formula_units_Z   1
loop_
 _symmetry_equiv_pos_site_id
 _symmetry_equiv_pos_as_xyz
  1  'x, y, z'
loop_
 _atom_site_type_symbol
 _atom_site_label
 _atom_site_symmetry_multiplicity
 _atom_site_fract_x
 _atom_site_fract_y
 _atom_site_fract_z
 _atom_site_occupancy
  Ho  Ho0  1  0.250000  0.535557  0.178661  1
  Ho  Ho1  1  0.750000  0.464335  0.822845  1
  Ho  Ho2  1  0.750000  0.966616  0.676275  1
  Ho  Ho3  1  0.250000  0.031954  0.321480  1
  Al  Al4  1  0.250000  0.640229  0.557548  1
  Al  Al5  1  0.750000  0.365149  0.438221  1
  Al  Al6  1  0.750000  0.864206  0.059327  1
  Al  Al7  1  0.250000  0.135646  0.945294  1
  Ni  Ni8  1  0.250000  0.773049  0.877908  1
  Ni  Ni9  1  0.750000  0.230923  0.125809  1
  Ni  Ni10  1  0.750000  0.729583  0.371323  1
  Ru  Ru11  1  0.250000  0.262753  0.625309  1
