# generated using pymatgen
data_Dy5Sc5Si20Ir5Rh3
_symmetry_space_group_name_H-M   'P 1'
_cell_length_a   12.53569700
_cell_length_b   12.52321400
_cell_length_c   4.16200100
_cell_angle_alpha   90.00000000
_cell_angle_beta   90.00000000
_cell_angle_gamma   89.99773642
_symmetry_Int_Tables_number   1
_chemical_formula_structural   Dy5Sc5Si20Ir5Rh3
_chemical_formula_sum   'Dy5 Sc5 Si20 Ir5 Rh3'
_cell_volume   653.38095043
_cell_formula_units_Z   1
loop_
 _symmetry_equiv_pos_site_id
 _symmetry_equiv_pos_as_xyz
  1  'x, y, z'
loop_
 _atom_site_type_symbol
 _atom_site_label
 _atom_site_symmetry_multiplicity
 _atom_site_fract_x
 _atom_site_fract_y
 _atom_site_fract_z
 _atom_site_occupancy
  Dy  Dy0  1  0.000425  0.000076  0.000000  1
  Dy  Dy1  1  0.884300  0.385352  0.500000  1
  Dy  Dy2  1  0.115539  0.614540  0.500000  1
  Dy  Dy3  1  0.385361  0.115966  0.500000  1
  Dy  Dy4  1  0.614632  0.883978  0.500000  1
  Sc  Sc5  1  0.500003  0.499986  0.000000  1
  Sc  Sc6  1  0.672892  0.174680  0.500000  1
  Sc  Sc7  1  0.327292  0.825034  0.500000  1
  Sc  Sc8  1  0.174345  0.326994  0.500000  1
  Sc  Sc9  1  0.825311  0.672729  0.500000  1
  Si  Si10  1  0.566511  0.068233  0.000000  1
  Si  Si11  1  0.433406  0.932097  0.000000  1
  Si  Si12  1  0.068527  0.433960  0.000000  1
  Si  Si13  1  0.931467  0.566087  0.000000  1
  Si  Si14  1  0.665615  0.698543  0.000000  1
  Si  Si15  1  0.334098  0.300984  0.000000  1
  Si  Si16  1  0.166269  0.800433  0.000000  1
  Si  Si17  1  0.833715  0.200218  0.000000  1
  Si  Si18  1  0.301242  0.664868  0.000000  1
  Si  Si19  1  0.698602  0.335346  0.000000  1
  Si  Si20  1  0.199304  0.165448  0.000000  1
  Si  Si21  1  0.800396  0.833633  0.000000  1
  Si  Si22  1  0.651795  0.506979  0.500000  1
  Si  Si23  1  0.348346  0.493131  0.500000  1
  Si  Si24  1  0.158599  0.993591  0.500000  1
  Si  Si25  1  0.843071  0.006759  0.500000  1
  Si  Si26  1  0.492986  0.650766  0.500000  1
  Si  Si27  1  0.506895  0.349324  0.500000  1
  Si  Si28  1  0.006030  0.157329  0.500000  1
  Si  Si29  1  0.992898  0.842680  0.500000  1
  Ir  Ir30  1  0.753088  0.020185  0.000000  1
  Ir  Ir31  1  0.480127  0.743746  0.000000  1
  Ir  Ir32  1  0.519757  0.256255  0.000000  1
  Ir  Ir33  1  0.020158  0.247298  0.000000  1
  Ir  Ir34  1  0.980088  0.752709  0.000000  1
  Rh  Rh35  1  0.742938  0.519835  0.000000  1
  Rh  Rh36  1  0.257101  0.480188  0.000000  1
  Rh  Rh37  1  0.246870  0.980039  0.000000  1
