# generated using pymatgen
data_LiHo4(Ga2Pt)10
_symmetry_space_group_name_H-M   'P 1'
_cell_length_a   4.25216574
_cell_length_b   11.14796790
_cell_length_c   13.61480000
_cell_angle_alpha   81.14371893
_cell_angle_beta   81.00529695
_cell_angle_gamma   78.99823202
_symmetry_Int_Tables_number   1
_chemical_formula_structural   LiHo4(Ga2Pt)10
_chemical_formula_sum   'Li1 Ho4 Ga20 Pt10'
_cell_volume   620.58200446
_cell_formula_units_Z   1
loop_
 _symmetry_equiv_pos_site_id
 _symmetry_equiv_pos_as_xyz
  1  'x, y, z'
loop_
 _atom_site_type_symbol
 _atom_site_label
 _atom_site_symmetry_multiplicity
 _atom_site_fract_x
 _atom_site_fract_y
 _atom_site_fract_z
 _atom_site_occupancy
  Li  Li0  1  0.500000  0.500000  0.500000  1
  Ho  Ho1  1  0.121439  0.092256  0.663575  1
  Ho  Ho2  1  0.878561  0.907744  0.336425  1
  Ho  Ho3  1  0.772290  0.632290  0.820204  1
  Ho  Ho4  1  0.227710  0.367710  0.179796  1
  Ga  Ga5  1  0.008365  0.074011  0.910656  1
  Ga  Ga6  1  0.991635  0.925989  0.089344  1
  Ga  Ga7  1  0.061717  0.672082  0.200805  1
  Ga  Ga8  1  0.938283  0.327918  0.799195  1
  Ga  Ga9  1  0.110445  0.331073  0.452438  1
  Ga  Ga10  1  0.889555  0.668927  0.547562  1
  Ga  Ga11  1  0.200305  0.603716  0.992193  1
  Ga  Ga12  1  0.799695  0.396284  0.007807  1
  Ga  Ga13  1  0.254494  0.785645  0.701819  1
  Ga  Ga14  1  0.745506  0.214355  0.298181  1
  Ga  Ga15  1  0.302943  0.897034  0.497236  1
  Ga  Ga16  1  0.697057  0.102966  0.502764  1
  Ga  Ga17  1  0.385233  0.524235  0.701495  1
  Ga  Ga18  1  0.614767  0.475765  0.298505  1
  Ga  Ga19  1  0.395563  0.205153  0.000628  1
  Ga  Ga20  1  0.604437  0.794847  0.999372  1
  Ga  Ga21  1  0.541615  0.286718  0.628998  1
  Ga  Ga22  1  0.458385  0.713282  0.371002  1
  Ga  Ga23  1  0.636037  0.938536  0.794187  1
  Ga  Ga24  1  0.363963  0.061464  0.205813  1
  Pt  Pt25  1  0.027445  0.565357  0.382683  1
  Pt  Pt26  1  0.972555  0.434643  0.617317  1
  Pt  Pt27  1  0.139938  0.836283  0.888851  1
  Pt  Pt28  1  0.860062  0.163717  0.111149  1
  Pt  Pt29  1  0.244865  0.121878  0.390259  1
  Pt  Pt30  1  0.755135  0.878122  0.609741  1
  Pt  Pt31  1  0.345473  0.421567  0.890085  1
  Pt  Pt32  1  0.654527  0.578433  0.109915  1
  Pt  Pt33  1  0.506976  0.172045  0.814418  1
  Pt  Pt34  1  0.493024  0.827955  0.185582  1
