# generated using pymatgen
data_MgMn6Sn5Rh12
_symmetry_space_group_name_H-M   'P 1'
_cell_length_a   4.44569300
_cell_length_b   6.25988500
_cell_length_c   13.33516900
_cell_angle_alpha   90.00000000
_cell_angle_beta   89.99991837
_cell_angle_gamma   90.00000000
_symmetry_Int_Tables_number   1
_chemical_formula_structural   MgMn6Sn5Rh12
_chemical_formula_sum   'Mg1 Mn6 Sn5 Rh12'
_cell_volume   371.11144474
_cell_formula_units_Z   1
loop_
 _symmetry_equiv_pos_site_id
 _symmetry_equiv_pos_as_xyz
  1  'x, y, z'
loop_
 _atom_site_type_symbol
 _atom_site_label
 _atom_site_symmetry_multiplicity
 _atom_site_fract_x
 _atom_site_fract_y
 _atom_site_fract_z
 _atom_site_occupancy
  Mg  Mg0  1  0.500080  0.500001  0.833346  1
  Mn  Mn1  1  0.999992  0.500001  0.995728  1
  Mn  Mn2  1  0.499925  0.000000  0.165180  1
  Mn  Mn3  1  0.999965  0.500001  0.333344  1
  Mn  Mn4  1  0.499993  0.000000  0.501465  1
  Mn  Mn5  1  0.000052  0.500001  0.670935  1
  Mn  Mn6  1  0.500091  0.000000  0.833332  1
  Sn  Sn7  1  0.999994  0.000000  0.998417  1
  Sn  Sn8  1  0.500003  0.500001  0.165559  1
  Sn  Sn9  1  0.999938  0.000000  0.333328  1
  Sn  Sn10  1  0.499993  0.500001  0.501174  1
  Sn  Sn11  1  0.000046  0.000000  0.668206  1
  Rh  Rh12  1  0.499992  0.249652  0.000091  1
  Rh  Rh13  1  0.499992  0.750349  0.000091  1
  Rh  Rh14  1  0.999869  0.250392  0.166590  1
  Rh  Rh15  1  0.999869  0.749607  0.166590  1
  Rh  Rh16  1  0.499855  0.249817  0.333337  1
  Rh  Rh17  1  0.499855  0.750184  0.333337  1
  Rh  Rh18  1  0.999992  0.250441  0.500070  1
  Rh  Rh19  1  0.999992  0.749559  0.500070  1
  Rh  Rh20  1  0.500137  0.249636  0.666586  1
  Rh  Rh21  1  0.500137  0.750365  0.666586  1
  Rh  Rh22  1  0.000123  0.251852  0.833318  1
  Rh  Rh23  1  0.000123  0.748147  0.833318  1
