# generated using pymatgen
data_Dy6Ti3Re6MoN24
_symmetry_space_group_name_H-M   'P 1'
_cell_length_a   11.04851099
_cell_length_b   11.04851196
_cell_length_c   11.04851053
_cell_angle_alpha   109.59647887
_cell_angle_beta   109.59647829
_cell_angle_gamma   109.59647991
_symmetry_Int_Tables_number   1
_chemical_formula_structural   Dy6Ti3Re6MoN24
_chemical_formula_sum   'Dy12 Ti6 Re12 Mo2 N48'
_cell_volume   1033.37713071
_cell_formula_units_Z   2
loop_
 _symmetry_equiv_pos_site_id
 _symmetry_equiv_pos_as_xyz
  1  'x, y, z'
loop_
 _atom_site_type_symbol
 _atom_site_label
 _atom_site_symmetry_multiplicity
 _atom_site_fract_x
 _atom_site_fract_y
 _atom_site_fract_z
 _atom_site_occupancy
  Dy  Dy0  1  0.250000  0.375817  0.124183  1
  Dy  Dy1  1  0.374489  0.750000  0.125511  1
  Dy  Dy2  1  0.375817  0.124183  0.250000  1
  Dy  Dy3  1  0.874489  0.625511  0.250000  1
  Dy  Dy4  1  0.750000  0.125511  0.374489  1
  Dy  Dy5  1  0.124183  0.250000  0.375817  1
  Dy  Dy6  1  0.875817  0.750000  0.624183  1
  Dy  Dy7  1  0.250000  0.874489  0.625511  1
  Dy  Dy8  1  0.125511  0.374489  0.750000  1
  Dy  Dy9  1  0.624183  0.875817  0.750000  1
  Dy  Dy10  1  0.625511  0.250000  0.874489  1
  Dy  Dy11  1  0.750000  0.624183  0.875817  1
  Ti  Ti12  1  0.500000  0.000000  0.000000  1
  Ti  Ti13  1  0.000000  0.500000  0.000000  1
  Ti  Ti14  1  0.500000  0.500000  0.000000  1
  Ti  Ti15  1  0.000000  0.000000  0.500000  1
  Ti  Ti16  1  0.500000  0.000000  0.500000  1
  Ti  Ti17  1  0.000000  0.500000  0.500000  1
  Re  Re18  1  0.874442  0.251777  0.126141  1
  Re  Re19  1  0.748223  0.873859  0.125558  1
  Re  Re20  1  0.625558  0.373859  0.248223  1
  Re  Re21  1  0.126141  0.874442  0.251777  1
  Re  Re22  1  0.248223  0.625558  0.373859  1
  Re  Re23  1  0.626141  0.751777  0.374442  1
  Re  Re24  1  0.373859  0.248223  0.625558  1
  Re  Re25  1  0.751777  0.374442  0.626141  1
  Re  Re26  1  0.873859  0.125558  0.748223  1
  Re  Re27  1  0.374442  0.626141  0.751777  1
  Re  Re28  1  0.251777  0.126141  0.874442  1
  Re  Re29  1  0.125558  0.748223  0.873859  1
  Mo  Mo30  1  0.000000  0.000000  0.000000  1
  Mo  Mo31  1  0.500000  0.500000  0.500000  1
  N  N32  1  0.315013  0.900618  0.019830  1
  N  N33  1  0.203163  0.117546  0.016327  1
  N  N34  1  0.703288  0.682549  0.085023  1
  N  N35  1  0.882414  0.402967  0.086076  1
  N  N36  1  0.617585  0.413924  0.097033  1
  N  N37  1  0.980170  0.684986  0.099382  1
  N  N38  1  0.597033  0.913924  0.117585  1
  N  N39  1  0.016327  0.203163  0.117546  1
  N  N40  1  0.203288  0.585023  0.182550  1
  N  N41  1  0.480170  0.599382  0.184987  1
  N  N42  1  0.117546  0.016327  0.203163  1
  N  N43  1  0.585023  0.182550  0.203288  1
  N  N44  1  0.483673  0.382453  0.296837  1
  N  N45  1  0.317450  0.914977  0.296712  1
  N  N46  1  0.900618  0.019830  0.315013  1
  N  N47  1  0.914977  0.296712  0.317450  1
  N  N48  1  0.296837  0.483673  0.382453  1
  N  N49  1  0.586076  0.902967  0.382414  1
  N  N50  1  0.815013  0.519829  0.400618  1
  N  N51  1  0.086076  0.882414  0.402967  1
  N  N52  1  0.097033  0.617585  0.413924  1
  N  N53  1  0.817450  0.796711  0.414977  1
  N  N54  1  0.599382  0.184987  0.480170  1
  N  N55  1  0.382453  0.296837  0.483673  1
  N  N56  1  0.617546  0.703163  0.516326  1
  N  N57  1  0.400618  0.815013  0.519829  1
  N  N58  1  0.182550  0.203288  0.585023  1
  N  N59  1  0.902967  0.382414  0.586076  1
  N  N60  1  0.913924  0.117585  0.597033  1
  N  N61  1  0.184987  0.480170  0.599382  1
  N  N62  1  0.413924  0.097033  0.617585  1
  N  N63  1  0.703163  0.516326  0.617546  1
  N  N64  1  0.085023  0.703288  0.682549  1
  N  N65  1  0.099382  0.980170  0.684986  1
  N  N66  1  0.682549  0.085023  0.703288  1
  N  N67  1  0.516326  0.617546  0.703163  1
  N  N68  1  0.414977  0.817450  0.796711  1
  N  N69  1  0.882453  0.983673  0.796836  1
  N  N70  1  0.519829  0.400618  0.815013  1
  N  N71  1  0.796711  0.414977  0.817450  1
  N  N72  1  0.402967  0.086076  0.882414  1
  N  N73  1  0.983673  0.796836  0.882453  1
  N  N74  1  0.019830  0.315013  0.900618  1
  N  N75  1  0.382414  0.586076  0.902967  1
  N  N76  1  0.117585  0.597033  0.913924  1
  N  N77  1  0.296712  0.317450  0.914977  1
  N  N78  1  0.684986  0.099382  0.980170  1
  N  N79  1  0.796836  0.882453  0.983673  1
