# generated using pymatgen
data_Nb12VNi8Sn3N4
_symmetry_space_group_name_H-M   'P 1'
_cell_length_a   8.21324318
_cell_length_b   8.28180630
_cell_length_c   8.21324300
_cell_angle_alpha   60.27348024
_cell_angle_beta   59.99999668
_cell_angle_gamma   60.27348134
_symmetry_Int_Tables_number   1
_chemical_formula_structural   Nb12VNi8Sn3N4
_chemical_formula_sum   'Nb12 V1 Ni8 Sn3 N4'
_cell_volume   396.66357860
_cell_formula_units_Z   1
loop_
 _symmetry_equiv_pos_site_id
 _symmetry_equiv_pos_as_xyz
  1  'x, y, z'
loop_
 _atom_site_type_symbol
 _atom_site_label
 _atom_site_symmetry_multiplicity
 _atom_site_fract_x
 _atom_site_fract_y
 _atom_site_fract_z
 _atom_site_occupancy
  Nb  Nb0  1  0.817741  0.818249  0.182004  1
  Nb  Nb1  1  0.189645  0.178444  0.815955  1
  Nb  Nb2  1  0.815955  0.178444  0.815955  1
  Nb  Nb3  1  0.182004  0.818249  0.182004  1
  Nb  Nb4  1  0.182004  0.818249  0.817741  1
  Nb  Nb5  1  0.815955  0.178444  0.189645  1
  Nb  Nb6  1  0.432259  0.431751  0.067996  1
  Nb  Nb7  1  0.060355  0.071556  0.434045  1
  Nb  Nb8  1  0.434045  0.071556  0.434045  1
  Nb  Nb9  1  0.067996  0.431751  0.067996  1
  Nb  Nb10  1  0.067996  0.431751  0.432259  1
  Nb  Nb11  1  0.434045  0.071556  0.060355  1
  V  V12  1  0.625000  0.125000  0.625000  1
  Ni  Ni13  1  0.749300  0.399262  0.425719  1
  Ni  Ni14  1  0.410761  0.767716  0.410761  1
  Ni  Ni15  1  0.425719  0.399262  0.749300  1
  Ni  Ni16  1  0.425719  0.399262  0.425719  1
  Ni  Ni17  1  0.500700  0.850738  0.824281  1
  Ni  Ni18  1  0.839239  0.482284  0.839239  1
  Ni  Ni19  1  0.824281  0.850738  0.500700  1
  Ni  Ni20  1  0.824281  0.850738  0.824281  1
  Sn  Sn21  1  0.125000  0.625000  0.625000  1
  Sn  Sn22  1  0.625000  0.625000  0.125000  1
  Sn  Sn23  1  0.625000  0.625000  0.625000  1
  N  N24  1  0.625000  0.125000  0.125000  1
  N  N25  1  0.125000  0.625000  0.125000  1
  N  N26  1  0.125000  0.125000  0.625000  1
  N  N27  1  0.125000  0.125000  0.125000  1
