# generated using pymatgen
data_Eu2HfThSb5
_symmetry_space_group_name_H-M   'P 1'
_cell_length_a   9.66862400
_cell_length_b   9.61781753
_cell_length_c   6.29964500
_cell_angle_alpha   90.00000000
_cell_angle_beta   90.00000000
_cell_angle_gamma   120.17489930
_symmetry_Int_Tables_number   1
_chemical_formula_structural   Eu2HfThSb5
_chemical_formula_sum   'Eu4 Hf2 Th2 Sb10'
_cell_volume   506.43045029
_cell_formula_units_Z   2
loop_
 _symmetry_equiv_pos_site_id
 _symmetry_equiv_pos_as_xyz
  1  'x, y, z'
loop_
 _atom_site_type_symbol
 _atom_site_label
 _atom_site_symmetry_multiplicity
 _atom_site_fract_x
 _atom_site_fract_y
 _atom_site_fract_z
 _atom_site_occupancy
  Eu  Eu0  1  0.995121  0.612168  0.250000  1
  Eu  Eu1  1  0.004879  0.387832  0.750000  1
  Eu  Eu2  1  0.382952  0.387832  0.250000  1
  Eu  Eu3  1  0.617048  0.612168  0.750000  1
  Hf  Hf4  1  0.000000  0.000000  0.000000  1
  Hf  Hf5  1  0.000000  0.000000  0.500000  1
  Th  Th6  1  0.624898  0.000000  0.250000  1
  Th  Th7  1  0.375102  0.000000  0.750000  1
  Sb  Sb8  1  0.262013  0.000000  0.250000  1
  Sb  Sb9  1  0.737987  0.000000  0.750000  1
  Sb  Sb10  1  0.999859  0.258241  0.250000  1
  Sb  Sb11  1  0.000141  0.741759  0.750000  1
  Sb  Sb12  1  0.741617  0.741759  0.250000  1
  Sb  Sb13  1  0.258383  0.258241  0.750000  1
  Sb  Sb14  1  0.338665  0.677332  0.000000  1
  Sb  Sb15  1  0.661335  0.322668  0.000000  1
  Sb  Sb16  1  0.661335  0.322668  0.500000  1
  Sb  Sb17  1  0.338665  0.677332  0.500000  1
