# generated using pymatgen
data_Tb7Ho5Ga2(NiOs)2
_symmetry_space_group_name_H-M   'P 1'
_cell_length_a   8.36693819
_cell_length_b   8.36693775
_cell_length_c   8.37155044
_cell_angle_alpha   113.07344144
_cell_angle_beta   110.18825652
_cell_angle_gamma   105.22303494
_symmetry_Int_Tables_number   1
_chemical_formula_structural   Tb7Ho5Ga2(NiOs)2
_chemical_formula_sum   'Tb7 Ho5 Ga2 Ni2 Os2'
_cell_volume   449.13973074
_cell_formula_units_Z   1
loop_
 _symmetry_equiv_pos_site_id
 _symmetry_equiv_pos_as_xyz
  1  'x, y, z'
loop_
 _atom_site_type_symbol
 _atom_site_label
 _atom_site_symmetry_multiplicity
 _atom_site_fract_x
 _atom_site_fract_y
 _atom_site_fract_z
 _atom_site_occupancy
  Tb  Tb0  1  0.435489  0.242229  0.192476  1
  Tb  Tb1  1  0.565500  0.758241  0.808010  1
  Tb  Tb2  1  0.049770  0.242510  0.808010  1
  Tb  Tb3  1  0.950246  0.756987  0.192476  1
  Tb  Tb4  1  0.179832  0.278503  0.458334  1
  Tb  Tb5  1  0.819808  0.721623  0.541432  1
  Tb  Tb6  1  0.180241  0.721892  0.902133  1
  Ho  Ho7  1  0.819827  0.277745  0.097572  1
  Ho  Ho8  1  0.330973  0.644656  0.313846  1
  Ho  Ho9  1  0.669235  0.355175  0.686973  1
  Ho  Ho10  1  0.331800  0.017738  0.686973  1
  Ho  Ho11  1  0.669189  0.982874  0.313846  1
  Ga  Ga12  1  0.500143  0.500269  0.000411  1
  Ga  Ga13  1  0.999642  0.000969  0.000612  1
  Ni  Ni14  1  0.114885  0.614823  0.497566  1
  Ni  Ni15  1  0.882743  0.382681  0.497566  1
  Os  Os16  1  0.330662  0.000355  0.331017  1
  Os  Os17  1  0.670014  0.000731  0.670745  1
