# generated using pymatgen
data_BaCu(IrO4)2
_symmetry_space_group_name_H-M   'P 1'
_cell_length_a   7.39158812
_cell_length_b   7.39095192
_cell_length_c   7.22497100
_cell_angle_alpha   117.61608172
_cell_angle_beta   62.38095182
_cell_angle_gamma   91.41071318
_symmetry_Int_Tables_number   1
_chemical_formula_structural   BaCu(IrO4)2
_chemical_formula_sum   'Ba2 Cu2 Ir4 O16'
_cell_volume   300.64740945
_cell_formula_units_Z   2
loop_
 _symmetry_equiv_pos_site_id
 _symmetry_equiv_pos_as_xyz
  1  'x, y, z'
loop_
 _atom_site_type_symbol
 _atom_site_label
 _atom_site_symmetry_multiplicity
 _atom_site_fract_x
 _atom_site_fract_y
 _atom_site_fract_z
 _atom_site_occupancy
  Ba  Ba0  1  0.720251  0.720423  0.250418  1
  Ba  Ba1  1  0.279321  0.279814  0.750079  1
  Cu  Cu2  1  0.365037  0.364744  0.249664  1
  Cu  Cu3  1  0.635315  0.635239  0.750202  1
  Ir  Ir4  1  0.806935  0.193675  0.197960  1
  Ir  Ir5  1  0.193831  0.806902  0.302004  1
  Ir  Ir6  1  0.806214  0.193095  0.697966  1
  Ir  Ir7  1  0.193041  0.806234  0.802027  1
  O  O8  1  0.111026  0.102127  0.057142  1
  O  O9  1  0.127328  0.714887  0.039809  1
  O  O10  1  0.475329  0.788354  0.090799  1
  O  O11  1  0.212934  0.521470  0.210480  1
  O  O12  1  0.521637  0.212784  0.288931  1
  O  O13  1  0.788300  0.474990  0.409571  1
  O  O14  1  0.714607  0.127550  0.460395  1
  O  O15  1  0.102028  0.111226  0.442998  1
  O  O16  1  0.897835  0.888843  0.556975  1
  O  O17  1  0.285297  0.872695  0.539743  1
  O  O18  1  0.212084  0.524685  0.590222  1
  O  O19  1  0.478451  0.787071  0.710836  1
  O  O20  1  0.787227  0.478515  0.789378  1
  O  O21  1  0.524731  0.211605  0.909128  1
  O  O22  1  0.872374  0.285172  0.960373  1
  O  O23  1  0.888861  0.897903  0.942897  1
