# generated using pymatgen
data_Rb2Ta6SnBr18
_symmetry_space_group_name_H-M   'P 1'
_cell_length_a   10.96874580
_cell_length_b   10.96874688
_cell_length_c   10.96874531
_cell_angle_alpha   55.02974540
_cell_angle_beta   55.02973784
_cell_angle_gamma   55.02973740
_symmetry_Int_Tables_number   1
_chemical_formula_structural   Rb2Ta6SnBr18
_chemical_formula_sum   'Rb2 Ta6 Sn1 Br18'
_cell_volume   825.25941359
_cell_formula_units_Z   1
loop_
 _symmetry_equiv_pos_site_id
 _symmetry_equiv_pos_as_xyz
  1  'x, y, z'
loop_
 _atom_site_type_symbol
 _atom_site_label
 _atom_site_symmetry_multiplicity
 _atom_site_fract_x
 _atom_site_fract_y
 _atom_site_fract_z
 _atom_site_occupancy
  Rb  Rb0  1  0.276856  0.276856  0.276856  1
  Rb  Rb1  1  0.723144  0.723144  0.723144  1
  Ta  Ta2  1  0.422846  0.309838  0.638806  1
  Ta  Ta3  1  0.361194  0.577154  0.690162  1
  Ta  Ta4  1  0.690162  0.361194  0.577154  1
  Ta  Ta5  1  0.638806  0.422846  0.309838  1
  Ta  Ta6  1  0.577154  0.690162  0.361194  1
  Ta  Ta7  1  0.309838  0.638806  0.422846  1
  Sn  Sn8  1  0.000000  0.000000  0.000000  1
  Br  Br9  1  0.639551  0.092561  0.769125  1
  Br  Br10  1  0.769125  0.639551  0.092561  1
  Br  Br11  1  0.092561  0.769125  0.639551  1
  Br  Br12  1  0.827516  0.321018  0.041031  1
  Br  Br13  1  0.167755  0.435193  0.576793  1
  Br  Br14  1  0.678982  0.958969  0.172484  1
  Br  Br15  1  0.907439  0.230875  0.360449  1
  Br  Br16  1  0.564807  0.423207  0.832245  1
  Br  Br17  1  0.423207  0.832245  0.564807  1
  Br  Br18  1  0.958969  0.172484  0.678982  1
  Br  Br19  1  0.172484  0.678982  0.958969  1
  Br  Br20  1  0.041031  0.827516  0.321018  1
  Br  Br21  1  0.321018  0.041031  0.827516  1
  Br  Br22  1  0.230875  0.360449  0.907439  1
  Br  Br23  1  0.576793  0.167755  0.435193  1
  Br  Br24  1  0.435193  0.576793  0.167755  1
  Br  Br25  1  0.360449  0.907439  0.230875  1
  Br  Br26  1  0.832245  0.564807  0.423207  1
