# generated using pymatgen
data_Nb12Al8ZnCr(CuC2)2
_symmetry_space_group_name_H-M   'P 1'
_cell_length_a   8.33844553
_cell_length_b   8.33464974
_cell_length_c   8.33464800
_cell_angle_alpha   59.99999898
_cell_angle_beta   60.01505624
_cell_angle_gamma   60.01505733
_symmetry_Int_Tables_number   1
_chemical_formula_structural   Nb12Al8ZnCr(CuC2)2
_chemical_formula_sum   'Nb12 Al8 Zn1 Cr1 Cu2 C4'
_cell_volume   409.67882020
_cell_formula_units_Z   1
loop_
 _symmetry_equiv_pos_site_id
 _symmetry_equiv_pos_as_xyz
  1  'x, y, z'
loop_
 _atom_site_type_symbol
 _atom_site_label
 _atom_site_symmetry_multiplicity
 _atom_site_fract_x
 _atom_site_fract_y
 _atom_site_fract_z
 _atom_site_occupancy
  Nb  Nb0  1  0.552514  0.939714  0.568058  1
  Nb  Nb1  1  0.311205  0.697880  0.680199  1
  Nb  Nb2  1  0.682731  0.314628  0.317290  1
  Nb  Nb3  1  0.315492  0.683560  0.317387  1
  Nb  Nb4  1  0.682731  0.685350  0.317290  1
  Nb  Nb5  1  0.311205  0.310716  0.680199  1
  Nb  Nb6  1  0.567269  0.564650  0.932710  1
  Nb  Nb7  1  0.938795  0.552120  0.569801  1
  Nb  Nb8  1  0.567269  0.935372  0.932710  1
  Nb  Nb9  1  0.938795  0.939284  0.569801  1
  Nb  Nb10  1  0.697486  0.310286  0.681942  1
  Nb  Nb11  1  0.934508  0.566440  0.932613  1
  Al  Al12  1  0.922913  0.912965  0.916313  1
  Al  Al13  1  0.000760  0.333830  0.331581  1
  Al  Al14  1  0.327087  0.002191  0.333687  1
  Al  Al15  1  0.329634  0.340030  0.990306  1
  Al  Al16  1  0.922913  0.247809  0.916313  1
  Al  Al17  1  0.920366  0.909970  0.259694  1
  Al  Al18  1  0.249240  0.916170  0.918419  1
  Al  Al19  1  0.327087  0.337035  0.333687  1
  Zn  Zn20  1  0.625000  0.125000  0.125000  1
  Cr  Cr21  1  0.125000  0.125000  0.625000  1
  Cu  Cu22  1  0.125000  0.125000  0.125000  1
  Cu  Cu23  1  0.125000  0.625000  0.125000  1
  C  C24  1  0.625000  0.625000  0.625000  1
  C  C25  1  0.125000  0.625000  0.625000  1
  C  C26  1  0.625000  0.125000  0.625000  1
  C  C27  1  0.625000  0.625000  0.125000  1
