# generated using pymatgen
data_Tb7Eu12YSn16
_symmetry_space_group_name_H-M   'P 1'
_cell_length_a   8.05908808
_cell_length_b   8.64749809
_cell_length_c   16.50098600
_cell_angle_alpha   90.00569148
_cell_angle_beta   90.00829674
_cell_angle_gamma   90.00613458
_symmetry_Int_Tables_number   1
_chemical_formula_structural   Tb7Eu12YSn16
_chemical_formula_sum   'Tb7 Eu12 Y1 Sn16'
_cell_volume   1149.96934674
_cell_formula_units_Z   1
loop_
 _symmetry_equiv_pos_site_id
 _symmetry_equiv_pos_as_xyz
  1  'x, y, z'
loop_
 _atom_site_type_symbol
 _atom_site_label
 _atom_site_symmetry_multiplicity
 _atom_site_fract_x
 _atom_site_fract_y
 _atom_site_fract_z
 _atom_site_occupancy
  Tb  Tb0  1  0.171201  0.331222  0.877675  1
  Tb  Tb1  1  0.328315  0.831827  0.122448  1
  Tb  Tb2  1  0.828562  0.668640  0.377923  1
  Tb  Tb3  1  0.328381  0.831616  0.377956  1
  Tb  Tb4  1  0.828689  0.668482  0.122623  1
  Tb  Tb5  1  0.671938  0.168056  0.877737  1
  Tb  Tb6  1  0.171397  0.331429  0.621854  1
  Eu  Eu7  1  0.504511  0.685195  0.592341  1
  Eu  Eu8  1  0.004898  0.815794  0.907382  1
  Eu  Eu9  1  0.494990  0.315171  0.093406  1
  Eu  Eu10  1  0.995121  0.184939  0.406972  1
  Eu  Eu11  1  0.495084  0.315430  0.407081  1
  Eu  Eu12  1  0.995254  0.184355  0.093304  1
  Eu  Eu13  1  0.505340  0.684803  0.906992  1
  Eu  Eu14  1  0.004813  0.815548  0.592801  1
  Eu  Eu15  1  0.831906  0.513371  0.749486  1
  Eu  Eu16  1  0.331271  0.986618  0.749800  1
  Eu  Eu17  1  0.168673  0.486513  0.250143  1
  Eu  Eu18  1  0.668420  0.013546  0.250211  1
  Y  Y19  1  0.671447  0.168075  0.621888  1
  Sn  Sn20  1  0.667995  0.962205  0.460406  1
  Sn  Sn21  1  0.167606  0.537932  0.039826  1
  Sn  Sn22  1  0.331846  0.038403  0.960729  1
  Sn  Sn23  1  0.830915  0.462367  0.539337  1
  Sn  Sn24  1  0.331932  0.037820  0.539434  1
  Sn  Sn25  1  0.832218  0.461616  0.960861  1
  Sn  Sn26  1  0.668289  0.962273  0.039972  1
  Sn  Sn27  1  0.168404  0.537821  0.460383  1
  Sn  Sn28  1  0.466051  0.367299  0.749799  1
  Sn  Sn29  1  0.966241  0.131210  0.749536  1
  Sn  Sn30  1  0.533901  0.631748  0.250178  1
  Sn  Sn31  1  0.033686  0.868685  0.250174  1
  Sn  Sn32  1  0.718175  0.880561  0.749422  1
  Sn  Sn33  1  0.219849  0.619634  0.749381  1
  Sn  Sn34  1  0.281422  0.119517  0.250219  1
  Sn  Sn35  1  0.781256  0.380276  0.250318  1
