# generated using pymatgen
data_MnAg2AsF12
_symmetry_space_group_name_H-M   'P 1'
_cell_length_a   5.37912559
_cell_length_b   5.61093339
_cell_length_c   7.82787994
_cell_angle_alpha   95.78502005
_cell_angle_beta   89.26987121
_cell_angle_gamma   90.60725594
_symmetry_Int_Tables_number   1
_chemical_formula_structural   MnAg2AsF12
_chemical_formula_sum   'Mn1 Ag2 As1 F12'
_cell_volume   235.02777223
_cell_formula_units_Z   1
loop_
 _symmetry_equiv_pos_site_id
 _symmetry_equiv_pos_as_xyz
  1  'x, y, z'
loop_
 _atom_site_type_symbol
 _atom_site_label
 _atom_site_symmetry_multiplicity
 _atom_site_fract_x
 _atom_site_fract_y
 _atom_site_fract_z
 _atom_site_occupancy
  Mn  Mn0  1  0.000000  0.000000  0.500000  1
  Ag  Ag1  1  0.000000  0.000000  0.000000  1
  Ag  Ag2  1  0.500000  0.500000  0.500000  1
  As  As3  1  0.500000  0.500000  0.000000  1
  F  F4  1  0.893204  0.001450  0.727740  1
  F  F5  1  0.168543  0.287864  0.557117  1
  F  F6  1  0.236739  0.630374  0.911298  1
  F  F7  1  0.331868  0.480786  0.193832  1
  F  F8  1  0.389260  0.209969  0.921838  1
  F  F9  1  0.281873  0.831378  0.550770  1
  F  F10  1  0.718127  0.168622  0.449230  1
  F  F11  1  0.610740  0.790031  0.078162  1
  F  F12  1  0.668132  0.519214  0.806168  1
  F  F13  1  0.763261  0.369626  0.088702  1
  F  F14  1  0.831457  0.712136  0.442883  1
  F  F15  1  0.106796  0.998550  0.272260  1
