# generated using pymatgen
data_CaDyHo6(B6Ru)4
_symmetry_space_group_name_H-M   'P 1'
_cell_length_a   3.65415700
_cell_length_b   9.13344830
_cell_length_c   11.52201102
_cell_angle_alpha   89.90218320
_cell_angle_beta   90.00000000
_cell_angle_gamma   90.00000000
_symmetry_Int_Tables_number   1
_chemical_formula_structural   CaDyHo6(B6Ru)4
_chemical_formula_sum   'Ca1 Dy1 Ho6 B24 Ru4'
_cell_volume   384.54718010
_cell_formula_units_Z   1
loop_
 _symmetry_equiv_pos_site_id
 _symmetry_equiv_pos_as_xyz
  1  'x, y, z'
loop_
 _atom_site_type_symbol
 _atom_site_label
 _atom_site_symmetry_multiplicity
 _atom_site_fract_x
 _atom_site_fract_y
 _atom_site_fract_z
 _atom_site_occupancy
  Ca  Ca0  1  0.000000  0.322821  0.413873  1
  Dy  Dy1  1  0.000000  0.675702  0.585071  1
  Ho  Ho2  1  0.000000  0.822767  0.086276  1
  Ho  Ho3  1  0.000000  0.177729  0.914595  1
  Ho  Ho4  1  0.000000  0.943954  0.371025  1
  Ho  Ho5  1  0.000000  0.057849  0.628326  1
  Ho  Ho6  1  0.000000  0.443045  0.129414  1
  Ho  Ho7  1  0.000000  0.556151  0.872293  1
  B  B8  1  0.500000  0.554670  0.432539  1
  B  B9  1  0.500000  0.446153  0.567924  1
  B  B10  1  0.500000  0.053207  0.066384  1
  B  B11  1  0.500000  0.945856  0.932570  1
  B  B12  1  0.500000  0.748509  0.419148  1
  B  B13  1  0.500000  0.252160  0.581519  1
  B  B14  1  0.500000  0.247431  0.080126  1
  B  B15  1  0.500000  0.751933  0.919736  1
  B  B16  1  0.500000  0.791585  0.265864  1
  B  B17  1  0.500000  0.209577  0.734453  1
  B  B18  1  0.500000  0.289733  0.232941  1
  B  B19  1  0.500000  0.709311  0.766487  1
  B  B20  1  0.500000  0.632372  0.185646  1
  B  B21  1  0.500000  0.368300  0.815350  1
  B  B22  1  0.500000  0.130811  0.313529  1
  B  B23  1  0.500000  0.868497  0.685293  1
  B  B24  1  0.500000  0.983141  0.211605  1
  B  B25  1  0.500000  0.016533  0.787429  1
  B  B26  1  0.500000  0.484489  0.287355  1
  B  B27  1  0.500000  0.516358  0.713021  1
  B  B28  1  0.500000  0.608504  0.030161  1
  B  B29  1  0.500000  0.391753  0.970481  1
  B  B30  1  0.500000  0.103955  0.471183  1
  B  B31  1  0.500000  0.894565  0.529148  1
  Ru  Ru32  1  0.000000  0.640158  0.320162  1
  Ru  Ru33  1  0.000000  0.361900  0.680922  1
  Ru  Ru34  1  0.000000  0.136296  0.176976  1
  Ru  Ru35  1  0.000000  0.862224  0.821174  1
