# generated using pymatgen
data_Tb3Nd17Si15Ag
_symmetry_space_group_name_H-M   'P 1'
_cell_length_a   7.72111415
_cell_length_b   7.92599397
_cell_length_c   15.17627099
_cell_angle_alpha   90.30591669
_cell_angle_beta   90.77417624
_cell_angle_gamma   90.23248438
_symmetry_Int_Tables_number   1
_chemical_formula_structural   Tb3Nd17Si15Ag
_chemical_formula_sum   'Tb3 Nd17 Si15 Ag1'
_cell_volume   928.64396912
_cell_formula_units_Z   1
loop_
 _symmetry_equiv_pos_site_id
 _symmetry_equiv_pos_as_xyz
  1  'x, y, z'
loop_
 _atom_site_type_symbol
 _atom_site_label
 _atom_site_symmetry_multiplicity
 _atom_site_fract_x
 _atom_site_fract_y
 _atom_site_fract_z
 _atom_site_occupancy
  Tb  Tb0  1  0.353313  0.986183  0.749622  1
  Tb  Tb1  1  0.145878  0.488422  0.249985  1
  Tb  Tb2  1  0.650204  0.013727  0.246787  1
  Nd  Nd3  1  0.679471  0.176562  0.623558  1
  Nd  Nd4  1  0.186877  0.320583  0.878875  1
  Nd  Nd5  1  0.314601  0.819723  0.121176  1
  Nd  Nd6  1  0.821940  0.676204  0.375577  1
  Nd  Nd7  1  0.314849  0.825397  0.379408  1
  Nd  Nd8  1  0.811739  0.680074  0.121669  1
  Nd  Nd9  1  0.685053  0.180597  0.878592  1
  Nd  Nd10  1  0.179587  0.319157  0.622857  1
  Nd  Nd11  1  0.528378  0.679208  0.603169  1
  Nd  Nd12  1  0.036438  0.812116  0.899675  1
  Nd  Nd13  1  0.463823  0.315977  0.100072  1
  Nd  Nd14  1  0.975550  0.188229  0.395633  1
  Nd  Nd15  1  0.466573  0.321338  0.397574  1
  Nd  Nd16  1  0.964762  0.186651  0.099971  1
  Nd  Nd17  1  0.537702  0.687282  0.898385  1
  Nd  Nd18  1  0.031622  0.812867  0.602709  1
  Nd  Nd19  1  0.856207  0.509981  0.749405  1
  Si  Si20  1  0.135591  0.525272  0.042350  1
  Si  Si21  1  0.362225  0.025824  0.958562  1
  Si  Si22  1  0.857157  0.470577  0.538329  1
  Si  Si23  1  0.347026  0.023936  0.546359  1
  Si  Si24  1  0.864192  0.473017  0.960237  1
  Si  Si25  1  0.635061  0.975579  0.040909  1
  Si  Si26  1  0.141046  0.527915  0.460425  1
  Si  Si27  1  0.476830  0.398262  0.751311  1
  Si  Si28  1  0.978237  0.096021  0.752086  1
  Si  Si29  1  0.518633  0.600867  0.248728  1
  Si  Si30  1  0.022636  0.902246  0.247848  1
  Si  Si31  1  0.739637  0.878073  0.751294  1
  Si  Si32  1  0.245693  0.625421  0.751957  1
  Si  Si33  1  0.262436  0.125660  0.247855  1
  Si  Si34  1  0.758476  0.375398  0.248249  1
  Ag  Ag35  1  0.650557  0.975654  0.458796  1
