# generated using pymatgen
data_TiMn(AlRh2)2
_symmetry_space_group_name_H-M   'P 1'
_cell_length_a   7.45394540
_cell_length_b   7.45394558
_cell_length_c   7.45394526
_cell_angle_alpha   131.75134900
_cell_angle_beta   131.75134459
_cell_angle_gamma   70.62202677
_symmetry_Int_Tables_number   1
_chemical_formula_structural   TiMn(AlRh2)2
_chemical_formula_sum   'Ti2 Mn2 Al4 Rh8'
_cell_volume   225.82415498
_cell_formula_units_Z   2
loop_
 _symmetry_equiv_pos_site_id
 _symmetry_equiv_pos_as_xyz
  1  'x, y, z'
loop_
 _atom_site_type_symbol
 _atom_site_label
 _atom_site_symmetry_multiplicity
 _atom_site_fract_x
 _atom_site_fract_y
 _atom_site_fract_z
 _atom_site_occupancy
  Ti  Ti0  1  0.250000  0.250000  0.000000  1
  Ti  Ti1  1  0.500001  0.000000  0.500001  1
  Mn  Mn2  1  0.750000  0.750000  0.000000  1
  Mn  Mn3  1  0.000000  0.500001  0.500001  1
  Al  Al4  1  0.999713  0.999713  0.000000  1
  Al  Al5  1  0.500287  0.500287  0.000000  1
  Al  Al6  1  0.750287  0.250287  0.500001  1
  Al  Al7  1  0.249713  0.749714  0.500001  1
  Rh  Rh8  1  0.874999  0.373128  0.998127  1
  Rh  Rh9  1  0.623129  0.125001  0.998129  1
  Rh  Rh10  1  0.126872  0.125000  0.501872  1
  Rh  Rh11  1  0.874999  0.876872  0.501872  1
  Rh  Rh12  1  0.374999  0.373128  0.498128  1
  Rh  Rh13  1  0.623129  0.625000  0.498128  1
  Rh  Rh14  1  0.126872  0.625000  0.001872  1
  Rh  Rh15  1  0.374999  0.876873  0.001872  1
