# generated using pymatgen
data_FeSi2Pb2O7
_symmetry_space_group_name_H-M   'P 1'
_cell_length_a   8.28529200
_cell_length_b   8.28529200
_cell_length_c   5.30828500
_cell_angle_alpha   90.00000000
_cell_angle_beta   90.00000000
_cell_angle_gamma   90.00000000
_symmetry_Int_Tables_number   1
_chemical_formula_structural   FeSi2Pb2O7
_chemical_formula_sum   'Fe2 Si4 Pb4 O14'
_cell_volume   364.39286932
_cell_formula_units_Z   2
loop_
 _symmetry_equiv_pos_site_id
 _symmetry_equiv_pos_as_xyz
  1  'x, y, z'
loop_
 _atom_site_type_symbol
 _atom_site_label
 _atom_site_symmetry_multiplicity
 _atom_site_fract_x
 _atom_site_fract_y
 _atom_site_fract_z
 _atom_site_occupancy
  Fe  Fe0  1  0.000000  0.000000  0.000000  1
  Fe  Fe1  1  0.500000  0.500000  0.000000  1
  Si  Si2  1  0.638085  0.138085  0.048426  1
  Si  Si3  1  0.361915  0.861915  0.048426  1
  Si  Si4  1  0.138085  0.361915  0.951574  1
  Si  Si5  1  0.861915  0.638085  0.951574  1
  Pb  Pb6  1  0.818794  0.318794  0.496108  1
  Pb  Pb7  1  0.181207  0.681207  0.496108  1
  Pb  Pb8  1  0.318794  0.181207  0.503892  1
  Pb  Pb9  1  0.681207  0.818794  0.503892  1
  O  O10  1  0.500000  0.000000  0.122683  1
  O  O11  1  0.805376  0.081699  0.193847  1
  O  O12  1  0.581698  0.305377  0.193847  1
  O  O13  1  0.418302  0.694624  0.193847  1
  O  O14  1  0.194625  0.918301  0.193847  1
  O  O15  1  0.152640  0.347360  0.255642  1
  O  O16  1  0.847360  0.652640  0.255642  1
  O  O17  1  0.652640  0.152640  0.744358  1
  O  O18  1  0.347360  0.847360  0.744358  1
  O  O19  1  0.081699  0.194625  0.806153  1
  O  O20  1  0.305377  0.418302  0.806153  1
  O  O21  1  0.694624  0.581698  0.806153  1
  O  O22  1  0.918301  0.805376  0.806153  1
  O  O23  1  0.000000  0.500000  0.877317  1
