# generated using pymatgen
data_YErMg2InPb3
_symmetry_space_group_name_H-M   'P 1'
_cell_length_a   4.79700800
_cell_length_b   4.84994500
_cell_length_c   9.01251600
_cell_angle_alpha   90.00000000
_cell_angle_beta   90.00000000
_cell_angle_gamma   90.00000000
_symmetry_Int_Tables_number   1
_chemical_formula_structural   YErMg2InPb3
_chemical_formula_sum   'Y1 Er1 Mg2 In1 Pb3'
_cell_volume   209.67821224
_cell_formula_units_Z   1
loop_
 _symmetry_equiv_pos_site_id
 _symmetry_equiv_pos_as_xyz
  1  'x, y, z'
loop_
 _atom_site_type_symbol
 _atom_site_label
 _atom_site_symmetry_multiplicity
 _atom_site_fract_x
 _atom_site_fract_y
 _atom_site_fract_z
 _atom_site_occupancy
  Y  Y0  1  0.000000  0.000000  0.749877  1
  Er  Er1  1  0.000000  0.000000  0.249971  1
  Mg  Mg2  1  0.500000  0.500000  0.254229  1
  Mg  Mg3  1  0.500000  0.500000  0.745727  1
  In  In4  1  0.000000  0.500000  0.499350  1
  Pb  Pb5  1  0.000000  0.500000  0.000804  1
  Pb  Pb6  1  0.500000  0.000000  0.499176  1
  Pb  Pb7  1  0.500000  0.000000  0.000867  1
