# generated using pymatgen
data_YbPr(CoO2)6
_symmetry_space_group_name_H-M   'P 1'
_cell_length_a   4.92949300
_cell_length_b   5.74191287
_cell_length_c   8.52346500
_cell_angle_alpha   89.99990021
_cell_angle_beta   90.00000000
_cell_angle_gamma   73.46467892
_symmetry_Int_Tables_number   1
_chemical_formula_structural   YbPr(CoO2)6
_chemical_formula_sum   'Yb1 Pr1 Co6 O12'
_cell_volume   231.27708465
_cell_formula_units_Z   1
loop_
 _symmetry_equiv_pos_site_id
 _symmetry_equiv_pos_as_xyz
  1  'x, y, z'
loop_
 _atom_site_type_symbol
 _atom_site_label
 _atom_site_symmetry_multiplicity
 _atom_site_fract_x
 _atom_site_fract_y
 _atom_site_fract_z
 _atom_site_occupancy
  Yb  Yb0  1  0.000001  0.500000  0.166655  1
  Pr  Pr1  1  0.500000  0.500000  0.666576  1
  Co  Co2  1  0.500000  0.000000  0.166671  1
  Co  Co3  1  0.500000  0.000000  0.836255  1
  Co  Co4  1  0.500000  0.000000  0.497086  1
  Co  Co5  1  0.000000  0.000000  0.666682  1
  Co  Co6  1  0.000000  0.000000  0.332607  1
  Co  Co7  1  0.000000  0.000000  0.000735  1
  O  O8  1  0.773937  0.181725  0.166678  1
  O  O9  1  0.273072  0.182225  0.666675  1
  O  O10  1  0.226063  0.818275  0.166678  1
  O  O11  1  0.726928  0.817775  0.666675  1
  O  O12  1  0.272295  0.183007  0.004777  1
  O  O13  1  0.772319  0.183711  0.499321  1
  O  O14  1  0.272297  0.183022  0.328569  1
  O  O15  1  0.772310  0.183743  0.834012  1
  O  O16  1  0.727703  0.816978  0.328569  1
  O  O17  1  0.227690  0.816257  0.834012  1
  O  O18  1  0.727705  0.816994  0.004777  1
  O  O19  1  0.227681  0.816288  0.499322  1
