# generated using pymatgen
data_Tb5EuYPtI12
_symmetry_space_group_name_H-M   'P 1'
_cell_length_a   9.84894522
_cell_length_b   9.84962145
_cell_length_c   9.84806923
_cell_angle_alpha   106.66008841
_cell_angle_beta   106.64609735
_cell_angle_gamma   106.66971937
_symmetry_Int_Tables_number   1
_chemical_formula_structural   Tb5EuYPtI12
_chemical_formula_sum   'Tb5 Eu1 Y1 Pt1 I12'
_cell_volume   802.91431403
_cell_formula_units_Z   1
loop_
 _symmetry_equiv_pos_site_id
 _symmetry_equiv_pos_as_xyz
  1  'x, y, z'
loop_
 _atom_site_type_symbol
 _atom_site_label
 _atom_site_symmetry_multiplicity
 _atom_site_fract_x
 _atom_site_fract_y
 _atom_site_fract_z
 _atom_site_occupancy
  Tb  Tb0  1  0.300725  0.097130  0.025053  1
  Tb  Tb1  1  0.024848  0.300631  0.097197  1
  Tb  Tb2  1  0.902750  0.975143  0.699080  1
  Tb  Tb3  1  0.699434  0.902887  0.975348  1
  Tb  Tb4  1  0.975243  0.699423  0.903100  1
  Eu  Eu5  1  0.500056  0.500080  0.500106  1
  Y  Y6  1  0.096978  0.024971  0.300325  1
  Pt  Pt7  1  0.999955  0.000026  0.999849  1
  I  I8  1  0.073750  0.678180  0.223317  1
  I  I9  1  0.222997  0.073545  0.677148  1
  I  I10  1  0.677894  0.223136  0.073741  1
  I  I11  1  0.926374  0.322085  0.776998  1
  I  I12  1  0.777358  0.926442  0.322090  1
  I  I13  1  0.322137  0.776895  0.926359  1
  I  I14  1  0.454181  0.142026  0.375546  1
  I  I15  1  0.375590  0.454679  0.142332  1
  I  I16  1  0.142188  0.375242  0.454643  1
  I  I17  1  0.545288  0.857697  0.624530  1
  I  I18  1  0.624440  0.545299  0.857771  1
  I  I19  1  0.857815  0.624482  0.545467  1
