# generated using pymatgen
data_Na2SrCdP2
_symmetry_space_group_name_H-M   'P 1'
_cell_length_a   4.48300700
_cell_length_b   7.51598900
_cell_length_c   8.53534800
_cell_angle_alpha   90.00000000
_cell_angle_beta   90.00000000
_cell_angle_gamma   90.00000000
_symmetry_Int_Tables_number   1
_chemical_formula_structural   Na2SrCdP2
_chemical_formula_sum   'Na4 Sr2 Cd2 P4'
_cell_volume   287.59198973
_cell_formula_units_Z   2
loop_
 _symmetry_equiv_pos_site_id
 _symmetry_equiv_pos_as_xyz
  1  'x, y, z'
loop_
 _atom_site_type_symbol
 _atom_site_label
 _atom_site_symmetry_multiplicity
 _atom_site_fract_x
 _atom_site_fract_y
 _atom_site_fract_z
 _atom_site_occupancy
  Na  Na0  1  0.500000  0.027663  0.417182  1
  Na  Na1  1  0.000000  0.357283  0.336929  1
  Na  Na2  1  0.500000  0.527663  0.582818  1
  Na  Na3  1  0.000000  0.857283  0.663071  1
  Sr  Sr4  1  0.000000  0.989647  0.062421  1
  Sr  Sr5  1  0.000000  0.489647  0.937579  1
  Cd  Cd6  1  0.500000  0.148191  0.806679  1
  Cd  Cd7  1  0.500000  0.648191  0.193321  1
  P  P8  1  0.000000  0.243025  0.657884  1
  P  P9  1  0.500000  0.279791  0.121603  1
  P  P10  1  0.000000  0.743025  0.342116  1
  P  P11  1  0.500000  0.779791  0.878397  1
