# generated using pymatgen
data_Pa4Ti3Nb3Si8
_symmetry_space_group_name_H-M   'P 1'
_cell_length_a   7.02029956
_cell_length_b   7.02042538
_cell_length_c   12.91223800
_cell_angle_alpha   90.08240465
_cell_angle_beta   89.97705818
_cell_angle_gamma   90.01062636
_symmetry_Int_Tables_number   1
_chemical_formula_structural   Pa4Ti3Nb3Si8
_chemical_formula_sum   'Pa8 Ti6 Nb6 Si16'
_cell_volume   636.38524683
_cell_formula_units_Z   2
loop_
 _symmetry_equiv_pos_site_id
 _symmetry_equiv_pos_as_xyz
  1  'x, y, z'
loop_
 _atom_site_type_symbol
 _atom_site_label
 _atom_site_symmetry_multiplicity
 _atom_site_fract_x
 _atom_site_fract_y
 _atom_site_fract_z
 _atom_site_occupancy
  Pa  Pa0  1  0.334076  0.001709  0.468383  1
  Pa  Pa1  1  0.497889  0.835315  0.717820  1
  Pa  Pa2  1  0.501846  0.164865  0.218777  1
  Pa  Pa3  1  0.834805  0.499090  0.281873  1
  Pa  Pa4  1  0.164264  0.501194  0.781617  1
  Pa  Pa5  1  0.662948  0.998259  0.968108  1
  Pa  Pa6  1  0.001209  0.335762  0.531835  1
  Pa  Pa7  1  0.999066  0.664963  0.032016  1
  Ti  Ti8  1  0.500797  0.343425  0.625136  1
  Ti  Ti9  1  0.657571  0.498977  0.874399  1
  Ti  Ti10  1  0.342688  0.501021  0.374450  1
  Ti  Ti11  1  0.842465  0.998664  0.375797  1
  Ti  Ti12  1  0.001500  0.157753  0.124657  1
  Ti  Ti13  1  0.999296  0.842551  0.624787  1
  Nb  Nb14  1  0.331321  0.330383  0.999940  1
  Nb  Nb15  1  0.169328  0.831584  0.250487  1
  Nb  Nb16  1  0.831794  0.168795  0.749903  1
  Nb  Nb17  1  0.668791  0.668291  0.500301  1
  Nb  Nb18  1  0.157722  0.998601  0.874540  1
  Nb  Nb19  1  0.501255  0.658599  0.125469  1
  Si  Si20  1  0.206691  0.126539  0.681973  1
  Si  Si21  1  0.375649  0.704000  0.932800  1
  Si  Si22  1  0.625169  0.294000  0.433211  1
  Si  Si23  1  0.707287  0.371254  0.065900  1
  Si  Si24  1  0.293986  0.625386  0.566268  1
  Si  Si25  1  0.796152  0.877382  0.184026  1
  Si  Si26  1  0.125060  0.205914  0.316358  1
  Si  Si27  1  0.871096  0.792090  0.815877  1
  Si  Si28  1  0.290012  0.959530  0.065327  1
  Si  Si29  1  0.541933  0.792076  0.315919  1
  Si  Si30  1  0.460110  0.211103  0.813695  1
  Si  Si31  1  0.790535  0.541504  0.685568  1
  Si  Si32  1  0.207624  0.457067  0.186344  1
  Si  Si33  1  0.708980  0.041020  0.564568  1
  Si  Si34  1  0.957274  0.292370  0.935968  1
  Si  Si35  1  0.041812  0.708964  0.435902  1
