# generated using pymatgen
data_Dy9Er3TcRu3
_symmetry_space_group_name_H-M   'P 1'
_cell_length_a   6.28664834
_cell_length_b   7.32622681
_cell_length_c   9.18099003
_cell_angle_alpha   89.99855849
_cell_angle_beta   90.07429701
_cell_angle_gamma   90.05037412
_symmetry_Int_Tables_number   1
_chemical_formula_structural   Dy9Er3TcRu3
_chemical_formula_sum   'Dy9 Er3 Tc1 Ru3'
_cell_volume   422.85211784
_cell_formula_units_Z   1
loop_
 _symmetry_equiv_pos_site_id
 _symmetry_equiv_pos_as_xyz
  1  'x, y, z'
loop_
 _atom_site_type_symbol
 _atom_site_label
 _atom_site_symmetry_multiplicity
 _atom_site_fract_x
 _atom_site_fract_y
 _atom_site_fract_z
 _atom_site_occupancy
  Dy  Dy0  1  0.331609  0.676854  0.065062  1
  Dy  Dy1  1  0.168082  0.176236  0.435408  1
  Dy  Dy2  1  0.668511  0.323419  0.564166  1
  Dy  Dy3  1  0.833370  0.823899  0.936332  1
  Dy  Dy4  1  0.668611  0.323040  0.935702  1
  Dy  Dy5  1  0.867250  0.539427  0.250407  1
  Dy  Dy6  1  0.630108  0.040548  0.250237  1
  Dy  Dy7  1  0.134006  0.459306  0.749679  1
  Dy  Dy8  1  0.365930  0.959453  0.749700  1
  Er  Er9  1  0.833252  0.823800  0.563459  1
  Er  Er10  1  0.332247  0.676560  0.435537  1
  Er  Er11  1  0.168178  0.176170  0.064660  1
  Tc  Tc12  1  0.040418  0.885427  0.250803  1
  Ru  Ru13  1  0.459104  0.384695  0.249778  1
  Ru  Ru14  1  0.959351  0.115859  0.750504  1
  Ru  Ru15  1  0.539973  0.615307  0.748567  1
