# generated using pymatgen
data_Nd3DyAu5
_symmetry_space_group_name_H-M   'P 1'
_cell_length_a   8.23772675
_cell_length_b   8.23772724
_cell_length_c   8.23772672
_cell_angle_alpha   65.64597054
_cell_angle_beta   65.64597078
_cell_angle_gamma   65.64594693
_symmetry_Int_Tables_number   1
_chemical_formula_structural   Nd3DyAu5
_chemical_formula_sum   'Nd6 Dy2 Au10'
_cell_volume   443.73608678
_cell_formula_units_Z   2
loop_
 _symmetry_equiv_pos_site_id
 _symmetry_equiv_pos_as_xyz
  1  'x, y, z'
loop_
 _atom_site_type_symbol
 _atom_site_label
 _atom_site_symmetry_multiplicity
 _atom_site_fract_x
 _atom_site_fract_y
 _atom_site_fract_z
 _atom_site_occupancy
  Nd  Nd0  1  0.892211  0.185080  0.621349  1
  Nd  Nd1  1  0.621349  0.892211  0.185080  1
  Nd  Nd2  1  0.185080  0.621349  0.892211  1
  Nd  Nd3  1  0.107789  0.814920  0.378651  1
  Nd  Nd4  1  0.378651  0.107789  0.814920  1
  Nd  Nd5  1  0.814920  0.378651  0.107789  1
  Dy  Dy6  1  0.657664  0.657664  0.657664  1
  Dy  Dy7  1  0.342336  0.342336  0.342336  1
  Au  Au8  1  0.000000  0.000000  0.000000  1
  Au  Au9  1  0.500000  0.500000  0.500000  1
  Au  Au10  1  0.805429  0.805429  0.805429  1
  Au  Au11  1  0.194571  0.194571  0.194571  1
  Au  Au12  1  0.940016  0.547365  0.319158  1
  Au  Au13  1  0.319158  0.940016  0.547365  1
  Au  Au14  1  0.547365  0.319158  0.940016  1
  Au  Au15  1  0.059984  0.452635  0.680842  1
  Au  Au16  1  0.680842  0.059984  0.452635  1
  Au  Au17  1  0.452635  0.680842  0.059984  1
