# generated using pymatgen
data_Th(CdAg2)2
_symmetry_space_group_name_H-M   'P 1'
_cell_length_a   5.86092108
_cell_length_b   5.86092045
_cell_length_c   5.86092170
_cell_angle_alpha   103.18662266
_cell_angle_beta   103.18662992
_cell_angle_gamma   122.93948211
_symmetry_Int_Tables_number   1
_chemical_formula_structural   Th(CdAg2)2
_chemical_formula_sum   'Th1 Cd2 Ag4'
_cell_volume   148.44324204
_cell_formula_units_Z   1
loop_
 _symmetry_equiv_pos_site_id
 _symmetry_equiv_pos_as_xyz
  1  'x, y, z'
loop_
 _atom_site_type_symbol
 _atom_site_label
 _atom_site_symmetry_multiplicity
 _atom_site_fract_x
 _atom_site_fract_y
 _atom_site_fract_z
 _atom_site_occupancy
  Th  Th0  1  0.000000  0.000000  0.000000  1
  Cd  Cd1  1  0.250000  0.750000  0.500000  1
  Cd  Cd2  1  0.750000  0.250000  0.500000  1
  Ag  Ag3  1  0.307553  0.307553  0.615106  1
  Ag  Ag4  1  0.692447  0.692447  0.384894  1
  Ag  Ag5  1  0.692447  0.307553  0.000000  1
  Ag  Ag6  1  0.307553  0.692447  0.000000  1
