# generated using pymatgen
data_Sc4Co5Si2Ni
_symmetry_space_group_name_H-M   'P 1'
_cell_length_a   5.02268000
_cell_length_b   5.02268055
_cell_length_c   7.51873300
_cell_angle_alpha   90.00000000
_cell_angle_beta   90.00000000
_cell_angle_gamma   119.85546795
_symmetry_Int_Tables_number   1
_chemical_formula_structural   Sc4Co5Si2Ni
_chemical_formula_sum   'Sc4 Co5 Si2 Ni1'
_cell_volume   164.50421404
_cell_formula_units_Z   1
loop_
 _symmetry_equiv_pos_site_id
 _symmetry_equiv_pos_as_xyz
  1  'x, y, z'
loop_
 _atom_site_type_symbol
 _atom_site_label
 _atom_site_symmetry_multiplicity
 _atom_site_fract_x
 _atom_site_fract_y
 _atom_site_fract_z
 _atom_site_occupancy
  Sc  Sc0  1  0.332988  0.667012  0.560232  1
  Sc  Sc1  1  0.665580  0.334420  0.438455  1
  Sc  Sc2  1  0.665580  0.334420  0.061545  1
  Sc  Sc3  1  0.332988  0.667012  0.939768  1
  Co  Co4  1  0.659846  0.829302  0.250000  1
  Co  Co5  1  0.173506  0.826494  0.250000  1
  Co  Co6  1  0.827569  0.662997  0.750000  1
  Co  Co7  1  0.170698  0.340154  0.250000  1
  Co  Co8  1  0.337003  0.172431  0.750000  1
  Si  Si9  1  0.002219  0.997781  0.497305  1
  Si  Si10  1  0.002219  0.997781  0.002695  1
  Ni  Ni11  1  0.829804  0.170196  0.750000  1
