# generated using pymatgen
data_Ti(Nb3Si2)3
_symmetry_space_group_name_H-M   'P 1'
_cell_length_a   7.57275608
_cell_length_b   7.57275575
_cell_length_c   7.57275522
_cell_angle_alpha   128.38753527
_cell_angle_beta   128.38752720
_cell_angle_gamma   75.99807689
_symmetry_Int_Tables_number   1
_chemical_formula_structural   Ti(Nb3Si2)3
_chemical_formula_sum   'Ti1 Nb9 Si6'
_cell_volume   259.41494146
_cell_formula_units_Z   1
loop_
 _symmetry_equiv_pos_site_id
 _symmetry_equiv_pos_as_xyz
  1  'x, y, z'
loop_
 _atom_site_type_symbol
 _atom_site_label
 _atom_site_symmetry_multiplicity
 _atom_site_fract_x
 _atom_site_fract_y
 _atom_site_fract_z
 _atom_site_occupancy
  Ti  Ti0  1  0.000000  0.000000  0.000000  1
  Nb  Nb1  1  0.017511  0.184193  0.499276  1
  Nb  Nb2  1  0.518234  0.017511  0.833318  1
  Nb  Nb3  1  0.184193  0.684917  0.166682  1
  Nb  Nb4  1  0.481766  0.982489  0.166682  1
  Nb  Nb5  1  0.684917  0.518234  0.500724  1
  Nb  Nb6  1  0.982489  0.815807  0.500724  1
  Nb  Nb7  1  0.315083  0.481766  0.499276  1
  Nb  Nb8  1  0.815807  0.315083  0.833318  1
  Nb  Nb9  1  0.500000  0.500000  0.000000  1
  Si  Si10  1  0.126804  0.632546  0.759350  1
  Si  Si11  1  0.632546  0.873196  0.505742  1
  Si  Si12  1  0.367454  0.126804  0.494258  1
  Si  Si13  1  0.873196  0.367454  0.240650  1
  Si  Si14  1  0.750611  0.750611  0.000000  1
  Si  Si15  1  0.249389  0.249389  0.000000  1
