# generated using pymatgen
data_Hf2Tc2B4Os3
_symmetry_space_group_name_H-M   'P 1'
_cell_length_a   8.67865416
_cell_length_b   3.07897800
_cell_length_c   10.05195001
_cell_angle_alpha   89.99996452
_cell_angle_beta   90.00880822
_cell_angle_gamma   89.99977769
_symmetry_Int_Tables_number   1
_chemical_formula_structural   Hf2Tc2B4Os3
_chemical_formula_sum   'Hf4 Tc4 B8 Os6'
_cell_volume   268.60202553
_cell_formula_units_Z   2
loop_
 _symmetry_equiv_pos_site_id
 _symmetry_equiv_pos_as_xyz
  1  'x, y, z'
loop_
 _atom_site_type_symbol
 _atom_site_label
 _atom_site_symmetry_multiplicity
 _atom_site_fract_x
 _atom_site_fract_y
 _atom_site_fract_z
 _atom_site_occupancy
  Hf  Hf0  1  0.160249  0.500000  0.681737  1
  Hf  Hf1  1  0.839751  0.500000  0.318263  1
  Hf  Hf2  1  0.660271  0.499994  0.818320  1
  Hf  Hf3  1  0.339729  0.500006  0.181680  1
  Tc  Tc4  1  0.161119  0.000003  0.952393  1
  Tc  Tc5  1  0.838881  0.999997  0.047607  1
  Tc  Tc6  1  0.661074  0.999994  0.547603  1
  Tc  Tc7  1  0.338926  0.000006  0.452397  1
  B  B8  1  0.349684  0.500000  0.899825  1
  B  B9  1  0.650316  0.500000  0.100175  1
  B  B10  1  0.465335  0.500000  0.586933  1
  B  B11  1  0.534665  0.500000  0.413067  1
  B  B12  1  0.849677  0.499997  0.600178  1
  B  B13  1  0.150323  0.500003  0.399822  1
  B  B14  1  0.965298  0.500000  0.913080  1
  B  B15  1  0.034702  0.500000  0.086920  1
  Os  Os16  1  0.407857  0.999997  0.738208  1
  Os  Os17  1  0.592143  0.000003  0.261792  1
  Os  Os18  1  0.907800  0.999997  0.761740  1
  Os  Os19  1  0.092200  0.000003  0.238260  1
  Os  Os20  1  0.500000  0.000000  0.000000  1
  Os  Os21  1  0.000000  0.000000  0.500000  1
