# generated using pymatgen
data_Y3In3HgPd2
_symmetry_space_group_name_H-M   'P 1'
_cell_length_a   7.92127900
_cell_length_b   7.92127888
_cell_length_c   3.81909100
_cell_angle_alpha   90.00000000
_cell_angle_beta   90.00000000
_cell_angle_gamma   119.99999631
_symmetry_Int_Tables_number   1
_chemical_formula_structural   Y3In3HgPd2
_chemical_formula_sum   'Y3 In3 Hg1 Pd2'
_cell_volume   207.53018272
_cell_formula_units_Z   1
loop_
 _symmetry_equiv_pos_site_id
 _symmetry_equiv_pos_as_xyz
  1  'x, y, z'
loop_
 _atom_site_type_symbol
 _atom_site_label
 _atom_site_symmetry_multiplicity
 _atom_site_fract_x
 _atom_site_fract_y
 _atom_site_fract_z
 _atom_site_occupancy
  Y  Y0  1  0.393959  0.411958  0.500000  1
  Y  Y1  1  0.588042  0.982001  0.500000  1
  Y  Y2  1  0.017999  0.606041  0.500000  1
  In  In3  1  0.739818  0.744505  0.000000  1
  In  In4  1  0.255495  0.995313  0.000000  1
  In  In5  1  0.004687  0.260182  0.000000  1
  Hg  Hg6  1  0.666667  0.333333  0.000000  1
  Pd  Pd7  1  0.333333  0.666667  0.000000  1
  Pd  Pd8  1  0.000000  0.000000  0.500000  1
