# generated using pymatgen
data_CaDyB4Ir5
_symmetry_space_group_name_H-M   'P 1'
_cell_length_a   7.51696849
_cell_length_b   6.33090716
_cell_length_c   5.62540706
_cell_angle_alpha   77.66123872
_cell_angle_beta   55.36218124
_cell_angle_gamma   46.97658961
_symmetry_Int_Tables_number   1
_chemical_formula_structural   CaDyB4Ir5
_chemical_formula_sum   'Ca1 Dy1 B4 Ir5'
_cell_volume   154.13277971
_cell_formula_units_Z   1
loop_
 _symmetry_equiv_pos_site_id
 _symmetry_equiv_pos_as_xyz
  1  'x, y, z'
loop_
 _atom_site_type_symbol
 _atom_site_label
 _atom_site_symmetry_multiplicity
 _atom_site_fract_x
 _atom_site_fract_y
 _atom_site_fract_z
 _atom_site_occupancy
  Ca  Ca0  1  0.857266  0.857267  0.142734  1
  Dy  Dy1  1  0.136528  0.136529  0.863472  1
  B  B2  1  0.475429  0.790475  0.209526  1
  B  B3  1  0.211949  0.525524  0.474477  1
  B  B4  1  0.790474  0.475430  0.524571  1
  B  B5  1  0.525523  0.211950  0.788051  1
  Ir  Ir6  1  0.499872  0.499873  0.000127  1
  Ir  Ir7  1  0.250412  0.250413  0.249588  1
  Ir  Ir8  1  0.999873  0.999873  0.500127  1
  Ir  Ir9  1  0.502255  0.502256  0.497745  1
  Ir  Ir10  1  0.750411  0.750413  0.749589  1
