# generated using pymatgen
data_Na3TbCo4(P3Rh4)4
_symmetry_space_group_name_H-M   'P 1'
_cell_length_a   3.81281700
_cell_length_b   10.78389731
_cell_length_c   12.45326293
_cell_angle_alpha   90.15119226
_cell_angle_beta   90.00000000
_cell_angle_gamma   90.00000000
_symmetry_Int_Tables_number   1
_chemical_formula_structural   Na3TbCo4(P3Rh4)4
_chemical_formula_sum   'Na3 Tb1 Co4 P12 Rh16'
_cell_volume   512.03936518
_cell_formula_units_Z   1
loop_
 _symmetry_equiv_pos_site_id
 _symmetry_equiv_pos_as_xyz
  1  'x, y, z'
loop_
 _atom_site_type_symbol
 _atom_site_label
 _atom_site_symmetry_multiplicity
 _atom_site_fract_x
 _atom_site_fract_y
 _atom_site_fract_z
 _atom_site_occupancy
  Na  Na0  1  0.250000  0.584719  0.708909  1
  Na  Na1  1  0.250000  0.914927  0.208357  1
  Na  Na2  1  0.750000  0.414877  0.291468  1
  Tb  Tb3  1  0.750000  0.085209  0.792667  1
  Co  Co4  1  0.250000  0.465996  0.934560  1
  Co  Co5  1  0.250000  0.034890  0.434342  1
  Co  Co6  1  0.750000  0.534591  0.065818  1
  Co  Co7  1  0.750000  0.962893  0.565961  1
  P  P8  1  0.250000  0.424480  0.105682  1
  P  P9  1  0.250000  0.074909  0.604526  1
  P  P10  1  0.750000  0.576146  0.894578  1
  P  P11  1  0.750000  0.925418  0.393681  1
  P  P12  1  0.250000  0.275629  0.872519  1
  P  P13  1  0.250000  0.228101  0.372937  1
  P  P14  1  0.750000  0.727365  0.127328  1
  P  P15  1  0.750000  0.769556  0.626271  1
  P  P16  1  0.250000  0.600445  0.388829  1
  P  P17  1  0.250000  0.898185  0.889659  1
  P  P18  1  0.750000  0.401135  0.609870  1
  P  P19  1  0.750000  0.100272  0.113334  1
  Rh  Rh20  1  0.250000  0.715215  0.987493  1
  Rh  Rh21  1  0.250000  0.783799  0.489038  1
  Rh  Rh22  1  0.750000  0.282930  0.012118  1
  Rh  Rh23  1  0.750000  0.215529  0.513785  1
  Rh  Rh24  1  0.250000  0.408172  0.485487  1
  Rh  Rh25  1  0.250000  0.093168  0.981753  1
  Rh  Rh26  1  0.750000  0.591236  0.514166  1
  Rh  Rh27  1  0.750000  0.909594  0.016549  1
  Rh  Rh28  1  0.250000  0.227312  0.177985  1
  Rh  Rh29  1  0.250000  0.269228  0.678917  1
  Rh  Rh30  1  0.750000  0.771950  0.820434  1
  Rh  Rh31  1  0.750000  0.729649  0.321489  1
  Rh  Rh32  1  0.250000  0.887678  0.698371  1
  Rh  Rh33  1  0.250000  0.613428  0.199493  1
  Rh  Rh34  1  0.750000  0.114140  0.301754  1
  Rh  Rh35  1  0.750000  0.387227  0.799873  1
