# generated using pymatgen
data_Al10GaTc3Os
_symmetry_space_group_name_H-M   'P 1'
_cell_length_a   5.19669104
_cell_length_b   5.17310796
_cell_length_c   9.02251500
_cell_angle_alpha   105.06454428
_cell_angle_beta   90.46621567
_cell_angle_gamma   100.30976605
_symmetry_Int_Tables_number   1
_chemical_formula_structural   Al10GaTc3Os
_chemical_formula_sum   'Al10 Ga1 Tc3 Os1'
_cell_volume   230.05387317
_cell_formula_units_Z   1
loop_
 _symmetry_equiv_pos_site_id
 _symmetry_equiv_pos_as_xyz
  1  'x, y, z'
loop_
 _atom_site_type_symbol
 _atom_site_label
 _atom_site_symmetry_multiplicity
 _atom_site_fract_x
 _atom_site_fract_y
 _atom_site_fract_z
 _atom_site_occupancy
  Al  Al0  1  0.798946  0.256470  0.636401  1
  Al  Al1  1  0.202624  0.745688  0.361976  1
  Al  Al2  1  0.150568  0.466618  0.871777  1
  Al  Al3  1  0.849474  0.532869  0.129237  1
  Al  Al4  1  0.499139  0.099527  0.873709  1
  Al  Al5  1  0.501118  0.899377  0.127361  1
  Al  Al6  1  0.567721  0.319739  0.376782  1
  Al  Al7  1  0.433708  0.679711  0.622048  1
  Al  Al8  1  0.941045  0.799037  0.665170  1
  Al  Al9  1  0.055129  0.202673  0.333702  1
  Ga  Ga10  1  0.999065  0.999604  0.000894  1
  Tc  Tc11  1  0.723004  0.847822  0.400591  1
  Tc  Tc12  1  0.662460  0.608719  0.864024  1
  Tc  Tc13  1  0.338028  0.387955  0.133831  1
  Os  Os14  1  0.277972  0.154191  0.602497  1
