# generated using pymatgen
data_ErSc7Ti12Si7Ge9
_symmetry_space_group_name_H-M   'P 1'
_cell_length_a   6.96722351
_cell_length_b   6.97979340
_cell_length_c   12.74490782
_cell_angle_alpha   89.87894115
_cell_angle_beta   90.04500548
_cell_angle_gamma   90.02062337
_symmetry_Int_Tables_number   1
_chemical_formula_structural   ErSc7Ti12Si7Ge9
_chemical_formula_sum   'Er1 Sc7 Ti12 Si7 Ge9'
_cell_volume   619.78045794
_cell_formula_units_Z   1
loop_
 _symmetry_equiv_pos_site_id
 _symmetry_equiv_pos_as_xyz
  1  'x, y, z'
loop_
 _atom_site_type_symbol
 _atom_site_label
 _atom_site_symmetry_multiplicity
 _atom_site_fract_x
 _atom_site_fract_y
 _atom_site_fract_z
 _atom_site_occupancy
  Er  Er0  1  0.998038  0.657828  0.032242  1
  Sc  Sc1  1  0.343642  0.997579  0.467632  1
  Sc  Sc2  1  0.502493  0.844011  0.716364  1
  Sc  Sc3  1  0.499184  0.159838  0.220501  1
  Sc  Sc4  1  0.844073  0.502604  0.283783  1
  Sc  Sc5  1  0.155977  0.496323  0.781842  1
  Sc  Sc6  1  0.657603  0.003621  0.965254  1
  Sc  Sc7  1  0.997532  0.343849  0.532708  1
  Ti  Ti8  1  0.324549  0.326439  0.999181  1
  Ti  Ti9  1  0.176099  0.823080  0.252491  1
  Ti  Ti10  1  0.823343  0.176238  0.748810  1
  Ti  Ti11  1  0.676091  0.676523  0.500132  1
  Ti  Ti12  1  0.153959  0.008817  0.874707  1
  Ti  Ti13  1  0.490561  0.649910  0.127981  1
  Ti  Ti14  1  0.510599  0.347784  0.626860  1
  Ti  Ti15  1  0.653473  0.486283  0.871055  1
  Ti  Ti16  1  0.347974  0.510748  0.373879  1
  Ti  Ti17  1  0.847680  0.989708  0.378835  1
  Ti  Ti18  1  0.007140  0.155630  0.124161  1
  Ti  Ti19  1  0.989156  0.847681  0.621856  1
  Si  Si20  1  0.542933  0.797285  0.317889  1
  Si  Si21  1  0.455540  0.202058  0.816126  1
  Si  Si22  1  0.797071  0.543721  0.682299  1
  Si  Si23  1  0.206017  0.453454  0.185384  1
  Si  Si24  1  0.702657  0.044101  0.566769  1
  Si  Si25  1  0.956381  0.290954  0.931725  1
  Si  Si26  1  0.043661  0.702756  0.433793  1
  Ge  Ge27  1  0.202371  0.134220  0.675922  1
  Ge  Ge28  1  0.370262  0.699765  0.923501  1
  Ge  Ge29  1  0.634583  0.298028  0.427439  1
  Ge  Ge30  1  0.698526  0.361896  0.072493  1
  Ge  Ge31  1  0.297920  0.634390  0.573343  1
  Ge  Ge32  1  0.793903  0.870478  0.180331  1
  Ge  Ge33  1  0.134179  0.201780  0.323850  1
  Ge  Ge34  1  0.865084  0.799004  0.820166  1
  Ge  Ge35  1  0.299749  0.961616  0.068699  1
