# generated using pymatgen
data_Tb8TmLuPb6
_symmetry_space_group_name_H-M   'P 1'
_cell_length_a   9.07278300
_cell_length_b   9.07278276
_cell_length_c   6.64683400
_cell_angle_alpha   90.00000000
_cell_angle_beta   90.00000000
_cell_angle_gamma   120.00000451
_symmetry_Int_Tables_number   1
_chemical_formula_structural   Tb8TmLuPb6
_chemical_formula_sum   'Tb8 Tm1 Lu1 Pb6'
_cell_volume   473.83428413
_cell_formula_units_Z   1
loop_
 _symmetry_equiv_pos_site_id
 _symmetry_equiv_pos_as_xyz
  1  'x, y, z'
loop_
 _atom_site_type_symbol
 _atom_site_label
 _atom_site_symmetry_multiplicity
 _atom_site_fract_x
 _atom_site_fract_y
 _atom_site_fract_z
 _atom_site_occupancy
  Tb  Tb0  1  0.333333  0.666667  0.500000  1
  Tb  Tb1  1  0.666667  0.333333  0.500000  1
  Tb  Tb2  1  0.761282  0.761333  0.750790  1
  Tb  Tb3  1  0.238667  0.999949  0.750790  1
  Tb  Tb4  1  0.000051  0.238718  0.750790  1
  Tb  Tb5  1  0.238667  0.238718  0.249210  1
  Tb  Tb6  1  0.761282  0.999949  0.249210  1
  Tb  Tb7  1  0.000051  0.761333  0.249210  1
  Tm  Tm8  1  0.666667  0.333333  0.000000  1
  Lu  Lu9  1  0.333333  0.666667  0.000000  1
  Pb  Pb10  1  0.395238  0.395419  0.752561  1
  Pb  Pb11  1  0.604581  0.999819  0.752561  1
  Pb  Pb12  1  0.000181  0.604762  0.752561  1
  Pb  Pb13  1  0.604581  0.604762  0.247439  1
  Pb  Pb14  1  0.395238  0.999819  0.247439  1
  Pb  Pb15  1  0.000181  0.395419  0.247439  1
