# generated using pymatgen
data_Y2Hf2IrPt
_symmetry_space_group_name_H-M   'P 1'
_cell_length_a   4.66703100
_cell_length_b   7.06950400
_cell_length_c   8.22938000
_cell_angle_alpha   90.00000000
_cell_angle_beta   90.00000000
_cell_angle_gamma   90.00000000
_symmetry_Int_Tables_number   1
_chemical_formula_structural   Y2Hf2IrPt
_chemical_formula_sum   'Y4 Hf4 Ir2 Pt2'
_cell_volume   271.51682525
_cell_formula_units_Z   2
loop_
 _symmetry_equiv_pos_site_id
 _symmetry_equiv_pos_as_xyz
  1  'x, y, z'
loop_
 _atom_site_type_symbol
 _atom_site_label
 _atom_site_symmetry_multiplicity
 _atom_site_fract_x
 _atom_site_fract_y
 _atom_site_fract_z
 _atom_site_occupancy
  Y  Y0  1  0.250000  0.984566  0.323469  1
  Y  Y1  1  0.250000  0.484566  0.176531  1
  Y  Y2  1  0.750000  0.017050  0.677719  1
  Y  Y3  1  0.750000  0.517050  0.822281  1
  Hf  Hf4  1  0.250000  0.355655  0.571887  1
  Hf  Hf5  1  0.250000  0.855655  0.928113  1
  Hf  Hf6  1  0.750000  0.640193  0.421604  1
  Hf  Hf7  1  0.750000  0.140193  0.078396  1
  Ir  Ir8  1  0.750000  0.773566  0.092657  1
  Ir  Ir9  1  0.750000  0.273566  0.407343  1
  Pt  Pt10  1  0.250000  0.228971  0.903299  1
  Pt  Pt11  1  0.250000  0.728971  0.596701  1
