# generated using pymatgen
data_La8Pr2AlSi4Ge
_symmetry_space_group_name_H-M   'P 1'
_cell_length_a   7.94359889
_cell_length_b   9.20588210
_cell_length_c   7.93093989
_cell_angle_alpha   115.54139110
_cell_angle_beta   89.94569465
_cell_angle_gamma   115.58501122
_symmetry_Int_Tables_number   1
_chemical_formula_structural   La8Pr2AlSi4Ge
_chemical_formula_sum   'La8 Pr2 Al1 Si4 Ge1'
_cell_volume   459.59158345
_cell_formula_units_Z   1
loop_
 _symmetry_equiv_pos_site_id
 _symmetry_equiv_pos_as_xyz
  1  'x, y, z'
loop_
 _atom_site_type_symbol
 _atom_site_label
 _atom_site_symmetry_multiplicity
 _atom_site_fract_x
 _atom_site_fract_y
 _atom_site_fract_z
 _atom_site_occupancy
  La  La0  1  0.975540  0.951080  0.975540  1
  La  La1  1  0.524477  0.048955  0.524477  1
  La  La2  1  0.526593  0.715865  0.673282  1
  La  La3  1  0.189274  0.715865  0.042585  1
  La  La4  1  0.673620  0.716821  0.189411  1
  La  La5  1  0.043203  0.716821  0.527411  1
  La  La6  1  0.456580  0.283917  0.311524  1
  La  La7  1  0.827335  0.283917  0.972392  1
  Pr  Pr8  1  0.309098  0.282269  0.825832  1
  Pr  Pr9  1  0.973169  0.282269  0.456435  1
  Al  Al10  1  0.749570  0.499139  0.749570  1
  Si  Si11  1  0.887376  0.001409  0.614397  1
  Si  Si12  1  0.114032  0.001409  0.387011  1
  Si  Si13  1  0.614606  0.000776  0.114750  1
  Si  Si14  1  0.386170  0.000776  0.886026  1
  Ge  Ge15  1  0.249356  0.498711  0.249356  1
