# generated using pymatgen
data_Y4TmTlGa2
_symmetry_space_group_name_H-M   'P 1'
_cell_length_a   7.86374500
_cell_length_b   7.86374500
_cell_length_c   13.96056600
_cell_angle_alpha   90.00000000
_cell_angle_beta   90.00000000
_cell_angle_gamma   90.00000000
_symmetry_Int_Tables_number   1
_chemical_formula_structural   Y4TmTlGa2
_chemical_formula_sum   'Y16 Tm4 Tl4 Ga8'
_cell_volume   863.30025712
_cell_formula_units_Z   4
loop_
 _symmetry_equiv_pos_site_id
 _symmetry_equiv_pos_as_xyz
  1  'x, y, z'
loop_
 _atom_site_type_symbol
 _atom_site_label
 _atom_site_symmetry_multiplicity
 _atom_site_fract_x
 _atom_site_fract_y
 _atom_site_fract_z
 _atom_site_occupancy
  Y  Y0  1  0.836093  0.834522  0.894001  1
  Y  Y1  1  0.165478  0.163907  0.605999  1
  Y  Y2  1  0.836093  0.165478  0.394001  1
  Y  Y3  1  0.163907  0.834522  0.394001  1
  Y  Y4  1  0.334522  0.336093  0.394001  1
  Y  Y5  1  0.834522  0.163907  0.105999  1
  Y  Y6  1  0.334522  0.663907  0.894001  1
  Y  Y7  1  0.165478  0.836093  0.105999  1
  Y  Y8  1  0.336093  0.665478  0.605999  1
  Y  Y9  1  0.663907  0.665478  0.105999  1
  Y  Y10  1  0.663907  0.334522  0.605999  1
  Y  Y11  1  0.834522  0.836093  0.605999  1
  Y  Y12  1  0.665478  0.336093  0.894001  1
  Y  Y13  1  0.163907  0.165478  0.894001  1
  Y  Y14  1  0.665478  0.663907  0.394001  1
  Y  Y15  1  0.336093  0.334522  0.105999  1
  Tm  Tm16  1  0.500000  0.000000  0.751390  1
  Tm  Tm17  1  0.000000  0.500000  0.248610  1
  Tm  Tm18  1  0.000000  0.500000  0.748610  1
  Tm  Tm19  1  0.500000  0.000000  0.251390  1
  Tl  Tl20  1  0.000000  0.500000  0.000103  1
  Tl  Tl21  1  0.500000  0.000000  0.999897  1
  Tl  Tl22  1  0.500000  0.000000  0.499897  1
  Tl  Tl23  1  0.000000  0.500000  0.500103  1
  Ga  Ga24  1  0.628557  0.371443  0.250000  1
  Ga  Ga25  1  0.371443  0.628557  0.250000  1
  Ga  Ga26  1  0.128557  0.128557  0.250000  1
  Ga  Ga27  1  0.371443  0.371443  0.750000  1
  Ga  Ga28  1  0.128557  0.871443  0.750000  1
  Ga  Ga29  1  0.871443  0.871443  0.250000  1
  Ga  Ga30  1  0.628557  0.628557  0.750000  1
  Ga  Ga31  1  0.871443  0.128557  0.750000  1
