# generated using pymatgen
data_Pa4Al24Os2Pt7
_symmetry_space_group_name_H-M   'P 1'
_cell_length_a   7.56719979
_cell_length_b   7.63304576
_cell_length_c   13.05883796
_cell_angle_alpha   84.39669044
_cell_angle_beta   78.87278737
_cell_angle_gamma   59.64297659
_symmetry_Int_Tables_number   1
_chemical_formula_structural   Pa4Al24Os2Pt7
_chemical_formula_sum   'Pa4 Al24 Os2 Pt7'
_cell_volume   638.63478746
_cell_formula_units_Z   1
loop_
 _symmetry_equiv_pos_site_id
 _symmetry_equiv_pos_as_xyz
  1  'x, y, z'
loop_
 _atom_site_type_symbol
 _atom_site_label
 _atom_site_symmetry_multiplicity
 _atom_site_fract_x
 _atom_site_fract_y
 _atom_site_fract_z
 _atom_site_occupancy
  Pa  Pa0  1  0.380203  0.182421  0.801394  1
  Pa  Pa1  1  0.610441  0.827721  0.192098  1
  Pa  Pa2  1  0.752455  0.496947  0.801273  1
  Pa  Pa3  1  0.261840  0.501250  0.193137  1
  Al  Al4  1  0.683738  0.835159  0.943167  1
  Al  Al5  1  0.312906  0.169494  0.053200  1
  Al  Al6  1  0.145726  0.820093  0.563003  1
  Al  Al7  1  0.854383  0.165342  0.441426  1
  Al  Al8  1  0.476440  0.170196  0.558380  1
  Al  Al9  1  0.516448  0.833612  0.443323  1
  Al  Al10  1  0.214350  0.164240  0.329805  1
  Al  Al11  1  0.787265  0.835282  0.668611  1
  Al  Al12  1  0.433817  0.511492  0.668848  1
  Al  Al13  1  0.564355  0.489102  0.329768  1
  Al  Al14  1  0.113310  0.150832  0.659520  1
  Al  Al15  1  0.889562  0.843449  0.333248  1
  Al  Al16  1  0.353790  0.499661  0.943585  1
  Al  Al17  1  0.651443  0.500159  0.053469  1
  Al  Al18  1  0.014683  0.171924  0.955585  1
  Al  Al19  1  0.986202  0.829416  0.042551  1
  Al  Al20  1  0.185220  0.497917  0.446999  1
  Al  Al21  1  0.819106  0.498641  0.557717  1
  Al  Al22  1  0.736949  0.161259  0.182343  1
  Al  Al23  1  0.264542  0.841130  0.819417  1
  Al  Al24  1  0.060019  0.641211  0.819999  1
  Al  Al25  1  0.939938  0.364978  0.181477  1
  Al  Al26  1  0.853970  0.046908  0.819018  1
  Al  Al27  1  0.143124  0.957208  0.182805  1
  Os  Os28  1  0.116858  0.483255  0.649479  1
  Os  Os29  1  0.999208  0.501625  0.001331  1
  Pt  Pt30  1  0.879293  0.510750  0.357785  1
  Pt  Pt31  1  0.654909  0.172701  0.002140  1
  Pt  Pt32  1  0.343924  0.828232  0.001986  1
  Pt  Pt33  1  0.536225  0.166214  0.359437  1
  Pt  Pt34  1  0.465724  0.830389  0.641212  1
  Pt  Pt35  1  0.774578  0.176155  0.640133  1
  Pt  Pt36  1  0.223057  0.823634  0.361332  1
