# generated using pymatgen
data_Sr2Li5AgP5
_symmetry_space_group_name_H-M   'P 1'
_cell_length_a   4.26302187
_cell_length_b   4.26302309
_cell_length_c   13.49717255
_cell_angle_alpha   99.08634954
_cell_angle_beta   99.08635261
_cell_angle_gamma   90.00002162
_symmetry_Int_Tables_number   1
_chemical_formula_structural   Sr2Li5AgP5
_chemical_formula_sum   'Sr2 Li5 Ag1 P5'
_cell_volume   239.09332060
_cell_formula_units_Z   1
loop_
 _symmetry_equiv_pos_site_id
 _symmetry_equiv_pos_as_xyz
  1  'x, y, z'
loop_
 _atom_site_type_symbol
 _atom_site_label
 _atom_site_symmetry_multiplicity
 _atom_site_fract_x
 _atom_site_fract_y
 _atom_site_fract_z
 _atom_site_occupancy
  Sr  Sr0  1  0.644699  0.644699  0.289399  1
  Sr  Sr1  1  0.355301  0.355301  0.710601  1
  Li  Li2  1  0.951234  0.451234  0.902470  1
  Li  Li3  1  0.451082  0.951082  0.902164  1
  Li  Li4  1  0.048918  0.548918  0.097836  1
  Li  Li5  1  0.548766  0.048766  0.097530  1
  Li  Li6  1  0.250000  0.750000  0.500000  1
  Ag  Ag7  1  0.750000  0.250000  0.500000  1
  P  P8  1  0.500000  0.500000  0.000000  1
  P  P9  1  0.890333  0.890333  0.780665  1
  P  P10  1  0.109667  0.109667  0.219335  1
  P  P11  1  0.805919  0.805919  0.611838  1
  P  P12  1  0.194081  0.194081  0.388162  1
