# generated using pymatgen
data_Nd3ZrCd2Ir3
_symmetry_space_group_name_H-M   'P 1'
_cell_length_a   7.37880200
_cell_length_b   7.57258453
_cell_length_c   4.26314200
_cell_angle_alpha   90.00000000
_cell_angle_beta   90.00000000
_cell_angle_gamma   119.15703021
_symmetry_Int_Tables_number   1
_chemical_formula_structural   Nd3ZrCd2Ir3
_chemical_formula_sum   'Nd3 Zr1 Cd2 Ir3'
_cell_volume   208.02576773
_cell_formula_units_Z   1
loop_
 _symmetry_equiv_pos_site_id
 _symmetry_equiv_pos_as_xyz
  1  'x, y, z'
loop_
 _atom_site_type_symbol
 _atom_site_label
 _atom_site_symmetry_multiplicity
 _atom_site_fract_x
 _atom_site_fract_y
 _atom_site_fract_z
 _atom_site_occupancy
  Nd  Nd0  1  0.605158  0.000000  0.000000  1
  Nd  Nd1  1  0.992828  0.578770  0.000000  1
  Nd  Nd2  1  0.414059  0.421230  0.000000  1
  Zr  Zr3  1  0.245505  0.000000  0.500000  1
  Cd  Cd4  1  0.000879  0.248325  0.500000  1
  Cd  Cd5  1  0.752554  0.751675  0.500000  1
  Ir  Ir6  1  0.321094  0.684107  0.500000  1
  Ir  Ir7  1  0.636988  0.315893  0.500000  1
  Ir  Ir8  1  0.030936  0.000000  0.000000  1
