# generated using pymatgen
data_Ce3PaIr3Rh
_symmetry_space_group_name_H-M   'P 1'
_cell_length_a   3.85670200
_cell_length_b   4.07940400
_cell_length_c   11.21886900
_cell_angle_alpha   90.00000000
_cell_angle_beta   90.00000000
_cell_angle_gamma   90.00000000
_symmetry_Int_Tables_number   1
_chemical_formula_structural   Ce3PaIr3Rh
_chemical_formula_sum   'Ce3 Pa1 Ir3 Rh1'
_cell_volume   176.50697717
_cell_formula_units_Z   1
loop_
 _symmetry_equiv_pos_site_id
 _symmetry_equiv_pos_as_xyz
  1  'x, y, z'
loop_
 _atom_site_type_symbol
 _atom_site_label
 _atom_site_symmetry_multiplicity
 _atom_site_fract_x
 _atom_site_fract_y
 _atom_site_fract_z
 _atom_site_occupancy
  Ce  Ce0  1  0.000000  0.750000  0.862969  1
  Ce  Ce1  1  0.000000  0.250000  0.138060  1
  Ce  Ce2  1  0.500000  0.250000  0.637422  1
  Pa  Pa3  1  0.500000  0.750000  0.362570  1
  Ir  Ir4  1  0.500000  0.750000  0.105227  1
  Ir  Ir5  1  0.000000  0.750000  0.590490  1
  Ir  Ir6  1  0.000000  0.250000  0.398800  1
  Rh  Rh7  1  0.500000  0.250000  0.904462  1
