# generated using pymatgen
data_Tb2U2Ga12Tc
_symmetry_space_group_name_H-M   'P 1'
_cell_length_a   7.46733346
_cell_length_b   7.48457702
_cell_length_c   7.48457734
_cell_angle_alpha   109.71068458
_cell_angle_beta   109.39810196
_cell_angle_gamma   109.39809423
_symmetry_Int_Tables_number   1
_chemical_formula_structural   Tb2U2Ga12Tc
_chemical_formula_sum   'Tb2 U2 Ga12 Tc1'
_cell_volume   321.64316298
_cell_formula_units_Z   1
loop_
 _symmetry_equiv_pos_site_id
 _symmetry_equiv_pos_as_xyz
  1  'x, y, z'
loop_
 _atom_site_type_symbol
 _atom_site_label
 _atom_site_symmetry_multiplicity
 _atom_site_fract_x
 _atom_site_fract_y
 _atom_site_fract_z
 _atom_site_occupancy
  Tb  Tb0  1  0.000000  0.000000  0.500000  1
  Tb  Tb1  1  0.000000  0.500000  0.000000  1
  U  U2  1  0.500000  0.000000  0.000000  1
  U  U3  1  0.500000  0.500000  0.500000  1
  Ga  Ga4  1  0.294686  0.003139  0.291548  1
  Ga  Ga5  1  0.500000  0.250000  0.750000  1
  Ga  Ga6  1  0.000000  0.708281  0.708281  1
  Ga  Ga7  1  0.705314  0.996861  0.708452  1
  Ga  Ga8  1  0.748635  0.497143  0.251493  1
  Ga  Ga9  1  0.251365  0.748507  0.502857  1
  Ga  Ga10  1  0.748635  0.251493  0.497143  1
  Ga  Ga11  1  0.705314  0.708452  0.996861  1
  Ga  Ga12  1  0.251365  0.502857  0.748507  1
  Ga  Ga13  1  0.500000  0.750000  0.250000  1
  Ga  Ga14  1  0.294686  0.291548  0.003139  1
  Ga  Ga15  1  0.000000  0.291719  0.291719  1
  Tc  Tc16  1  0.000000  0.000000  0.000000  1
