# generated using pymatgen
data_Er2As2Cl2O5
_symmetry_space_group_name_H-M   'P 1'
_cell_length_a   7.00842028
_cell_length_b   7.66853448
_cell_length_c   9.42936438
_cell_angle_alpha   109.54567009
_cell_angle_beta   103.96649680
_cell_angle_gamma   102.32996983
_symmetry_Int_Tables_number   1
_chemical_formula_structural   Er2As2Cl2O5
_chemical_formula_sum   'Er4 As4 Cl4 O10'
_cell_volume   438.80171051
_cell_formula_units_Z   2
loop_
 _symmetry_equiv_pos_site_id
 _symmetry_equiv_pos_as_xyz
  1  'x, y, z'
loop_
 _atom_site_type_symbol
 _atom_site_label
 _atom_site_symmetry_multiplicity
 _atom_site_fract_x
 _atom_site_fract_y
 _atom_site_fract_z
 _atom_site_occupancy
  Er  Er0  1  0.399363  0.698265  0.520242  1
  Er  Er1  1  0.600637  0.301735  0.479758  1
  Er  Er2  1  0.846682  0.765291  0.336034  1
  Er  Er3  1  0.153318  0.234709  0.663966  1
  As  As4  1  0.886523  0.848876  0.742785  1
  As  As5  1  0.113477  0.151124  0.257215  1
  As  As6  1  0.708907  0.233315  0.796600  1
  As  As7  1  0.291093  0.766685  0.203400  1
  Cl  Cl8  1  0.237849  0.626413  0.731679  1
  Cl  Cl9  1  0.762151  0.373587  0.268321  1
  Cl  Cl10  1  0.778325  0.724478  0.042250  1
  Cl  Cl11  1  0.221675  0.275522  0.957750  1
  O  O12  1  0.844114  0.274707  0.663121  1
  O  O13  1  0.155886  0.725293  0.336879  1
  O  O14  1  0.533750  0.783963  0.341512  1
  O  O15  1  0.466250  0.216037  0.658488  1
  O  O16  1  0.663783  0.962090  0.722025  1
  O  O17  1  0.336217  0.037910  0.277975  1
  O  O18  1  0.692201  0.621737  0.591107  1
  O  O19  1  0.307799  0.378263  0.408893  1
  O  O20  1  0.991792  0.919039  0.605841  1
  O  O21  1  0.008208  0.080961  0.394159  1
