# generated using pymatgen
data_Li8ErTm7BiPb7
_symmetry_space_group_name_H-M   'P 1'
_cell_length_a   9.49725453
_cell_length_b   9.49725559
_cell_length_c   7.19315950
_cell_angle_alpha   90.15002105
_cell_angle_beta   89.84998187
_cell_angle_gamma   119.94773960
_symmetry_Int_Tables_number   1
_chemical_formula_structural   Li8ErTm7BiPb7
_chemical_formula_sum   'Li8 Er1 Tm7 Bi1 Pb7'
_cell_volume   562.17690873
_cell_formula_units_Z   1
loop_
 _symmetry_equiv_pos_site_id
 _symmetry_equiv_pos_as_xyz
  1  'x, y, z'
loop_
 _atom_site_type_symbol
 _atom_site_label
 _atom_site_symmetry_multiplicity
 _atom_site_fract_x
 _atom_site_fract_y
 _atom_site_fract_z
 _atom_site_occupancy
  Li  Li0  1  0.830248  0.664904  0.711896  1
  Li  Li1  1  0.833332  0.166668  0.714451  1
  Li  Li2  1  0.334713  0.665287  0.820904  1
  Li  Li3  1  0.666329  0.333671  0.319684  1
  Li  Li4  1  0.665637  0.832260  0.214123  1
  Li  Li5  1  0.167740  0.334363  0.214123  1
  Li  Li6  1  0.166783  0.833217  0.215623  1
  Li  Li7  1  0.335096  0.169752  0.711896  1
  Er  Er8  1  0.998107  0.001893  0.001825  1
  Tm  Tm9  1  0.998411  0.001589  0.497696  1
  Tm  Tm10  1  0.511402  0.488598  0.006281  1
  Tm  Tm11  1  0.019325  0.506918  0.504097  1
  Tm  Tm12  1  0.493082  0.980675  0.504097  1
  Tm  Tm13  1  0.514727  0.023447  0.008709  1
  Tm  Tm14  1  0.976553  0.485273  0.008709  1
  Tm  Tm15  1  0.488544  0.511456  0.505716  1
  Bi  Bi16  1  0.166859  0.833141  0.766334  1
  Pb  Pb17  1  0.666976  0.333024  0.743232  1
  Pb  Pb18  1  0.332583  0.667417  0.243701  1
  Pb  Pb19  1  0.833174  0.166826  0.268520  1
  Pb  Pb20  1  0.166757  0.333769  0.768952  1
  Pb  Pb21  1  0.333504  0.166114  0.269239  1
  Pb  Pb22  1  0.833886  0.666496  0.269239  1
  Pb  Pb23  1  0.666231  0.833243  0.768952  1
