# generated using pymatgen
data_Lu2Hf2IrPt
_symmetry_space_group_name_H-M   'P 1'
_cell_length_a   4.61949300
_cell_length_b   6.92346700
_cell_length_c   8.14699700
_cell_angle_alpha   90.00000000
_cell_angle_beta   90.00000000
_cell_angle_gamma   90.00000000
_symmetry_Int_Tables_number   1
_chemical_formula_structural   Lu2Hf2IrPt
_chemical_formula_sum   'Lu4 Hf4 Ir2 Pt2'
_cell_volume   260.56465017
_cell_formula_units_Z   2
loop_
 _symmetry_equiv_pos_site_id
 _symmetry_equiv_pos_as_xyz
  1  'x, y, z'
loop_
 _atom_site_type_symbol
 _atom_site_label
 _atom_site_symmetry_multiplicity
 _atom_site_fract_x
 _atom_site_fract_y
 _atom_site_fract_z
 _atom_site_occupancy
  Lu  Lu0  1  0.250000  0.982131  0.322547  1
  Lu  Lu1  1  0.250000  0.482131  0.177453  1
  Lu  Lu2  1  0.750000  0.016108  0.676521  1
  Lu  Lu3  1  0.750000  0.516108  0.823479  1
  Hf  Hf4  1  0.250000  0.356775  0.578843  1
  Hf  Hf5  1  0.250000  0.856775  0.921157  1
  Hf  Hf6  1  0.750000  0.647244  0.428577  1
  Hf  Hf7  1  0.750000  0.147244  0.071423  1
  Ir  Ir8  1  0.250000  0.233275  0.905626  1
  Ir  Ir9  1  0.250000  0.733275  0.594374  1
  Pt  Pt10  1  0.750000  0.764466  0.098225  1
  Pt  Pt11  1  0.750000  0.264466  0.401775  1
