# generated using pymatgen
data_Th2Mn4Ni(PRh)7
_symmetry_space_group_name_H-M   'P 1'
_cell_length_a   9.46252040
_cell_length_b   9.49330236
_cell_length_c   3.86135000
_cell_angle_alpha   90.00000000
_cell_angle_beta   90.00000000
_cell_angle_gamma   119.52689556
_symmetry_Int_Tables_number   1
_chemical_formula_structural   Th2Mn4Ni(PRh)7
_chemical_formula_sum   'Th2 Mn4 Ni1 P7 Rh7'
_cell_volume   301.81768404
_cell_formula_units_Z   1
loop_
 _symmetry_equiv_pos_site_id
 _symmetry_equiv_pos_as_xyz
  1  'x, y, z'
loop_
 _atom_site_type_symbol
 _atom_site_label
 _atom_site_symmetry_multiplicity
 _atom_site_fract_x
 _atom_site_fract_y
 _atom_site_fract_z
 _atom_site_occupancy
  Th  Th0  1  0.332795  0.667122  0.000000  1
  Th  Th1  1  0.000486  0.000274  0.500000  1
  Mn  Mn2  1  0.936570  0.489394  0.000000  1
  Mn  Mn3  1  0.510544  0.444857  0.000000  1
  Mn  Mn4  1  0.770197  0.558252  0.500000  1
  Mn  Mn5  1  0.443773  0.207867  0.500000  1
  Ni  Ni6  1  0.555484  0.065893  0.000000  1
  P  P7  1  0.771220  0.034159  0.000000  1
  P  P8  1  0.962231  0.733528  0.000000  1
  P  P9  1  0.265495  0.225110  0.000000  1
  P  P10  1  0.385312  0.941945  0.500000  1
  P  P11  1  0.059549  0.450839  0.500000  1
  P  P12  1  0.552533  0.608126  0.500000  1
  P  P13  1  0.671113  0.336312  0.000000  1
  Rh  Rh14  1  0.028577  0.266778  0.000000  1
  Rh  Rh15  1  0.731839  0.761978  0.000000  1
  Rh  Rh16  1  0.239603  0.965962  0.000000  1
  Rh  Rh17  1  0.610811  0.891925  0.500000  1
  Rh  Rh18  1  0.103034  0.718001  0.500000  1
  Rh  Rh19  1  0.279358  0.386174  0.500000  1
  Rh  Rh20  1  0.789477  0.245504  0.500000  1
