# generated using pymatgen
data_Tb2Ho6Hf11Si16Ag
_symmetry_space_group_name_H-M   'P 1'
_cell_length_a   7.28089912
_cell_length_b   7.27841139
_cell_length_c   13.25867210
_cell_angle_alpha   89.85956254
_cell_angle_beta   90.13363955
_cell_angle_gamma   89.88106123
_symmetry_Int_Tables_number   1
_chemical_formula_structural   Tb2Ho6Hf11Si16Ag
_chemical_formula_sum   'Tb2 Ho6 Hf11 Si16 Ag1'
_cell_volume   702.61629284
_cell_formula_units_Z   1
loop_
 _symmetry_equiv_pos_site_id
 _symmetry_equiv_pos_as_xyz
  1  'x, y, z'
loop_
 _atom_site_type_symbol
 _atom_site_label
 _atom_site_symmetry_multiplicity
 _atom_site_fract_x
 _atom_site_fract_y
 _atom_site_fract_z
 _atom_site_occupancy
  Tb  Tb0  1  0.345070  0.997309  0.788824  1
  Tb  Tb1  1  0.655653  0.005131  0.283625  1
  Ho  Ho2  1  0.997848  0.345669  0.211341  1
  Ho  Ho3  1  0.004395  0.655247  0.716250  1
  Ho  Ho4  1  0.155061  0.496120  0.464761  1
  Ho  Ho5  1  0.498707  0.847469  0.033158  1
  Ho  Ho6  1  0.847748  0.498666  0.966914  1
  Ho  Ho7  1  0.496002  0.155251  0.535282  1
  Hf  Hf8  1  0.825010  0.824626  0.500019  1
  Hf  Hf9  1  0.323620  0.676327  0.249404  1
  Hf  Hf10  1  0.676621  0.323976  0.750575  1
  Hf  Hf11  1  0.146119  0.996197  0.374378  1
  Hf  Hf12  1  0.856213  0.002977  0.878096  1
  Hf  Hf13  1  0.504414  0.646679  0.626103  1
  Hf  Hf14  1  0.355042  0.492057  0.877400  1
  Hf  Hf15  1  0.491935  0.355031  0.122517  1
  Hf  Hf16  1  0.646674  0.504204  0.373938  1
  Hf  Hf17  1  0.996427  0.146235  0.625716  1
  Hf  Hf18  1  0.002871  0.855992  0.121756  1
  Si  Si19  1  0.358444  0.296519  0.317042  1
  Si  Si20  1  0.640775  0.703897  0.819924  1
  Si  Si21  1  0.206589  0.860624  0.568885  1
  Si  Si22  1  0.131668  0.776500  0.927876  1
  Si  Si23  1  0.777999  0.132688  0.072165  1
  Si  Si24  1  0.861333  0.207336  0.431588  1
  Si  Si25  1  0.295657  0.359882  0.682691  1
  Si  Si26  1  0.704868  0.639305  0.179818  1
  Si  Si27  1  0.295342  0.051395  0.189090  1
  Si  Si28  1  0.704772  0.950857  0.686256  1
  Si  Si29  1  0.450122  0.795926  0.436022  1
  Si  Si30  1  0.208865  0.563828  0.064309  1
  Si  Si31  1  0.564847  0.209572  0.935915  1
  Si  Si32  1  0.796499  0.450875  0.564208  1
  Si  Si33  1  0.050587  0.297018  0.810558  1
  Si  Si34  1  0.951598  0.703661  0.313504  1
  Ag  Ag35  1  0.174607  0.174954  0.000091  1
