# generated using pymatgen
data_Tb10Si16Sb
_symmetry_space_group_name_H-M   'P 1'
_cell_length_a   11.19558730
_cell_length_b   11.13407909
_cell_length_c   11.19560156
_cell_angle_alpha   144.69393291
_cell_angle_beta   136.37685679
_cell_angle_gamma   57.42219187
_symmetry_Int_Tables_number   1
_chemical_formula_structural   Tb10Si16Sb
_chemical_formula_sum   'Tb10 Si16 Sb1'
_cell_volume   551.64354303
_cell_formula_units_Z   1
loop_
 _symmetry_equiv_pos_site_id
 _symmetry_equiv_pos_as_xyz
  1  'x, y, z'
loop_
 _atom_site_type_symbol
 _atom_site_label
 _atom_site_symmetry_multiplicity
 _atom_site_fract_x
 _atom_site_fract_y
 _atom_site_fract_z
 _atom_site_occupancy
  Tb  Tb0  1  0.755971  0.760108  0.517164  1
  Tb  Tb1  1  0.442037  0.972662  0.016731  1
  Tb  Tb2  1  0.848129  0.367775  0.017595  1
  Tb  Tb3  1  0.955932  0.972663  0.530626  1
  Tb  Tb4  1  0.150391  0.163437  0.515201  1
  Tb  Tb5  1  0.350180  0.367776  0.519648  1
  Tb  Tb6  1  0.242944  0.760108  0.004136  1
  Tb  Tb7  1  0.545966  0.558504  0.498324  1
  Tb  Tb8  1  0.060180  0.558504  0.012538  1
  Tb  Tb9  1  0.648235  0.163437  0.013045  1
  Si  Si10  1  0.198686  0.584437  0.385752  1
  Si  Si11  1  0.999753  0.084971  0.085218  1
  Si  Si12  1  0.697622  0.278552  0.580930  1
  Si  Si13  1  0.801029  0.187150  0.386121  1
  Si  Si14  1  0.896454  0.500986  0.604531  1
  Si  Si15  1  0.416300  0.867083  0.450783  1
  Si  Si16  1  0.103669  0.710390  0.606721  1
  Si  Si17  1  0.300838  0.893066  0.592228  1
  Si  Si18  1  0.578391  0.040172  0.461781  1
  Si  Si19  1  0.999833  0.431827  0.431994  1
  Si  Si20  1  0.884545  0.837238  0.952693  1
  Si  Si21  1  0.401558  0.499741  0.098183  1
  Si  Si22  1  0.115509  0.075837  0.960329  1
  Si  Si23  1  0.290094  0.238219  0.948124  1
  Si  Si24  1  0.499406  0.387946  0.888539  1
  Si  Si25  1  0.594237  0.706977  0.112740  1
  Sb  Sb26  1  0.722109  0.691933  0.969825  1
