# generated using pymatgen
data_Pd7PtW
_symmetry_space_group_name_H-M   'P 1'
_cell_length_a   6.24305161
_cell_length_b   6.24305121
_cell_length_c   6.27137641
_cell_angle_alpha   95.63171931
_cell_angle_beta   95.63171329
_cell_angle_gamma   143.40233402
_symmetry_Int_Tables_number   1
_chemical_formula_structural   Pd7PtW
_chemical_formula_sum   'Pd7 Pt1 W1'
_cell_volume   138.42697458
_cell_formula_units_Z   1
loop_
 _symmetry_equiv_pos_site_id
 _symmetry_equiv_pos_as_xyz
  1  'x, y, z'
loop_
 _atom_site_type_symbol
 _atom_site_label
 _atom_site_symmetry_multiplicity
 _atom_site_fract_x
 _atom_site_fract_y
 _atom_site_fract_z
 _atom_site_occupancy
  Pd  Pd0  1  0.336825  0.661271  0.998096  1
  Pd  Pd1  1  0.661271  0.336825  0.998096  1
  Pd  Pd2  1  0.338895  0.338895  0.677790  1
  Pd  Pd3  1  0.673174  0.999173  0.672347  1
  Pd  Pd4  1  0.999173  0.673174  0.672347  1
  Pd  Pd5  1  0.000321  0.328877  0.329199  1
  Pd  Pd6  1  0.328877  0.000321  0.329199  1
  Pt  Pt7  1  0.659274  0.659274  0.318548  1
  W  W8  1  0.002189  0.002189  0.004379  1
