# generated using pymatgen
data_LuIn3(SeO4)6
_symmetry_space_group_name_H-M   'P 1'
_cell_length_a   9.02500735
_cell_length_b   9.02547291
_cell_length_c   9.70890356
_cell_angle_alpha   62.30107716
_cell_angle_beta   117.69702066
_cell_angle_gamma   119.99092318
_symmetry_Int_Tables_number   1
_chemical_formula_structural   LuIn3(SeO4)6
_chemical_formula_sum   'Lu1 In3 Se6 O24'
_cell_volume   577.92316442
_cell_formula_units_Z   1
loop_
 _symmetry_equiv_pos_site_id
 _symmetry_equiv_pos_as_xyz
  1  'x, y, z'
loop_
 _atom_site_type_symbol
 _atom_site_label
 _atom_site_symmetry_multiplicity
 _atom_site_fract_x
 _atom_site_fract_y
 _atom_site_fract_z
 _atom_site_occupancy
  Lu  Lu0  1  0.143027  0.856883  0.429268  1
  In  In1  1  0.347606  0.652275  0.043042  1
  In  In2  1  0.854192  0.145586  0.563063  1
  In  In3  1  0.649727  0.350281  0.949032  1
  Se  Se4  1  0.462901  0.960966  0.245744  1
  Se  Se5  1  0.743768  0.536987  0.245812  1
  Se  Se6  1  0.039121  0.256288  0.245830  1
  Se  Se7  1  0.546882  0.038765  0.753670  1
  Se  Se8  1  0.245699  0.453190  0.753607  1
  Se  Se9  1  0.961091  0.754371  0.753627  1
  O  O10  1  0.824692  0.539254  0.797522  1
  O  O11  1  0.512112  0.175198  0.797604  1
  O  O12  1  0.460847  0.488068  0.797355  1
  O  O13  1  0.173031  0.471116  0.195799  1
  O  O14  1  0.493793  0.827014  0.195740  1
  O  O15  1  0.528934  0.506103  0.195879  1
  O  O16  1  0.868895  0.885651  0.735086  1
  O  O17  1  0.751811  0.131063  0.735114  1
  O  O18  1  0.114408  0.248281  0.735110  1
  O  O19  1  0.127746  0.120964  0.268037  1
  O  O20  1  0.879078  0.738688  0.268005  1
  O  O21  1  0.261248  0.872281  0.268068  1
  O  O22  1  0.783937  0.382431  0.426254  1
  O  O23  1  0.617547  0.975392  0.426097  1
  O  O24  1  0.024796  0.216184  0.426230  1
  O  O25  1  0.197342  0.609351  0.578941  1
  O  O26  1  0.390686  0.009032  0.579002  1
  O  O27  1  0.990808  0.802575  0.578943  1
  O  O28  1  0.789254  0.521795  0.104971  1
  O  O29  1  0.478035  0.162493  0.104872  1
  O  O30  1  0.837640  0.210773  0.104981  1
  O  O31  1  0.207425  0.468138  0.899231  1
  O  O32  1  0.531986  0.839878  0.899247  1
  O  O33  1  0.159938  0.792694  0.899217  1
