# generated using pymatgen
data_Dy7Er3(InBi)3
_symmetry_space_group_name_H-M   'P 1'
_cell_length_a   9.05073700
_cell_length_b   9.05073797
_cell_length_c   6.55212800
_cell_angle_alpha   90.00000000
_cell_angle_beta   90.00000000
_cell_angle_gamma   120.00000010
_symmetry_Int_Tables_number   1
_chemical_formula_structural   Dy7Er3(InBi)3
_chemical_formula_sum   'Dy7 Er3 In3 Bi3'
_cell_volume   464.81586337
_cell_formula_units_Z   1
loop_
 _symmetry_equiv_pos_site_id
 _symmetry_equiv_pos_as_xyz
  1  'x, y, z'
loop_
 _atom_site_type_symbol
 _atom_site_label
 _atom_site_symmetry_multiplicity
 _atom_site_fract_x
 _atom_site_fract_y
 _atom_site_fract_z
 _atom_site_occupancy
  Dy  Dy0  1  0.666667  0.333333  0.006866  1
  Dy  Dy1  1  0.763535  0.763558  0.749913  1
  Dy  Dy2  1  0.236442  0.999977  0.749913  1
  Dy  Dy3  1  0.000023  0.236465  0.749913  1
  Dy  Dy4  1  0.238226  0.238331  0.250095  1
  Dy  Dy5  1  0.761669  0.999895  0.250095  1
  Dy  Dy6  1  0.000105  0.761774  0.250095  1
  Er  Er7  1  0.333333  0.666667  0.007227  1
  Er  Er8  1  0.333333  0.666667  0.492901  1
  Er  Er9  1  0.666667  0.333333  0.492643  1
  In  In10  1  0.606073  0.606323  0.250309  1
  In  In11  1  0.393677  0.999750  0.250309  1
  In  In12  1  0.000250  0.393927  0.250309  1
  Bi  Bi13  1  0.396143  0.396492  0.749804  1
  Bi  Bi14  1  0.603508  0.999651  0.749804  1
  Bi  Bi15  1  0.000349  0.603857  0.749804  1
