# generated using pymatgen
data_Tb16Tm4(Ir3Rh)3
_symmetry_space_group_name_H-M   'P 1'
_cell_length_a   10.88991500
_cell_length_b   10.88991500
_cell_length_c   6.38048800
_cell_angle_alpha   90.00000000
_cell_angle_beta   90.00000000
_cell_angle_gamma   90.00000000
_symmetry_Int_Tables_number   1
_chemical_formula_structural   Tb16Tm4(Ir3Rh)3
_chemical_formula_sum   'Tb16 Tm4 Ir9 Rh3'
_cell_volume   756.66365879
_cell_formula_units_Z   1
loop_
 _symmetry_equiv_pos_site_id
 _symmetry_equiv_pos_as_xyz
  1  'x, y, z'
loop_
 _atom_site_type_symbol
 _atom_site_label
 _atom_site_symmetry_multiplicity
 _atom_site_fract_x
 _atom_site_fract_y
 _atom_site_fract_z
 _atom_site_occupancy
  Tb  Tb0  1  0.289345  0.088111  0.379002  1
  Tb  Tb1  1  0.289258  0.911556  0.878866  1
  Tb  Tb2  1  0.710742  0.088444  0.878866  1
  Tb  Tb3  1  0.710655  0.911889  0.379002  1
  Tb  Tb4  1  0.588444  0.789258  0.878866  1
  Tb  Tb5  1  0.588111  0.210655  0.379002  1
  Tb  Tb6  1  0.411889  0.789345  0.379002  1
  Tb  Tb7  1  0.411556  0.210742  0.878866  1
  Tb  Tb8  1  0.209928  0.411911  0.620069  1
  Tb  Tb9  1  0.210265  0.588346  0.122461  1
  Tb  Tb10  1  0.789735  0.411654  0.122461  1
  Tb  Tb11  1  0.790072  0.588089  0.620069  1
  Tb  Tb12  1  0.911654  0.710265  0.122461  1
  Tb  Tb13  1  0.911911  0.290072  0.620069  1
  Tb  Tb14  1  0.088089  0.709928  0.620069  1
  Tb  Tb15  1  0.088346  0.289735  0.122461  1
  Tm  Tm16  1  0.000000  0.000000  0.500247  1
  Tm  Tm17  1  0.000000  0.000000  0.999980  1
  Tm  Tm18  1  0.500000  0.500000  0.999980  1
  Tm  Tm19  1  0.500000  0.500000  0.500247  1
  Ir  Ir20  1  0.847638  0.151268  0.249644  1
  Ir  Ir21  1  0.847793  0.848429  0.749815  1
  Ir  Ir22  1  0.152207  0.151571  0.749815  1
  Ir  Ir23  1  0.152362  0.848732  0.249644  1
  Ir  Ir24  1  0.651571  0.347793  0.749815  1
  Ir  Ir25  1  0.651268  0.652362  0.249644  1
  Ir  Ir26  1  0.348732  0.347638  0.249644  1
  Ir  Ir27  1  0.348429  0.652207  0.749815  1
  Ir  Ir28  1  0.000000  0.500000  0.377362  1
  Rh  Rh29  1  0.500000  0.000000  0.122543  1
  Rh  Rh30  1  0.500000  0.000000  0.622887  1
  Rh  Rh31  1  0.000000  0.500000  0.877331  1
