# generated using pymatgen
data_MnCr3(NiP)4
_symmetry_space_group_name_H-M   'P 1'
_cell_length_a   3.50365000
_cell_length_b   5.82838621
_cell_length_c   6.78131604
_cell_angle_alpha   90.26305460
_cell_angle_beta   90.00000000
_cell_angle_gamma   90.00000000
_symmetry_Int_Tables_number   1
_chemical_formula_structural   MnCr3(NiP)4
_chemical_formula_sum   'Mn1 Cr3 Ni4 P4'
_cell_volume   138.47725471
_cell_formula_units_Z   1
loop_
 _symmetry_equiv_pos_site_id
 _symmetry_equiv_pos_as_xyz
  1  'x, y, z'
loop_
 _atom_site_type_symbol
 _atom_site_label
 _atom_site_symmetry_multiplicity
 _atom_site_fract_x
 _atom_site_fract_y
 _atom_site_fract_z
 _atom_site_occupancy
  Mn  Mn0  1  0.750000  0.470079  0.165699  1
  Cr  Cr1  1  0.750000  0.965085  0.330043  1
  Cr  Cr2  1  0.250000  0.530522  0.833529  1
  Cr  Cr3  1  0.250000  0.032366  0.670876  1
  Ni  Ni4  1  0.750000  0.359554  0.560040  1
  Ni  Ni5  1  0.750000  0.860349  0.937773  1
  Ni  Ni6  1  0.250000  0.639553  0.437995  1
  Ni  Ni7  1  0.250000  0.143317  0.062939  1
  P  P8  1  0.750000  0.242889  0.871865  1
  P  P9  1  0.750000  0.743094  0.628117  1
  P  P10  1  0.250000  0.758612  0.127384  1
  P  P11  1  0.250000  0.254581  0.373740  1
