# generated using pymatgen
data_Li2HfSe3
_symmetry_space_group_name_H-M   'P 1'
_cell_length_a   6.69463771
_cell_length_b   6.69463752
_cell_length_c   12.90374000
_cell_angle_alpha   85.04382290
_cell_angle_beta   85.04383163
_cell_angle_gamma   120.01314935
_symmetry_Int_Tables_number   1
_chemical_formula_structural   Li2HfSe3
_chemical_formula_sum   'Li8 Hf4 Se12'
_cell_volume   493.24010457
_cell_formula_units_Z   4
loop_
 _symmetry_equiv_pos_site_id
 _symmetry_equiv_pos_as_xyz
  1  'x, y, z'
loop_
 _atom_site_type_symbol
 _atom_site_label
 _atom_site_symmetry_multiplicity
 _atom_site_fract_x
 _atom_site_fract_y
 _atom_site_fract_z
 _atom_site_occupancy
  Li  Li0  1  0.837845  0.669459  0.499611  1
  Li  Li1  1  0.330541  0.162155  0.000389  1
  Li  Li2  1  0.162155  0.330541  0.500389  1
  Li  Li3  1  0.669459  0.837845  0.999611  1
  Li  Li4  1  0.416986  0.583014  0.750000  1
  Li  Li5  1  0.583014  0.416986  0.250000  1
  Li  Li6  1  0.000000  0.500000  0.000000  1
  Li  Li7  1  0.500000  0.000000  0.500000  1
  Hf  Hf8  1  0.083274  0.916726  0.750000  1
  Hf  Hf9  1  0.916726  0.083274  0.250000  1
  Hf  Hf10  1  0.749884  0.250116  0.750000  1
  Hf  Hf11  1  0.250116  0.749884  0.250000  1
  Se  Se12  1  0.968156  0.801962  0.129013  1
  Se  Se13  1  0.198038  0.031844  0.370987  1
  Se  Se14  1  0.031844  0.198038  0.870987  1
  Se  Se15  1  0.801962  0.968156  0.629013  1
  Se  Se16  1  0.111049  0.623390  0.628781  1
  Se  Se17  1  0.376610  0.888951  0.871219  1
  Se  Se18  1  0.888951  0.376610  0.371219  1
  Se  Se19  1  0.623390  0.111049  0.128781  1
  Se  Se20  1  0.722027  0.542196  0.872742  1
  Se  Se21  1  0.457804  0.277973  0.627258  1
  Se  Se22  1  0.277973  0.457804  0.127258  1
  Se  Se23  1  0.542196  0.722027  0.372742  1
