# generated using pymatgen
data_Dy3Si(PPd4)5
_symmetry_space_group_name_H-M   'P 1'
_cell_length_a   8.68238173
_cell_length_b   8.67236478
_cell_length_c   8.67236500
_cell_angle_alpha   60.07642147
_cell_angle_beta   59.96178509
_cell_angle_gamma   59.96178177
_symmetry_Int_Tables_number   1
_chemical_formula_structural   Dy3Si(PPd4)5
_chemical_formula_sum   'Dy3 Si1 P5 Pd20'
_cell_volume   461.74028332
_cell_formula_units_Z   1
loop_
 _symmetry_equiv_pos_site_id
 _symmetry_equiv_pos_as_xyz
  1  'x, y, z'
loop_
 _atom_site_type_symbol
 _atom_site_label
 _atom_site_symmetry_multiplicity
 _atom_site_fract_x
 _atom_site_fract_y
 _atom_site_fract_z
 _atom_site_occupancy
  Dy  Dy0  1  0.999185  0.000815  0.000815  1
  Dy  Dy1  1  0.750870  0.749130  0.749130  1
  Dy  Dy2  1  0.250870  0.249130  0.249130  1
  Si  Si3  1  0.733629  0.266371  0.266371  1
  P  P4  1  0.737062  0.735087  0.262938  1
  P  P5  1  0.737062  0.262938  0.735087  1
  P  P6  1  0.264913  0.735087  0.262938  1
  P  P7  1  0.264348  0.735652  0.735652  1
  P  P8  1  0.264913  0.262938  0.735087  1
  Pd  Pd9  1  0.342699  0.001322  0.001322  1
  Pd  Pd10  1  0.998678  0.657301  0.345342  1
  Pd  Pd11  1  0.345857  0.998753  0.654143  1
  Pd  Pd12  1  0.001247  0.654143  0.998753  1
  Pd  Pd13  1  0.653990  0.346010  0.999923  1
  Pd  Pd14  1  0.615396  0.617487  0.151720  1
  Pd  Pd15  1  0.384626  0.846696  0.384051  1
  Pd  Pd16  1  0.153304  0.615374  0.615374  1
  Pd  Pd17  1  0.653990  0.999923  0.346010  1
  Pd  Pd18  1  0.998678  0.345342  0.657301  1
  Pd  Pd19  1  0.654658  0.001322  0.001322  1
  Pd  Pd20  1  0.000077  0.999923  0.346010  1
  Pd  Pd21  1  0.615396  0.151720  0.617487  1
  Pd  Pd22  1  0.345857  0.654143  0.998753  1
  Pd  Pd23  1  0.382513  0.384604  0.384604  1
  Pd  Pd24  1  0.615949  0.615374  0.615374  1
  Pd  Pd25  1  0.384626  0.384051  0.846696  1
  Pd  Pd26  1  0.001247  0.998753  0.654143  1
  Pd  Pd27  1  0.848280  0.384604  0.384604  1
  Pd  Pd28  1  0.000077  0.346010  0.999923  1
