# generated using pymatgen
data_Na4PaSi12Ir19
_symmetry_space_group_name_H-M   'P 1'
_cell_length_a   12.77327200
_cell_length_b   12.76749168
_cell_length_c   4.00141900
_cell_angle_alpha   90.00000000
_cell_angle_beta   90.00000000
_cell_angle_gamma   120.01497756
_symmetry_Int_Tables_number   1
_chemical_formula_structural   Na4PaSi12Ir19
_chemical_formula_sum   'Na4 Pa1 Si12 Ir19'
_cell_volume   565.04994943
_cell_formula_units_Z   1
loop_
 _symmetry_equiv_pos_site_id
 _symmetry_equiv_pos_as_xyz
  1  'x, y, z'
loop_
 _atom_site_type_symbol
 _atom_site_label
 _atom_site_symmetry_multiplicity
 _atom_site_fract_x
 _atom_site_fract_y
 _atom_site_fract_z
 _atom_site_occupancy
  Na  Na0  1  0.333902  0.668755  0.500000  1
  Na  Na1  1  0.665149  0.331245  0.500000  1
  Na  Na2  1  0.001967  0.814846  0.000000  1
  Na  Na3  1  0.187122  0.185154  0.000000  1
  Pa  Pa4  1  0.829163  0.000000  0.000000  1
  Si  Si5  1  0.998633  0.630146  0.500000  1
  Si  Si6  1  0.368488  0.369854  0.500000  1
  Si  Si7  1  0.629623  0.000000  0.500000  1
  Si  Si8  1  0.516562  0.685774  0.000000  1
  Si  Si9  1  0.312132  0.832298  0.000000  1
  Si  Si10  1  0.169350  0.484174  0.000000  1
  Si  Si11  1  0.479834  0.167702  0.000000  1
  Si  Si12  1  0.685175  0.515826  0.000000  1
  Si  Si13  1  0.830788  0.314226  0.000000  1
  Si  Si14  1  0.010417  0.189984  0.500000  1
  Si  Si15  1  0.820431  0.810016  0.500000  1
  Si  Si16  1  0.181092  0.000000  0.500000  1
  Ir  Ir17  1  0.514593  0.873669  0.000000  1
  Ir  Ir18  1  0.123252  0.639126  0.000000  1
  Ir  Ir19  1  0.359291  0.486192  0.000000  1
  Ir  Ir20  1  0.484128  0.360874  0.000000  1
  Ir  Ir21  1  0.873100  0.513808  0.000000  1
  Ir  Ir22  1  0.640925  0.126331  0.000000  1
  Ir  Ir23  1  0.992851  0.442085  0.500000  1
  Ir  Ir24  1  0.550765  0.557915  0.500000  1
  Ir  Ir25  1  0.446876  0.000000  0.500000  1
  Ir  Ir26  1  0.997828  0.282943  0.000000  1
  Ir  Ir27  1  0.714886  0.717057  0.000000  1
  Ir  Ir28  1  0.281294  0.000000  0.000000  1
  Ir  Ir29  1  0.629239  0.811415  0.500000  1
  Ir  Ir30  1  0.195086  0.815108  0.500000  1
  Ir  Ir31  1  0.185264  0.384444  0.500000  1
  Ir  Ir32  1  0.379978  0.184892  0.500000  1
  Ir  Ir33  1  0.800820  0.615556  0.500000  1
  Ir  Ir34  1  0.817823  0.188585  0.500000  1
  Ir  Ir35  1  0.992173  0.000000  0.500000  1
