# generated using pymatgen
data_Ta2NbV3Ga5
_symmetry_space_group_name_H-M   'P 1'
_cell_length_a   8.71999382
_cell_length_b   8.71999371
_cell_length_c   5.24773600
_cell_angle_alpha   90.00000000
_cell_angle_beta   90.00000000
_cell_angle_gamma   120.04955389
_symmetry_Int_Tables_number   1
_chemical_formula_structural   Ta2NbV3Ga5
_chemical_formula_sum   'Ta4 Nb2 V6 Ga10'
_cell_volume   345.39646040
_cell_formula_units_Z   2
loop_
 _symmetry_equiv_pos_site_id
 _symmetry_equiv_pos_as_xyz
  1  'x, y, z'
loop_
 _atom_site_type_symbol
 _atom_site_label
 _atom_site_symmetry_multiplicity
 _atom_site_fract_x
 _atom_site_fract_y
 _atom_site_fract_z
 _atom_site_occupancy
  Ta  Ta0  1  0.691886  0.846019  0.250000  1
  Ta  Ta1  1  0.845663  0.153744  0.750000  1
  Ta  Ta2  1  0.153744  0.845663  0.250000  1
  Ta  Ta3  1  0.846019  0.691886  0.750000  1
  Nb  Nb4  1  0.307465  0.153382  0.750000  1
  Nb  Nb5  1  0.153382  0.307465  0.250000  1
  V  V6  1  0.500282  0.999742  0.000292  1
  V  V7  1  0.999742  0.500282  0.999708  1
  V  V8  1  0.500282  0.999742  0.499708  1
  V  V9  1  0.500799  0.500799  0.000000  1
  V  V10  1  0.999742  0.500282  0.500292  1
  V  V11  1  0.500799  0.500799  0.500000  1
  Ga  Ga12  1  0.000209  0.000209  0.000000  1
  Ga  Ga13  1  0.786504  0.213675  0.250000  1
  Ga  Ga14  1  0.213512  0.427022  0.750000  1
  Ga  Ga15  1  0.572790  0.786470  0.750000  1
  Ga  Ga16  1  0.786470  0.572790  0.250000  1
  Ga  Ga17  1  0.000209  0.000209  0.500000  1
  Ga  Ga18  1  0.427022  0.213512  0.250000  1
  Ga  Ga19  1  0.213675  0.786504  0.750000  1
  Ga  Ga20  1  0.666562  0.333241  0.750000  1
  Ga  Ga21  1  0.333241  0.666562  0.250000  1
