# generated using pymatgen
data_Li2Dy3Si2AgHg
_symmetry_space_group_name_H-M   'P 1'
_cell_length_a   7.18603983
_cell_length_b   7.29734512
_cell_length_c   4.18640100
_cell_angle_alpha   90.00000000
_cell_angle_beta   90.00000000
_cell_angle_gamma   120.51370862
_symmetry_Int_Tables_number   1
_chemical_formula_structural   Li2Dy3Si2AgHg
_chemical_formula_sum   'Li2 Dy3 Si2 Ag1 Hg1'
_cell_volume   189.12741905
_cell_formula_units_Z   1
loop_
 _symmetry_equiv_pos_site_id
 _symmetry_equiv_pos_as_xyz
  1  'x, y, z'
loop_
 _atom_site_type_symbol
 _atom_site_label
 _atom_site_symmetry_multiplicity
 _atom_site_fract_x
 _atom_site_fract_y
 _atom_site_fract_z
 _atom_site_occupancy
  Li  Li0  1  0.746284  0.748809  0.000000  1
  Li  Li1  1  0.253716  0.002526  0.000000  1
  Dy  Dy2  1  0.422767  0.423580  0.500000  1
  Dy  Dy3  1  0.577233  0.000813  0.500000  1
  Dy  Dy4  1  0.000000  0.570143  0.500000  1
  Si  Si5  1  0.660497  0.333226  0.000000  1
  Si  Si6  1  0.339503  0.672729  0.000000  1
  Ag  Ag7  1  0.000000  0.264061  0.000000  1
  Hg  Hg8  1  0.000000  0.984112  0.500000  1
