# generated using pymatgen
data_Sr8Ho9Er3Sn16
_symmetry_space_group_name_H-M   'P 1'
_cell_length_a   8.04476900
_cell_length_b   8.54659741
_cell_length_c   16.24487600
_cell_angle_alpha   90.00000000
_cell_angle_beta   90.00000000
_cell_angle_gamma   89.88107892
_symmetry_Int_Tables_number   1
_chemical_formula_structural   Sr8Ho9Er3Sn16
_chemical_formula_sum   'Sr8 Ho9 Er3 Sn16'
_cell_volume   1116.92057225
_cell_formula_units_Z   1
loop_
 _symmetry_equiv_pos_site_id
 _symmetry_equiv_pos_as_xyz
  1  'x, y, z'
loop_
 _atom_site_type_symbol
 _atom_site_label
 _atom_site_symmetry_multiplicity
 _atom_site_fract_x
 _atom_site_fract_y
 _atom_site_fract_z
 _atom_site_occupancy
  Sr  Sr0  1  0.503712  0.677853  0.592835  1
  Sr  Sr1  1  0.004153  0.822268  0.907029  1
  Sr  Sr2  1  0.496102  0.322301  0.092967  1
  Sr  Sr3  1  0.996106  0.177661  0.407232  1
  Sr  Sr4  1  0.496102  0.322301  0.407033  1
  Sr  Sr5  1  0.996106  0.177661  0.092768  1
  Sr  Sr6  1  0.503712  0.677853  0.907165  1
  Sr  Sr7  1  0.004153  0.822268  0.592971  1
  Ho  Ho8  1  0.676164  0.162594  0.624257  1
  Ho  Ho9  1  0.176047  0.337259  0.875671  1
  Ho  Ho10  1  0.323695  0.837440  0.124370  1
  Ho  Ho11  1  0.823940  0.662584  0.375623  1
  Ho  Ho12  1  0.323695  0.837440  0.375630  1
  Ho  Ho13  1  0.823940  0.662584  0.124377  1
  Ho  Ho14  1  0.676164  0.162594  0.875743  1
  Ho  Ho15  1  0.176047  0.337259  0.624329  1
  Ho  Ho16  1  0.840134  0.505292  0.750000  1
  Er  Er17  1  0.340699  0.994788  0.750000  1
  Er  Er18  1  0.159546  0.495034  0.250000  1
  Er  Er19  1  0.659180  0.004858  0.250000  1
  Sn  Sn20  1  0.662197  0.958340  0.456223  1
  Sn  Sn21  1  0.162318  0.541626  0.043787  1
  Sn  Sn22  1  0.337869  0.041649  0.956186  1
  Sn  Sn23  1  0.837648  0.458268  0.543706  1
  Sn  Sn24  1  0.337869  0.041649  0.543814  1
  Sn  Sn25  1  0.837648  0.458268  0.956294  1
  Sn  Sn26  1  0.662197  0.958340  0.043777  1
  Sn  Sn27  1  0.162318  0.541626  0.456213  1
  Sn  Sn28  1  0.477159  0.364149  0.750000  1
  Sn  Sn29  1  0.977634  0.135768  0.750000  1
  Sn  Sn30  1  0.522405  0.635302  0.250000  1
  Sn  Sn31  1  0.022337  0.864202  0.250000  1
  Sn  Sn32  1  0.711896  0.866500  0.750000  1
  Sn  Sn33  1  0.212439  0.633400  0.750000  1
  Sn  Sn34  1  0.288531  0.134337  0.250000  1
  Sn  Sn35  1  0.788133  0.366680  0.250000  1
