# generated using pymatgen
data_Ac6Zn3Si8Hg
_symmetry_space_group_name_H-M   'P 1'
_cell_length_a   4.57036048
_cell_length_b   4.33029412
_cell_length_c   22.50931889
_cell_angle_alpha   84.48024686
_cell_angle_beta   95.82679286
_cell_angle_gamma   89.99999633
_symmetry_Int_Tables_number   1
_chemical_formula_structural   Ac6Zn3Si8Hg
_chemical_formula_sum   'Ac6 Zn3 Si8 Hg1'
_cell_volume   441.10395616
_cell_formula_units_Z   1
loop_
 _symmetry_equiv_pos_site_id
 _symmetry_equiv_pos_as_xyz
  1  'x, y, z'
loop_
 _atom_site_type_symbol
 _atom_site_label
 _atom_site_symmetry_multiplicity
 _atom_site_fract_x
 _atom_site_fract_y
 _atom_site_fract_z
 _atom_site_occupancy
  Ac  Ac0  1  0.376576  0.873424  0.253152  1
  Ac  Ac1  1  0.039814  0.210186  0.579627  1
  Ac  Ac2  1  0.702702  0.547298  0.905408  1
  Ac  Ac3  1  0.296234  0.453766  0.092466  1
  Ac  Ac4  1  0.960549  0.789451  0.421096  1
  Ac  Ac5  1  0.624251  0.125749  0.748501  1
  Zn  Zn6  1  0.905435  0.344565  0.310868  1
  Zn  Zn7  1  0.569106  0.680894  0.638211  1
  Zn  Zn8  1  0.233299  0.016701  0.966599  1
  Si  Si9  1  0.432532  0.317468  0.365066  1
  Si  Si10  1  0.096149  0.653851  0.692296  1
  Si  Si11  1  0.850149  0.399851  0.200299  1
  Si  Si12  1  0.513658  0.736342  0.527317  1
  Si  Si13  1  0.177352  0.072648  0.854702  1
  Si  Si14  1  0.823280  0.926720  0.146562  1
  Si  Si15  1  0.486289  0.263711  0.472580  1
  Si  Si16  1  0.149760  0.600240  0.799517  1
  Hg  Hg17  1  0.762866  0.987134  0.025733  1
