# generated using pymatgen
data_Sr9Ca3Cu4(As2H)4
_symmetry_space_group_name_H-M   'P 1'
_cell_length_a   4.35634100
_cell_length_b   11.81556468
_cell_length_c   12.53319308
_cell_angle_alpha   89.41818378
_cell_angle_beta   90.00000000
_cell_angle_gamma   90.00000000
_symmetry_Int_Tables_number   1
_chemical_formula_structural   Sr9Ca3Cu4(As2H)4
_chemical_formula_sum   'Sr9 Ca3 Cu4 As8 H4'
_cell_volume   645.08313539
_cell_formula_units_Z   1
loop_
 _symmetry_equiv_pos_site_id
 _symmetry_equiv_pos_as_xyz
  1  'x, y, z'
loop_
 _atom_site_type_symbol
 _atom_site_label
 _atom_site_symmetry_multiplicity
 _atom_site_fract_x
 _atom_site_fract_y
 _atom_site_fract_z
 _atom_site_occupancy
  Sr  Sr0  1  0.250000  0.064985  0.620611  1
  Sr  Sr1  1  0.250000  0.563697  0.880682  1
  Sr  Sr2  1  0.750000  0.933922  0.379854  1
  Sr  Sr3  1  0.750000  0.434065  0.119595  1
  Sr  Sr4  1  0.250000  0.376340  0.558323  1
  Sr  Sr5  1  0.250000  0.873745  0.943780  1
  Sr  Sr6  1  0.750000  0.628073  0.446228  1
  Sr  Sr7  1  0.750000  0.122069  0.053234  1
  Sr  Sr8  1  0.250000  0.205305  0.296298  1
  Ca  Ca9  1  0.250000  0.703069  0.196015  1
  Ca  Ca10  1  0.750000  0.794513  0.699219  1
  Ca  Ca11  1  0.750000  0.294814  0.802527  1
  Cu  Cu12  1  0.250000  0.140936  0.849756  1
  Cu  Cu13  1  0.250000  0.640949  0.651067  1
  Cu  Cu14  1  0.750000  0.855607  0.149480  1
  Cu  Cu15  1  0.750000  0.371374  0.360224  1
  As  As16  1  0.250000  0.476124  0.317679  1
  As  As17  1  0.250000  0.965177  0.180843  1
  As  As18  1  0.750000  0.529407  0.684139  1
  As  As19  1  0.750000  0.028708  0.816330  1
  As  As20  1  0.250000  0.307834  0.978784  1
  As  As21  1  0.250000  0.810511  0.522825  1
  As  As22  1  0.750000  0.689133  0.020274  1
  As  As23  1  0.750000  0.194215  0.482253  1
  H  H24  1  0.250000  0.239311  0.733625  1
  H  H25  1  0.250000  0.739055  0.767811  1
  H  H26  1  0.750000  0.759186  0.267377  1
  H  H27  1  0.750000  0.257876  0.221168  1
