# generated using pymatgen
data_La7Sc3ZnSi7O3
_symmetry_space_group_name_H-M   'P 1'
_cell_length_a   10.72350803
_cell_length_b   10.73746572
_cell_length_c   4.39773800
_cell_angle_alpha   90.00000000
_cell_angle_beta   90.00000000
_cell_angle_gamma   120.04306552
_symmetry_Int_Tables_number   1
_chemical_formula_structural   La7Sc3ZnSi7O3
_chemical_formula_sum   'La7 Sc3 Zn1 Si7 O3'
_cell_volume   438.33891343
_cell_formula_units_Z   1
loop_
 _symmetry_equiv_pos_site_id
 _symmetry_equiv_pos_as_xyz
  1  'x, y, z'
loop_
 _atom_site_type_symbol
 _atom_site_label
 _atom_site_symmetry_multiplicity
 _atom_site_fract_x
 _atom_site_fract_y
 _atom_site_fract_z
 _atom_site_occupancy
  La  La0  1  0.215147  0.785243  0.000000  1
  La  La1  1  0.571597  0.785718  0.000000  1
  La  La2  1  0.784853  0.570097  0.000000  1
  La  La3  1  0.000000  0.003756  0.000000  1
  La  La4  1  0.214374  0.427140  0.000000  1
  La  La5  1  0.428403  0.214122  0.000000  1
  La  La6  1  0.785626  0.212767  0.000000  1
  Sc  Sc7  1  0.000000  0.493571  0.500000  1
  Sc  Sc8  1  0.498595  0.500293  0.500000  1
  Sc  Sc9  1  0.501405  0.001698  0.500000  1
  Zn  Zn10  1  0.000000  0.774260  0.500000  1
  Si  Si11  1  0.000000  0.224890  0.500000  1
  Si  Si12  1  0.227599  0.227332  0.500000  1
  Si  Si13  1  0.772401  0.999733  0.500000  1
  Si  Si14  1  0.332846  0.666029  0.500000  1
  Si  Si15  1  0.226555  0.002692  0.500000  1
  Si  Si16  1  0.667154  0.333183  0.500000  1
  Si  Si17  1  0.773445  0.776137  0.500000  1
  O  O18  1  0.000000  0.500307  0.000000  1
  O  O19  1  0.500480  0.500755  0.000000  1
  O  O20  1  0.499520  0.000276  0.000000  1
