# generated using pymatgen
data_LiTlSb2(P4O13)2
_symmetry_space_group_name_H-M   'P 1'
_cell_length_a   5.09610637
_cell_length_b   8.03311512
_cell_length_c   15.18798719
_cell_angle_alpha   83.64280874
_cell_angle_beta   84.10609609
_cell_angle_gamma   81.53950981
_symmetry_Int_Tables_number   1
_chemical_formula_structural   LiTlSb2(P4O13)2
_chemical_formula_sum   'Li1 Tl1 Sb2 P8 O26'
_cell_volume   608.84687079
_cell_formula_units_Z   1
loop_
 _symmetry_equiv_pos_site_id
 _symmetry_equiv_pos_as_xyz
  1  'x, y, z'
loop_
 _atom_site_type_symbol
 _atom_site_label
 _atom_site_symmetry_multiplicity
 _atom_site_fract_x
 _atom_site_fract_y
 _atom_site_fract_z
 _atom_site_occupancy
  Li  Li0  1  0.016713  0.601243  0.013459  1
  Tl  Tl1  1  0.274373  0.405530  0.522887  1
  Sb  Sb2  1  0.435520  0.055649  0.239236  1
  Sb  Sb3  1  0.568218  0.946745  0.753775  1
  P  P4  1  0.340023  0.589604  0.815236  1
  P  P5  1  0.995834  0.101619  0.859483  1
  P  P6  1  0.712993  0.331139  0.722155  1
  P  P7  1  0.864783  0.217133  0.342514  1
  P  P8  1  0.003404  0.886413  0.142669  1
  P  P9  1  0.284090  0.673284  0.282161  1
  P  P10  1  0.137571  0.790800  0.649410  1
  P  P11  1  0.655827  0.421116  0.178487  1
  O  O12  1  0.476346  0.594411  0.201662  1
  O  O13  1  0.700501  0.956097  0.146841  1
  O  O14  1  0.584431  0.181622  0.694776  1
  O  O15  1  0.857698  0.954107  0.830734  1
  O  O16  1  0.175554  0.639493  0.730216  1
  O  O17  1  0.822746  0.457209  0.095710  1
  O  O18  1  0.417201  0.824646  0.303920  1
  O  O19  1  0.459476  0.289638  0.178537  1
  O  O20  1  0.501082  0.407750  0.799053  1
  O  O21  1  0.025605  0.754019  0.232794  1
  O  O22  1  0.555339  0.709962  0.809823  1
  O  O23  1  0.961905  0.250842  0.775265  1
  O  O24  1  0.282994  0.936465  0.674819  1
  O  O25  1  0.095777  0.797712  0.062727  1
  O  O26  1  0.832637  0.858140  0.657814  1
  O  O27  1  0.898624  0.164456  0.945349  1
  O  O28  1  0.777951  0.455220  0.647315  1
  O  O29  1  0.302993  0.038081  0.848870  1
  O  O30  1  0.779972  0.278242  0.430274  1
  O  O31  1  0.224633  0.548760  0.357003  1
  O  O32  1  0.171434  0.152273  0.332384  1
  O  O33  1  0.155332  0.035279  0.159467  1
  O  O34  1  0.167300  0.574524  0.898511  1
  O  O35  1  0.826048  0.367925  0.261963  1
  O  O36  1  0.721010  0.071509  0.316709  1
  O  O37  1  0.229312  0.727424  0.562487  1
