# generated using pymatgen
data_Tm2Pa2Ge6Ir6Rh
_symmetry_space_group_name_H-M   'P 1'
_cell_length_a   7.28559349
_cell_length_b   7.30211539
_cell_length_c   7.28557238
_cell_angle_alpha   109.41276862
_cell_angle_beta   109.44604309
_cell_angle_gamma   109.41352044
_symmetry_Int_Tables_number   1
_chemical_formula_structural   Tm2Pa2Ge6Ir6Rh
_chemical_formula_sum   'Tm2 Pa2 Ge6 Ir6 Rh1'
_cell_volume   298.88943747
_cell_formula_units_Z   1
loop_
 _symmetry_equiv_pos_site_id
 _symmetry_equiv_pos_as_xyz
  1  'x, y, z'
loop_
 _atom_site_type_symbol
 _atom_site_label
 _atom_site_symmetry_multiplicity
 _atom_site_fract_x
 _atom_site_fract_y
 _atom_site_fract_z
 _atom_site_occupancy
  Tm  Tm0  1  0.000000  0.000000  0.500000  1
  Tm  Tm1  1  0.500000  0.000000  0.000000  1
  Pa  Pa2  1  0.000000  0.500000  0.000000  1
  Pa  Pa3  1  0.500000  0.500000  0.500000  1
  Ge  Ge4  1  0.683150  0.688386  0.005246  1
  Ge  Ge5  1  0.315963  0.999886  0.315965  1
  Ge  Ge6  1  0.994770  0.311617  0.316855  1
  Ge  Ge7  1  0.316850  0.311614  0.994754  1
  Ge  Ge8  1  0.684037  0.000114  0.684035  1
  Ge  Ge9  1  0.005230  0.688383  0.683145  1
  Ir  Ir10  1  0.749412  0.252285  0.502808  1
  Ir  Ir11  1  0.749999  0.499992  0.249987  1
  Ir  Ir12  1  0.502816  0.252281  0.749408  1
  Ir  Ir13  1  0.250001  0.500008  0.750013  1
  Ir  Ir14  1  0.250588  0.747715  0.497192  1
  Ir  Ir15  1  0.497184  0.747719  0.250592  1
  Rh  Rh16  1  0.000000  0.000000  0.000000  1
