# generated using pymatgen
data_Y2Pa3Si12Ir19
_symmetry_space_group_name_H-M   'P 1'
_cell_length_a   12.82857200
_cell_length_b   12.82857142
_cell_length_c   3.98041700
_cell_angle_alpha   90.00000000
_cell_angle_beta   90.00000000
_cell_angle_gamma   120.00000665
_symmetry_Int_Tables_number   1
_chemical_formula_structural   Y2Pa3Si12Ir19
_chemical_formula_sum   'Y2 Pa3 Si12 Ir19'
_cell_volume   567.30392376
_cell_formula_units_Z   1
loop_
 _symmetry_equiv_pos_site_id
 _symmetry_equiv_pos_as_xyz
  1  'x, y, z'
loop_
 _atom_site_type_symbol
 _atom_site_label
 _atom_site_symmetry_multiplicity
 _atom_site_fract_x
 _atom_site_fract_y
 _atom_site_fract_z
 _atom_site_occupancy
  Y  Y0  1  0.666667  0.333333  0.000000  1
  Y  Y1  1  0.333333  0.666667  0.000000  1
  Pa  Pa2  1  0.816539  0.816539  0.500000  1
  Pa  Pa3  1  0.183461  0.000000  0.500000  1
  Pa  Pa4  1  0.000000  0.183461  0.500000  1
  Si  Si5  1  0.687201  0.170263  0.500000  1
  Si  Si6  1  0.829737  0.516937  0.500000  1
  Si  Si7  1  0.483063  0.312799  0.500000  1
  Si  Si8  1  0.170263  0.687201  0.500000  1
  Si  Si9  1  0.516937  0.829737  0.500000  1
  Si  Si10  1  0.312799  0.483063  0.500000  1
  Si  Si11  1  0.630324  0.630324  0.000000  1
  Si  Si12  1  0.369676  0.000000  0.000000  1
  Si  Si13  1  0.000000  0.369676  0.000000  1
  Si  Si14  1  0.181028  0.181028  0.000000  1
  Si  Si15  1  0.818972  0.000000  0.000000  1
  Si  Si16  1  0.000000  0.818972  0.000000  1
  Ir  Ir17  1  0.808534  0.181336  0.000000  1
  Ir  Ir18  1  0.818664  0.627198  0.000000  1
  Ir  Ir19  1  0.372802  0.191466  0.000000  1
  Ir  Ir20  1  0.181336  0.808534  0.000000  1
  Ir  Ir21  1  0.627198  0.818664  0.000000  1
  Ir  Ir22  1  0.191466  0.372802  0.000000  1
  Ir  Ir23  1  0.445656  0.445656  0.000000  1
  Ir  Ir24  1  0.554344  0.000000  0.000000  1
  Ir  Ir25  1  0.000000  0.554344  0.000000  1
  Ir  Ir26  1  0.282811  0.282811  0.500000  1
  Ir  Ir27  1  0.717189  0.000000  0.500000  1
  Ir  Ir28  1  0.000000  0.717189  0.500000  1
  Ir  Ir29  1  0.873830  0.360777  0.500000  1
  Ir  Ir30  1  0.639223  0.513055  0.500000  1
  Ir  Ir31  1  0.486945  0.126170  0.500000  1
  Ir  Ir32  1  0.360777  0.873830  0.500000  1
  Ir  Ir33  1  0.513055  0.639223  0.500000  1
  Ir  Ir34  1  0.126170  0.486945  0.500000  1
  Ir  Ir35  1  0.000000  0.000000  0.000000  1
