# generated using pymatgen
data_CrS27
_symmetry_space_group_name_H-M   'P 1'
_cell_length_a   15.01887527
_cell_length_b   15.01887693
_cell_length_c   15.01887442
_cell_angle_alpha   118.74400292
_cell_angle_beta   118.74399418
_cell_angle_gamma   118.74399621
_symmetry_Int_Tables_number   1
_chemical_formula_structural   CrS27
_chemical_formula_sum   'Cr1 S27'
_cell_volume   980.62681140
_cell_formula_units_Z   1
loop_
 _symmetry_equiv_pos_site_id
 _symmetry_equiv_pos_as_xyz
  1  'x, y, z'
loop_
 _atom_site_type_symbol
 _atom_site_label
 _atom_site_symmetry_multiplicity
 _atom_site_fract_x
 _atom_site_fract_y
 _atom_site_fract_z
 _atom_site_occupancy
  Cr  Cr0  1  0.906424  0.906424  0.906424  1
  S  S1  1  0.803404  0.521911  0.521911  1
  S  S2  1  0.521911  0.521911  0.803404  1
  S  S3  1  0.521911  0.803404  0.521911  1
  S  S4  1  0.244095  0.374280  0.633223  1
  S  S5  1  0.354497  0.954634  0.354497  1
  S  S6  1  0.354497  0.354497  0.954634  1
  S  S7  1  0.954634  0.354497  0.354497  1
  S  S8  1  0.125927  0.739445  0.255822  1
  S  S9  1  0.255822  0.125927  0.739445  1
  S  S10  1  0.739445  0.255822  0.125927  1
  S  S11  1  0.739445  0.125927  0.255822  1
  S  S12  1  0.255822  0.739445  0.125927  1
  S  S13  1  0.125927  0.255822  0.739445  1
  S  S14  1  0.348817  0.881501  0.532589  1
  S  S15  1  0.532589  0.348817  0.881501  1
  S  S16  1  0.881501  0.532589  0.348817  1
  S  S17  1  0.881501  0.348817  0.532589  1
  S  S18  1  0.532589  0.881501  0.348817  1
  S  S19  1  0.348817  0.532589  0.881501  1
  S  S20  1  0.244095  0.633223  0.374280  1
  S  S21  1  0.374280  0.244095  0.633223  1
  S  S22  1  0.633223  0.374280  0.244095  1
  S  S23  1  0.633223  0.244095  0.374280  1
  S  S24  1  0.374280  0.633223  0.244095  1
  S  S25  1  0.854745  0.990936  0.990936  1
  S  S26  1  0.990936  0.990936  0.854745  1
  S  S27  1  0.990936  0.854745  0.990936  1
