# generated using pymatgen
data_K13Rb3(SnSe4)4
_symmetry_space_group_name_H-M   'P 1'
_cell_length_a   8.37301496
_cell_length_b   10.45654067
_cell_length_c   15.40721012
_cell_angle_alpha   90.21509916
_cell_angle_beta   90.49351112
_cell_angle_gamma   90.23384843
_symmetry_Int_Tables_number   1
_chemical_formula_structural   K13Rb3(SnSe4)4
_chemical_formula_sum   'K13 Rb3 Sn4 Se16'
_cell_volume   1348.87298740
_cell_formula_units_Z   1
loop_
 _symmetry_equiv_pos_site_id
 _symmetry_equiv_pos_as_xyz
  1  'x, y, z'
loop_
 _atom_site_type_symbol
 _atom_site_label
 _atom_site_symmetry_multiplicity
 _atom_site_fract_x
 _atom_site_fract_y
 _atom_site_fract_z
 _atom_site_occupancy
  K  K0  1  0.500000  0.500000  0.500000  1
  K  K1  1  0.977617  0.748864  0.426333  1
  K  K2  1  0.476727  0.250435  0.075222  1
  K  K3  1  0.022383  0.251136  0.573667  1
  K  K4  1  0.523273  0.749565  0.924778  1
  K  K5  1  0.836427  0.051055  0.268041  1
  K  K6  1  0.338454  0.950082  0.232646  1
  K  K7  1  0.158445  0.547769  0.729383  1
  K  K8  1  0.659528  0.449414  0.767202  1
  K  K9  1  0.163573  0.948945  0.731959  1
  K  K10  1  0.661546  0.049918  0.767354  1
  K  K11  1  0.841555  0.452231  0.270617  1
  K  K12  1  0.340472  0.550586  0.232798  1
  Rb  Rb13  1  0.000000  0.000000  0.000000  1
  Rb  Rb14  1  0.500000  0.000000  0.500000  1
  Rb  Rb15  1  0.000000  0.500000  0.000000  1
  Sn  Sn16  1  0.764720  0.748417  0.666721  1
  Sn  Sn17  1  0.235280  0.251583  0.333279  1
  Sn  Sn18  1  0.731431  0.749719  0.168593  1
  Sn  Sn19  1  0.268569  0.250281  0.831407  1
  Se  Se20  1  0.961580  0.250308  0.822373  1
  Se  Se21  1  0.541843  0.251727  0.325654  1
  Se  Se22  1  0.458157  0.748273  0.674346  1
  Se  Se23  1  0.038420  0.749692  0.177627  1
  Se  Se24  1  0.630492  0.551089  0.088859  1
  Se  Se25  1  0.143973  0.452046  0.413266  1
  Se  Se26  1  0.369400  0.052140  0.910645  1
  Se  Se27  1  0.869578  0.946064  0.589139  1
  Se  Se28  1  0.369508  0.448911  0.911141  1
  Se  Se29  1  0.856027  0.547954  0.586734  1
  Se  Se30  1  0.630600  0.947860  0.089355  1
  Se  Se31  1  0.130422  0.053936  0.410861  1
  Se  Se32  1  0.620528  0.750460  0.324960  1
  Se  Se33  1  0.119269  0.252233  0.176776  1
  Se  Se34  1  0.379472  0.249540  0.675040  1
  Se  Se35  1  0.880731  0.747767  0.823224  1
