# generated using pymatgen
data_PrHoZn5Si
_symmetry_space_group_name_H-M   'P 1'
_cell_length_a   8.24611312
_cell_length_b   8.24611346
_cell_length_c   8.76343400
_cell_angle_alpha   90.00000000
_cell_angle_beta   90.00000000
_cell_angle_gamma   149.43620829
_symmetry_Int_Tables_number   1
_chemical_formula_structural   PrHoZn5Si
_chemical_formula_sum   'Pr2 Ho2 Zn10 Si2'
_cell_volume   303.01325120
_cell_formula_units_Z   2
loop_
 _symmetry_equiv_pos_site_id
 _symmetry_equiv_pos_as_xyz
  1  'x, y, z'
loop_
 _atom_site_type_symbol
 _atom_site_label
 _atom_site_symmetry_multiplicity
 _atom_site_fract_x
 _atom_site_fract_y
 _atom_site_fract_z
 _atom_site_occupancy
  Pr  Pr0  1  0.000000  0.000000  0.500000  1
  Pr  Pr1  1  0.000000  0.000000  0.000000  1
  Ho  Ho2  1  0.201075  0.798925  0.250000  1
  Ho  Ho3  1  0.798925  0.201075  0.750000  1
  Zn  Zn4  1  0.812139  0.187861  0.392433  1
  Zn  Zn5  1  0.187861  0.812139  0.607567  1
  Zn  Zn6  1  0.812139  0.187861  0.107567  1
  Zn  Zn7  1  0.187861  0.812139  0.892433  1
  Zn  Zn8  1  0.652212  0.347788  0.473863  1
  Zn  Zn9  1  0.347788  0.652212  0.526137  1
  Zn  Zn10  1  0.652212  0.347788  0.026137  1
  Zn  Zn11  1  0.347788  0.652212  0.973863  1
  Zn  Zn12  1  0.402526  0.597474  0.250000  1
  Zn  Zn13  1  0.597474  0.402526  0.750000  1
  Si  Si14  1  0.558119  0.441881  0.250000  1
  Si  Si15  1  0.441881  0.558119  0.750000  1
