# generated using pymatgen
data_Tb6P13Rh20
_symmetry_space_group_name_H-M   'P 1'
_cell_length_a   13.36173500
_cell_length_b   13.36173343
_cell_length_c   3.92956200
_cell_angle_alpha   90.00000000
_cell_angle_beta   90.00000000
_cell_angle_gamma   119.99999646
_symmetry_Int_Tables_number   1
_chemical_formula_structural   Tb6P13Rh20
_chemical_formula_sum   'Tb6 P13 Rh20'
_cell_volume   607.57577563
_cell_formula_units_Z   1
loop_
 _symmetry_equiv_pos_site_id
 _symmetry_equiv_pos_as_xyz
  1  'x, y, z'
loop_
 _atom_site_type_symbol
 _atom_site_label
 _atom_site_symmetry_multiplicity
 _atom_site_fract_x
 _atom_site_fract_y
 _atom_site_fract_z
 _atom_site_occupancy
  Tb  Tb0  1  0.530074  0.717037  0.247646  1
  Tb  Tb1  1  0.282963  0.813037  0.247646  1
  Tb  Tb2  1  0.186963  0.469926  0.247646  1
  Tb  Tb3  1  0.469926  0.282963  0.752354  1
  Tb  Tb4  1  0.717037  0.186963  0.752354  1
  Tb  Tb5  1  0.813037  0.530074  0.752354  1
  P  P6  1  0.525558  0.139109  0.250565  1
  P  P7  1  0.860891  0.386450  0.250565  1
  P  P8  1  0.613550  0.474442  0.250565  1
  P  P9  1  0.946225  0.715592  0.255114  1
  P  P10  1  0.284408  0.230633  0.255114  1
  P  P11  1  0.769367  0.053775  0.255114  1
  P  P12  1  0.386450  0.525558  0.749435  1
  P  P13  1  0.474442  0.860891  0.749435  1
  P  P14  1  0.139109  0.613550  0.749435  1
  P  P15  1  0.715592  0.769367  0.744886  1
  P  P16  1  0.230633  0.946225  0.744886  1
  P  P17  1  0.053775  0.284408  0.744886  1
  P  P18  1  0.000000  0.000000  0.000000  1
  Rh  Rh19  1  0.333333  0.666667  0.752946  1
  Rh  Rh20  1  0.920780  0.249574  0.255376  1
  Rh  Rh21  1  0.750426  0.671205  0.255376  1
  Rh  Rh22  1  0.328795  0.079220  0.255376  1
  Rh  Rh23  1  0.439544  0.024060  0.751945  1
  Rh  Rh24  1  0.975940  0.415485  0.751945  1
  Rh  Rh25  1  0.584515  0.560456  0.751945  1
  Rh  Rh26  1  0.666667  0.333333  0.247054  1
  Rh  Rh27  1  0.093694  0.186746  0.245844  1
  Rh  Rh28  1  0.813254  0.906948  0.245844  1
  Rh  Rh29  1  0.093052  0.906306  0.245844  1
  Rh  Rh30  1  0.024060  0.584515  0.248055  1
  Rh  Rh31  1  0.415485  0.439544  0.248055  1
  Rh  Rh32  1  0.560456  0.975940  0.248055  1
  Rh  Rh33  1  0.671205  0.920780  0.744624  1
  Rh  Rh34  1  0.079220  0.750426  0.744624  1
  Rh  Rh35  1  0.249574  0.328795  0.744624  1
  Rh  Rh36  1  0.906306  0.813254  0.754156  1
  Rh  Rh37  1  0.186746  0.093052  0.754156  1
  Rh  Rh38  1  0.906948  0.093694  0.754156  1
