# generated using pymatgen
data_DyEr3Al18(AgRh2)2
_symmetry_space_group_name_H-M   'P 1'
_cell_length_a   7.62634153
_cell_length_b   7.62498399
_cell_length_c   9.43264300
_cell_angle_alpha   90.00000000
_cell_angle_beta   90.00000000
_cell_angle_gamma   119.31413116
_symmetry_Int_Tables_number   1
_chemical_formula_structural   DyEr3Al18(AgRh2)2
_chemical_formula_sum   'Dy1 Er3 Al18 Ag2 Rh4'
_cell_volume   478.27694096
_cell_formula_units_Z   1
loop_
 _symmetry_equiv_pos_site_id
 _symmetry_equiv_pos_as_xyz
  1  'x, y, z'
loop_
 _atom_site_type_symbol
 _atom_site_label
 _atom_site_symmetry_multiplicity
 _atom_site_fract_x
 _atom_site_fract_y
 _atom_site_fract_z
 _atom_site_occupancy
  Dy  Dy0  1  0.995505  0.680103  0.750000  1
  Er  Er1  1  0.004083  0.319262  0.250000  1
  Er  Er2  1  0.680113  0.995543  0.750000  1
  Er  Er3  1  0.319768  0.004386  0.250000  1
  Al  Al4  1  0.142700  0.142895  0.750000  1
  Al  Al5  1  0.857253  0.857495  0.250000  1
  Al  Al6  1  0.000691  0.346785  0.579239  1
  Al  Al7  1  0.999637  0.652734  0.419631  1
  Al  Al8  1  0.999637  0.652734  0.080369  1
  Al  Al9  1  0.347572  0.000922  0.920862  1
  Al  Al10  1  0.000691  0.346785  0.920761  1
  Al  Al11  1  0.652898  0.999585  0.079815  1
  Al  Al12  1  0.652898  0.999585  0.420185  1
  Al  Al13  1  0.347572  0.000922  0.579138  1
  Al  Al14  1  0.340814  0.340771  0.056093  1
  Al  Al15  1  0.658799  0.659137  0.945042  1
  Al  Al16  1  0.658799  0.659137  0.554958  1
  Al  Al17  1  0.340814  0.340771  0.443907  1
  Al  Al18  1  0.340071  0.555841  0.750000  1
  Al  Al19  1  0.660125  0.443963  0.250000  1
  Al  Al20  1  0.555553  0.339846  0.750000  1
  Al  Al21  1  0.443940  0.660152  0.250000  1
  Ag  Ag22  1  0.000001  0.000294  0.499786  1
  Ag  Ag23  1  0.000001  0.000294  0.000214  1
  Rh  Rh24  1  0.671982  0.327953  0.499834  1
  Rh  Rh25  1  0.328051  0.672074  0.499658  1
  Rh  Rh26  1  0.328051  0.672074  0.000342  1
  Rh  Rh27  1  0.671982  0.327953  0.000166  1
