# generated using pymatgen
data_Dy3Lu5Re2(B12Ir)2
_symmetry_space_group_name_H-M   'P 1'
_cell_length_a   3.63001600
_cell_length_b   9.07577182
_cell_length_c   11.47189011
_cell_angle_alpha   90.27645675
_cell_angle_beta   90.00000000
_cell_angle_gamma   90.00000000
_symmetry_Int_Tables_number   1
_chemical_formula_structural   Dy3Lu5Re2(B12Ir)2
_chemical_formula_sum   'Dy3 Lu5 Re2 B24 Ir2'
_cell_volume   377.93927940
_cell_formula_units_Z   1
loop_
 _symmetry_equiv_pos_site_id
 _symmetry_equiv_pos_as_xyz
  1  'x, y, z'
loop_
 _atom_site_type_symbol
 _atom_site_label
 _atom_site_symmetry_multiplicity
 _atom_site_fract_x
 _atom_site_fract_y
 _atom_site_fract_z
 _atom_site_occupancy
  Dy  Dy0  1  0.000000  0.316820  0.410271  1
  Dy  Dy1  1  0.000000  0.683258  0.589793  1
  Dy  Dy2  1  0.000000  0.825561  0.082490  1
  Lu  Lu3  1  0.000000  0.173856  0.918329  1
  Lu  Lu4  1  0.000000  0.946774  0.372305  1
  Lu  Lu5  1  0.000000  0.053588  0.627751  1
  Lu  Lu6  1  0.000000  0.441468  0.125277  1
  Lu  Lu7  1  0.000000  0.558022  0.874308  1
  Re  Re8  1  0.000000  0.139039  0.179950  1
  Re  Re9  1  0.000000  0.861944  0.819786  1
  B  B10  1  0.500000  0.554562  0.433836  1
  B  B11  1  0.500000  0.445239  0.566375  1
  B  B12  1  0.500000  0.053995  0.066493  1
  B  B13  1  0.500000  0.947462  0.932720  1
  B  B14  1  0.500000  0.751228  0.420825  1
  B  B15  1  0.500000  0.248844  0.579459  1
  B  B16  1  0.500000  0.249345  0.079725  1
  B  B17  1  0.500000  0.750726  0.919043  1
  B  B18  1  0.500000  0.792038  0.265637  1
  B  B19  1  0.500000  0.207653  0.735160  1
  B  B20  1  0.500000  0.293173  0.234031  1
  B  B21  1  0.500000  0.706944  0.765614  1
  B  B22  1  0.500000  0.630645  0.183172  1
  B  B23  1  0.500000  0.368176  0.817348  1
  B  B24  1  0.500000  0.130982  0.315296  1
  B  B25  1  0.500000  0.869522  0.684760  1
  B  B26  1  0.500000  0.982363  0.213469  1
  B  B27  1  0.500000  0.018992  0.786777  1
  B  B28  1  0.500000  0.481982  0.286456  1
  B  B29  1  0.500000  0.517589  0.713662  1
  B  B30  1  0.500000  0.603225  0.028850  1
  B  B31  1  0.500000  0.395100  0.970621  1
  B  B32  1  0.500000  0.103862  0.472073  1
  B  B33  1  0.500000  0.896341  0.528014  1
  Ir  Ir34  1  0.000000  0.637733  0.321173  1
  Ir  Ir35  1  0.000000  0.361948  0.679152  1
