# generated using pymatgen
data_CePrAl20(FeRh)2
_symmetry_space_group_name_H-M   'P 1'
_cell_length_a   6.83066142
_cell_length_b   6.83066167
_cell_length_c   9.11731099
_cell_angle_alpha   90.12924810
_cell_angle_beta   90.12924634
_cell_angle_gamma   97.47028568
_symmetry_Int_Tables_number   1
_chemical_formula_structural   CePrAl20(FeRh)2
_chemical_formula_sum   'Ce1 Pr1 Al20 Fe2 Rh2'
_cell_volume   421.78188340
_cell_formula_units_Z   1
loop_
 _symmetry_equiv_pos_site_id
 _symmetry_equiv_pos_as_xyz
  1  'x, y, z'
loop_
 _atom_site_type_symbol
 _atom_site_label
 _atom_site_symmetry_multiplicity
 _atom_site_fract_x
 _atom_site_fract_y
 _atom_site_fract_z
 _atom_site_occupancy
  Ce  Ce0  1  0.877354  0.122646  0.750000  1
  Pr  Pr1  1  0.125270  0.874730  0.250000  1
  Al  Al2  1  0.620043  0.373096  0.549671  1
  Al  Al3  1  0.380029  0.626857  0.451042  1
  Al  Al4  1  0.373143  0.619971  0.048958  1
  Al  Al5  1  0.626904  0.379957  0.950329  1
  Al  Al6  1  0.228918  0.222148  0.497791  1
  Al  Al7  1  0.770926  0.778315  0.503630  1
  Al  Al8  1  0.777852  0.771082  0.002209  1
  Al  Al9  1  0.221685  0.229074  0.996370  1
  Al  Al10  1  0.844710  0.163762  0.101236  1
  Al  Al11  1  0.154386  0.837042  0.898570  1
  Al  Al12  1  0.162958  0.845614  0.601430  1
  Al  Al13  1  0.836238  0.155290  0.398764  1
  Al  Al14  1  0.861838  0.589670  0.753489  1
  Al  Al15  1  0.137795  0.410112  0.246404  1
  Al  Al16  1  0.410330  0.138162  0.746511  1
  Al  Al17  1  0.589888  0.862205  0.253596  1
  Al  Al18  1  0.223288  0.480401  0.754908  1
  Al  Al19  1  0.775902  0.518728  0.244875  1
  Al  Al20  1  0.519599  0.776712  0.745092  1
  Al  Al21  1  0.481272  0.224098  0.255125  1
  Fe  Fe22  1  0.998896  0.498622  0.998953  1
  Fe  Fe23  1  0.501378  0.001104  0.501047  1
  Rh  Rh24  1  0.999108  0.499712  0.500270  1
  Rh  Rh25  1  0.500288  0.000892  0.999730  1
