# generated using pymatgen
data_Cs2LiNbO4
_symmetry_space_group_name_H-M   'P 1'
_cell_length_a   7.18136834
_cell_length_b   7.18136811
_cell_length_c   8.40517400
_cell_angle_alpha   90.00000000
_cell_angle_beta   90.00000000
_cell_angle_gamma   128.18766891
_symmetry_Int_Tables_number   1
_chemical_formula_structural   Cs2LiNbO4
_chemical_formula_sum   'Cs4 Li2 Nb2 O8'
_cell_volume   340.70468286
_cell_formula_units_Z   2
loop_
 _symmetry_equiv_pos_site_id
 _symmetry_equiv_pos_as_xyz
  1  'x, y, z'
loop_
 _atom_site_type_symbol
 _atom_site_label
 _atom_site_symmetry_multiplicity
 _atom_site_fract_x
 _atom_site_fract_y
 _atom_site_fract_z
 _atom_site_occupancy
  Cs  Cs0  1  0.394680  0.605320  0.552210  1
  Cs  Cs1  1  0.605320  0.394680  0.052210  1
  Cs  Cs2  1  0.060471  0.939529  0.409724  1
  Cs  Cs3  1  0.939529  0.060471  0.909724  1
  Li  Li4  1  0.195633  0.804367  0.826162  1
  Li  Li5  1  0.804367  0.195633  0.326162  1
  Nb  Nb6  1  0.693787  0.306213  0.611815  1
  Nb  Nb7  1  0.306213  0.693787  0.111815  1
  O  O8  1  0.102714  0.404855  0.222099  1
  O  O9  1  0.897286  0.595145  0.722099  1
  O  O10  1  0.362564  0.637436  0.906374  1
  O  O11  1  0.637436  0.362564  0.406374  1
  O  O12  1  0.595145  0.897286  0.222099  1
  O  O13  1  0.404855  0.102714  0.722099  1
  O  O14  1  0.837370  0.162630  0.570817  1
  O  O15  1  0.162630  0.837370  0.070817  1
