# generated using pymatgen
data_DyHo2SbO7
_symmetry_space_group_name_H-M   'P 1'
_cell_length_a   6.45990130
_cell_length_b   6.45990191
_cell_length_c   7.50788700
_cell_angle_alpha   90.00000000
_cell_angle_beta   90.00000000
_cell_angle_gamma   109.28824261
_symmetry_Int_Tables_number   1
_chemical_formula_structural   DyHo2SbO7
_chemical_formula_sum   'Dy2 Ho4 Sb2 O14'
_cell_volume   295.72030354
_cell_formula_units_Z   2
loop_
 _symmetry_equiv_pos_site_id
 _symmetry_equiv_pos_as_xyz
  1  'x, y, z'
loop_
 _atom_site_type_symbol
 _atom_site_label
 _atom_site_symmetry_multiplicity
 _atom_site_fract_x
 _atom_site_fract_y
 _atom_site_fract_z
 _atom_site_occupancy
  Dy  Dy0  1  0.513058  0.513058  0.500000  1
  Dy  Dy1  1  0.486942  0.486942  0.000000  1
  Ho  Ho2  1  0.999695  0.467863  0.747788  1
  Ho  Ho3  1  0.000305  0.532137  0.247788  1
  Ho  Ho4  1  0.532137  0.000305  0.752212  1
  Ho  Ho5  1  0.467863  0.999695  0.252212  1
  Sb  Sb6  1  0.999342  0.999342  0.500000  1
  Sb  Sb7  1  0.000658  0.000658  0.000000  1
  O  O8  1  0.638511  0.361489  0.750000  1
  O  O9  1  0.361489  0.638511  0.250000  1
  O  O10  1  0.928701  0.071299  0.750000  1
  O  O11  1  0.071299  0.928701  0.250000  1
  O  O12  1  0.921316  0.674363  0.528341  1
  O  O13  1  0.078684  0.325637  0.028341  1
  O  O14  1  0.325637  0.078684  0.971659  1
  O  O15  1  0.674363  0.921316  0.471659  1
  O  O16  1  0.369720  0.630280  0.750000  1
  O  O17  1  0.630280  0.369720  0.250000  1
  O  O18  1  0.936537  0.681834  0.966963  1
  O  O19  1  0.063463  0.318166  0.466963  1
  O  O20  1  0.318166  0.063463  0.533037  1
  O  O21  1  0.681834  0.936537  0.033037  1
