# generated using pymatgen
data_LuScBe2AlIr5
_symmetry_space_group_name_H-M   'P 1'
_cell_length_a   9.57002259
_cell_length_b   9.57002259
_cell_length_c   3.11375400
_cell_angle_alpha   90.00000000
_cell_angle_beta   90.00000000
_cell_angle_gamma   89.57574783
_symmetry_Int_Tables_number   1
_chemical_formula_structural   LuScBe2AlIr5
_chemical_formula_sum   'Lu2 Sc2 Be4 Al2 Ir10'
_cell_volume   285.16637717
_cell_formula_units_Z   2
loop_
 _symmetry_equiv_pos_site_id
 _symmetry_equiv_pos_as_xyz
  1  'x, y, z'
loop_
 _atom_site_type_symbol
 _atom_site_label
 _atom_site_symmetry_multiplicity
 _atom_site_fract_x
 _atom_site_fract_y
 _atom_site_fract_z
 _atom_site_occupancy
  Lu  Lu0  1  0.676255  0.176255  0.000000  1
  Lu  Lu1  1  0.323745  0.823745  0.000000  1
  Sc  Sc2  1  0.175088  0.324912  0.000000  1
  Sc  Sc3  1  0.824912  0.675088  0.000000  1
  Be  Be4  1  0.122338  0.622338  0.000000  1
  Be  Be5  1  0.877662  0.377662  0.000000  1
  Be  Be6  1  0.624564  0.875436  0.000000  1
  Be  Be7  1  0.375436  0.124564  0.000000  1
  Al  Al8  1  0.000000  0.000000  0.000000  1
  Al  Al9  1  0.500000  0.500000  0.000000  1
  Ir  Ir10  1  0.207972  0.070641  0.500000  1
  Ir  Ir11  1  0.792028  0.929359  0.500000  1
  Ir  Ir12  1  0.062600  0.789183  0.500000  1
  Ir  Ir13  1  0.710817  0.437400  0.500000  1
  Ir  Ir14  1  0.937400  0.210817  0.500000  1
  Ir  Ir15  1  0.289183  0.562600  0.500000  1
  Ir  Ir16  1  0.570641  0.707972  0.500000  1
  Ir  Ir17  1  0.429359  0.292028  0.500000  1
  Ir  Ir18  1  0.500000  0.000000  0.500000  1
  Ir  Ir19  1  0.000000  0.500000  0.500000  1
