# generated using pymatgen
data_Cr20Fe(PtC3)2
_symmetry_space_group_name_H-M   'P 1'
_cell_length_a   7.51575683
_cell_length_b   7.51575595
_cell_length_c   7.51575600
_cell_angle_alpha   59.99999096
_cell_angle_beta   59.99999483
_cell_angle_gamma   59.99998506
_symmetry_Int_Tables_number   1
_chemical_formula_structural   Cr20Fe(PtC3)2
_chemical_formula_sum   'Cr20 Fe1 Pt2 C6'
_cell_volume   300.19466355
_cell_formula_units_Z   1
loop_
 _symmetry_equiv_pos_site_id
 _symmetry_equiv_pos_as_xyz
  1  'x, y, z'
loop_
 _atom_site_type_symbol
 _atom_site_label
 _atom_site_symmetry_multiplicity
 _atom_site_fract_x
 _atom_site_fract_y
 _atom_site_fract_z
 _atom_site_occupancy
  Cr  Cr0  1  0.614174  0.614174  0.157477  1
  Cr  Cr1  1  0.614174  0.157477  0.614174  1
  Cr  Cr2  1  0.157477  0.614174  0.614174  1
  Cr  Cr3  1  0.614174  0.614174  0.614174  1
  Cr  Cr4  1  0.385826  0.385826  0.842523  1
  Cr  Cr5  1  0.385826  0.842523  0.385826  1
  Cr  Cr6  1  0.842523  0.385826  0.385826  1
  Cr  Cr7  1  0.385826  0.385826  0.385826  1
  Cr  Cr8  1  0.000000  0.000000  0.331819  1
  Cr  Cr9  1  0.668181  0.000000  0.331819  1
  Cr  Cr10  1  0.000000  0.668181  0.331819  1
  Cr  Cr11  1  0.668181  0.331819  0.000000  1
  Cr  Cr12  1  0.000000  0.331819  0.000000  1
  Cr  Cr13  1  0.000000  0.331819  0.668181  1
  Cr  Cr14  1  0.331819  0.668181  0.000000  1
  Cr  Cr15  1  0.331819  0.000000  0.668181  1
  Cr  Cr16  1  0.331819  0.000000  0.000000  1
  Cr  Cr17  1  0.000000  0.000000  0.668181  1
  Cr  Cr18  1  0.000000  0.668181  0.000000  1
  Cr  Cr19  1  0.668181  0.000000  0.000000  1
  Fe  Fe20  1  0.000000  0.000000  0.000000  1
  Pt  Pt21  1  0.750000  0.750000  0.750000  1
  Pt  Pt22  1  0.250000  0.250000  0.250000  1
  C  C23  1  0.723114  0.723114  0.276886  1
  C  C24  1  0.276886  0.723114  0.276886  1
  C  C25  1  0.723114  0.276886  0.276886  1
  C  C26  1  0.276886  0.276886  0.723114  1
  C  C27  1  0.723114  0.276886  0.723114  1
  C  C28  1  0.276886  0.723114  0.723114  1
