# generated using pymatgen
data_HoLu3Re4F28
_symmetry_space_group_name_H-M   'P 1'
_cell_length_a   5.51567659
_cell_length_b   8.82109601
_cell_length_c   11.95100729
_cell_angle_alpha   62.69585290
_cell_angle_beta   89.94802312
_cell_angle_gamma   89.96691741
_symmetry_Int_Tables_number   1
_chemical_formula_structural   HoLu3Re4F28
_chemical_formula_sum   'Ho1 Lu3 Re4 F28'
_cell_volume   516.68300017
_cell_formula_units_Z   1
loop_
 _symmetry_equiv_pos_site_id
 _symmetry_equiv_pos_as_xyz
  1  'x, y, z'
loop_
 _atom_site_type_symbol
 _atom_site_label
 _atom_site_symmetry_multiplicity
 _atom_site_fract_x
 _atom_site_fract_y
 _atom_site_fract_z
 _atom_site_occupancy
  Ho  Ho0  1  0.258181  0.816391  0.263812  1
  Lu  Lu1  1  0.741724  0.183536  0.736635  1
  Lu  Lu2  1  0.758245  0.185472  0.236305  1
  Lu  Lu3  1  0.241873  0.816607  0.763503  1
  Re  Re4  1  0.758432  0.726241  0.041802  1
  Re  Re5  1  0.241102  0.274228  0.956627  1
  Re  Re6  1  0.258668  0.272482  0.457685  1
  Re  Re7  1  0.741784  0.726197  0.543875  1
  F  F8  1  0.943118  0.707796  0.413980  1
  F  F9  1  0.054558  0.290954  0.586937  1
  F  F10  1  0.444872  0.291266  0.086602  1
  F  F11  1  0.554071  0.708731  0.912460  1
  F  F12  1  0.468416  0.728074  0.138397  1
  F  F13  1  0.532250  0.270747  0.860201  1
  F  F14  1  0.968044  0.270806  0.360518  1
  F  F15  1  0.032943  0.729276  0.639982  1
  F  F16  1  0.953361  0.743692  0.174657  1
  F  F17  1  0.042723  0.255104  0.824657  1
  F  F18  1  0.456874  0.254944  0.324839  1
  F  F19  1  0.542623  0.744971  0.675736  1
  F  F20  1  0.771644  0.474383  0.142138  1
  F  F21  1  0.228327  0.526152  0.857535  1
  F  F22  1  0.271825  0.523352  0.358276  1
  F  F23  1  0.728514  0.474108  0.642571  1
  F  F24  1  0.939886  0.276550  0.048231  1
  F  F25  1  0.060998  0.723647  0.951241  1
  F  F26  1  0.441020  0.722194  0.453860  1
  F  F27  1  0.560076  0.276129  0.548567  1
  F  F28  1  0.739479  0.977545  0.444922  1
  F  F29  1  0.260312  0.021218  0.555736  1
  F  F30  1  0.239586  0.023204  0.053704  1
  F  F31  1  0.760235  0.977773  0.944470  1
  F  F32  1  0.587794  0.972634  0.231645  1
  F  F33  1  0.418211  0.029391  0.767615  1
  F  F34  1  0.080159  0.033658  0.267864  1
  F  F35  1  0.918073  0.970545  0.732413  1
