# generated using pymatgen
data_ErTmB6Ru
_symmetry_space_group_name_H-M   'P 1'
_cell_length_a   3.62443800
_cell_length_b   9.07924700
_cell_length_c   11.45576600
_cell_angle_alpha   90.00000000
_cell_angle_beta   90.00000000
_cell_angle_gamma   90.00000000
_symmetry_Int_Tables_number   1
_chemical_formula_structural   ErTmB6Ru
_chemical_formula_sum   'Er4 Tm4 B24 Ru4'
_cell_volume   376.97681448
_cell_formula_units_Z   4
loop_
 _symmetry_equiv_pos_site_id
 _symmetry_equiv_pos_as_xyz
  1  'x, y, z'
loop_
 _atom_site_type_symbol
 _atom_site_label
 _atom_site_symmetry_multiplicity
 _atom_site_fract_x
 _atom_site_fract_y
 _atom_site_fract_z
 _atom_site_occupancy
  Er  Er0  1  0.000000  0.322132  0.414186  1
  Er  Er1  1  0.000000  0.677868  0.585814  1
  Er  Er2  1  0.000000  0.822132  0.085814  1
  Er  Er3  1  0.000000  0.177868  0.914186  1
  Tm  Tm4  1  0.000000  0.943784  0.372508  1
  Tm  Tm5  1  0.000000  0.056216  0.627492  1
  Tm  Tm6  1  0.000000  0.443784  0.127492  1
  Tm  Tm7  1  0.000000  0.556216  0.872508  1
  B  B8  1  0.500000  0.553954  0.433406  1
  B  B9  1  0.500000  0.446046  0.566594  1
  B  B10  1  0.500000  0.053954  0.066594  1
  B  B11  1  0.500000  0.946046  0.933406  1
  B  B12  1  0.500000  0.748812  0.419966  1
  B  B13  1  0.500000  0.251188  0.580034  1
  B  B14  1  0.500000  0.248812  0.080034  1
  B  B15  1  0.500000  0.751188  0.919966  1
  B  B16  1  0.500000  0.791821  0.265759  1
  B  B17  1  0.500000  0.208179  0.734241  1
  B  B18  1  0.500000  0.291821  0.234241  1
  B  B19  1  0.500000  0.708179  0.765759  1
  B  B20  1  0.500000  0.631617  0.184542  1
  B  B21  1  0.500000  0.368383  0.815458  1
  B  B22  1  0.500000  0.131617  0.315458  1
  B  B23  1  0.500000  0.868383  0.684542  1
  B  B24  1  0.500000  0.982747  0.213041  1
  B  B25  1  0.500000  0.017253  0.786959  1
  B  B26  1  0.500000  0.482747  0.286959  1
  B  B27  1  0.500000  0.517253  0.713041  1
  B  B28  1  0.500000  0.606099  0.029256  1
  B  B29  1  0.500000  0.393901  0.970744  1
  B  B30  1  0.500000  0.106099  0.470744  1
  B  B31  1  0.500000  0.893901  0.529256  1
  Ru  Ru32  1  0.000000  0.637900  0.320868  1
  Ru  Ru33  1  0.000000  0.362100  0.679132  1
  Ru  Ru34  1  0.000000  0.137900  0.179132  1
  Ru  Ru35  1  0.000000  0.862100  0.820868  1
