# generated using pymatgen
data_Tb2Dy(HoRu)2
_symmetry_space_group_name_H-M   'P 1'
_cell_length_a   6.36283315
_cell_length_b   7.27795962
_cell_length_c   8.48610816
_cell_angle_alpha   96.67316101
_cell_angle_beta   112.01794614
_cell_angle_gamma   90.00000213
_symmetry_Int_Tables_number   1
_chemical_formula_structural   Tb2Dy(HoRu)2
_chemical_formula_sum   'Tb4 Dy2 Ho4 Ru4'
_cell_volume   361.44374176
_cell_formula_units_Z   2
loop_
 _symmetry_equiv_pos_site_id
 _symmetry_equiv_pos_as_xyz
  1  'x, y, z'
loop_
 _atom_site_type_symbol
 _atom_site_label
 _atom_site_symmetry_multiplicity
 _atom_site_fract_x
 _atom_site_fract_y
 _atom_site_fract_z
 _atom_site_occupancy
  Tb  Tb0  1  0.977857  0.915977  0.187327  1
  Tb  Tb1  1  0.790529  0.584023  0.812673  1
  Tb  Tb2  1  0.022159  0.084153  0.812683  1
  Tb  Tb3  1  0.209477  0.415847  0.187317  1
  Dy  Dy4  1  0.640161  0.814770  0.434200  1
  Dy  Dy5  1  0.205961  0.685230  0.565800  1
  Ho  Ho6  1  0.359881  0.185227  0.565821  1
  Ho  Ho7  1  0.794061  0.314773  0.434179  1
  Ho  Ho8  1  0.420503  0.750000  0.000000  1
  Ho  Ho9  1  0.579514  0.250000  0.000000  1
  Ru  Ru10  1  0.822818  0.575519  0.220978  1
  Ru  Ru11  1  0.601839  0.924481  0.779022  1
  Ru  Ru12  1  0.177091  0.424344  0.778941  1
  Ru  Ru13  1  0.398150  0.075656  0.221059  1
