# generated using pymatgen
data_NdTh2(GaNi)3
_symmetry_space_group_name_H-M   'P 1'
_cell_length_a   7.11947553
_cell_length_b   7.07250748
_cell_length_c   3.99416000
_cell_angle_alpha   90.00000000
_cell_angle_beta   90.00000000
_cell_angle_gamma   119.78201241
_symmetry_Int_Tables_number   1
_chemical_formula_structural   NdTh2(GaNi)3
_chemical_formula_sum   'Nd1 Th2 Ga3 Ni3'
_cell_volume   174.55298821
_cell_formula_units_Z   1
loop_
 _symmetry_equiv_pos_site_id
 _symmetry_equiv_pos_as_xyz
  1  'x, y, z'
loop_
 _atom_site_type_symbol
 _atom_site_label
 _atom_site_symmetry_multiplicity
 _atom_site_fract_x
 _atom_site_fract_y
 _atom_site_fract_z
 _atom_site_occupancy
  Nd  Nd0  1  0.000000  0.415965  0.500000  1
  Th  Th1  1  0.581798  0.582011  0.500000  1
  Th  Th2  1  0.418202  0.000213  0.500000  1
  Ga  Ga3  1  0.000000  0.762114  0.000000  1
  Ga  Ga4  1  0.231686  0.235433  0.000000  1
  Ga  Ga5  1  0.768314  0.003747  0.000000  1
  Ni  Ni6  1  0.347169  0.678092  0.000000  1
  Ni  Ni7  1  0.652831  0.330922  0.000000  1
  Ni  Ni8  1  0.000000  0.991504  0.500000  1
