# generated using pymatgen
data_Y6Er10CdIn3Ni4
_symmetry_space_group_name_H-M   'P 1'
_cell_length_a   9.52369663
_cell_length_b   9.55525511
_cell_length_c   9.55182063
_cell_angle_alpha   60.10354938
_cell_angle_beta   59.99850669
_cell_angle_gamma   60.10028332
_symmetry_Int_Tables_number   1
_chemical_formula_structural   Y6Er10CdIn3Ni4
_chemical_formula_sum   'Y6 Er10 Cd1 In3 Ni4'
_cell_volume   615.57557999
_cell_formula_units_Z   1
loop_
 _symmetry_equiv_pos_site_id
 _symmetry_equiv_pos_as_xyz
  1  'x, y, z'
loop_
 _atom_site_type_symbol
 _atom_site_label
 _atom_site_symmetry_multiplicity
 _atom_site_fract_x
 _atom_site_fract_y
 _atom_site_fract_z
 _atom_site_occupancy
  Y  Y0  1  0.189565  0.813625  0.813561  1
  Y  Y1  1  0.813801  0.187813  0.187769  1
  Y  Y2  1  0.813691  0.187159  0.812476  1
  Y  Y3  1  0.191194  0.811399  0.188305  1
  Y  Y4  1  0.813702  0.812074  0.187311  1
  Y  Y5  1  0.191405  0.188239  0.811285  1
  Er  Er6  1  0.594866  0.595751  0.595815  1
  Er  Er7  1  0.598507  0.598325  0.204887  1
  Er  Er8  1  0.598945  0.205082  0.598229  1
  Er  Er9  1  0.203714  0.598255  0.598163  1
  Er  Er10  1  0.062344  0.438444  0.438616  1
  Er  Er11  1  0.438138  0.063342  0.063108  1
  Er  Er12  1  0.437529  0.063351  0.437460  1
  Er  Er13  1  0.062461  0.439575  0.061614  1
  Er  Er14  1  0.437476  0.437298  0.063615  1
  Er  Er15  1  0.062191  0.061985  0.439499  1
  Cd  Cd16  1  0.505776  0.830090  0.830835  1
  In  In17  1  0.830969  0.833328  0.832937  1
  In  In18  1  0.828928  0.832506  0.504045  1
  In  In19  1  0.829293  0.503992  0.832203  1
  Ni  Ni20  1  0.391543  0.393652  0.394118  1
  Ni  Ni21  1  0.390903  0.389679  0.823218  1
  Ni  Ni22  1  0.390133  0.823576  0.390553  1
  Ni  Ni23  1  0.822926  0.391458  0.390379  1
