# generated using pymatgen
data_Tb9Er(CoRu)2
_symmetry_space_group_name_H-M   'P 1'
_cell_length_a   6.33922544
_cell_length_b   7.11563589
_cell_length_c   8.56673297
_cell_angle_alpha   96.30727769
_cell_angle_beta   111.71504627
_cell_angle_gamma   90.00000315
_symmetry_Int_Tables_number   1
_chemical_formula_structural   Tb9Er(CoRu)2
_chemical_formula_sum   'Tb9 Er1 Co2 Ru2'
_cell_volume   356.48354920
_cell_formula_units_Z   1
loop_
 _symmetry_equiv_pos_site_id
 _symmetry_equiv_pos_as_xyz
  1  'x, y, z'
loop_
 _atom_site_type_symbol
 _atom_site_label
 _atom_site_symmetry_multiplicity
 _atom_site_fract_x
 _atom_site_fract_y
 _atom_site_fract_z
 _atom_site_occupancy
  Tb  Tb0  1  0.788045  0.588272  0.810579  1
  Tb  Tb1  1  0.977465  0.911728  0.189421  1
  Tb  Tb2  1  0.198165  0.416416  0.185001  1
  Tb  Tb3  1  0.013164  0.083584  0.814999  1
  Tb  Tb4  1  0.215787  0.687845  0.568346  1
  Tb  Tb5  1  0.647441  0.812155  0.431654  1
  Tb  Tb6  1  0.791929  0.318272  0.432783  1
  Tb  Tb7  1  0.359146  0.181728  0.567217  1
  Tb  Tb8  1  0.428527  0.750000  0.000000  1
  Er  Er9  1  0.575744  0.250000  0.000000  1
  Co  Co10  1  0.602798  0.923962  0.777857  1
  Co  Co11  1  0.824940  0.576038  0.222143  1
  Ru  Ru12  1  0.398682  0.073233  0.220516  1
  Ru  Ru13  1  0.178167  0.426767  0.779484  1
