# generated using pymatgen
data_Tm4Lu8TlFe3Au
_symmetry_space_group_name_H-M   'P 1'
_cell_length_a   8.11469842
_cell_length_b   8.11469818
_cell_length_c   8.11469821
_cell_angle_alpha   109.93482200
_cell_angle_beta   107.73075132
_cell_angle_gamma   110.76309134
_symmetry_Int_Tables_number   1
_chemical_formula_structural   Tm4Lu8TlFe3Au
_chemical_formula_sum   'Tm4 Lu8 Tl1 Fe3 Au1'
_cell_volume   411.02881177
_cell_formula_units_Z   1
loop_
 _symmetry_equiv_pos_site_id
 _symmetry_equiv_pos_as_xyz
  1  'x, y, z'
loop_
 _atom_site_type_symbol
 _atom_site_label
 _atom_site_symmetry_multiplicity
 _atom_site_fract_x
 _atom_site_fract_y
 _atom_site_fract_z
 _atom_site_occupancy
  Tm  Tm0  1  0.307190  0.309786  0.616977  1
  Tm  Tm1  1  0.692810  0.690214  0.383023  1
  Tm  Tm2  1  0.692810  0.309786  0.002595  1
  Tm  Tm3  1  0.307190  0.690214  0.997405  1
  Lu  Lu4  1  0.190231  0.444315  0.254084  1
  Lu  Lu5  1  0.809769  0.555685  0.745916  1
  Lu  Lu6  1  0.190231  0.936147  0.745916  1
  Lu  Lu7  1  0.961308  0.187692  0.773617  1
  Lu  Lu8  1  0.809769  0.063853  0.254084  1
  Lu  Lu9  1  0.038692  0.812308  0.226383  1
  Lu  Lu10  1  0.414075  0.187692  0.226383  1
  Lu  Lu11  1  0.585925  0.812308  0.773617  1
  Tl  Tl12  1  0.500000  0.000000  0.500000  1
  Fe  Fe13  1  0.381076  0.381076  0.000000  1
  Fe  Fe14  1  0.618924  0.618924  0.000000  1
  Fe  Fe15  1  0.000000  0.000000  0.000000  1
  Au  Au16  1  0.000000  0.500000  0.500000  1
