# generated using pymatgen
data_Yb(TaSe2)6
_symmetry_space_group_name_H-M   'P 1'
_cell_length_a   6.09966160
_cell_length_b   6.09966148
_cell_length_c   14.45649300
_cell_angle_alpha   85.95578853
_cell_angle_beta   85.95578861
_cell_angle_gamma   119.99880854
_symmetry_Int_Tables_number   1
_chemical_formula_structural   Yb(TaSe2)6
_chemical_formula_sum   'Yb1 Ta6 Se12'
_cell_volume   461.15461426
_cell_formula_units_Z   1
loop_
 _symmetry_equiv_pos_site_id
 _symmetry_equiv_pos_as_xyz
  1  'x, y, z'
loop_
 _atom_site_type_symbol
 _atom_site_label
 _atom_site_symmetry_multiplicity
 _atom_site_fract_x
 _atom_site_fract_y
 _atom_site_fract_z
 _atom_site_occupancy
  Yb  Yb0  1  0.000000  0.000000  0.000000  1
  Ta  Ta1  1  0.086306  0.086306  0.740563  1
  Ta  Ta2  1  0.420714  0.754448  0.738780  1
  Ta  Ta3  1  0.754448  0.420714  0.738780  1
  Ta  Ta4  1  0.245552  0.579286  0.261220  1
  Ta  Ta5  1  0.579286  0.245552  0.261220  1
  Ta  Ta6  1  0.913694  0.913694  0.259437  1
  Se  Se7  1  0.290492  0.290492  0.143397  1
  Se  Se8  1  0.614273  0.952017  0.143506  1
  Se  Se9  1  0.952017  0.614273  0.143506  1
  Se  Se10  1  0.047983  0.385727  0.856494  1
  Se  Se11  1  0.385727  0.047983  0.856494  1
  Se  Se12  1  0.709508  0.709508  0.856603  1
  Se  Se13  1  0.206205  0.206205  0.374850  1
  Se  Se14  1  0.543166  0.874288  0.374824  1
  Se  Se15  1  0.874288  0.543166  0.374824  1
  Se  Se16  1  0.125712  0.456834  0.625176  1
  Se  Se17  1  0.456834  0.125712  0.625176  1
  Se  Se18  1  0.793795  0.793795  0.625150  1
