# generated using pymatgen
data_Na2LiSc(H6Ir)2
_symmetry_space_group_name_H-M   'P 1'
_cell_length_a   6.99959400
_cell_length_b   6.99959400
_cell_length_c   6.92417200
_cell_angle_alpha   90.00000000
_cell_angle_beta   90.00000000
_cell_angle_gamma   90.00000000
_symmetry_Int_Tables_number   1
_chemical_formula_structural   Na2LiSc(H6Ir)2
_chemical_formula_sum   'Na4 Li2 Sc2 H24 Ir4'
_cell_volume   339.24507215
_cell_formula_units_Z   2
loop_
 _symmetry_equiv_pos_site_id
 _symmetry_equiv_pos_as_xyz
  1  'x, y, z'
loop_
 _atom_site_type_symbol
 _atom_site_label
 _atom_site_symmetry_multiplicity
 _atom_site_fract_x
 _atom_site_fract_y
 _atom_site_fract_z
 _atom_site_occupancy
  Na  Na0  1  0.000000  0.000000  0.500000  1
  Na  Na1  1  0.000000  0.500000  0.000000  1
  Na  Na2  1  0.500000  0.000000  0.000000  1
  Na  Na3  1  0.000000  0.000000  0.000000  1
  Li  Li4  1  0.000000  0.500000  0.500000  1
  Li  Li5  1  0.500000  0.000000  0.500000  1
  Sc  Sc6  1  0.500000  0.500000  0.500000  1
  Sc  Sc7  1  0.500000  0.500000  0.000000  1
  H  H8  1  0.732127  0.732127  0.498562  1
  H  H9  1  0.267873  0.267873  0.498562  1
  H  H10  1  0.037857  0.732548  0.739371  1
  H  H11  1  0.267452  0.962143  0.739371  1
  H  H12  1  0.732548  0.037857  0.739371  1
  H  H13  1  0.962143  0.267452  0.739371  1
  H  H14  1  0.736325  0.516112  0.744833  1
  H  H15  1  0.516112  0.736325  0.744833  1
  H  H16  1  0.483888  0.263675  0.744833  1
  H  H17  1  0.263675  0.483888  0.744833  1
  H  H18  1  0.268589  0.731411  0.985428  1
  H  H19  1  0.731411  0.268589  0.985428  1
  H  H20  1  0.731411  0.731411  0.014572  1
  H  H21  1  0.268589  0.268589  0.014572  1
  H  H22  1  0.263675  0.516112  0.255167  1
  H  H23  1  0.483888  0.736325  0.255167  1
  H  H24  1  0.516112  0.263675  0.255167  1
  H  H25  1  0.736325  0.483888  0.255167  1
  H  H26  1  0.962143  0.732548  0.260629  1
  H  H27  1  0.732548  0.962143  0.260629  1
  H  H28  1  0.267452  0.037857  0.260629  1
  H  H29  1  0.037857  0.267452  0.260629  1
  H  H30  1  0.267873  0.732127  0.501438  1
  H  H31  1  0.732127  0.267873  0.501438  1
  Ir  Ir32  1  0.276436  0.723564  0.742572  1
  Ir  Ir33  1  0.723564  0.276436  0.742572  1
  Ir  Ir34  1  0.723564  0.723564  0.257428  1
  Ir  Ir35  1  0.276436  0.276436  0.257428  1
