# generated using pymatgen
data_Ce2Er(TmSi2)2
_symmetry_space_group_name_H-M   'P 1'
_cell_length_a   7.46345693
_cell_length_b   7.75285484
_cell_length_c   14.75852000
_cell_angle_alpha   89.96073543
_cell_angle_beta   90.07224678
_cell_angle_gamma   89.99584444
_symmetry_Int_Tables_number   1
_chemical_formula_structural   Ce2Er(TmSi2)2
_chemical_formula_sum   'Ce8 Er4 Tm8 Si16'
_cell_volume   853.97281060
_cell_formula_units_Z   4
loop_
 _symmetry_equiv_pos_site_id
 _symmetry_equiv_pos_as_xyz
  1  'x, y, z'
loop_
 _atom_site_type_symbol
 _atom_site_label
 _atom_site_symmetry_multiplicity
 _atom_site_fract_x
 _atom_site_fract_y
 _atom_site_fract_z
 _atom_site_occupancy
  Ce  Ce0  1  0.020854  0.176430  0.401945  1
  Ce  Ce1  1  0.521957  0.322190  0.400973  1
  Ce  Ce2  1  0.479321  0.676567  0.901859  1
  Ce  Ce3  1  0.478079  0.678456  0.599218  1
  Ce  Ce4  1  0.979451  0.823665  0.598259  1
  Ce  Ce5  1  0.979335  0.823377  0.902153  1
  Ce  Ce6  1  0.520604  0.323044  0.097819  1
  Ce  Ce7  1  0.020762  0.176581  0.097629  1
  Er  Er8  1  0.321490  0.178384  0.622971  1
  Er  Er9  1  0.678496  0.821610  0.377282  1
  Er  Er10  1  0.177903  0.678334  0.377102  1
  Er  Er11  1  0.822012  0.321434  0.877666  1
  Tm  Tm12  1  0.654778  0.987362  0.750439  1
  Tm  Tm13  1  0.821876  0.321865  0.623240  1
  Tm  Tm14  1  0.845593  0.487075  0.249231  1
  Tm  Tm15  1  0.345331  0.012503  0.249212  1
  Tm  Tm16  1  0.321757  0.178272  0.877441  1
  Tm  Tm17  1  0.178052  0.678232  0.122513  1
  Tm  Tm18  1  0.678168  0.821780  0.122406  1
  Tm  Tm19  1  0.154236  0.512978  0.750553  1
  Si  Si20  1  0.275174  0.877046  0.750665  1
  Si  Si21  1  0.471966  0.611234  0.249447  1
  Si  Si22  1  0.027926  0.110922  0.750491  1
  Si  Si23  1  0.527903  0.388942  0.750060  1
  Si  Si24  1  0.147521  0.470377  0.539715  1
  Si  Si25  1  0.971893  0.888934  0.249319  1
  Si  Si26  1  0.724856  0.122845  0.249349  1
  Si  Si27  1  0.851599  0.530263  0.039469  1
  Si  Si28  1  0.351165  0.969913  0.039128  1
  Si  Si29  1  0.149181  0.470396  0.960842  1
  Si  Si30  1  0.648616  0.030101  0.539660  1
  Si  Si31  1  0.352107  0.970368  0.460675  1
  Si  Si32  1  0.851757  0.529310  0.461086  1
  Si  Si33  1  0.775465  0.623376  0.750062  1
  Si  Si34  1  0.224661  0.376680  0.249523  1
  Si  Si35  1  0.648157  0.029149  0.960596  1
