# generated using pymatgen
data_Ba12Y3TmTi8O34
_symmetry_space_group_name_H-M   'P 1'
_cell_length_a   5.99220700
_cell_length_b   5.99220200
_cell_length_c   29.96789500
_cell_angle_alpha   90.00009583
_cell_angle_beta   90.00000000
_cell_angle_gamma   120.00002209
_symmetry_Int_Tables_number   1
_chemical_formula_structural   Ba12Y3TmTi8O34
_chemical_formula_sum   'Ba12 Y3 Tm1 Ti8 O34'
_cell_volume   931.88007526
_cell_formula_units_Z   1
loop_
 _symmetry_equiv_pos_site_id
 _symmetry_equiv_pos_as_xyz
  1  'x, y, z'
loop_
 _atom_site_type_symbol
 _atom_site_label
 _atom_site_symmetry_multiplicity
 _atom_site_fract_x
 _atom_site_fract_y
 _atom_site_fract_z
 _atom_site_occupancy
  Ba  Ba0  1  0.999999  0.999998  0.000538  1
  Ba  Ba1  1  0.666667  0.333332  0.090030  1
  Ba  Ba2  1  0.333336  0.666671  0.183367  1
  Ba  Ba3  1  0.000001  0.000002  0.249348  1
  Ba  Ba4  1  0.333330  0.666660  0.315207  1
  Ba  Ba5  1  0.666668  0.333334  0.410157  1
  Ba  Ba6  1  0.000001  0.000003  0.499949  1
  Ba  Ba7  1  0.333333  0.666666  0.589704  1
  Ba  Ba8  1  0.666671  0.333339  0.684283  1
  Ba  Ba9  1  0.000000  0.000001  0.749979  1
  Ba  Ba10  1  0.666669  0.333335  0.815699  1
  Ba  Ba11  1  0.333333  0.666667  0.910783  1
  Y  Y12  1  0.999997  0.999994  0.372980  1
  Y  Y13  1  0.000000  0.000000  0.626771  1
  Y  Y14  1  0.000000  0.000001  0.873271  1
  Tm  Tm15  1  0.000005  0.000010  0.126927  1
  Ti  Ti16  1  0.333326  0.666653  0.055723  1
  Ti  Ti17  1  0.666669  0.333336  0.203256  1
  Ti  Ti18  1  0.666663  0.333323  0.295800  1
  Ti  Ti19  1  0.333331  0.666662  0.445409  1
  Ti  Ti20  1  0.666668  0.333335  0.554483  1
  Ti  Ti21  1  0.333336  0.666672  0.703823  1
  Ti  Ti22  1  0.333336  0.666671  0.796274  1
  Ti  Ti23  1  0.666676  0.333350  0.945573  1
  O  O24  1  0.666670  0.333340  0.004763  1
  O  O25  1  0.167452  0.832548  0.078575  1
  O  O26  1  0.665097  0.832548  0.078575  1
  O  O27  1  0.167453  0.334906  0.078576  1
  O  O28  1  0.349022  0.174511  0.168929  1
  O  O29  1  0.825488  0.174511  0.168929  1
  O  O30  1  0.825493  0.650984  0.168928  1
  O  O31  1  0.518403  0.036805  0.249407  1
  O  O32  1  0.518400  0.481598  0.249406  1
  O  O33  1  0.963198  0.481598  0.249406  1
  O  O34  1  0.824186  0.648371  0.330021  1
  O  O35  1  0.351625  0.175813  0.330022  1
  O  O36  1  0.824187  0.175813  0.330022  1
  O  O37  1  0.168008  0.336016  0.422616  1
  O  O38  1  0.168010  0.831992  0.422617  1
  O  O39  1  0.663983  0.831992  0.422617  1
  O  O40  1  0.666672  0.333342  0.495255  1
  O  O41  1  0.333328  0.666658  0.504647  1
  O  O42  1  0.336120  0.168059  0.577293  1
  O  O43  1  0.831941  0.168059  0.577293  1
  O  O44  1  0.831941  0.663881  0.577294  1
  O  O45  1  0.175733  0.824264  0.669692  1
  O  O46  1  0.648530  0.824264  0.669692  1
  O  O47  1  0.175735  0.351469  0.669692  1
  O  O48  1  0.036174  0.518089  0.750038  1
  O  O49  1  0.481914  0.518089  0.750038  1
  O  O50  1  0.481911  0.963822  0.750039  1
  O  O51  1  0.175774  0.351547  0.830427  1
  O  O52  1  0.175771  0.824226  0.830427  1
  O  O53  1  0.648453  0.824226  0.830427  1
  O  O54  1  0.832033  0.664065  0.922843  1
  O  O55  1  0.335925  0.167960  0.922843  1
  O  O56  1  0.832036  0.167960  0.922843  1
  O  O57  1  0.333328  0.666658  0.996469  1
