# generated using pymatgen
data_V3Cr10
_symmetry_space_group_name_H-M   'P 1'
_cell_length_a   4.07080386
_cell_length_b   8.65018632
_cell_length_c   6.27916549
_cell_angle_alpha   85.25739559
_cell_angle_beta   89.76542600
_cell_angle_gamma   45.02693284
_symmetry_Int_Tables_number   1
_chemical_formula_structural   V3Cr10
_chemical_formula_sum   'V3 Cr10'
_cell_volume   155.42224659
_cell_formula_units_Z   1
loop_
 _symmetry_equiv_pos_site_id
 _symmetry_equiv_pos_as_xyz
  1  'x, y, z'
loop_
 _atom_site_type_symbol
 _atom_site_label
 _atom_site_symmetry_multiplicity
 _atom_site_fract_x
 _atom_site_fract_y
 _atom_site_fract_z
 _atom_site_occupancy
  V  V0  1  0.373936  0.298607  0.658298  1
  V  V1  1  0.451316  0.913251  0.119046  1
  V  V2  1  0.758949  0.374780  0.965130  1
  Cr  Cr3  1  0.682583  0.758789  0.506612  1
  Cr  Cr4  1  0.297719  0.681795  0.200379  1
  Cr  Cr5  1  0.225253  0.064420  0.729518  1
  Cr  Cr6  1  0.522738  0.532094  0.577570  1
  Cr  Cr7  1  0.838328  0.988941  0.423649  1
  Cr  Cr8  1  0.140981  0.453353  0.271232  1
  Cr  Cr9  1  0.066339  0.836346  0.811318  1
  Cr  Cr10  1  0.607093  0.143056  0.045229  1
  Cr  Cr11  1  0.908127  0.608264  0.888362  1
  Cr  Cr12  1  0.990268  0.221095  0.355423  1
