# generated using pymatgen
data_TiNb8CdSe16
_symmetry_space_group_name_H-M   'P 1'
_cell_length_a   7.00348800
_cell_length_b   7.00348718
_cell_length_c   13.75255900
_cell_angle_alpha   90.00000000
_cell_angle_beta   90.00000000
_cell_angle_gamma   120.00001332
_symmetry_Int_Tables_number   1
_chemical_formula_structural   TiNb8CdSe16
_chemical_formula_sum   'Ti1 Nb8 Cd1 Se16'
_cell_volume   584.17479811
_cell_formula_units_Z   1
loop_
 _symmetry_equiv_pos_site_id
 _symmetry_equiv_pos_as_xyz
  1  'x, y, z'
loop_
 _atom_site_type_symbol
 _atom_site_label
 _atom_site_symmetry_multiplicity
 _atom_site_fract_x
 _atom_site_fract_y
 _atom_site_fract_z
 _atom_site_occupancy
  Ti  Ti0  1  0.000000  0.000000  0.000000  1
  Nb  Nb1  1  0.000000  0.000000  0.233114  1
  Nb  Nb2  1  0.000000  0.000000  0.766886  1
  Nb  Nb3  1  0.505831  0.494169  0.235889  1
  Nb  Nb4  1  0.505831  0.011662  0.235889  1
  Nb  Nb5  1  0.988338  0.494169  0.235889  1
  Nb  Nb6  1  0.494169  0.505831  0.764111  1
  Nb  Nb7  1  0.494169  0.988338  0.764111  1
  Nb  Nb8  1  0.011662  0.505831  0.764111  1
  Cd  Cd9  1  0.000000  0.000000  0.500000  1
  Se  Se10  1  0.333333  0.666667  0.888291  1
  Se  Se11  1  0.666667  0.333333  0.111709  1
  Se  Se12  1  0.666667  0.333333  0.360564  1
  Se  Se13  1  0.333333  0.666667  0.639436  1
  Se  Se14  1  0.167289  0.832711  0.355928  1
  Se  Se15  1  0.167289  0.334578  0.355928  1
  Se  Se16  1  0.665422  0.832711  0.355928  1
  Se  Se17  1  0.832711  0.167289  0.644072  1
  Se  Se18  1  0.832711  0.665422  0.644072  1
  Se  Se19  1  0.334578  0.167289  0.644072  1
  Se  Se20  1  0.831398  0.168602  0.886399  1
  Se  Se21  1  0.831398  0.662797  0.886399  1
  Se  Se22  1  0.337203  0.168602  0.886399  1
  Se  Se23  1  0.168602  0.831398  0.113601  1
  Se  Se24  1  0.168602  0.337203  0.113601  1
  Se  Se25  1  0.662797  0.831398  0.113601  1
