# generated using pymatgen
data_DySc11(Si3Os)4
_symmetry_space_group_name_H-M   'P 1'
_cell_length_a   4.01511800
_cell_length_b   10.37033476
_cell_length_c   11.76896862
_cell_angle_alpha   89.87884367
_cell_angle_beta   90.00000000
_cell_angle_gamma   90.00000000
_symmetry_Int_Tables_number   1
_chemical_formula_structural   DySc11(Si3Os)4
_chemical_formula_sum   'Dy1 Sc11 Si12 Os4'
_cell_volume   490.03660571
_cell_formula_units_Z   1
loop_
 _symmetry_equiv_pos_site_id
 _symmetry_equiv_pos_as_xyz
  1  'x, y, z'
loop_
 _atom_site_type_symbol
 _atom_site_label
 _atom_site_symmetry_multiplicity
 _atom_site_fract_x
 _atom_site_fract_y
 _atom_site_fract_z
 _atom_site_occupancy
  Dy  Dy0  1  0.250000  0.877988  0.018207  1
  Sc  Sc1  1  0.250000  0.621765  0.518809  1
  Sc  Sc2  1  0.750000  0.125607  0.981060  1
  Sc  Sc3  1  0.750000  0.377417  0.481542  1
  Sc  Sc4  1  0.250000  0.920314  0.604076  1
  Sc  Sc5  1  0.250000  0.576511  0.106224  1
  Sc  Sc6  1  0.750000  0.080084  0.396092  1
  Sc  Sc7  1  0.750000  0.420118  0.894315  1
  Sc  Sc8  1  0.250000  0.657345  0.796129  1
  Sc  Sc9  1  0.250000  0.840772  0.300631  1
  Sc  Sc10  1  0.750000  0.340505  0.202570  1
  Sc  Sc11  1  0.750000  0.160809  0.700949  1
  Si  Si12  1  0.250000  0.018482  0.816439  1
  Si  Si13  1  0.250000  0.484398  0.323028  1
  Si  Si14  1  0.750000  0.987781  0.180702  1
  Si  Si15  1  0.750000  0.514425  0.677606  1
  Si  Si16  1  0.250000  0.252353  0.841881  1
  Si  Si17  1  0.250000  0.249699  0.344652  1
  Si  Si18  1  0.750000  0.745756  0.160118  1
  Si  Si19  1  0.750000  0.750106  0.655977  1
  Si  Si20  1  0.250000  0.195479  0.546397  1
  Si  Si21  1  0.250000  0.305162  0.046270  1
  Si  Si22  1  0.750000  0.804609  0.454148  1
  Si  Si23  1  0.750000  0.689062  0.952263  1
  Os  Os24  1  0.250000  0.390571  0.676299  1
  Os  Os25  1  0.250000  0.112970  0.179855  1
  Os  Os26  1  0.750000  0.608908  0.325506  1
  Os  Os27  1  0.750000  0.891006  0.818253  1
