# generated using pymatgen
data_TmCr(TcO4)6
_symmetry_space_group_name_H-M   'P 1'
_cell_length_a   10.49704281
_cell_length_b   10.49704253
_cell_length_c   10.49704200
_cell_angle_alpha   49.07360191
_cell_angle_beta   49.07360328
_cell_angle_gamma   49.07360710
_symmetry_Int_Tables_number   1
_chemical_formula_structural   TmCr(TcO4)6
_chemical_formula_sum   'Tm1 Cr1 Tc6 O24'
_cell_volume   606.36017185
_cell_formula_units_Z   1
loop_
 _symmetry_equiv_pos_site_id
 _symmetry_equiv_pos_as_xyz
  1  'x, y, z'
loop_
 _atom_site_type_symbol
 _atom_site_label
 _atom_site_symmetry_multiplicity
 _atom_site_fract_x
 _atom_site_fract_y
 _atom_site_fract_z
 _atom_site_occupancy
  Tm  Tm0  1  0.500000  0.500000  0.500000  1
  Cr  Cr1  1  0.000000  0.000000  0.000000  1
  Tc  Tc2  1  0.595001  0.920813  0.240159  1
  Tc  Tc3  1  0.240159  0.595001  0.920813  1
  Tc  Tc4  1  0.920813  0.240159  0.595001  1
  Tc  Tc5  1  0.759841  0.404999  0.079187  1
  Tc  Tc6  1  0.079187  0.759841  0.404999  1
  Tc  Tc7  1  0.404999  0.079187  0.759841  1
  O  O8  1  0.812444  0.898897  0.169548  1
  O  O9  1  0.169548  0.812444  0.898897  1
  O  O10  1  0.898897  0.169548  0.812444  1
  O  O11  1  0.689611  0.379126  0.298048  1
  O  O12  1  0.298048  0.689611  0.379126  1
  O  O13  1  0.379126  0.298048  0.689611  1
  O  O14  1  0.187556  0.101103  0.830452  1
  O  O15  1  0.830452  0.187556  0.101103  1
  O  O16  1  0.101103  0.830452  0.187556  1
  O  O17  1  0.310389  0.620874  0.701952  1
  O  O18  1  0.701952  0.310389  0.620874  1
  O  O19  1  0.620874  0.701952  0.310389  1
  O  O20  1  0.438118  0.987670  0.420058  1
  O  O21  1  0.420058  0.438118  0.987670  1
  O  O22  1  0.987670  0.420058  0.438118  1
  O  O23  1  0.935518  0.477565  0.924496  1
  O  O24  1  0.924496  0.935518  0.477565  1
  O  O25  1  0.477565  0.924496  0.935518  1
  O  O26  1  0.561882  0.012330  0.579942  1
  O  O27  1  0.579942  0.561882  0.012330  1
  O  O28  1  0.012330  0.579942  0.561882  1
  O  O29  1  0.064482  0.522435  0.075504  1
  O  O30  1  0.075504  0.064482  0.522435  1
  O  O31  1  0.522435  0.075504  0.064482  1
