# generated using pymatgen
data_Ba7Ca4Ga(ReN4)4
_symmetry_space_group_name_H-M   'P 1'
_cell_length_a   10.81363535
_cell_length_b   10.57081800
_cell_length_c   8.04957297
_cell_angle_alpha   71.01810712
_cell_angle_beta   66.29534830
_cell_angle_gamma   44.20624475
_symmetry_Int_Tables_number   1
_chemical_formula_structural   Ba7Ca4Ga(ReN4)4
_chemical_formula_sum   'Ba7 Ca4 Ga1 Re4 N16'
_cell_volume   586.43982664
_cell_formula_units_Z   1
loop_
 _symmetry_equiv_pos_site_id
 _symmetry_equiv_pos_as_xyz
  1  'x, y, z'
loop_
 _atom_site_type_symbol
 _atom_site_label
 _atom_site_symmetry_multiplicity
 _atom_site_fract_x
 _atom_site_fract_y
 _atom_site_fract_z
 _atom_site_occupancy
  Ba  Ba0  1  0.924481  0.575519  0.575519  1
  Ba  Ba1  1  0.319661  0.680339  0.680339  1
  Ba  Ba2  1  0.132769  0.103955  0.890145  1
  Ba  Ba3  1  0.141790  0.128684  0.361224  1
  Ba  Ba4  1  0.368302  0.361224  0.128684  1
  Ba  Ba5  1  0.681245  0.318755  0.318755  1
  Ba  Ba6  1  0.873131  0.890145  0.103955  1
  Ca  Ca7  1  0.359727  0.312235  0.666040  1
  Ca  Ca8  1  0.864343  0.931117  0.626480  1
  Ca  Ca9  1  0.661998  0.666040  0.312235  1
  Ca  Ca10  1  0.578060  0.626480  0.931117  1
  Ga  Ga11  1  0.519651  0.980349  0.980349  1
  Re  Re12  1  0.489851  0.004921  0.480671  1
  Re  Re13  1  0.024557  0.480671  0.004921  1
  Re  Re14  1  0.759948  0.258538  0.748334  1
  Re  Re15  1  0.233181  0.748334  0.258538  1
  N  N16  1  0.042309  0.626784  0.816456  1
  N  N17  1  0.692889  0.309152  0.984274  1
  N  N18  1  0.657031  0.012620  0.477454  1
  N  N19  1  0.514453  0.816456  0.626784  1
  N  N20  1  0.237948  0.573393  0.412909  1
  N  N21  1  0.775750  0.412909  0.573393  1
  N  N22  1  0.985334  0.021607  0.712588  1
  N  N23  1  0.528308  0.977218  0.239946  1
  N  N24  1  0.419916  0.715905  0.275686  1
  N  N25  1  0.972140  0.553426  0.223277  1
  N  N26  1  0.280471  0.712588  0.021607  1
  N  N27  1  0.852896  0.477454  0.012620  1
  N  N28  1  0.254528  0.239946  0.977218  1
  N  N29  1  0.588492  0.275686  0.715905  1
  N  N30  1  0.251157  0.223277  0.553426  1
  N  N31  1  0.013685  0.984274  0.309152  1
