# generated using pymatgen
data_Yb5Pr15(Ir2Ru)4
_symmetry_space_group_name_H-M   'P 1'
_cell_length_a   11.16641236
_cell_length_b   11.17574462
_cell_length_c   6.59644941
_cell_angle_alpha   89.92610357
_cell_angle_beta   90.01314221
_cell_angle_gamma   89.94498100
_symmetry_Int_Tables_number   1
_chemical_formula_structural   Yb5Pr15(Ir2Ru)4
_chemical_formula_sum   'Yb5 Pr15 Ir8 Ru4'
_cell_volume   823.18944624
_cell_formula_units_Z   1
loop_
 _symmetry_equiv_pos_site_id
 _symmetry_equiv_pos_as_xyz
  1  'x, y, z'
loop_
 _atom_site_type_symbol
 _atom_site_label
 _atom_site_symmetry_multiplicity
 _atom_site_fract_x
 _atom_site_fract_y
 _atom_site_fract_z
 _atom_site_occupancy
  Yb  Yb0  1  0.291290  0.088170  0.381830  1
  Yb  Yb1  1  0.003242  0.000962  0.498281  1
  Yb  Yb2  1  0.999880  0.000304  0.999156  1
  Yb  Yb3  1  0.499879  0.499909  0.000014  1
  Yb  Yb4  1  0.499366  0.500321  0.499006  1
  Pr  Pr5  1  0.290088  0.913677  0.882138  1
  Pr  Pr6  1  0.708836  0.087525  0.881934  1
  Pr  Pr7  1  0.709613  0.912283  0.383637  1
  Pr  Pr8  1  0.587899  0.790834  0.881694  1
  Pr  Pr9  1  0.584031  0.208780  0.381567  1
  Pr  Pr10  1  0.409856  0.793774  0.382010  1
  Pr  Pr11  1  0.410388  0.209111  0.882578  1
  Pr  Pr12  1  0.209814  0.410783  0.617775  1
  Pr  Pr13  1  0.210704  0.588251  0.117774  1
  Pr  Pr14  1  0.790219  0.410908  0.118140  1
  Pr  Pr15  1  0.790030  0.588052  0.617549  1
  Pr  Pr16  1  0.912376  0.709814  0.118030  1
  Pr  Pr17  1  0.911553  0.289541  0.619101  1
  Pr  Pr18  1  0.088362  0.709858  0.617911  1
  Pr  Pr19  1  0.090614  0.287779  0.118409  1
  Ir  Ir20  1  0.846569  0.154214  0.250401  1
  Ir  Ir21  1  0.847704  0.846077  0.749330  1
  Ir  Ir22  1  0.153516  0.154613  0.750507  1
  Ir  Ir23  1  0.152776  0.844014  0.248401  1
  Ir  Ir24  1  0.653152  0.345714  0.749480  1
  Ir  Ir25  1  0.653923  0.653929  0.250751  1
  Ir  Ir26  1  0.346145  0.348161  0.249052  1
  Ir  Ir27  1  0.345922  0.654823  0.749090  1
  Ru  Ru28  1  0.500686  0.999592  0.118349  1
  Ru  Ru29  1  0.501828  0.999270  0.617691  1
  Ru  Ru30  1  0.999982  0.499721  0.884130  1
  Ru  Ru31  1  0.999758  0.499237  0.384282  1
