# generated using pymatgen
data_Tm10In8Co3Pt
_symmetry_space_group_name_H-M   'P 1'
_cell_length_a   3.54031600
_cell_length_b   7.94527519
_cell_length_c   17.88822341
_cell_angle_alpha   90.02474304
_cell_angle_beta   90.00000000
_cell_angle_gamma   90.00000000
_symmetry_Int_Tables_number   1
_chemical_formula_structural   Tm10In8Co3Pt
_chemical_formula_sum   'Tm10 In8 Co3 Pt1'
_cell_volume   503.17394116
_cell_formula_units_Z   1
loop_
 _symmetry_equiv_pos_site_id
 _symmetry_equiv_pos_as_xyz
  1  'x, y, z'
loop_
 _atom_site_type_symbol
 _atom_site_label
 _atom_site_symmetry_multiplicity
 _atom_site_fract_x
 _atom_site_fract_y
 _atom_site_fract_z
 _atom_site_occupancy
  Tm  Tm0  1  0.000000  0.113394  0.410819  1
  Tm  Tm1  1  0.000000  0.885383  0.591634  1
  Tm  Tm2  1  0.000000  0.384823  0.908103  1
  Tm  Tm3  1  0.000000  0.618019  0.084692  1
  Tm  Tm4  1  0.000000  0.233696  0.223612  1
  Tm  Tm5  1  0.000000  0.754538  0.777788  1
  Tm  Tm6  1  0.000000  0.253941  0.722045  1
  Tm  Tm7  1  0.000000  0.756897  0.280464  1
  Tm  Tm8  1  0.000000  0.000002  0.998959  1
  Tm  Tm9  1  0.000000  0.500442  0.501204  1
  In  In10  1  0.500000  0.424700  0.352235  1
  In  In11  1  0.500000  0.570675  0.652393  1
  In  In12  1  0.500000  0.071608  0.847556  1
  In  In13  1  0.500000  0.929842  0.150290  1
  In  In14  1  0.500000  0.292066  0.065159  1
  In  In15  1  0.500000  0.704762  0.929159  1
  In  In16  1  0.500000  0.204981  0.569072  1
  In  In17  1  0.500000  0.794515  0.433545  1
  Co  Co18  1  0.500000  0.021995  0.304965  1
  Co  Co19  1  0.500000  0.980229  0.696415  1
  Co  Co20  1  0.500000  0.479434  0.803281  1
  Pt  Pt21  1  0.500000  0.524058  0.196611  1
