# generated using pymatgen
data_Tm4B3(PtRh)6
_symmetry_space_group_name_H-M   'P 1'
_cell_length_a   4.21757600
_cell_length_b   4.21757600
_cell_length_c   16.49857500
_cell_angle_alpha   90.00000000
_cell_angle_beta   90.00000000
_cell_angle_gamma   90.00000000
_symmetry_Int_Tables_number   1
_chemical_formula_structural   Tm4B3(PtRh)6
_chemical_formula_sum   'Tm4 B3 Pt6 Rh6'
_cell_volume   293.47578289
_cell_formula_units_Z   1
loop_
 _symmetry_equiv_pos_site_id
 _symmetry_equiv_pos_as_xyz
  1  'x, y, z'
loop_
 _atom_site_type_symbol
 _atom_site_label
 _atom_site_symmetry_multiplicity
 _atom_site_fract_x
 _atom_site_fract_y
 _atom_site_fract_z
 _atom_site_occupancy
  Tm  Tm0  1  0.000000  0.000000  0.876163  1
  Tm  Tm1  1  0.000000  0.000000  0.123837  1
  Tm  Tm2  1  0.000000  0.000000  0.374494  1
  Tm  Tm3  1  0.000000  0.000000  0.625506  1
  B  B4  1  0.500000  0.500000  0.239180  1
  B  B5  1  0.500000  0.500000  0.500000  1
  B  B6  1  0.500000  0.500000  0.760820  1
  Pt  Pt7  1  0.500000  0.500000  0.884986  1
  Pt  Pt8  1  0.500000  0.500000  0.115014  1
  Pt  Pt9  1  0.500000  0.500000  0.372045  1
  Pt  Pt10  1  0.500000  0.500000  0.627955  1
  Pt  Pt11  1  0.500000  0.000000  0.000000  1
  Pt  Pt12  1  0.000000  0.500000  0.000000  1
  Rh  Rh13  1  0.500000  0.000000  0.250099  1
  Rh  Rh14  1  0.500000  0.000000  0.500000  1
  Rh  Rh15  1  0.500000  0.000000  0.749901  1
  Rh  Rh16  1  0.000000  0.500000  0.250099  1
  Rh  Rh17  1  0.000000  0.500000  0.500000  1
  Rh  Rh18  1  0.000000  0.500000  0.749901  1
