# generated using pymatgen
data_PrHo3Th6(Si3C)2
_symmetry_space_group_name_H-M   'P 1'
_cell_length_a   8.77804100
_cell_length_b   8.77786778
_cell_length_c   6.38427900
_cell_angle_alpha   90.00182405
_cell_angle_beta   89.99711913
_cell_angle_gamma   119.99934059
_symmetry_Int_Tables_number   1
_chemical_formula_structural   PrHo3Th6(Si3C)2
_chemical_formula_sum   'Pr1 Ho3 Th6 Si6 C2'
_cell_volume   426.02198815
_cell_formula_units_Z   1
loop_
 _symmetry_equiv_pos_site_id
 _symmetry_equiv_pos_as_xyz
  1  'x, y, z'
loop_
 _atom_site_type_symbol
 _atom_site_label
 _atom_site_symmetry_multiplicity
 _atom_site_fract_x
 _atom_site_fract_y
 _atom_site_fract_z
 _atom_site_occupancy
  Pr  Pr0  1  0.666629  0.333310  0.499996  1
  Ho  Ho1  1  0.666677  0.333342  0.999999  1
  Ho  Ho2  1  0.333326  0.666656  0.000005  1
  Ho  Ho3  1  0.333344  0.666679  0.500001  1
  Th  Th4  1  0.767045  0.766719  0.751151  1
  Th  Th5  1  0.233281  0.000323  0.751158  1
  Th  Th6  1  0.999677  0.232958  0.751141  1
  Th  Th7  1  0.233280  0.232958  0.248845  1
  Th  Th8  1  0.767044  0.000325  0.248851  1
  Th  Th9  1  0.999681  0.766720  0.248855  1
  Si  Si10  1  0.398196  0.403980  0.757792  1
  Si  Si11  1  0.596024  0.994219  0.757794  1
  Si  Si12  1  0.005784  0.601805  0.757789  1
  Si  Si13  1  0.596025  0.601805  0.242207  1
  Si  Si14  1  0.398197  0.994218  0.242206  1
  Si  Si15  1  0.005785  0.403979  0.242211  1
  C  C16  1  0.000003  0.000002  0.000000  1
  C  C17  1  0.000004  0.000002  0.500000  1
