# generated using pymatgen
data_Hf2Co3Re
_symmetry_space_group_name_H-M   'P 1'
_cell_length_a   4.96406000
_cell_length_b   4.96405994
_cell_length_c   8.11309500
_cell_angle_alpha   90.00000000
_cell_angle_beta   90.00000000
_cell_angle_gamma   120.00000038
_symmetry_Int_Tables_number   1
_chemical_formula_structural   Hf2Co3Re
_chemical_formula_sum   'Hf4 Co6 Re2'
_cell_volume   173.13753523
_cell_formula_units_Z   2
loop_
 _symmetry_equiv_pos_site_id
 _symmetry_equiv_pos_as_xyz
  1  'x, y, z'
loop_
 _atom_site_type_symbol
 _atom_site_label
 _atom_site_symmetry_multiplicity
 _atom_site_fract_x
 _atom_site_fract_y
 _atom_site_fract_z
 _atom_site_occupancy
  Hf  Hf0  1  0.333333  0.666666  0.064036  1
  Hf  Hf1  1  0.333333  0.666666  0.435964  1
  Hf  Hf2  1  0.666666  0.333333  0.564037  1
  Hf  Hf3  1  0.666666  0.333333  0.935964  1
  Co  Co4  1  0.341760  0.170880  0.250000  1
  Co  Co5  1  0.829120  0.170880  0.250000  1
  Co  Co6  1  0.829119  0.658240  0.250000  1
  Co  Co7  1  0.170880  0.341759  0.750000  1
  Co  Co8  1  0.170881  0.829120  0.750000  1
  Co  Co9  1  0.658239  0.829120  0.750000  1
  Re  Re10  1  0.000000  0.000000  0.000000  1
  Re  Re11  1  0.000000  0.000000  0.500000  1
