# generated using pymatgen
data_Dy8Hf11Si16W
_symmetry_space_group_name_H-M   'P 1'
_cell_length_a   7.24630022
_cell_length_b   7.24630091
_cell_length_c   13.30289303
_cell_angle_alpha   89.94371675
_cell_angle_beta   90.05628565
_cell_angle_gamma   90.08609584
_symmetry_Int_Tables_number   1
_chemical_formula_structural   Dy8Hf11Si16W
_chemical_formula_sum   'Dy8 Hf11 Si16 W1'
_cell_volume   698.51844394
_cell_formula_units_Z   1
loop_
 _symmetry_equiv_pos_site_id
 _symmetry_equiv_pos_as_xyz
  1  'x, y, z'
loop_
 _atom_site_type_symbol
 _atom_site_label
 _atom_site_symmetry_multiplicity
 _atom_site_fract_x
 _atom_site_fract_y
 _atom_site_fract_z
 _atom_site_occupancy
  Dy  Dy0  1  0.998451  0.343215  0.212581  1
  Dy  Dy1  1  0.004258  0.656695  0.716649  1
  Dy  Dy2  1  0.156669  0.495408  0.465460  1
  Dy  Dy3  1  0.501660  0.845357  0.034211  1
  Dy  Dy4  1  0.845357  0.501660  0.965789  1
  Dy  Dy5  1  0.495408  0.156669  0.534540  1
  Dy  Dy6  1  0.343215  0.998451  0.787419  1
  Dy  Dy7  1  0.656695  0.004258  0.283351  1
  Hf  Hf8  1  0.825664  0.825664  0.500000  1
  Hf  Hf9  1  0.324502  0.674355  0.248820  1
  Hf  Hf10  1  0.674355  0.324502  0.751180  1
  Hf  Hf11  1  0.148364  0.997219  0.373516  1
  Hf  Hf12  1  0.853022  0.004823  0.877482  1
  Hf  Hf13  1  0.503923  0.648620  0.624685  1
  Hf  Hf14  1  0.349006  0.493427  0.877274  1
  Hf  Hf15  1  0.493427  0.349006  0.122726  1
  Hf  Hf16  1  0.648620  0.503923  0.375315  1
  Hf  Hf17  1  0.997219  0.148364  0.626484  1
  Hf  Hf18  1  0.004823  0.853022  0.122518  1
  Si  Si19  1  0.362559  0.295245  0.316268  1
  Si  Si20  1  0.636684  0.704846  0.817641  1
  Si  Si21  1  0.204928  0.862717  0.567211  1
  Si  Si22  1  0.138114  0.797603  0.933106  1
  Si  Si23  1  0.797603  0.138114  0.066894  1
  Si  Si24  1  0.862717  0.204928  0.432789  1
  Si  Si25  1  0.295245  0.362559  0.683732  1
  Si  Si26  1  0.704846  0.636684  0.182359  1
  Si  Si27  1  0.294338  0.051028  0.182370  1
  Si  Si28  1  0.703957  0.951912  0.686052  1
  Si  Si29  1  0.450744  0.795893  0.435001  1
  Si  Si30  1  0.203482  0.545964  0.064110  1
  Si  Si31  1  0.545964  0.203482  0.935890  1
  Si  Si32  1  0.795893  0.450744  0.564999  1
  Si  Si33  1  0.051028  0.294338  0.817630  1
  Si  Si34  1  0.951912  0.703957  0.313948  1
  W  W35  1  0.175346  0.175346  0.000000  1
