# generated using pymatgen
data_Ba8NbRe(IrO10)2
_symmetry_space_group_name_H-M   'P 1'
_cell_length_a   5.80002000
_cell_length_b   7.54415263
_cell_length_c   11.71296328
_cell_angle_alpha   89.47246317
_cell_angle_beta   90.00000000
_cell_angle_gamma   90.00000000
_symmetry_Int_Tables_number   1
_chemical_formula_structural   Ba8NbRe(IrO10)2
_chemical_formula_sum   'Ba8 Nb1 Re1 Ir2 O20'
_cell_volume   512.49346317
_cell_formula_units_Z   1
loop_
 _symmetry_equiv_pos_site_id
 _symmetry_equiv_pos_as_xyz
  1  'x, y, z'
loop_
 _atom_site_type_symbol
 _atom_site_label
 _atom_site_symmetry_multiplicity
 _atom_site_fract_x
 _atom_site_fract_y
 _atom_site_fract_z
 _atom_site_occupancy
  Ba  Ba0  1  0.750000  0.483293  0.278090  1
  Ba  Ba1  1  0.250000  0.526586  0.719065  1
  Ba  Ba2  1  0.750000  0.975898  0.204590  1
  Ba  Ba3  1  0.250000  0.019919  0.796139  1
  Ba  Ba4  1  0.750000  0.156170  0.591069  1
  Ba  Ba5  1  0.250000  0.814457  0.413432  1
  Ba  Ba6  1  0.750000  0.686701  0.921837  1
  Ba  Ba7  1  0.250000  0.351024  0.071409  1
  Nb  Nb8  1  0.750000  0.189166  0.929480  1
  Re  Re9  1  0.250000  0.322882  0.439863  1
  Ir  Ir10  1  0.250000  0.832986  0.065427  1
  Ir  Ir11  1  0.750000  0.668872  0.558185  1
  O  O12  1  0.482427  0.177771  0.393123  1
  O  O13  1  0.990484  0.821202  0.607742  1
  O  O14  1  0.007942  0.677523  0.120144  1
  O  O15  1  0.499863  0.328861  0.876912  1
  O  O16  1  0.509516  0.821202  0.607742  1
  O  O17  1  0.017573  0.177771  0.393123  1
  O  O18  1  0.000137  0.328861  0.876912  1
  O  O19  1  0.492058  0.677523  0.120144  1
  O  O20  1  0.495179  0.495535  0.497879  1
  O  O21  1  0.004821  0.495535  0.497879  1
  O  O22  1  0.009201  0.995389  0.002921  1
  O  O23  1  0.490799  0.995389  0.002921  1
  O  O24  1  0.750000  0.280936  0.092126  1
  O  O25  1  0.250000  0.711154  0.913755  1
  O  O26  1  0.750000  0.779321  0.403829  1
  O  O27  1  0.250000  0.227931  0.592224  1
  O  O28  1  0.750000  0.018503  0.803648  1
  O  O29  1  0.250000  0.966904  0.204635  1
  O  O30  1  0.750000  0.532019  0.695075  1
  O  O31  1  0.250000  0.462709  0.308681  1
