# generated using pymatgen
data_V3Sb(SeO3)8
_symmetry_space_group_name_H-M   'P 1'
_cell_length_a   8.17421139
_cell_length_b   8.17421128
_cell_length_c   8.17421149
_cell_angle_alpha   89.15976830
_cell_angle_beta   90.84023931
_cell_angle_gamma   90.84023305
_symmetry_Int_Tables_number   1
_chemical_formula_structural   V3Sb(SeO3)8
_chemical_formula_sum   'V3 Sb1 Se8 O24'
_cell_volume   546.00778033
_cell_formula_units_Z   1
loop_
 _symmetry_equiv_pos_site_id
 _symmetry_equiv_pos_as_xyz
  1  'x, y, z'
loop_
 _atom_site_type_symbol
 _atom_site_label
 _atom_site_symmetry_multiplicity
 _atom_site_fract_x
 _atom_site_fract_y
 _atom_site_fract_z
 _atom_site_occupancy
  V  V0  1  0.500000  0.500000  0.500000  1
  V  V1  1  0.500000  0.000000  0.000000  1
  V  V2  1  0.000000  0.500000  0.000000  1
  Sb  Sb3  1  0.000000  0.000000  0.500000  1
  Se  Se4  1  0.833657  0.671161  0.315607  1
  Se  Se5  1  0.184393  0.166343  0.171161  1
  Se  Se6  1  0.674925  0.325075  0.825075  1
  Se  Se7  1  0.328839  0.815607  0.666343  1
  Se  Se8  1  0.166343  0.328839  0.684393  1
  Se  Se9  1  0.815607  0.833657  0.828839  1
  Se  Se10  1  0.325075  0.674925  0.174925  1
  Se  Se11  1  0.671161  0.184393  0.333657  1
  O  O12  1  0.733454  0.534687  0.440220  1
  O  O13  1  0.262368  0.024351  0.040528  1
  O  O14  1  0.768660  0.431811  0.984066  1
  O  O15  1  0.242067  0.969889  0.534673  1
  O  O16  1  0.459472  0.737632  0.524351  1
  O  O17  1  0.059780  0.266546  0.034687  1
  O  O18  1  0.965327  0.757933  0.469889  1
  O  O19  1  0.515934  0.231340  0.931811  1
  O  O20  1  0.568189  0.484066  0.731340  1
  O  O21  1  0.030111  0.034673  0.257933  1
  O  O22  1  0.465313  0.940220  0.766546  1
  O  O23  1  0.975649  0.540528  0.237632  1
  O  O24  1  0.266546  0.465313  0.559780  1
  O  O25  1  0.737632  0.975649  0.959472  1
  O  O26  1  0.231340  0.568189  0.015934  1
  O  O27  1  0.757933  0.030111  0.465327  1
  O  O28  1  0.540528  0.262368  0.475649  1
  O  O29  1  0.940220  0.733454  0.965313  1
  O  O30  1  0.034673  0.242067  0.530111  1
  O  O31  1  0.484066  0.768660  0.068189  1
  O  O32  1  0.431811  0.515934  0.268660  1
  O  O33  1  0.969889  0.965327  0.742067  1
  O  O34  1  0.534687  0.059780  0.233454  1
  O  O35  1  0.024351  0.459472  0.762368  1
