# generated using pymatgen
data_Tm4MnCr3B16
_symmetry_space_group_name_H-M   'P 1'
_cell_length_a   3.40097100
_cell_length_b   5.88999205
_cell_length_c   11.37253833
_cell_angle_alpha   90.02094114
_cell_angle_beta   90.00000000
_cell_angle_gamma   90.00000000
_symmetry_Int_Tables_number   1
_chemical_formula_structural   Tm4MnCr3B16
_chemical_formula_sum   'Tm4 Mn1 Cr3 B16'
_cell_volume   227.81117146
_cell_formula_units_Z   1
loop_
 _symmetry_equiv_pos_site_id
 _symmetry_equiv_pos_as_xyz
  1  'x, y, z'
loop_
 _atom_site_type_symbol
 _atom_site_label
 _atom_site_symmetry_multiplicity
 _atom_site_fract_x
 _atom_site_fract_y
 _atom_site_fract_z
 _atom_site_occupancy
  Tm  Tm0  1  0.000000  0.625684  0.349842  1
  Tm  Tm1  1  0.000000  0.375503  0.650179  1
  Tm  Tm2  1  0.000000  0.124786  0.150965  1
  Tm  Tm3  1  0.000000  0.874889  0.848678  1
  Mn  Mn4  1  0.000000  0.874868  0.581677  1
  Cr  Cr5  1  0.000000  0.624911  0.081349  1
  Cr  Cr6  1  0.000000  0.375136  0.918099  1
  Cr  Cr7  1  0.000000  0.125815  0.418865  1
  B  B8  1  0.500000  0.782963  0.184845  1
  B  B9  1  0.500000  0.216330  0.814637  1
  B  B10  1  0.500000  0.282767  0.315723  1
  B  B11  1  0.500000  0.719393  0.683194  1
  B  B12  1  0.500000  0.863679  0.032282  1
  B  B13  1  0.500000  0.135668  0.967274  1
  B  B14  1  0.500000  0.363641  0.468578  1
  B  B15  1  0.500000  0.638095  0.532702  1
  B  B16  1  0.500000  0.885626  0.454198  1
  B  B17  1  0.500000  0.111894  0.548178  1
  B  B18  1  0.500000  0.385677  0.046934  1
  B  B19  1  0.500000  0.613751  0.952443  1
  B  B20  1  0.500000  0.975285  0.308503  1
  B  B21  1  0.500000  0.023255  0.691498  1
  B  B22  1  0.500000  0.475224  0.192382  1
  B  B23  1  0.500000  0.525159  0.806976  1
