# generated using pymatgen
data_Li8Dy8SnBi4Pb3
_symmetry_space_group_name_H-M   'P 1'
_cell_length_a   9.59162700
_cell_length_b   9.59226194
_cell_length_c   7.21277903
_cell_angle_alpha   89.89456162
_cell_angle_beta   89.99990463
_cell_angle_gamma   119.99802474
_symmetry_Int_Tables_number   1
_chemical_formula_structural   Li8Dy8SnBi4Pb3
_chemical_formula_sum   'Li8 Dy8 Sn1 Bi4 Pb3'
_cell_volume   574.71725036
_cell_formula_units_Z   1
loop_
 _symmetry_equiv_pos_site_id
 _symmetry_equiv_pos_as_xyz
  1  'x, y, z'
loop_
 _atom_site_type_symbol
 _atom_site_label
 _atom_site_symmetry_multiplicity
 _atom_site_fract_x
 _atom_site_fract_y
 _atom_site_fract_z
 _atom_site_occupancy
  Li  Li0  1  0.166944  0.333887  0.267595  1
  Li  Li1  1  0.169470  0.833632  0.277359  1
  Li  Li2  1  0.664162  0.833632  0.277359  1
  Li  Li3  1  0.831577  0.663155  0.776646  1
  Li  Li4  1  0.830740  0.168822  0.784013  1
  Li  Li5  1  0.338082  0.168822  0.784012  1
  Li  Li6  1  0.333838  0.667676  0.680098  1
  Li  Li7  1  0.665367  0.330734  0.185466  1
  Dy  Dy8  1  0.513524  0.027050  0.494172  1
  Dy  Dy9  1  0.507852  0.484738  0.493774  1
  Dy  Dy10  1  0.976886  0.484737  0.493775  1
  Dy  Dy11  1  0.491795  0.983589  0.996311  1
  Dy  Dy12  1  0.490938  0.506786  0.994482  1
  Dy  Dy13  1  0.015849  0.506786  0.994482  1
  Dy  Dy14  1  0.002234  0.004468  0.499500  1
  Dy  Dy15  1  0.000897  0.001793  0.004544  1
  Sn  Sn16  1  0.667287  0.334574  0.759331  1
  Bi  Bi17  1  0.166614  0.333227  0.738379  1
  Bi  Bi18  1  0.166091  0.833427  0.736531  1
  Bi  Bi19  1  0.667336  0.833427  0.736531  1
  Bi  Bi20  1  0.833392  0.666783  0.238298  1
  Pb  Pb21  1  0.833837  0.166294  0.235999  1
  Pb  Pb22  1  0.332459  0.166298  0.235998  1
  Pb  Pb23  1  0.332831  0.665662  0.257339  1
