# generated using pymatgen
data_CaY(GaRh2)2
_symmetry_space_group_name_H-M   'P 1'
_cell_length_a   5.61130100
_cell_length_b   5.61130056
_cell_length_c   15.68927200
_cell_angle_alpha   90.00000000
_cell_angle_beta   90.00000000
_cell_angle_gamma   119.99999667
_symmetry_Int_Tables_number   1
_chemical_formula_structural   CaY(GaRh2)2
_chemical_formula_sum   'Ca3 Y3 Ga6 Rh12'
_cell_volume   427.81946091
_cell_formula_units_Z   3
loop_
 _symmetry_equiv_pos_site_id
 _symmetry_equiv_pos_as_xyz
  1  'x, y, z'
loop_
 _atom_site_type_symbol
 _atom_site_label
 _atom_site_symmetry_multiplicity
 _atom_site_fract_x
 _atom_site_fract_y
 _atom_site_fract_z
 _atom_site_occupancy
  Ca  Ca0  1  0.666667  0.333333  0.958269  1
  Ca  Ca1  1  0.666667  0.333333  0.754420  1
  Ca  Ca2  1  0.333333  0.666667  0.249047  1
  Y  Y3  1  0.666667  0.333333  0.543185  1
  Y  Y4  1  0.333333  0.666667  0.039855  1
  Y  Y5  1  0.333333  0.666667  0.457609  1
  Ga  Ga6  1  0.666667  0.333333  0.250368  1
  Ga  Ga7  1  0.000000  0.000000  0.499750  1
  Ga  Ga8  1  0.000000  0.000000  0.250739  1
  Ga  Ga9  1  0.000000  0.000000  0.748600  1
  Ga  Ga10  1  0.333333  0.666667  0.749288  1
  Ga  Ga11  1  0.000000  0.000000  0.999788  1
  Rh  Rh12  1  0.168294  0.336587  0.873649  1
  Rh  Rh13  1  0.169063  0.338126  0.624126  1
  Rh  Rh14  1  0.663413  0.831706  0.873649  1
  Rh  Rh15  1  0.338628  0.169314  0.375954  1
  Rh  Rh16  1  0.830686  0.661372  0.375954  1
  Rh  Rh17  1  0.830686  0.169314  0.375954  1
  Rh  Rh18  1  0.831650  0.168350  0.125965  1
  Rh  Rh19  1  0.336701  0.168350  0.125965  1
  Rh  Rh20  1  0.661874  0.830937  0.624126  1
  Rh  Rh21  1  0.169063  0.830937  0.624126  1
  Rh  Rh22  1  0.831650  0.663299  0.125965  1
  Rh  Rh23  1  0.168294  0.831706  0.873649  1
