# generated using pymatgen
data_Sc8Si16Tc11Mo
_symmetry_space_group_name_H-M   'P 1'
_cell_length_a   6.67369279
_cell_length_b   6.66166337
_cell_length_c   12.31434124
_cell_angle_alpha   89.71783985
_cell_angle_beta   90.00379113
_cell_angle_gamma   89.99691095
_symmetry_Int_Tables_number   1
_chemical_formula_structural   Sc8Si16Tc11Mo
_chemical_formula_sum   'Sc8 Si16 Tc11 Mo1'
_cell_volume   547.46304664
_cell_formula_units_Z   1
loop_
 _symmetry_equiv_pos_site_id
 _symmetry_equiv_pos_as_xyz
  1  'x, y, z'
loop_
 _atom_site_type_symbol
 _atom_site_label
 _atom_site_symmetry_multiplicity
 _atom_site_fract_x
 _atom_site_fract_y
 _atom_site_fract_z
 _atom_site_occupancy
  Sc  Sc0  1  0.000501  0.659730  0.029360  1
  Sc  Sc1  1  0.840866  0.500760  0.280510  1
  Sc  Sc2  1  0.156526  0.497498  0.780847  1
  Sc  Sc3  1  0.498416  0.840912  0.720509  1
  Sc  Sc4  1  0.496998  0.157371  0.218899  1
  Sc  Sc5  1  0.995485  0.339753  0.530444  1
  Sc  Sc6  1  0.657559  0.002555  0.968923  1
  Sc  Sc7  1  0.342164  0.997686  0.469764  1
  Si  Si8  1  0.279245  0.970591  0.064792  1
  Si  Si9  1  0.532427  0.785343  0.315485  1
  Si  Si10  1  0.471779  0.222622  0.814562  1
  Si  Si11  1  0.778313  0.530024  0.685263  1
  Si  Si12  1  0.214795  0.470933  0.183353  1
  Si  Si13  1  0.712194  0.032348  0.568798  1
  Si  Si14  1  0.971578  0.279749  0.935902  1
  Si  Si15  1  0.035968  0.708813  0.434032  1
  Si  Si16  1  0.692719  0.375856  0.065839  1
  Si  Si17  1  0.129791  0.196616  0.316118  1
  Si  Si18  1  0.877203  0.809061  0.814403  1
  Si  Si19  1  0.191728  0.124189  0.684071  1
  Si  Si20  1  0.804834  0.874989  0.183186  1
  Si  Si21  1  0.307000  0.623899  0.565811  1
  Si  Si22  1  0.377774  0.692107  0.933871  1
  Si  Si23  1  0.625069  0.305567  0.434277  1
  Tc  Tc24  1  0.329417  0.328843  0.999403  1
  Tc  Tc25  1  0.170403  0.832342  0.248394  1
  Tc  Tc26  1  0.828963  0.172503  0.750897  1
  Tc  Tc27  1  0.668752  0.668355  0.501603  1
  Tc  Tc28  1  0.975439  0.179153  0.131353  1
  Tc  Tc29  1  0.328503  0.484724  0.376244  1
  Tc  Tc30  1  0.682300  0.526165  0.880879  1
  Tc  Tc31  1  0.473657  0.319609  0.620043  1
  Tc  Tc32  1  0.519239  0.672945  0.122787  1
  Tc  Tc33  1  0.019485  0.828149  0.624564  1
  Tc  Tc34  1  0.180104  0.976153  0.869747  1
  Mo  Mo35  1  0.832808  0.012086  0.375066  1
