# generated using pymatgen
data_ZrTeN
_symmetry_space_group_name_H-M   'P 1'
_cell_length_a   12.04079929
_cell_length_b   12.04079931
_cell_length_c   12.04080021
_cell_angle_alpha   17.12931849
_cell_angle_beta   17.12931959
_cell_angle_gamma   17.12931758
_symmetry_Int_Tables_number   1
_chemical_formula_structural   ZrTeN
_chemical_formula_sum   'Zr2 Te2 N2'
_cell_volume   132.12229390
_cell_formula_units_Z   2
loop_
 _symmetry_equiv_pos_site_id
 _symmetry_equiv_pos_as_xyz
  1  'x, y, z'
loop_
 _atom_site_type_symbol
 _atom_site_label
 _atom_site_symmetry_multiplicity
 _atom_site_fract_x
 _atom_site_fract_y
 _atom_site_fract_z
 _atom_site_occupancy
  Zr  Zr0  1  0.795287  0.795287  0.795287  1
  Zr  Zr1  1  0.204713  0.204713  0.204713  1
  Te  Te2  1  0.393129  0.393129  0.393129  1
  Te  Te3  1  0.606871  0.606871  0.606871  1
  N  N4  1  0.141114  0.141114  0.141114  1
  N  N5  1  0.858886  0.858886  0.858886  1
