# generated using pymatgen
data_Nd3In3IrPtAu
_symmetry_space_group_name_H-M   'P 1'
_cell_length_a   7.79019400
_cell_length_b   7.79019322
_cell_length_c   4.08949400
_cell_angle_alpha   90.00000000
_cell_angle_beta   90.00000000
_cell_angle_gamma   120.00000333
_symmetry_Int_Tables_number   1
_chemical_formula_structural   Nd3In3IrPtAu
_chemical_formula_sum   'Nd3 In3 Ir1 Pt1 Au1'
_cell_volume   214.92982991
_cell_formula_units_Z   1
loop_
 _symmetry_equiv_pos_site_id
 _symmetry_equiv_pos_as_xyz
  1  'x, y, z'
loop_
 _atom_site_type_symbol
 _atom_site_label
 _atom_site_symmetry_multiplicity
 _atom_site_fract_x
 _atom_site_fract_y
 _atom_site_fract_z
 _atom_site_occupancy
  Nd  Nd0  1  0.979946  0.583483  0.500000  1
  Nd  Nd1  1  0.603538  0.020054  0.500000  1
  Nd  Nd2  1  0.416517  0.396462  0.500000  1
  In  In3  1  0.998541  0.251173  0.000000  1
  In  In4  1  0.252632  0.001459  0.000000  1
  In  In5  1  0.748827  0.747368  0.000000  1
  Ir  Ir6  1  0.666667  0.333333  0.000000  1
  Pt  Pt7  1  0.000000  0.000000  0.500000  1
  Au  Au8  1  0.333333  0.666667  0.000000  1
