# generated using pymatgen
data_Zr6PtRh9
_symmetry_space_group_name_H-M   'P 1'
_cell_length_a   5.62929626
_cell_length_b   5.65272276
_cell_length_c   8.75757900
_cell_angle_alpha   90.00000000
_cell_angle_beta   90.00000000
_cell_angle_gamma   102.03204885
_symmetry_Int_Tables_number   1
_chemical_formula_structural   Zr6PtRh9
_chemical_formula_sum   'Zr6 Pt1 Rh9'
_cell_volume   272.55147856
_cell_formula_units_Z   1
loop_
 _symmetry_equiv_pos_site_id
 _symmetry_equiv_pos_as_xyz
  1  'x, y, z'
loop_
 _atom_site_type_symbol
 _atom_site_label
 _atom_site_symmetry_multiplicity
 _atom_site_fract_x
 _atom_site_fract_y
 _atom_site_fract_z
 _atom_site_occupancy
  Zr  Zr0  1  0.569811  0.566886  0.750000  1
  Zr  Zr1  1  0.434514  0.434377  0.250000  1
  Zr  Zr2  1  0.795495  0.208029  0.497032  1
  Zr  Zr3  1  0.205766  0.790708  0.001949  1
  Zr  Zr4  1  0.205766  0.790708  0.498051  1
  Zr  Zr5  1  0.795495  0.208029  0.002968  1
  Pt  Pt6  1  0.488323  0.029380  0.750000  1
  Rh  Rh7  1  0.711862  0.710605  0.026932  1
  Rh  Rh8  1  0.711862  0.710605  0.473068  1
  Rh  Rh9  1  0.289257  0.288235  0.974122  1
  Rh  Rh10  1  0.289257  0.288235  0.525878  1
  Rh  Rh11  1  0.506263  0.973953  0.250000  1
  Rh  Rh12  1  0.013387  0.013560  0.250000  1
  Rh  Rh13  1  0.982600  0.986322  0.750000  1
  Rh  Rh14  1  0.025757  0.492516  0.750000  1
  Rh  Rh15  1  0.974583  0.507852  0.250000  1
