# generated using pymatgen
data_Lu5ReMoC7
_symmetry_space_group_name_H-M   'P 1'
_cell_length_a   8.19927562
_cell_length_b   8.19927588
_cell_length_c   3.34610400
_cell_angle_alpha   90.00000000
_cell_angle_beta   90.00000000
_cell_angle_gamma   121.69632033
_symmetry_Int_Tables_number   1
_chemical_formula_structural   Lu5ReMoC7
_chemical_formula_sum   'Lu5 Re1 Mo1 C7'
_cell_volume   191.39949912
_cell_formula_units_Z   1
loop_
 _symmetry_equiv_pos_site_id
 _symmetry_equiv_pos_as_xyz
  1  'x, y, z'
loop_
 _atom_site_type_symbol
 _atom_site_label
 _atom_site_symmetry_multiplicity
 _atom_site_fract_x
 _atom_site_fract_y
 _atom_site_fract_z
 _atom_site_occupancy
  Lu  Lu0  1  0.337232  0.079392  0.500000  1
  Lu  Lu1  1  0.664054  0.922669  0.500000  1
  Lu  Lu2  1  0.077331  0.335946  0.500000  1
  Lu  Lu3  1  0.920608  0.662768  0.500000  1
  Lu  Lu4  1  0.500939  0.499061  0.000000  1
  Re  Re5  1  0.714678  0.285322  0.000000  1
  Mo  Mo6  1  0.285275  0.714725  0.000000  1
  C  C7  1  0.169221  0.170193  0.000000  1
  C  C8  1  0.829807  0.830779  0.000000  1
  C  C9  1  0.000086  0.999914  0.000000  1
  C  C10  1  0.379337  0.620663  0.500000  1
  C  C11  1  0.622694  0.377306  0.500000  1
  C  C12  1  0.500560  0.001821  0.000000  1
  C  C13  1  0.998179  0.499440  0.000000  1
