# generated using pymatgen
data_Tb7Y(GeI6)2
_symmetry_space_group_name_H-M   'P 1'
_cell_length_a   4.23206200
_cell_length_b   14.05555722
_cell_length_c   14.83310729
_cell_angle_alpha   89.95220148
_cell_angle_beta   90.00000000
_cell_angle_gamma   90.00000000
_symmetry_Int_Tables_number   1
_chemical_formula_structural   Tb7Y(GeI6)2
_chemical_formula_sum   'Tb7 Y1 Ge2 I12'
_cell_volume   882.33209293
_cell_formula_units_Z   1
loop_
 _symmetry_equiv_pos_site_id
 _symmetry_equiv_pos_as_xyz
  1  'x, y, z'
loop_
 _atom_site_type_symbol
 _atom_site_label
 _atom_site_symmetry_multiplicity
 _atom_site_fract_x
 _atom_site_fract_y
 _atom_site_fract_z
 _atom_site_occupancy
  Tb  Tb0  1  0.500000  0.885219  0.653341  1
  Tb  Tb1  1  0.500000  0.614876  0.153443  1
  Tb  Tb2  1  0.500000  0.385130  0.846536  1
  Tb  Tb3  1  0.000000  0.112322  0.575085  1
  Tb  Tb4  1  0.000000  0.887759  0.424815  1
  Tb  Tb5  1  0.000000  0.612293  0.924851  1
  Tb  Tb6  1  0.000000  0.387762  0.075129  1
  Y  Y7  1  0.500000  0.114661  0.346837  1
  Ge  Ge8  1  0.500000  0.000089  0.499881  1
  Ge  Ge9  1  0.500000  0.500002  0.000003  1
  I  I10  1  0.500000  0.244596  0.161694  1
  I  I11  1  0.500000  0.755216  0.838490  1
  I  I12  1  0.500000  0.744831  0.338545  1
  I  I13  1  0.500000  0.255178  0.661450  1
  I  I14  1  0.000000  0.257974  0.413833  1
  I  I15  1  0.000000  0.741641  0.585878  1
  I  I16  1  0.000000  0.758414  0.085882  1
  I  I17  1  0.000000  0.241601  0.914097  1
  I  I18  1  0.000000  0.999592  0.240969  1
  I  I19  1  0.000000  0.000816  0.759262  1
  I  I20  1  0.000000  0.499201  0.259294  1
  I  I21  1  0.000000  0.500827  0.740685  1
