# generated using pymatgen
data_Ho8In3Pt
_symmetry_space_group_name_H-M   'P 1'
_cell_length_a   10.47277400
_cell_length_b   10.47277371
_cell_length_c   6.96015600
_cell_angle_alpha   90.00000000
_cell_angle_beta   90.00000000
_cell_angle_gamma   120.00000091
_symmetry_Int_Tables_number   1
_chemical_formula_structural   Ho8In3Pt
_chemical_formula_sum   'Ho16 In6 Pt2'
_cell_volume   661.10897464
_cell_formula_units_Z   2
loop_
 _symmetry_equiv_pos_site_id
 _symmetry_equiv_pos_as_xyz
  1  'x, y, z'
loop_
 _atom_site_type_symbol
 _atom_site_label
 _atom_site_symmetry_multiplicity
 _atom_site_fract_x
 _atom_site_fract_y
 _atom_site_fract_z
 _atom_site_occupancy
  Ho  Ho0  1  0.531294  0.062587  0.508657  1
  Ho  Ho1  1  0.937413  0.468706  0.508657  1
  Ho  Ho2  1  0.531294  0.468706  0.508657  1
  Ho  Ho3  1  0.468706  0.937413  0.008657  1
  Ho  Ho4  1  0.062587  0.531294  0.008657  1
  Ho  Ho5  1  0.468706  0.531294  0.008657  1
  Ho  Ho6  1  0.175363  0.350726  0.714749  1
  Ho  Ho7  1  0.649274  0.824637  0.714749  1
  Ho  Ho8  1  0.175363  0.824637  0.714749  1
  Ho  Ho9  1  0.824637  0.649274  0.214749  1
  Ho  Ho10  1  0.350726  0.175363  0.214749  1
  Ho  Ho11  1  0.824637  0.175363  0.214749  1
  Ho  Ho12  1  0.666667  0.333333  0.883861  1
  Ho  Ho13  1  0.333333  0.666667  0.383861  1
  Ho  Ho14  1  0.000000  0.000000  0.489585  1
  Ho  Ho15  1  0.000000  0.000000  0.989585  1
  In  In16  1  0.837505  0.675010  0.750831  1
  In  In17  1  0.324990  0.162495  0.750831  1
  In  In18  1  0.837505  0.162495  0.750831  1
  In  In19  1  0.162495  0.324990  0.250831  1
  In  In20  1  0.675010  0.837505  0.250831  1
  In  In21  1  0.162495  0.837505  0.250831  1
  Pt  Pt22  1  0.666667  0.333333  0.282866  1
  Pt  Pt23  1  0.333333  0.666667  0.782866  1
