# generated using pymatgen
data_Ho7ErRe3B24Rh
_symmetry_space_group_name_H-M   'P 1'
_cell_length_a   3.66823300
_cell_length_b   9.14221617
_cell_length_c   11.51872101
_cell_angle_alpha   90.16131468
_cell_angle_beta   90.00000000
_cell_angle_gamma   90.00000000
_symmetry_Int_Tables_number   1
_chemical_formula_structural   Ho7ErRe3B24Rh
_chemical_formula_sum   'Ho7 Er1 Re3 B24 Rh1'
_cell_volume   386.28775150
_cell_formula_units_Z   1
loop_
 _symmetry_equiv_pos_site_id
 _symmetry_equiv_pos_as_xyz
  1  'x, y, z'
loop_
 _atom_site_type_symbol
 _atom_site_label
 _atom_site_symmetry_multiplicity
 _atom_site_fract_x
 _atom_site_fract_y
 _atom_site_fract_z
 _atom_site_occupancy
  Ho  Ho0  1  0.000000  0.318378  0.415449  1
  Ho  Ho1  1  0.000000  0.678332  0.591071  1
  Ho  Ho2  1  0.000000  0.826841  0.081389  1
  Ho  Ho3  1  0.000000  0.177269  0.912726  1
  Ho  Ho4  1  0.000000  0.943373  0.370104  1
  Ho  Ho5  1  0.000000  0.055734  0.628924  1
  Ho  Ho6  1  0.000000  0.441593  0.128912  1
  Er  Er7  1  0.000000  0.556627  0.871469  1
  Re  Re8  1  0.000000  0.362598  0.677722  1
  Re  Re9  1  0.000000  0.138395  0.179911  1
  Re  Re10  1  0.000000  0.861364  0.821015  1
  B  B11  1  0.500000  0.554095  0.433739  1
  B  B12  1  0.500000  0.446649  0.566502  1
  B  B13  1  0.500000  0.053412  0.066513  1
  B  B14  1  0.500000  0.946969  0.932867  1
  B  B15  1  0.500000  0.749148  0.420395  1
  B  B16  1  0.500000  0.250476  0.580835  1
  B  B17  1  0.500000  0.249406  0.081155  1
  B  B18  1  0.500000  0.751233  0.919017  1
  B  B19  1  0.500000  0.791148  0.264931  1
  B  B20  1  0.500000  0.208324  0.734239  1
  B  B21  1  0.500000  0.291999  0.235341  1
  B  B22  1  0.500000  0.707818  0.765773  1
  B  B23  1  0.500000  0.632040  0.184039  1
  B  B24  1  0.500000  0.369516  0.814304  1
  B  B25  1  0.500000  0.130996  0.315003  1
  B  B26  1  0.500000  0.868312  0.685447  1
  B  B27  1  0.500000  0.982859  0.211891  1
  B  B28  1  0.500000  0.017368  0.787186  1
  B  B29  1  0.500000  0.483262  0.288082  1
  B  B30  1  0.500000  0.518266  0.712440  1
  B  B31  1  0.500000  0.603732  0.029113  1
  B  B32  1  0.500000  0.397718  0.971919  1
  B  B33  1  0.500000  0.101903  0.471033  1
  B  B34  1  0.500000  0.894963  0.528266  1
  Rh  Rh35  1  0.000000  0.637886  0.321276  1
