# generated using pymatgen
data_Yb2Si2Tc2C
_symmetry_space_group_name_H-M   'P 1'
_cell_length_a   5.91177312
_cell_length_b   5.91177345
_cell_length_c   7.18839061
_cell_angle_alpha   126.99184194
_cell_angle_beta   126.99184558
_cell_angle_gamma   39.55130996
_symmetry_Int_Tables_number   1
_chemical_formula_structural   Yb2Si2Tc2C
_chemical_formula_sum   'Yb2 Si2 Tc2 C1'
_cell_volume   122.99836702
_cell_formula_units_Z   1
loop_
 _symmetry_equiv_pos_site_id
 _symmetry_equiv_pos_as_xyz
  1  'x, y, z'
loop_
 _atom_site_type_symbol
 _atom_site_label
 _atom_site_symmetry_multiplicity
 _atom_site_fract_x
 _atom_site_fract_y
 _atom_site_fract_z
 _atom_site_occupancy
  Yb  Yb0  1  0.572883  0.572883  0.300397  1
  Yb  Yb1  1  0.427116  0.427116  0.699602  1
  Si  Si2  1  0.856508  0.856508  0.304980  1
  Si  Si3  1  0.143492  0.143492  0.695019  1
  Tc  Tc4  1  0.202840  0.202840  0.087522  1
  Tc  Tc5  1  0.797161  0.797161  0.912479  1
  C  C6  1  0.000000  0.000000  0.000000  1
