# generated using pymatgen
data_La2DyHo(AsPt)4
_symmetry_space_group_name_H-M   'P 1'
_cell_length_a   4.32871700
_cell_length_b   4.32871685
_cell_length_c   15.98210800
_cell_angle_alpha   90.00000000
_cell_angle_beta   90.00000000
_cell_angle_gamma   119.99999353
_symmetry_Int_Tables_number   1
_chemical_formula_structural   La2DyHo(AsPt)4
_chemical_formula_sum   'La2 Dy1 Ho1 As4 Pt4'
_cell_volume   259.34811348
_cell_formula_units_Z   1
loop_
 _symmetry_equiv_pos_site_id
 _symmetry_equiv_pos_as_xyz
  1  'x, y, z'
loop_
 _atom_site_type_symbol
 _atom_site_label
 _atom_site_symmetry_multiplicity
 _atom_site_fract_x
 _atom_site_fract_y
 _atom_site_fract_z
 _atom_site_occupancy
  La  La0  1  0.000000  0.000000  0.500015  1
  La  La1  1  0.000000  0.000000  0.999977  1
  Dy  Dy2  1  0.000000  0.000000  0.249998  1
  Ho  Ho3  1  0.000000  0.000000  0.750006  1
  As  As4  1  0.333333  0.666667  0.878604  1
  As  As5  1  0.666667  0.333333  0.121312  1
  As  As6  1  0.666667  0.333333  0.378691  1
  As  As7  1  0.333333  0.666667  0.621399  1
  Pt  Pt8  1  0.333333  0.666667  0.356670  1
  Pt  Pt9  1  0.666667  0.333333  0.643693  1
  Pt  Pt10  1  0.666667  0.333333  0.856308  1
  Pt  Pt11  1  0.333333  0.666667  0.143329  1
