# generated using pymatgen
data_Sc4MnZn(B2Rh5)2
_symmetry_space_group_name_H-M   'P 1'
_cell_length_a   9.39247800
_cell_length_b   3.06168100
_cell_length_c   9.39247800
_cell_angle_alpha   90.00000000
_cell_angle_beta   90.00000000
_cell_angle_gamma   90.00000000
_symmetry_Int_Tables_number   1
_chemical_formula_structural   Sc4MnZn(B2Rh5)2
_chemical_formula_sum   'Sc4 Mn1 Zn1 B4 Rh10'
_cell_volume   270.09734306
_cell_formula_units_Z   1
loop_
 _symmetry_equiv_pos_site_id
 _symmetry_equiv_pos_as_xyz
  1  'x, y, z'
loop_
 _atom_site_type_symbol
 _atom_site_label
 _atom_site_symmetry_multiplicity
 _atom_site_fract_x
 _atom_site_fract_y
 _atom_site_fract_z
 _atom_site_occupancy
  Sc  Sc0  1  0.675217  0.000000  0.175786  1
  Sc  Sc1  1  0.175786  0.000000  0.324783  1
  Sc  Sc2  1  0.824214  0.000000  0.675217  1
  Sc  Sc3  1  0.324783  0.000000  0.824214  1
  Mn  Mn4  1  0.000000  0.000000  0.000000  1
  Zn  Zn5  1  0.500000  0.000000  0.500000  1
  B  B6  1  0.375505  0.000000  0.126478  1
  B  B7  1  0.873523  0.000000  0.375505  1
  B  B8  1  0.126478  0.000000  0.624495  1
  B  B9  1  0.624495  0.000000  0.873523  1
  Rh  Rh10  1  0.500000  0.500001  0.000000  1
  Rh  Rh11  1  0.218038  0.500001  0.069734  1
  Rh  Rh12  1  0.930266  0.500001  0.218038  1
  Rh  Rh13  1  0.428184  0.500001  0.282626  1
  Rh  Rh14  1  0.717374  0.500001  0.428184  1
  Rh  Rh15  1  0.000000  0.500001  0.500000  1
  Rh  Rh16  1  0.282626  0.500001  0.571816  1
  Rh  Rh17  1  0.571816  0.500001  0.717374  1
  Rh  Rh18  1  0.069734  0.500001  0.781961  1
  Rh  Rh19  1  0.781961  0.500001  0.930266  1
