# generated using pymatgen
data_HoLuTcB6
_symmetry_space_group_name_H-M   'P 1'
_cell_length_a   3.63929400
_cell_length_b   9.09087800
_cell_length_c   11.47372000
_cell_angle_alpha   90.00000000
_cell_angle_beta   90.00000000
_cell_angle_gamma   90.00000000
_symmetry_Int_Tables_number   1
_chemical_formula_structural   HoLuTcB6
_chemical_formula_sum   'Ho4 Lu4 Tc4 B24'
_cell_volume   379.60088679
_cell_formula_units_Z   4
loop_
 _symmetry_equiv_pos_site_id
 _symmetry_equiv_pos_as_xyz
  1  'x, y, z'
loop_
 _atom_site_type_symbol
 _atom_site_label
 _atom_site_symmetry_multiplicity
 _atom_site_fract_x
 _atom_site_fract_y
 _atom_site_fract_z
 _atom_site_occupancy
  Ho  Ho0  1  0.000000  0.323545  0.414192  1
  Ho  Ho1  1  0.000000  0.676455  0.585808  1
  Ho  Ho2  1  0.000000  0.823545  0.085808  1
  Ho  Ho3  1  0.000000  0.176455  0.914192  1
  Lu  Lu4  1  0.000000  0.943331  0.370061  1
  Lu  Lu5  1  0.000000  0.056669  0.629939  1
  Lu  Lu6  1  0.000000  0.443331  0.129939  1
  Lu  Lu7  1  0.000000  0.556669  0.870061  1
  Tc  Tc8  1  0.000000  0.639550  0.319622  1
  Tc  Tc9  1  0.000000  0.360450  0.680378  1
  Tc  Tc10  1  0.000000  0.139550  0.180378  1
  Tc  Tc11  1  0.000000  0.860450  0.819622  1
  B  B12  1  0.500000  0.553578  0.432733  1
  B  B13  1  0.500000  0.446422  0.567267  1
  B  B14  1  0.500000  0.053578  0.067267  1
  B  B15  1  0.500000  0.946422  0.932733  1
  B  B16  1  0.500000  0.750394  0.418725  1
  B  B17  1  0.500000  0.249606  0.581275  1
  B  B18  1  0.500000  0.250394  0.081275  1
  B  B19  1  0.500000  0.749606  0.918725  1
  B  B20  1  0.500000  0.793228  0.265327  1
  B  B21  1  0.500000  0.206772  0.734672  1
  B  B22  1  0.500000  0.293228  0.234673  1
  B  B23  1  0.500000  0.706772  0.765328  1
  B  B24  1  0.500000  0.630435  0.184658  1
  B  B25  1  0.500000  0.369565  0.815342  1
  B  B26  1  0.500000  0.130435  0.315342  1
  B  B27  1  0.500000  0.869565  0.684658  1
  B  B28  1  0.500000  0.981618  0.212597  1
  B  B29  1  0.500000  0.018382  0.787403  1
  B  B30  1  0.500000  0.481618  0.287403  1
  B  B31  1  0.500000  0.518382  0.712597  1
  B  B32  1  0.500000  0.598926  0.027438  1
  B  B33  1  0.500000  0.401074  0.972562  1
  B  B34  1  0.500000  0.098926  0.472562  1
  B  B35  1  0.500000  0.901074  0.527438  1
