# generated using pymatgen
data_Hf16Nb3Ni4Hg
_symmetry_space_group_name_H-M   'P 1'
_cell_length_a   8.78596575
_cell_length_b   8.78596510
_cell_length_c   8.78596669
_cell_angle_alpha   59.98633473
_cell_angle_beta   59.98633589
_cell_angle_gamma   59.98634041
_symmetry_Int_Tables_number   1
_chemical_formula_structural   Hf16Nb3Ni4Hg
_chemical_formula_sum   'Hf16 Nb3 Ni4 Hg1'
_cell_volume   479.42311497
_cell_formula_units_Z   1
loop_
 _symmetry_equiv_pos_site_id
 _symmetry_equiv_pos_as_xyz
  1  'x, y, z'
loop_
 _atom_site_type_symbol
 _atom_site_label
 _atom_site_symmetry_multiplicity
 _atom_site_fract_x
 _atom_site_fract_y
 _atom_site_fract_z
 _atom_site_occupancy
  Hf  Hf0  1  0.702672  0.097771  0.097771  1
  Hf  Hf1  1  0.097771  0.702672  0.097771  1
  Hf  Hf2  1  0.097771  0.097771  0.702672  1
  Hf  Hf3  1  0.102372  0.102372  0.102372  1
  Hf  Hf4  1  0.315973  0.315973  0.691829  1
  Hf  Hf5  1  0.685654  0.685654  0.315080  1
  Hf  Hf6  1  0.315973  0.691829  0.315973  1
  Hf  Hf7  1  0.685654  0.315080  0.685654  1
  Hf  Hf8  1  0.691829  0.315973  0.315973  1
  Hf  Hf9  1  0.315080  0.685654  0.685654  1
  Hf  Hf10  1  0.951355  0.951355  0.546447  1
  Hf  Hf11  1  0.555519  0.555519  0.941765  1
  Hf  Hf12  1  0.951355  0.546447  0.951355  1
  Hf  Hf13  1  0.555519  0.941765  0.555519  1
  Hf  Hf14  1  0.546447  0.951355  0.951355  1
  Hf  Hf15  1  0.941765  0.555519  0.555519  1
  Nb  Nb16  1  0.993490  0.333034  0.333034  1
  Nb  Nb17  1  0.333034  0.993490  0.333034  1
  Nb  Nb18  1  0.333034  0.333034  0.993490  1
  Ni  Ni19  1  0.325477  0.889547  0.889547  1
  Ni  Ni20  1  0.889547  0.325477  0.889547  1
  Ni  Ni21  1  0.889547  0.889547  0.325477  1
  Ni  Ni22  1  0.890668  0.890668  0.890668  1
  Hg  Hg23  1  0.332490  0.332490  0.332490  1
