# generated using pymatgen
data_Ho15Er5(Ir2Ru)4
_symmetry_space_group_name_H-M   'P 1'
_cell_length_a   10.77143802
_cell_length_b   10.77155602
_cell_length_c   6.39882400
_cell_angle_alpha   90.00222209
_cell_angle_beta   90.00257671
_cell_angle_gamma   89.99325523
_symmetry_Int_Tables_number   1
_chemical_formula_structural   Ho15Er5(Ir2Ru)4
_chemical_formula_sum   'Ho15 Er5 Ir8 Ru4'
_cell_volume   742.42449595
_cell_formula_units_Z   1
loop_
 _symmetry_equiv_pos_site_id
 _symmetry_equiv_pos_as_xyz
  1  'x, y, z'
loop_
 _atom_site_type_symbol
 _atom_site_label
 _atom_site_symmetry_multiplicity
 _atom_site_fract_x
 _atom_site_fract_y
 _atom_site_fract_z
 _atom_site_occupancy
  Ho  Ho0  1  0.293325  0.086427  0.377126  1
  Ho  Ho1  1  0.293396  0.913612  0.877111  1
  Ho  Ho2  1  0.706636  0.086405  0.877127  1
  Ho  Ho3  1  0.706660  0.913644  0.377149  1
  Ho  Ho4  1  0.586368  0.793343  0.877149  1
  Ho  Ho5  1  0.586406  0.206634  0.377153  1
  Ho  Ho6  1  0.413622  0.793364  0.377154  1
  Ho  Ho7  1  0.413596  0.206638  0.877153  1
  Ho  Ho8  1  0.206611  0.413582  0.622845  1
  Ho  Ho9  1  0.206587  0.586326  0.122868  1
  Ho  Ho10  1  0.793445  0.413558  0.122859  1
  Ho  Ho11  1  0.793339  0.586371  0.622850  1
  Ho  Ho12  1  0.913599  0.706619  0.122862  1
  Ho  Ho13  1  0.913650  0.293373  0.622887  1
  Ho  Ho14  1  0.086390  0.706623  0.622852  1
  Er  Er15  1  0.086356  0.293461  0.122684  1
  Er  Er16  1  0.999978  0.000033  0.499914  1
  Er  Er17  1  0.000030  0.000070  0.000076  1
  Er  Er18  1  0.500021  0.500001  0.999917  1
  Er  Er19  1  0.500002  0.500003  0.500026  1
  Ir  Ir20  1  0.847674  0.152478  0.249977  1
  Ir  Ir21  1  0.847640  0.847620  0.750011  1
  Ir  Ir22  1  0.152321  0.152474  0.750244  1
  Ir  Ir23  1  0.152403  0.847559  0.250003  1
  Ir  Ir24  1  0.652414  0.347596  0.749998  1
  Ir  Ir25  1  0.652383  0.652384  0.250018  1
  Ir  Ir26  1  0.347480  0.347607  0.249948  1
  Ir  Ir27  1  0.347593  0.652381  0.750025  1
  Ru  Ru28  1  0.499993  0.999961  0.122030  1
  Ru  Ru29  1  0.500010  0.000006  0.621968  1
  Ru  Ru30  1  0.000048  0.499904  0.878139  1
  Ru  Ru31  1  0.000020  0.499944  0.377877  1
