# generated using pymatgen
data_Er5Bi2Ir
_symmetry_space_group_name_H-M   'P 1'
_cell_length_a   7.93472600
_cell_length_b   8.97958400
_cell_length_c   12.45634500
_cell_angle_alpha   90.00000000
_cell_angle_beta   90.00000000
_cell_angle_gamma   90.00000000
_symmetry_Int_Tables_number   1
_chemical_formula_structural   Er5Bi2Ir
_chemical_formula_sum   'Er20 Bi8 Ir4'
_cell_volume   887.52129066
_cell_formula_units_Z   4
loop_
 _symmetry_equiv_pos_site_id
 _symmetry_equiv_pos_as_xyz
  1  'x, y, z'
loop_
 _atom_site_type_symbol
 _atom_site_label
 _atom_site_symmetry_multiplicity
 _atom_site_fract_x
 _atom_site_fract_y
 _atom_site_fract_z
 _atom_site_occupancy
  Er  Er0  1  0.661712  0.750000  0.706471  1
  Er  Er1  1  0.338288  0.250000  0.293529  1
  Er  Er2  1  0.161712  0.250000  0.793529  1
  Er  Er3  1  0.838288  0.750000  0.206471  1
  Er  Er4  1  0.128013  0.750000  0.810858  1
  Er  Er5  1  0.871987  0.250000  0.189142  1
  Er  Er6  1  0.628013  0.250000  0.689142  1
  Er  Er7  1  0.371987  0.750000  0.310858  1
  Er  Er8  1  0.554947  0.750000  0.998082  1
  Er  Er9  1  0.445053  0.250000  0.001918  1
  Er  Er10  1  0.054947  0.250000  0.501918  1
  Er  Er11  1  0.945053  0.750000  0.498082  1
  Er  Er12  1  0.826328  0.458637  0.932080  1
  Er  Er13  1  0.173672  0.541363  0.067920  1
  Er  Er14  1  0.326328  0.541363  0.567920  1
  Er  Er15  1  0.173672  0.958637  0.067920  1
  Er  Er16  1  0.673672  0.458637  0.432080  1
  Er  Er17  1  0.826328  0.041363  0.932080  1
  Er  Er18  1  0.673672  0.041363  0.432080  1
  Er  Er19  1  0.326328  0.958637  0.567920  1
  Bi  Bi20  1  0.936398  0.007326  0.672813  1
  Bi  Bi21  1  0.063602  0.992674  0.327187  1
  Bi  Bi22  1  0.436398  0.992674  0.827187  1
  Bi  Bi23  1  0.063602  0.507326  0.327187  1
  Bi  Bi24  1  0.563602  0.007326  0.172813  1
  Bi  Bi25  1  0.936398  0.492674  0.672813  1
  Bi  Bi26  1  0.563602  0.492674  0.172813  1
  Bi  Bi27  1  0.436398  0.507326  0.827187  1
  Ir  Ir28  1  0.928951  0.750000  0.991827  1
  Ir  Ir29  1  0.071049  0.250000  0.008173  1
  Ir  Ir30  1  0.428951  0.250000  0.508173  1
  Ir  Ir31  1  0.571049  0.750000  0.491827  1
