# generated using pymatgen
data_RbNpCrSe4
_symmetry_space_group_name_H-M   'P 1'
_cell_length_a   4.02016800
_cell_length_b   6.61586221
_cell_length_c   8.41691682
_cell_angle_alpha   87.24583008
_cell_angle_beta   90.00000000
_cell_angle_gamma   90.00000000
_symmetry_Int_Tables_number   1
_chemical_formula_structural   RbNpCrSe4
_chemical_formula_sum   'Rb1 Np1 Cr1 Se4'
_cell_volume   223.60511929
_cell_formula_units_Z   1
loop_
 _symmetry_equiv_pos_site_id
 _symmetry_equiv_pos_as_xyz
  1  'x, y, z'
loop_
 _atom_site_type_symbol
 _atom_site_label
 _atom_site_symmetry_multiplicity
 _atom_site_fract_x
 _atom_site_fract_y
 _atom_site_fract_z
 _atom_site_occupancy
  Rb  Rb0  1  0.000000  0.500000  0.000000  1
  Np  Np1  1  0.500000  0.000000  0.500000  1
  Cr  Cr2  1  0.000000  0.500000  0.500000  1
  Se  Se3  1  0.000000  0.824303  0.315548  1
  Se  Se4  1  0.500000  0.372343  0.329697  1
  Se  Se5  1  0.500000  0.627657  0.670303  1
  Se  Se6  1  0.000000  0.175697  0.684452  1
