# generated using pymatgen
data_Tb3Y5AlPd24
_symmetry_space_group_name_H-M   'P 1'
_cell_length_a   8.36414901
_cell_length_b   8.36414901
_cell_length_c   8.36400202
_cell_angle_alpha   89.99476638
_cell_angle_beta   89.99476638
_cell_angle_gamma   89.99771193
_symmetry_Int_Tables_number   1
_chemical_formula_structural   Tb3Y5AlPd24
_chemical_formula_sum   'Tb3 Y5 Al1 Pd24'
_cell_volume   585.13711701
_cell_formula_units_Z   1
loop_
 _symmetry_equiv_pos_site_id
 _symmetry_equiv_pos_as_xyz
  1  'x, y, z'
loop_
 _atom_site_type_symbol
 _atom_site_label
 _atom_site_symmetry_multiplicity
 _atom_site_fract_x
 _atom_site_fract_y
 _atom_site_fract_z
 _atom_site_occupancy
  Tb  Tb0  1  0.251262  0.251262  0.251265  1
  Tb  Tb1  1  0.748740  0.748740  0.748741  1
  Tb  Tb2  1  0.748741  0.748741  0.251253  1
  Y  Y3  1  0.748761  0.251229  0.748790  1
  Y  Y4  1  0.251212  0.251212  0.748810  1
  Y  Y5  1  0.251227  0.748775  0.251206  1
  Y  Y6  1  0.251229  0.748761  0.748790  1
  Y  Y7  1  0.748775  0.251227  0.251206  1
  Al  Al8  1  0.000028  0.000028  0.999973  1
  Pd  Pd9  1  0.260157  0.499969  0.000021  1
  Pd  Pd10  1  0.739836  0.500056  0.999988  1
  Pd  Pd11  1  0.000042  0.260154  0.499948  1
  Pd  Pd12  1  0.499969  0.260157  0.000021  1
  Pd  Pd13  1  0.999949  0.739841  0.500024  1
  Pd  Pd14  1  0.500056  0.739836  0.999988  1
  Pd  Pd15  1  0.499976  0.000014  0.260119  1
  Pd  Pd16  1  0.260154  0.000042  0.499948  1
  Pd  Pd17  1  0.500051  0.999980  0.739887  1
  Pd  Pd18  1  0.739841  0.999949  0.500024  1
  Pd  Pd19  1  0.000014  0.499976  0.260119  1
  Pd  Pd20  1  0.999980  0.500051  0.739887  1
  Pd  Pd21  1  0.252941  0.499950  0.499972  1
  Pd  Pd22  1  0.747045  0.500063  0.500013  1
  Pd  Pd23  1  0.499950  0.252941  0.499972  1
  Pd  Pd24  1  0.500063  0.747045  0.500013  1
  Pd  Pd25  1  0.499985  0.499985  0.252912  1
  Pd  Pd26  1  0.500029  0.500029  0.747101  1
  Pd  Pd27  1  0.290079  0.000037  0.000008  1
  Pd  Pd28  1  0.709907  0.999964  0.999991  1
  Pd  Pd29  1  0.000037  0.290079  0.000008  1
  Pd  Pd30  1  0.999964  0.709907  0.999991  1
  Pd  Pd31  1  0.000007  0.000007  0.290048  1
  Pd  Pd32  1  0.999992  0.999992  0.709966  1
