# generated using pymatgen
data_Er2Tm10Ni5Bi
_symmetry_space_group_name_H-M   'P 1'
_cell_length_a   8.24685200
_cell_length_b   8.24685277
_cell_length_c   8.24878087
_cell_angle_alpha   109.52692038
_cell_angle_beta   111.57388256
_cell_angle_gamma   107.33062723
_symmetry_Int_Tables_number   1
_chemical_formula_structural   Er2Tm10Ni5Bi
_chemical_formula_sum   'Er2 Tm10 Ni5 Bi1'
_cell_volume   431.32267912
_cell_formula_units_Z   1
loop_
 _symmetry_equiv_pos_site_id
 _symmetry_equiv_pos_as_xyz
  1  'x, y, z'
loop_
 _atom_site_type_symbol
 _atom_site_label
 _atom_site_symmetry_multiplicity
 _atom_site_fract_x
 _atom_site_fract_y
 _atom_site_fract_z
 _atom_site_occupancy
  Er  Er0  1  0.290583  0.179386  0.469969  1
  Er  Er1  1  0.709417  0.820614  0.530031  1
  Tm  Tm2  1  0.291154  0.820378  0.111531  1
  Tm  Tm3  1  0.708846  0.179622  0.888469  1
  Tm  Tm4  1  0.627077  0.319089  0.307344  1
  Tm  Tm5  1  0.372923  0.680911  0.692656  1
  Tm  Tm6  1  0.011746  0.319734  0.692656  1
  Tm  Tm7  1  0.988254  0.680266  0.307344  1
  Tm  Tm8  1  0.208233  0.402736  0.193183  1
  Tm  Tm9  1  0.791767  0.597264  0.806817  1
  Tm  Tm10  1  0.209554  0.015051  0.806817  1
  Tm  Tm11  1  0.790446  0.984949  0.193183  1
  Ni  Ni12  1  0.999224  0.366615  0.365840  1
  Ni  Ni13  1  0.000776  0.633385  0.634160  1
  Ni  Ni14  1  0.376869  0.876869  0.500000  1
  Ni  Ni15  1  0.623131  0.123131  0.500000  1
  Ni  Ni16  1  0.000000  0.000000  0.000000  1
  Bi  Bi17  1  0.500000  0.500000  0.000000  1
