# generated using pymatgen
data_Y3Fe4P6Rh5
_symmetry_space_group_name_H-M   'P 1'
_cell_length_a   3.81186700
_cell_length_b   11.02911600
_cell_length_c   12.44356000
_cell_angle_alpha   90.00000000
_cell_angle_beta   90.00000000
_cell_angle_gamma   90.00000000
_symmetry_Int_Tables_number   1
_chemical_formula_structural   Y3Fe4P6Rh5
_chemical_formula_sum   'Y6 Fe8 P12 Rh10'
_cell_volume   523.14621792
_cell_formula_units_Z   2
loop_
 _symmetry_equiv_pos_site_id
 _symmetry_equiv_pos_as_xyz
  1  'x, y, z'
loop_
 _atom_site_type_symbol
 _atom_site_label
 _atom_site_symmetry_multiplicity
 _atom_site_fract_x
 _atom_site_fract_y
 _atom_site_fract_z
 _atom_site_occupancy
  Y  Y0  1  0.000000  0.500000  0.518444  1
  Y  Y1  1  0.500000  0.000000  0.475746  1
  Y  Y2  1  0.500000  0.817680  0.195282  1
  Y  Y3  1  0.500000  0.182320  0.195282  1
  Y  Y4  1  0.000000  0.677580  0.806880  1
  Y  Y5  1  0.000000  0.322420  0.806880  1
  Fe  Fe6  1  0.000000  0.500000  0.994643  1
  Fe  Fe7  1  0.500000  0.000000  0.008439  1
  Fe  Fe8  1  0.000000  0.617835  0.282517  1
  Fe  Fe9  1  0.000000  0.382165  0.282517  1
  Fe  Fe10  1  0.500000  0.334483  0.997696  1
  Fe  Fe11  1  0.500000  0.665517  0.997696  1
  Fe  Fe12  1  0.000000  0.166645  0.006749  1
  Fe  Fe13  1  0.000000  0.833355  0.006749  1
  P  P14  1  0.500000  0.314076  0.620619  1
  P  P15  1  0.500000  0.685924  0.620619  1
  P  P16  1  0.000000  0.197397  0.370046  1
  P  P17  1  0.000000  0.802603  0.370046  1
  P  P18  1  0.500000  0.500000  0.897501  1
  P  P19  1  0.000000  0.000000  0.105585  1
  P  P20  1  0.500000  0.837937  0.909269  1
  P  P21  1  0.500000  0.162063  0.909269  1
  P  P22  1  0.000000  0.658380  0.100152  1
  P  P23  1  0.000000  0.341620  0.100152  1
  P  P24  1  0.500000  0.500000  0.337177  1
  P  P25  1  0.000000  0.000000  0.655549  1
  Rh  Rh26  1  0.500000  0.301417  0.425815  1
  Rh  Rh27  1  0.500000  0.698583  0.425815  1
  Rh  Rh28  1  0.000000  0.206371  0.569358  1
  Rh  Rh29  1  0.000000  0.793629  0.569358  1
  Rh  Rh30  1  0.500000  0.873998  0.717755  1
  Rh  Rh31  1  0.500000  0.126002  0.717755  1
  Rh  Rh32  1  0.500000  0.500000  0.153728  1
  Rh  Rh33  1  0.000000  0.000000  0.846178  1
  Rh  Rh34  1  0.500000  0.500000  0.705384  1
  Rh  Rh35  1  0.000000  0.000000  0.297347  1
