# generated using pymatgen
data_Ce4Al2OsRh
_symmetry_space_group_name_H-M   'P 1'
_cell_length_a   7.81201400
_cell_length_b   7.81201436
_cell_length_c   9.80771800
_cell_angle_alpha   90.00000000
_cell_angle_beta   90.00000000
_cell_angle_gamma   119.99999846
_symmetry_Int_Tables_number   1
_chemical_formula_structural   Ce4Al2OsRh
_chemical_formula_sum   'Ce12 Al6 Os3 Rh3'
_cell_volume   518.35185221
_cell_formula_units_Z   3
loop_
 _symmetry_equiv_pos_site_id
 _symmetry_equiv_pos_as_xyz
  1  'x, y, z'
loop_
 _atom_site_type_symbol
 _atom_site_label
 _atom_site_symmetry_multiplicity
 _atom_site_fract_x
 _atom_site_fract_y
 _atom_site_fract_z
 _atom_site_occupancy
  Ce  Ce0  1  0.000000  0.595455  0.503473  1
  Ce  Ce1  1  0.595455  0.000000  0.503473  1
  Ce  Ce2  1  0.404545  0.404545  0.503473  1
  Ce  Ce3  1  0.000000  0.398813  0.008197  1
  Ce  Ce4  1  0.398813  0.000000  0.008197  1
  Ce  Ce5  1  0.601187  0.601187  0.008197  1
  Ce  Ce6  1  0.000000  0.734041  0.172219  1
  Ce  Ce7  1  0.734041  0.000000  0.172219  1
  Ce  Ce8  1  0.265959  0.265959  0.172219  1
  Ce  Ce9  1  0.000000  0.271268  0.667267  1
  Ce  Ce10  1  0.271268  0.000000  0.667267  1
  Ce  Ce11  1  0.728732  0.728732  0.667267  1
  Al  Al12  1  0.666667  0.333333  0.277101  1
  Al  Al13  1  0.333333  0.666667  0.277101  1
  Al  Al14  1  0.333333  0.666667  0.781213  1
  Al  Al15  1  0.666667  0.333333  0.781213  1
  Al  Al16  1  0.000000  0.000000  0.419180  1
  Al  Al17  1  0.000000  0.000000  0.915044  1
  Os  Os18  1  0.000000  0.336256  0.336657  1
  Os  Os19  1  0.336256  0.000000  0.336657  1
  Os  Os20  1  0.663744  0.663744  0.336657  1
  Rh  Rh21  1  0.000000  0.663912  0.838320  1
  Rh  Rh22  1  0.663912  0.000000  0.838320  1
  Rh  Rh23  1  0.336088  0.336088  0.838320  1
