# generated using pymatgen
data_ErHf3(Al3Rh)6
_symmetry_space_group_name_H-M   'P 1'
_cell_length_a   7.47738309
_cell_length_b   7.46993704
_cell_length_c   9.27554600
_cell_angle_alpha   90.00000000
_cell_angle_beta   90.00000000
_cell_angle_gamma   119.70968975
_symmetry_Int_Tables_number   1
_chemical_formula_structural   ErHf3(Al3Rh)6
_chemical_formula_sum   'Er1 Hf3 Al18 Rh6'
_cell_volume   449.98676085
_cell_formula_units_Z   1
loop_
 _symmetry_equiv_pos_site_id
 _symmetry_equiv_pos_as_xyz
  1  'x, y, z'
loop_
 _atom_site_type_symbol
 _atom_site_label
 _atom_site_symmetry_multiplicity
 _atom_site_fract_x
 _atom_site_fract_y
 _atom_site_fract_z
 _atom_site_occupancy
  Er  Er0  1  0.328968  0.006341  0.250000  1
  Hf  Hf1  1  0.994079  0.671769  0.750000  1
  Hf  Hf2  1  0.005734  0.328873  0.250000  1
  Hf  Hf3  1  0.671760  0.994255  0.750000  1
  Al  Al4  1  0.121623  0.122941  0.750000  1
  Al  Al5  1  0.872458  0.876008  0.250000  1
  Al  Al6  1  0.996644  0.334724  0.578316  1
  Al  Al7  1  0.000467  0.662814  0.426213  1
  Al  Al8  1  0.000467  0.662814  0.073787  1
  Al  Al9  1  0.334983  0.997261  0.918425  1
  Al  Al10  1  0.996644  0.334724  0.921684  1
  Al  Al11  1  0.667850  0.002443  0.073918  1
  Al  Al12  1  0.667850  0.002443  0.426082  1
  Al  Al13  1  0.334983  0.997261  0.581575  1
  Al  Al14  1  0.331079  0.333504  0.054052  1
  Al  Al15  1  0.669169  0.669104  0.938635  1
  Al  Al16  1  0.669169  0.669104  0.561365  1
  Al  Al17  1  0.331079  0.333504  0.445948  1
  Al  Al18  1  0.337805  0.553576  0.750000  1
  Al  Al19  1  0.666396  0.451209  0.250000  1
  Al  Al20  1  0.555522  0.339114  0.750000  1
  Al  Al21  1  0.445415  0.656577  0.250000  1
  Rh  Rh22  1  0.672937  0.327723  0.501299  1
  Rh  Rh23  1  0.327910  0.673221  0.501818  1
  Rh  Rh24  1  0.327910  0.673221  0.998182  1
  Rh  Rh25  1  0.672937  0.327723  0.998701  1
  Rh  Rh26  1  0.999079  0.998874  0.501541  1
  Rh  Rh27  1  0.999079  0.998874  0.998459  1
