# generated using pymatgen
data_Ho2Mn5Fe4CoP6
_symmetry_space_group_name_H-M   'P 1'
_cell_length_a   3.63032000
_cell_length_b   10.35023300
_cell_length_c   12.11023300
_cell_angle_alpha   90.00000000
_cell_angle_beta   90.00000000
_cell_angle_gamma   90.00000000
_symmetry_Int_Tables_number   1
_chemical_formula_structural   Ho2Mn5Fe4CoP6
_chemical_formula_sum   'Ho4 Mn10 Fe8 Co2 P12'
_cell_volume   455.03786164
_cell_formula_units_Z   2
loop_
 _symmetry_equiv_pos_site_id
 _symmetry_equiv_pos_as_xyz
  1  'x, y, z'
loop_
 _atom_site_type_symbol
 _atom_site_label
 _atom_site_symmetry_multiplicity
 _atom_site_fract_x
 _atom_site_fract_y
 _atom_site_fract_z
 _atom_site_occupancy
  Ho  Ho0  1  0.250000  0.584299  0.710937  1
  Ho  Ho1  1  0.250000  0.915701  0.210937  1
  Ho  Ho2  1  0.750000  0.423325  0.290596  1
  Ho  Ho3  1  0.750000  0.076675  0.790596  1
  Mn  Mn4  1  0.250000  0.706768  0.992263  1
  Mn  Mn5  1  0.250000  0.793232  0.492263  1
  Mn  Mn6  1  0.750000  0.290958  0.010468  1
  Mn  Mn7  1  0.750000  0.209042  0.510468  1
  Mn  Mn8  1  0.250000  0.411996  0.491103  1
  Mn  Mn9  1  0.250000  0.088004  0.991103  1
  Mn  Mn10  1  0.750000  0.595505  0.508769  1
  Mn  Mn11  1  0.750000  0.904495  0.008769  1
  Mn  Mn12  1  0.250000  0.218809  0.174157  1
  Mn  Mn13  1  0.250000  0.281191  0.674157  1
  Fe  Fe14  1  0.750000  0.776316  0.826338  1
  Fe  Fe15  1  0.750000  0.723684  0.326338  1
  Fe  Fe16  1  0.750000  0.127434  0.300292  1
  Fe  Fe17  1  0.750000  0.372566  0.800292  1
  Fe  Fe18  1  0.250000  0.461810  0.933130  1
  Fe  Fe19  1  0.250000  0.038190  0.433130  1
  Fe  Fe20  1  0.750000  0.537707  0.065028  1
  Fe  Fe21  1  0.750000  0.962293  0.565028  1
  Co  Co22  1  0.250000  0.878578  0.697218  1
  Co  Co23  1  0.250000  0.621422  0.197218  1
  P  P24  1  0.250000  0.425982  0.110558  1
  P  P25  1  0.250000  0.074018  0.610558  1
  P  P26  1  0.750000  0.574563  0.887434  1
  P  P27  1  0.750000  0.925437  0.387434  1
  P  P28  1  0.250000  0.264981  0.868290  1
  P  P29  1  0.250000  0.235019  0.368290  1
  P  P30  1  0.750000  0.730749  0.136581  1
  P  P31  1  0.750000  0.769251  0.636581  1
  P  P32  1  0.250000  0.605055  0.382755  1
  P  P33  1  0.250000  0.894945  0.882755  1
  P  P34  1  0.750000  0.406144  0.614085  1
  P  P35  1  0.750000  0.093856  0.114085  1
