# generated using pymatgen
data_Li3Nd(BO3)2
_symmetry_space_group_name_H-M   'P 1'
_cell_length_a   6.49096600
_cell_length_b   8.88185974
_cell_length_c   10.20481100
_cell_angle_alpha   62.86979256
_cell_angle_beta   90.00000000
_cell_angle_gamma   90.00000000
_symmetry_Int_Tables_number   1
_chemical_formula_structural   Li3Nd(BO3)2
_chemical_formula_sum   'Li12 Nd4 B8 O24'
_cell_volume   523.59417018
_cell_formula_units_Z   4
loop_
 _symmetry_equiv_pos_site_id
 _symmetry_equiv_pos_as_xyz
  1  'x, y, z'
loop_
 _atom_site_type_symbol
 _atom_site_label
 _atom_site_symmetry_multiplicity
 _atom_site_fract_x
 _atom_site_fract_y
 _atom_site_fract_z
 _atom_site_occupancy
  Li  Li0  1  0.240654  0.391920  0.977442  1
  Li  Li1  1  0.936213  0.299476  0.165372  1
  Li  Li2  1  0.740654  0.608080  0.522558  1
  Li  Li3  1  0.718767  0.164476  0.042011  1
  Li  Li4  1  0.563787  0.299476  0.665372  1
  Li  Li5  1  0.218767  0.835524  0.457989  1
  Li  Li6  1  0.781233  0.164476  0.542011  1
  Li  Li7  1  0.436213  0.700524  0.334628  1
  Li  Li8  1  0.281233  0.835524  0.957989  1
  Li  Li9  1  0.259346  0.391920  0.477442  1
  Li  Li10  1  0.063787  0.700524  0.834628  1
  Li  Li11  1  0.759346  0.608080  0.022558  1
  Nd  Nd12  1  0.472660  0.183361  0.298529  1
  Nd  Nd13  1  0.027340  0.183361  0.798529  1
  Nd  Nd14  1  0.972660  0.816639  0.201471  1
  Nd  Nd15  1  0.527340  0.816639  0.701471  1
  B  B16  1  0.335878  0.540634  0.673916  1
  B  B17  1  0.835878  0.459366  0.826084  1
  B  B18  1  0.830578  0.951350  0.394289  1
  B  B19  1  0.330578  0.048650  0.105711  1
  B  B20  1  0.669422  0.951350  0.894289  1
  B  B21  1  0.169422  0.048650  0.605711  1
  B  B22  1  0.164122  0.540634  0.173916  1
  B  B23  1  0.664122  0.459366  0.326084  1
  O  O24  1  0.793312  0.615315  0.818585  1
  O  O25  1  0.287001  0.583407  0.785969  1
  O  O26  1  0.436402  0.665412  0.549770  1
  O  O27  1  0.936402  0.334588  0.950230  1
  O  O28  1  0.787001  0.416593  0.714031  1
  O  O29  1  0.720145  0.993398  0.488423  1
  O  O30  1  0.433422  0.200354  0.057570  1
  O  O31  1  0.293312  0.384685  0.681415  1
  O  O32  1  0.821710  0.063193  0.244006  1
  O  O33  1  0.321710  0.936807  0.255994  1
  O  O34  1  0.933422  0.799646  0.442430  1
  O  O35  1  0.220145  0.006602  0.011577  1
  O  O36  1  0.779855  0.993398  0.988423  1
  O  O37  1  0.066578  0.200354  0.557570  1
  O  O38  1  0.678290  0.063193  0.744006  1
  O  O39  1  0.178290  0.936807  0.755994  1
  O  O40  1  0.706688  0.615315  0.318585  1
  O  O41  1  0.566578  0.799646  0.942430  1
  O  O42  1  0.279855  0.006602  0.511577  1
  O  O43  1  0.212999  0.583407  0.285969  1
  O  O44  1  0.063598  0.665412  0.049770  1
  O  O45  1  0.563598  0.334588  0.450230  1
  O  O46  1  0.712999  0.416593  0.214031  1
  O  O47  1  0.206688  0.384685  0.181415  1
