# generated using pymatgen
data_LiGd2Mg(B6Os)2
_symmetry_space_group_name_H-M   'P 1'
_cell_length_a   3.56416500
_cell_length_b   8.89648355
_cell_length_c   11.29868468
_cell_angle_alpha   89.89248519
_cell_angle_beta   90.00000000
_cell_angle_gamma   90.00000000
_symmetry_Int_Tables_number   1
_chemical_formula_structural   LiGd2Mg(B6Os)2
_chemical_formula_sum   'Li2 Gd4 Mg2 B24 Os4'
_cell_volume   358.26411125
_cell_formula_units_Z   2
loop_
 _symmetry_equiv_pos_site_id
 _symmetry_equiv_pos_as_xyz
  1  'x, y, z'
loop_
 _atom_site_type_symbol
 _atom_site_label
 _atom_site_symmetry_multiplicity
 _atom_site_fract_x
 _atom_site_fract_y
 _atom_site_fract_z
 _atom_site_occupancy
  Li  Li0  1  0.000000  0.944373  0.374245  1
  Li  Li1  1  0.000000  0.055627  0.625756  1
  Gd  Gd2  1  0.000000  0.317366  0.415860  1
  Gd  Gd3  1  0.000000  0.682634  0.584140  1
  Gd  Gd4  1  0.000000  0.822618  0.087364  1
  Gd  Gd5  1  0.000000  0.177382  0.912636  1
  Mg  Mg6  1  0.000000  0.442747  0.129105  1
  Mg  Mg7  1  0.000000  0.557253  0.870894  1
  B  B8  1  0.500000  0.554877  0.431801  1
  B  B9  1  0.500000  0.445123  0.568199  1
  B  B10  1  0.500000  0.055323  0.068060  1
  B  B11  1  0.500000  0.944677  0.931940  1
  B  B12  1  0.500000  0.758726  0.415988  1
  B  B13  1  0.500000  0.241274  0.584012  1
  B  B14  1  0.500000  0.255276  0.082877  1
  B  B15  1  0.500000  0.744724  0.917123  1
  B  B16  1  0.500000  0.793975  0.263826  1
  B  B17  1  0.500000  0.206025  0.736174  1
  B  B18  1  0.500000  0.292203  0.236842  1
  B  B19  1  0.500000  0.707796  0.763158  1
  B  B20  1  0.500000  0.627234  0.182790  1
  B  B21  1  0.500000  0.372766  0.817210  1
  B  B22  1  0.500000  0.124378  0.318883  1
  B  B23  1  0.500000  0.875622  0.681117  1
  B  B24  1  0.500000  0.979616  0.214547  1
  B  B25  1  0.500000  0.020384  0.785453  1
  B  B26  1  0.500000  0.478956  0.287335  1
  B  B27  1  0.500000  0.521044  0.712665  1
  B  B28  1  0.500000  0.592192  0.025220  1
  B  B29  1  0.500000  0.407808  0.974780  1
  B  B30  1  0.500000  0.091596  0.475380  1
  B  B31  1  0.500000  0.908404  0.524620  1
  Os  Os32  1  0.000000  0.639447  0.318117  1
  Os  Os33  1  0.000000  0.360553  0.681883  1
  Os  Os34  1  0.000000  0.138633  0.182791  1
  Os  Os35  1  0.000000  0.861367  0.817209  1
