# generated using pymatgen
data_Lu2Sc2MnB12Ir
_symmetry_space_group_name_H-M   'P 1'
_cell_length_a   3.48031900
_cell_length_b   8.90715801
_cell_length_c   11.26353102
_cell_angle_alpha   89.99975739
_cell_angle_beta   90.00000000
_cell_angle_gamma   90.00000000
_symmetry_Int_Tables_number   1
_chemical_formula_structural   Lu2Sc2MnB12Ir
_chemical_formula_sum   'Lu4 Sc4 Mn2 B24 Ir2'
_cell_volume   349.16666001
_cell_formula_units_Z   2
loop_
 _symmetry_equiv_pos_site_id
 _symmetry_equiv_pos_as_xyz
  1  'x, y, z'
loop_
 _atom_site_type_symbol
 _atom_site_label
 _atom_site_symmetry_multiplicity
 _atom_site_fract_x
 _atom_site_fract_y
 _atom_site_fract_z
 _atom_site_occupancy
  Lu  Lu0  1  0.500000  0.314463  0.410046  1
  Lu  Lu1  1  0.500000  0.685537  0.589954  1
  Lu  Lu2  1  0.500000  0.174153  0.917802  1
  Lu  Lu3  1  0.500000  0.825847  0.082198  1
  Sc  Sc4  1  0.500000  0.439433  0.125043  1
  Sc  Sc5  1  0.500000  0.560567  0.874957  1
  Sc  Sc6  1  0.500000  0.050297  0.628704  1
  Sc  Sc7  1  0.500000  0.949703  0.371296  1
  Mn  Mn8  1  0.500000  0.140362  0.182098  1
  Mn  Mn9  1  0.500000  0.859638  0.817902  1
  B  B10  1  0.000000  0.101104  0.472604  1
  B  B11  1  0.000000  0.898896  0.527396  1
  B  B12  1  0.000000  0.398347  0.972696  1
  B  B13  1  0.000000  0.601653  0.027304  1
  B  B14  1  0.000000  0.129725  0.315421  1
  B  B15  1  0.000000  0.870275  0.684579  1
  B  B16  1  0.000000  0.370077  0.819403  1
  B  B17  1  0.000000  0.629923  0.180597  1
  B  B18  1  0.000000  0.054392  0.067641  1
  B  B19  1  0.000000  0.945608  0.932359  1
  B  B20  1  0.000000  0.445961  0.565495  1
  B  B21  1  0.000000  0.554039  0.434505  1
  B  B22  1  0.000000  0.479381  0.285238  1
  B  B23  1  0.000000  0.520619  0.714762  1
  B  B24  1  0.000000  0.016306  0.787281  1
  B  B25  1  0.000000  0.983694  0.212719  1
  B  B26  1  0.000000  0.249549  0.081649  1
  B  B27  1  0.000000  0.750451  0.918351  1
  B  B28  1  0.000000  0.245587  0.579268  1
  B  B29  1  0.000000  0.754413  0.420732  1
  B  B30  1  0.000000  0.291957  0.233925  1
  B  B31  1  0.000000  0.708043  0.766075  1
  B  B32  1  0.000000  0.204881  0.736394  1
  B  B33  1  0.000000  0.795119  0.263606  1
  Ir  Ir34  1  0.500000  0.360931  0.680107  1
  Ir  Ir35  1  0.500000  0.639069  0.319893  1
