# generated using pymatgen
data_Nd2Y3Si4
_symmetry_space_group_name_H-M   'P 1'
_cell_length_a   7.77731900
_cell_length_b   7.77731900
_cell_length_c   14.53046800
_cell_angle_alpha   90.00000000
_cell_angle_beta   90.00000000
_cell_angle_gamma   90.00000000
_symmetry_Int_Tables_number   1
_chemical_formula_structural   Nd2Y3Si4
_chemical_formula_sum   'Nd8 Y12 Si16'
_cell_volume   878.89992550
_cell_formula_units_Z   4
loop_
 _symmetry_equiv_pos_site_id
 _symmetry_equiv_pos_as_xyz
  1  'x, y, z'
loop_
 _atom_site_type_symbol
 _atom_site_label
 _atom_site_symmetry_multiplicity
 _atom_site_fract_x
 _atom_site_fract_y
 _atom_site_fract_z
 _atom_site_occupancy
  Nd  Nd0  1  0.633597  0.989621  0.454222  1
  Nd  Nd1  1  0.366403  0.010379  0.954222  1
  Nd  Nd2  1  0.989621  0.633597  0.545778  1
  Nd  Nd3  1  0.489621  0.866403  0.204222  1
  Nd  Nd4  1  0.510379  0.133597  0.704222  1
  Nd  Nd5  1  0.866403  0.489621  0.795778  1
  Nd  Nd6  1  0.133597  0.510379  0.295778  1
  Nd  Nd7  1  0.010379  0.366403  0.045778  1
  Y  Y8  1  0.487176  0.365657  0.125068  1
  Y  Y9  1  0.987176  0.134343  0.624932  1
  Y  Y10  1  0.865657  0.012824  0.875068  1
  Y  Y11  1  0.134343  0.987176  0.375068  1
  Y  Y12  1  0.512824  0.634343  0.625068  1
  Y  Y13  1  0.365657  0.487176  0.874932  1
  Y  Y14  1  0.634343  0.512824  0.374932  1
  Y  Y15  1  0.012824  0.865657  0.124932  1
  Y  Y16  1  0.313734  0.313734  0.500000  1
  Y  Y17  1  0.186266  0.813734  0.750000  1
  Y  Y18  1  0.813734  0.186266  0.250000  1
  Y  Y19  1  0.686266  0.686266  0.000000  1
  Si  Si20  1  0.287362  0.930215  0.561393  1
  Si  Si21  1  0.712638  0.069785  0.061393  1
  Si  Si22  1  0.930215  0.287362  0.438607  1
  Si  Si23  1  0.430215  0.212638  0.311393  1
  Si  Si24  1  0.569785  0.787362  0.811393  1
  Si  Si25  1  0.212638  0.430215  0.688607  1
  Si  Si26  1  0.787362  0.569785  0.188607  1
  Si  Si27  1  0.069785  0.712638  0.938607  1
  Si  Si28  1  0.801799  0.839026  0.694366  1
  Si  Si29  1  0.198201  0.160974  0.194366  1
  Si  Si30  1  0.839026  0.801799  0.305634  1
  Si  Si31  1  0.339026  0.698201  0.444366  1
  Si  Si32  1  0.660974  0.301799  0.944366  1
  Si  Si33  1  0.698201  0.339026  0.555634  1
  Si  Si34  1  0.301799  0.660974  0.055634  1
  Si  Si35  1  0.160974  0.198201  0.805634  1
