# generated using pymatgen
data_Np5Sc2PaSb10
_symmetry_space_group_name_H-M   'P 1'
_cell_length_a   9.26672000
_cell_length_b   9.26361120
_cell_length_c   6.23901900
_cell_angle_alpha   90.00000000
_cell_angle_beta   90.00000000
_cell_angle_gamma   120.01110192
_symmetry_Int_Tables_number   1
_chemical_formula_structural   Np5Sc2PaSb10
_chemical_formula_sum   'Np5 Sc2 Pa1 Sb10'
_cell_volume   463.77219179
_cell_formula_units_Z   1
loop_
 _symmetry_equiv_pos_site_id
 _symmetry_equiv_pos_as_xyz
  1  'x, y, z'
loop_
 _atom_site_type_symbol
 _atom_site_label
 _atom_site_symmetry_multiplicity
 _atom_site_fract_x
 _atom_site_fract_y
 _atom_site_fract_z
 _atom_site_occupancy
  Np  Np0  1  0.385884  0.000000  0.750000  1
  Np  Np1  1  0.384105  0.385151  0.250000  1
  Np  Np2  1  0.998954  0.614849  0.250000  1
  Np  Np3  1  0.001547  0.386372  0.750000  1
  Np  Np4  1  0.615175  0.613628  0.750000  1
  Sc  Sc5  1  0.000997  0.000000  0.999562  1
  Sc  Sc6  1  0.000997  0.000000  0.500438  1
  Pa  Pa7  1  0.612501  0.000000  0.250000  1
  Sb  Sb8  1  0.666454  0.332955  0.499317  1
  Sb  Sb9  1  0.333498  0.667045  0.000683  1
  Sb  Sb10  1  0.731685  0.000000  0.750000  1
  Sb  Sb11  1  0.732393  0.734138  0.250000  1
  Sb  Sb12  1  0.333498  0.667045  0.499317  1
  Sb  Sb13  1  0.666454  0.332955  0.000683  1
  Sb  Sb14  1  0.268978  0.000000  0.250000  1
  Sb  Sb15  1  0.267868  0.267113  0.750000  1
  Sb  Sb16  1  0.000755  0.732887  0.750000  1
  Sb  Sb17  1  0.998255  0.265862  0.250000  1
