# generated using pymatgen
data_Sc8Mn9Si16Os3
_symmetry_space_group_name_H-M   'P 1'
_cell_length_a   6.46081405
_cell_length_b   6.46081405
_cell_length_c   12.08749205
_cell_angle_alpha   89.95276387
_cell_angle_beta   89.95276387
_cell_angle_gamma   89.83740068
_symmetry_Int_Tables_number   1
_chemical_formula_structural   Sc8Mn9Si16Os3
_chemical_formula_sum   'Sc8 Mn9 Si16 Os3'
_cell_volume   504.55514830
_cell_formula_units_Z   1
loop_
 _symmetry_equiv_pos_site_id
 _symmetry_equiv_pos_as_xyz
  1  'x, y, z'
loop_
 _atom_site_type_symbol
 _atom_site_label
 _atom_site_symmetry_multiplicity
 _atom_site_fract_x
 _atom_site_fract_y
 _atom_site_fract_z
 _atom_site_occupancy
  Sc  Sc0  1  0.004257  0.661257  0.027400  1
  Sc  Sc1  1  0.994501  0.338128  0.530130  1
  Sc  Sc2  1  0.338743  0.995743  0.472600  1
  Sc  Sc3  1  0.160357  0.494702  0.779541  1
  Sc  Sc4  1  0.838083  0.504226  0.278890  1
  Sc  Sc5  1  0.495774  0.161917  0.221110  1
  Sc  Sc6  1  0.505298  0.839643  0.720459  1
  Sc  Sc7  1  0.661872  0.005499  0.969870  1
  Mn  Mn8  1  0.020116  0.812337  0.632519  1
  Mn  Mn9  1  0.978736  0.190685  0.133059  1
  Mn  Mn10  1  0.809315  0.021264  0.366941  1
  Mn  Mn11  1  0.307288  0.475963  0.383769  1
  Mn  Mn12  1  0.694035  0.521677  0.884259  1
  Mn  Mn13  1  0.478323  0.305965  0.615741  1
  Mn  Mn14  1  0.524037  0.692712  0.116231  1
  Mn  Mn15  1  0.187663  0.979884  0.867481  1
  Mn  Mn16  1  0.835113  0.164887  0.750000  1
  Si  Si17  1  0.023772  0.728189  0.439549  1
  Si  Si18  1  0.610659  0.301668  0.432275  1
  Si  Si19  1  0.389414  0.698320  0.931571  1
  Si  Si20  1  0.192523  0.114003  0.684514  1
  Si  Si21  1  0.301680  0.610586  0.568429  1
  Si  Si22  1  0.698332  0.389341  0.067725  1
  Si  Si23  1  0.801979  0.889199  0.181874  1
  Si  Si24  1  0.110801  0.198021  0.318126  1
  Si  Si25  1  0.974192  0.269909  0.936444  1
  Si  Si26  1  0.730091  0.025808  0.563556  1
  Si  Si27  1  0.230249  0.476817  0.189218  1
  Si  Si28  1  0.769171  0.513198  0.691815  1
  Si  Si29  1  0.486802  0.230829  0.808185  1
  Si  Si30  1  0.523183  0.769751  0.310782  1
  Si  Si31  1  0.271811  0.976228  0.060451  1
  Si  Si32  1  0.885997  0.807477  0.815486  1
  Os  Os33  1  0.665428  0.665905  0.500124  1
  Os  Os34  1  0.166312  0.833688  0.250000  1
  Os  Os35  1  0.334095  0.334572  0.999876  1
