# generated using pymatgen
data_DyY3Cu3Sb8
_symmetry_space_group_name_H-M   'P 1'
_cell_length_a   10.60598306
_cell_length_b   10.60598358
_cell_length_c   10.60585880
_cell_angle_alpha   146.56087011
_cell_angle_beta   146.56087164
_cell_angle_gamma   48.01469846
_symmetry_Int_Tables_number   1
_chemical_formula_structural   DyY3Cu3Sb8
_chemical_formula_sum   'Dy1 Y3 Cu3 Sb8'
_cell_volume   360.79063366
_cell_formula_units_Z   1
loop_
 _symmetry_equiv_pos_site_id
 _symmetry_equiv_pos_as_xyz
  1  'x, y, z'
loop_
 _atom_site_type_symbol
 _atom_site_label
 _atom_site_symmetry_multiplicity
 _atom_site_fract_x
 _atom_site_fract_y
 _atom_site_fract_z
 _atom_site_occupancy
  Dy  Dy0  1  0.126181  0.126181  0.492904  1
  Y  Y1  1  0.633227  0.633227  0.507030  1
  Y  Y2  1  0.366781  0.873822  0.000004  1
  Y  Y3  1  0.873822  0.366781  0.000004  1
  Cu  Cu4  1  0.000018  0.000018  0.000072  1
  Cu  Cu5  1  0.000023  0.499949  0.499998  1
  Cu  Cu6  1  0.499949  0.000023  0.499998  1
  Sb  Sb7  1  0.333831  0.333831  0.515530  1
  Sb  Sb8  1  0.818308  0.818308  0.484473  1
  Sb  Sb9  1  0.666111  0.181663  0.999985  1
  Sb  Sb10  1  0.181663  0.666111  0.999985  1
  Sb  Sb11  1  0.249844  0.249844  0.999929  1
  Sb  Sb12  1  0.750195  0.750195  0.000091  1
  Sb  Sb13  1  0.750062  0.249985  0.499999  1
  Sb  Sb14  1  0.249985  0.750062  0.499999  1
