# generated using pymatgen
data_Y18Er2Cd6NiPd
_symmetry_space_group_name_H-M   'P 1'
_cell_length_a   9.69608200
_cell_length_b   9.69608221
_cell_length_c   9.76260200
_cell_angle_alpha   90.00000000
_cell_angle_beta   90.00000000
_cell_angle_gamma   120.00000609
_symmetry_Int_Tables_number   1
_chemical_formula_structural   Y18Er2Cd6NiPd
_chemical_formula_sum   'Y18 Er2 Cd6 Ni1 Pd1'
_cell_volume   794.85655197
_cell_formula_units_Z   1
loop_
 _symmetry_equiv_pos_site_id
 _symmetry_equiv_pos_as_xyz
  1  'x, y, z'
loop_
 _atom_site_type_symbol
 _atom_site_label
 _atom_site_symmetry_multiplicity
 _atom_site_fract_x
 _atom_site_fract_y
 _atom_site_fract_z
 _atom_site_occupancy
  Y  Y0  1  0.209810  0.790190  0.936775  1
  Y  Y1  1  0.209810  0.419620  0.936775  1
  Y  Y2  1  0.580380  0.790190  0.936775  1
  Y  Y3  1  0.793297  0.206703  0.058826  1
  Y  Y4  1  0.793297  0.586596  0.058826  1
  Y  Y5  1  0.413404  0.206703  0.058826  1
  Y  Y6  1  0.793297  0.206703  0.441174  1
  Y  Y7  1  0.793297  0.586596  0.441174  1
  Y  Y8  1  0.413404  0.206703  0.441174  1
  Y  Y9  1  0.209810  0.790190  0.563225  1
  Y  Y10  1  0.209810  0.419620  0.563225  1
  Y  Y11  1  0.580380  0.790190  0.563225  1
  Y  Y12  1  0.542737  0.457263  0.750000  1
  Y  Y13  1  0.542737  0.085474  0.750000  1
  Y  Y14  1  0.914526  0.457263  0.750000  1
  Y  Y15  1  0.456853  0.543147  0.250000  1
  Y  Y16  1  0.456853  0.913707  0.250000  1
  Y  Y17  1  0.086293  0.543147  0.250000  1
  Er  Er18  1  0.000000  0.000000  0.000200  1
  Er  Er19  1  0.000000  0.000000  0.499800  1
  Cd  Cd20  1  0.884863  0.115137  0.750000  1
  Cd  Cd21  1  0.884863  0.769726  0.750000  1
  Cd  Cd22  1  0.230274  0.115137  0.750000  1
  Cd  Cd23  1  0.115152  0.884848  0.250000  1
  Cd  Cd24  1  0.115152  0.230304  0.250000  1
  Cd  Cd25  1  0.769696  0.884848  0.250000  1
  Ni  Ni26  1  0.333333  0.666667  0.750000  1
  Pd  Pd27  1  0.666667  0.333333  0.250000  1
