# generated using pymatgen
data_Pr4SmGa2Sn
_symmetry_space_group_name_H-M   'P 1'
_cell_length_a   8.08282800
_cell_length_b   8.08282800
_cell_length_c   14.70820400
_cell_angle_alpha   90.00000000
_cell_angle_beta   90.00000000
_cell_angle_gamma   90.00000000
_symmetry_Int_Tables_number   1
_chemical_formula_structural   Pr4SmGa2Sn
_chemical_formula_sum   'Pr16 Sm4 Ga8 Sn4'
_cell_volume   960.91797924
_cell_formula_units_Z   4
loop_
 _symmetry_equiv_pos_site_id
 _symmetry_equiv_pos_as_xyz
  1  'x, y, z'
loop_
 _atom_site_type_symbol
 _atom_site_label
 _atom_site_symmetry_multiplicity
 _atom_site_fract_x
 _atom_site_fract_y
 _atom_site_fract_z
 _atom_site_occupancy
  Pr  Pr0  1  0.822265  0.839384  0.607086  1
  Pr  Pr1  1  0.177735  0.839384  0.107086  1
  Pr  Pr2  1  0.160616  0.822265  0.392914  1
  Pr  Pr3  1  0.839384  0.177735  0.392914  1
  Pr  Pr4  1  0.677735  0.660616  0.392914  1
  Pr  Pr5  1  0.660616  0.322265  0.607086  1
  Pr  Pr6  1  0.339384  0.677735  0.607086  1
  Pr  Pr7  1  0.660616  0.677735  0.107086  1
  Pr  Pr8  1  0.677735  0.339384  0.892914  1
  Pr  Pr9  1  0.839384  0.822265  0.892914  1
  Pr  Pr10  1  0.322265  0.339384  0.392914  1
  Pr  Pr11  1  0.177735  0.160616  0.607086  1
  Pr  Pr12  1  0.822265  0.160616  0.107086  1
  Pr  Pr13  1  0.322265  0.660616  0.892914  1
  Pr  Pr14  1  0.339384  0.322265  0.107086  1
  Pr  Pr15  1  0.160616  0.177735  0.892914  1
  Sm  Sm16  1  0.000000  0.500000  0.726456  1
  Sm  Sm17  1  0.000000  0.500000  0.226456  1
  Sm  Sm18  1  0.500000  0.000000  0.273544  1
  Sm  Sm19  1  0.500000  0.000000  0.773544  1
  Ga  Ga20  1  0.623814  0.376186  0.250000  1
  Ga  Ga21  1  0.123814  0.876186  0.750000  1
  Ga  Ga22  1  0.376186  0.376186  0.750000  1
  Ga  Ga23  1  0.376186  0.623814  0.250000  1
  Ga  Ga24  1  0.876186  0.876186  0.250000  1
  Ga  Ga25  1  0.623814  0.623814  0.750000  1
  Ga  Ga26  1  0.876186  0.123814  0.750000  1
  Ga  Ga27  1  0.123814  0.123814  0.250000  1
  Sn  Sn28  1  0.000000  0.500000  0.505053  1
  Sn  Sn29  1  0.500000  0.000000  0.494947  1
  Sn  Sn30  1  0.500000  0.000000  0.994947  1
  Sn  Sn31  1  0.000000  0.500000  0.005053  1
