# generated using pymatgen
data_Yb5Th3(PbAu2)4
_symmetry_space_group_name_H-M   'P 1'
_cell_length_a   8.22089732
_cell_length_b   8.22089732
_cell_length_c   7.52560600
_cell_angle_alpha   90.00000000
_cell_angle_beta   90.00000000
_cell_angle_gamma   89.89699035
_symmetry_Int_Tables_number   1
_chemical_formula_structural   Yb5Th3(PbAu2)4
_chemical_formula_sum   'Yb5 Th3 Pb4 Au8'
_cell_volume   508.60335802
_cell_formula_units_Z   1
loop_
 _symmetry_equiv_pos_site_id
 _symmetry_equiv_pos_as_xyz
  1  'x, y, z'
loop_
 _atom_site_type_symbol
 _atom_site_label
 _atom_site_symmetry_multiplicity
 _atom_site_fract_x
 _atom_site_fract_y
 _atom_site_fract_z
 _atom_site_occupancy
  Yb  Yb0  1  0.322567  0.677433  0.000000  1
  Yb  Yb1  1  0.163678  0.162765  0.000000  1
  Yb  Yb2  1  0.661061  0.338939  0.500000  1
  Yb  Yb3  1  0.335981  0.664019  0.500000  1
  Yb  Yb4  1  0.837235  0.836322  0.000000  1
  Th  Th5  1  0.679064  0.320936  0.000000  1
  Th  Th6  1  0.823146  0.820239  0.500000  1
  Th  Th7  1  0.179761  0.176854  0.500000  1
  Pb  Pb8  1  0.498955  0.996389  0.247054  1
  Pb  Pb9  1  0.498955  0.996389  0.752946  1
  Pb  Pb10  1  0.003611  0.501045  0.247054  1
  Pb  Pb11  1  0.003611  0.501045  0.752946  1
  Au  Au12  1  0.372893  0.377098  0.233217  1
  Au  Au13  1  0.873571  0.126429  0.730231  1
  Au  Au14  1  0.126820  0.873180  0.736168  1
  Au  Au15  1  0.622902  0.627107  0.233217  1
  Au  Au16  1  0.126820  0.873180  0.263832  1
  Au  Au17  1  0.873571  0.126429  0.269769  1
  Au  Au18  1  0.372893  0.377098  0.766783  1
  Au  Au19  1  0.622902  0.627107  0.766783  1
