# generated using pymatgen
data_Ta12Co12CN
_symmetry_space_group_name_H-M   'P 1'
_cell_length_a   7.86808286
_cell_length_b   7.86807803
_cell_length_c   7.86807700
_cell_angle_alpha   59.99993332
_cell_angle_beta   59.99990333
_cell_angle_gamma   59.99984620
_symmetry_Int_Tables_number   1
_chemical_formula_structural   Ta12Co12CN
_chemical_formula_sum   'Ta12 Co12 C1 N1'
_cell_volume   344.42141429
_cell_formula_units_Z   1
loop_
 _symmetry_equiv_pos_site_id
 _symmetry_equiv_pos_as_xyz
  1  'x, y, z'
loop_
 _atom_site_type_symbol
 _atom_site_label
 _atom_site_symmetry_multiplicity
 _atom_site_fract_x
 _atom_site_fract_y
 _atom_site_fract_z
 _atom_site_occupancy
  Ta  Ta0  1  0.051607  0.051617  0.448389  1
  Ta  Ta1  1  0.448389  0.051613  0.448388  1
  Ta  Ta2  1  0.051610  0.448387  0.448387  1
  Ta  Ta3  1  0.448389  0.448388  0.051613  1
  Ta  Ta4  1  0.051608  0.448388  0.051616  1
  Ta  Ta5  1  0.448390  0.051611  0.051610  1
  Ta  Ta6  1  0.198425  0.198423  0.801575  1
  Ta  Ta7  1  0.801575  0.198425  0.801574  1
  Ta  Ta8  1  0.198423  0.801578  0.801579  1
  Ta  Ta9  1  0.801577  0.801574  0.198424  1
  Ta  Ta10  1  0.198424  0.801576  0.198421  1
  Ta  Ta11  1  0.801573  0.198427  0.198426  1
  Co  Co12  1  0.419850  0.419846  0.740459  1
  Co  Co13  1  0.419851  0.740456  0.419847  1
  Co  Co14  1  0.740463  0.419847  0.419846  1
  Co  Co15  1  0.419850  0.419845  0.419845  1
  Co  Co16  1  0.830156  0.830159  0.509523  1
  Co  Co17  1  0.830156  0.509524  0.830159  1
  Co  Co18  1  0.509523  0.830157  0.830158  1
  Co  Co19  1  0.830157  0.830159  0.830160  1
  Co  Co20  1  0.624982  0.624980  0.125058  1
  Co  Co21  1  0.624981  0.125059  0.624980  1
  Co  Co22  1  0.125056  0.624981  0.624981  1
  Co  Co23  1  0.624982  0.624980  0.624981  1
  C  C24  1  0.000001  0.999999  0.000000  1
  N  N25  1  0.249998  0.250001  0.250000  1
