# generated using pymatgen
data_ZnNi20(SnB3)2
_symmetry_space_group_name_H-M   'P 1'
_cell_length_a   7.49140112
_cell_length_b   7.49140045
_cell_length_c   7.49140100
_cell_angle_alpha   60.00000198
_cell_angle_beta   60.00000493
_cell_angle_gamma   60.00000288
_symmetry_Int_Tables_number   1
_chemical_formula_structural   ZnNi20(SnB3)2
_chemical_formula_sum   'Zn1 Ni20 Sn2 B6'
_cell_volume   297.28578461
_cell_formula_units_Z   1
loop_
 _symmetry_equiv_pos_site_id
 _symmetry_equiv_pos_as_xyz
  1  'x, y, z'
loop_
 _atom_site_type_symbol
 _atom_site_label
 _atom_site_symmetry_multiplicity
 _atom_site_fract_x
 _atom_site_fract_y
 _atom_site_fract_z
 _atom_site_occupancy
  Zn  Zn0  1  0.000000  0.000000  0.000000  1
  Ni  Ni1  1  0.000000  0.000000  0.663258  1
  Ni  Ni2  1  0.385436  0.843693  0.385436  1
  Ni  Ni3  1  0.663258  0.336742  0.000000  1
  Ni  Ni4  1  0.000000  0.336742  0.663258  1
  Ni  Ni5  1  0.663258  0.000000  0.000000  1
  Ni  Ni6  1  0.000000  0.000000  0.336742  1
  Ni  Ni7  1  0.663258  0.000000  0.336742  1
  Ni  Ni8  1  0.000000  0.336742  0.000000  1
  Ni  Ni9  1  0.000000  0.663258  0.336742  1
  Ni  Ni10  1  0.336742  0.000000  0.000000  1
  Ni  Ni11  1  0.000000  0.663258  0.000000  1
  Ni  Ni12  1  0.336742  0.000000  0.663258  1
  Ni  Ni13  1  0.385436  0.385436  0.385436  1
  Ni  Ni14  1  0.336742  0.663258  0.000000  1
  Ni  Ni15  1  0.614564  0.156307  0.614564  1
  Ni  Ni16  1  0.385436  0.385436  0.843693  1
  Ni  Ni17  1  0.843693  0.385436  0.385436  1
  Ni  Ni18  1  0.614564  0.614564  0.614564  1
  Ni  Ni19  1  0.156307  0.614564  0.614564  1
  Ni  Ni20  1  0.614564  0.614564  0.156307  1
  Sn  Sn21  1  0.250000  0.250000  0.250000  1
  Sn  Sn22  1  0.750000  0.750000  0.750000  1
  B  B23  1  0.726401  0.726401  0.273599  1
  B  B24  1  0.726401  0.273599  0.726401  1
  B  B25  1  0.273599  0.726401  0.273599  1
  B  B26  1  0.726401  0.273599  0.273599  1
  B  B27  1  0.273599  0.726401  0.726401  1
  B  B28  1  0.273599  0.273599  0.726401  1
