# generated using pymatgen
data_Tm8Lu4InCo4Ag
_symmetry_space_group_name_H-M   'P 1'
_cell_length_a   8.18517376
_cell_length_b   8.18517415
_cell_length_c   8.18517415
_cell_angle_alpha   111.26540516
_cell_angle_beta   110.79462650
_cell_angle_gamma   106.39705391
_symmetry_Int_Tables_number   1
_chemical_formula_structural   Tm8Lu4InCo4Ag
_chemical_formula_sum   'Tm8 Lu4 In1 Co4 Ag1'
_cell_volume   421.23243603
_cell_formula_units_Z   1
loop_
 _symmetry_equiv_pos_site_id
 _symmetry_equiv_pos_as_xyz
  1  'x, y, z'
loop_
 _atom_site_type_symbol
 _atom_site_label
 _atom_site_symmetry_multiplicity
 _atom_site_fract_x
 _atom_site_fract_y
 _atom_site_fract_z
 _atom_site_occupancy
  Tm  Tm0  1  0.431232  0.224846  0.206386  1
  Tm  Tm1  1  0.568768  0.775154  0.793614  1
  Tm  Tm2  1  0.018459  0.224846  0.793614  1
  Tm  Tm3  1  0.981541  0.775154  0.206386  1
  Tm  Tm4  1  0.188668  0.290127  0.478794  1
  Tm  Tm5  1  0.811332  0.709873  0.521206  1
  Tm  Tm6  1  0.188668  0.709873  0.898542  1
  Tm  Tm7  1  0.811332  0.290127  0.101458  1
  Lu  Lu8  1  0.314740  0.617534  0.302793  1
  Lu  Lu9  1  0.685260  0.382466  0.697207  1
  Lu  Lu10  1  0.314740  0.011947  0.697207  1
  Lu  Lu11  1  0.685260  0.988053  0.302793  1
  In  In12  1  0.500000  0.500000  0.000000  1
  Co  Co13  1  0.376955  0.000000  0.376955  1
  Co  Co14  1  0.623045  0.000000  0.623045  1
  Co  Co15  1  0.113749  0.613749  0.500000  1
  Co  Co16  1  0.886251  0.386251  0.500000  1
  Ag  Ag17  1  0.000000  0.000000  0.000000  1
