# generated using pymatgen
data_Tb8ErTmSi6
_symmetry_space_group_name_H-M   'P 1'
_cell_length_a   8.47766500
_cell_length_b   8.47766330
_cell_length_c   6.38149100
_cell_angle_alpha   90.00000000
_cell_angle_beta   90.00000000
_cell_angle_gamma   120.00001055
_symmetry_Int_Tables_number   1
_chemical_formula_structural   Tb8ErTmSi6
_chemical_formula_sum   'Tb8 Er1 Tm1 Si6'
_cell_volume   397.19627024
_cell_formula_units_Z   1
loop_
 _symmetry_equiv_pos_site_id
 _symmetry_equiv_pos_as_xyz
  1  'x, y, z'
loop_
 _atom_site_type_symbol
 _atom_site_label
 _atom_site_symmetry_multiplicity
 _atom_site_fract_x
 _atom_site_fract_y
 _atom_site_fract_z
 _atom_site_occupancy
  Tb  Tb0  1  0.666667  0.333333  0.500000  1
  Tb  Tb1  1  0.333333  0.666667  0.500000  1
  Tb  Tb2  1  0.755399  0.755326  0.248114  1
  Tb  Tb3  1  0.244674  0.000073  0.248114  1
  Tb  Tb4  1  0.999927  0.244601  0.248114  1
  Tb  Tb5  1  0.244674  0.244601  0.751886  1
  Tb  Tb6  1  0.755399  0.000073  0.751886  1
  Tb  Tb7  1  0.999927  0.755326  0.751886  1
  Er  Er8  1  0.333333  0.666667  0.000000  1
  Tm  Tm9  1  0.666667  0.333333  0.000000  1
  Si  Si10  1  0.394422  0.394207  0.244626  1
  Si  Si11  1  0.605793  0.000216  0.244626  1
  Si  Si12  1  0.999784  0.605578  0.244626  1
  Si  Si13  1  0.605793  0.605578  0.755374  1
  Si  Si14  1  0.394422  0.000216  0.755374  1
  Si  Si15  1  0.999784  0.394207  0.755374  1
