# generated using pymatgen
data_Dy2Ho2InPt
_symmetry_space_group_name_H-M   'P 1'
_cell_length_a   9.70520726
_cell_length_b   9.70945534
_cell_length_c   9.70912000
_cell_angle_alpha   59.99885733
_cell_angle_beta   59.98375866
_cell_angle_gamma   59.98552014
_symmetry_Int_Tables_number   1
_chemical_formula_structural   Dy2Ho2InPt
_chemical_formula_sum   'Dy8 Ho8 In4 Pt4'
_cell_volume   646.78499111
_cell_formula_units_Z   4
loop_
 _symmetry_equiv_pos_site_id
 _symmetry_equiv_pos_as_xyz
  1  'x, y, z'
loop_
 _atom_site_type_symbol
 _atom_site_label
 _atom_site_symmetry_multiplicity
 _atom_site_fract_x
 _atom_site_fract_y
 _atom_site_fract_z
 _atom_site_occupancy
  Dy  Dy0  1  0.187813  0.188214  0.812021  1
  Dy  Dy1  1  0.600676  0.600367  0.198590  1
  Dy  Dy2  1  0.439947  0.060206  0.439640  1
  Dy  Dy3  1  0.439747  0.439734  0.060206  1
  Dy  Dy4  1  0.812198  0.187925  0.811952  1
  Dy  Dy5  1  0.187535  0.812110  0.188244  1
  Dy  Dy6  1  0.439747  0.060313  0.060206  1
  Dy  Dy7  1  0.187813  0.811952  0.812021  1
  Ho  Ho8  1  0.060143  0.439780  0.060297  1
  Ho  Ho9  1  0.812133  0.811848  0.188147  1
  Ho  Ho10  1  0.198780  0.600400  0.600420  1
  Ho  Ho11  1  0.060083  0.439921  0.439656  1
  Ho  Ho12  1  0.060083  0.060340  0.439656  1
  Ho  Ho13  1  0.812133  0.187871  0.188147  1
  Ho  Ho14  1  0.600525  0.198953  0.600257  1
  Ho  Ho15  1  0.600525  0.600265  0.600257  1
  In  In16  1  0.833053  0.832991  0.832974  1
  In  In17  1  0.833035  0.833026  0.500914  1
  In  In18  1  0.501095  0.832986  0.832934  1
  In  In19  1  0.833053  0.500983  0.832974  1
  Pt  Pt20  1  0.392595  0.821307  0.393279  1
  Pt  Pt21  1  0.392595  0.392819  0.393279  1
  Pt  Pt22  1  0.821984  0.392585  0.392846  1
  Pt  Pt23  1  0.392709  0.393104  0.821084  1
