# generated using pymatgen
data_Sc2Fe3P7Ru7Rh2
_symmetry_space_group_name_H-M   'P 1'
_cell_length_a   9.21010204
_cell_length_b   9.29454809
_cell_length_c   3.80426200
_cell_angle_alpha   90.00000000
_cell_angle_beta   90.00000000
_cell_angle_gamma   120.13570342
_symmetry_Int_Tables_number   1
_chemical_formula_structural   Sc2Fe3P7Ru7Rh2
_chemical_formula_sum   'Sc2 Fe3 P7 Ru7 Rh2'
_cell_volume   281.64255498
_cell_formula_units_Z   1
loop_
 _symmetry_equiv_pos_site_id
 _symmetry_equiv_pos_as_xyz
  1  'x, y, z'
loop_
 _atom_site_type_symbol
 _atom_site_label
 _atom_site_symmetry_multiplicity
 _atom_site_fract_x
 _atom_site_fract_y
 _atom_site_fract_z
 _atom_site_occupancy
  Sc  Sc0  1  0.668635  0.332834  0.500000  1
  Sc  Sc1  1  0.328566  0.665395  0.000000  1
  Fe  Fe2  1  0.727353  0.888533  0.000000  1
  Fe  Fe3  1  0.111505  0.842030  0.000000  1
  Fe  Fe4  1  0.162053  0.271724  0.000000  1
  P  P5  1  0.601828  0.718460  0.500000  1
  P  P6  1  0.000916  0.001764  0.000000  1
  P  P7  1  0.277202  0.880103  0.500000  1
  P  P8  1  0.116415  0.401184  0.500000  1
  P  P9  1  0.887988  0.584379  0.000000  1
  P  P10  1  0.417025  0.299754  0.000000  1
  P  P11  1  0.700861  0.114031  0.000000  1
  Ru  Ru12  1  0.912345  0.120329  0.500000  1
  Ru  Ru13  1  0.208993  0.088625  0.500000  1
  Ru  Ru14  1  0.881798  0.795333  0.500000  1
  Ru  Ru15  1  0.428335  0.062419  0.000000  1
  Ru  Ru16  1  0.938134  0.362921  0.000000  1
  Ru  Ru17  1  0.636507  0.573480  0.000000  1
  Ru  Ru18  1  0.054278  0.614326  0.500000  1
  Rh  Rh19  1  0.553518  0.938664  0.500000  1
  Rh  Rh20  1  0.385747  0.443711  0.500000  1
