# generated using pymatgen
data_Tm2LuPa(Al3Ir)6
_symmetry_space_group_name_H-M   'P 1'
_cell_length_a   7.55712201
_cell_length_b   7.55455807
_cell_length_c   9.38677400
_cell_angle_alpha   90.00000000
_cell_angle_beta   90.00000000
_cell_angle_gamma   119.60304521
_symmetry_Int_Tables_number   1
_chemical_formula_structural   Tm2LuPa(Al3Ir)6
_chemical_formula_sum   'Tm2 Lu1 Pa1 Al18 Ir6'
_cell_volume   465.94622794
_cell_formula_units_Z   1
loop_
 _symmetry_equiv_pos_site_id
 _symmetry_equiv_pos_as_xyz
  1  'x, y, z'
loop_
 _atom_site_type_symbol
 _atom_site_label
 _atom_site_symmetry_multiplicity
 _atom_site_fract_x
 _atom_site_fract_y
 _atom_site_fract_z
 _atom_site_occupancy
  Tm  Tm0  1  0.004566  0.328429  0.750000  1
  Tm  Tm1  1  0.673007  0.994800  0.250000  1
  Lu  Lu2  1  0.328719  0.004308  0.750000  1
  Pa  Pa3  1  0.996005  0.671487  0.250000  1
  Al  Al4  1  0.132310  0.131398  0.250000  1
  Al  Al5  1  0.872820  0.874536  0.750000  1
  Al  Al6  1  0.000782  0.332041  0.074564  1
  Al  Al7  1  0.999770  0.664850  0.919265  1
  Al  Al8  1  0.999770  0.664850  0.580735  1
  Al  Al9  1  0.339211  0.004094  0.425520  1
  Al  Al10  1  0.000782  0.332041  0.425436  1
  Al  Al11  1  0.664492  0.000331  0.576936  1
  Al  Al12  1  0.664492  0.000331  0.923064  1
  Al  Al13  1  0.339211  0.004094  0.074480  1
  Al  Al14  1  0.332042  0.331877  0.557577  1
  Al  Al15  1  0.662975  0.665913  0.448949  1
  Al  Al16  1  0.662975  0.665913  0.051051  1
  Al  Al17  1  0.332042  0.331877  0.942423  1
  Al  Al18  1  0.340079  0.547637  0.250000  1
  Al  Al19  1  0.658533  0.448527  0.750000  1
  Al  Al20  1  0.546933  0.341498  0.250000  1
  Al  Al21  1  0.449876  0.661077  0.750000  1
  Ir  Ir22  1  0.674051  0.329502  0.001669  1
  Ir  Ir23  1  0.325690  0.672334  0.001729  1
  Ir  Ir24  1  0.325690  0.672334  0.498271  1
  Ir  Ir25  1  0.674051  0.329502  0.498331  1
  Ir  Ir26  1  0.999562  0.997210  0.002488  1
  Ir  Ir27  1  0.999562  0.997210  0.497512  1
