# generated using pymatgen
data_Ca4Pr4Al3GaO16
_symmetry_space_group_name_H-M   'P 1'
_cell_length_a   11.73726219
_cell_length_b   5.33289429
_cell_length_c   6.83523802
_cell_angle_alpha   89.99239509
_cell_angle_beta   90.00062185
_cell_angle_gamma   90.02884782
_symmetry_Int_Tables_number   1
_chemical_formula_structural   Ca4Pr4Al3GaO16
_chemical_formula_sum   'Ca4 Pr4 Al3 Ga1 O16'
_cell_volume   427.84194949
_cell_formula_units_Z   1
loop_
 _symmetry_equiv_pos_site_id
 _symmetry_equiv_pos_as_xyz
  1  'x, y, z'
loop_
 _atom_site_type_symbol
 _atom_site_label
 _atom_site_symmetry_multiplicity
 _atom_site_fract_x
 _atom_site_fract_y
 _atom_site_fract_z
 _atom_site_occupancy
  Ca  Ca0  1  0.499791  0.500021  0.487679  1
  Ca  Ca1  1  0.499820  0.500051  0.986684  1
  Ca  Ca2  1  0.000538  0.001563  0.985317  1
  Ca  Ca3  1  0.000504  0.001599  0.489017  1
  Pr  Pr4  1  0.221613  0.514221  0.237213  1
  Pr  Pr5  1  0.779078  0.490196  0.737207  1
  Pr  Pr6  1  0.280254  0.012137  0.737185  1
  Pr  Pr7  1  0.717858  0.988429  0.237035  1
  Al  Al8  1  0.408444  0.070749  0.237129  1
  Al  Al9  1  0.590952  0.930310  0.737089  1
  Al  Al10  1  0.092118  0.569737  0.737121  1
  Ga  Ga11  1  0.909143  0.433120  0.237174  1
  O  O12  1  0.407993  0.740710  0.237138  1
  O  O13  1  0.592011  0.260363  0.737158  1
  O  O14  1  0.093723  0.239891  0.737106  1
  O  O15  1  0.907328  0.775642  0.237145  1
  O  O16  1  0.162561  0.721695  0.533208  1
  O  O17  1  0.834693  0.268744  0.025474  1
  O  O18  1  0.338002  0.222081  0.032995  1
  O  O19  1  0.661264  0.777922  0.532859  1
  O  O20  1  0.337968  0.222072  0.441244  1
  O  O21  1  0.661297  0.777925  0.941358  1
  O  O22  1  0.162596  0.721693  0.941023  1
  O  O23  1  0.834656  0.268779  0.448827  1
  O  O24  1  0.546646  0.217878  0.237166  1
  O  O25  1  0.452612  0.784078  0.737149  1
  O  O26  1  0.953369  0.713623  0.737137  1
  O  O27  1  0.053165  0.274774  0.237167  1
