# generated using pymatgen
data_Yb3PrMnRu7
_symmetry_space_group_name_H-M   'P 1'
_cell_length_a   5.29130400
_cell_length_b   5.29130377
_cell_length_c   8.80294900
_cell_angle_alpha   90.00000000
_cell_angle_beta   90.00000000
_cell_angle_gamma   119.99998891
_symmetry_Int_Tables_number   1
_chemical_formula_structural   Yb3PrMnRu7
_chemical_formula_sum   'Yb3 Pr1 Mn1 Ru7'
_cell_volume   213.44415910
_cell_formula_units_Z   1
loop_
 _symmetry_equiv_pos_site_id
 _symmetry_equiv_pos_as_xyz
  1  'x, y, z'
loop_
 _atom_site_type_symbol
 _atom_site_label
 _atom_site_symmetry_multiplicity
 _atom_site_fract_x
 _atom_site_fract_y
 _atom_site_fract_z
 _atom_site_occupancy
  Yb  Yb0  1  0.666667  0.333333  0.570805  1
  Yb  Yb1  1  0.666667  0.333333  0.931760  1
  Yb  Yb2  1  0.333333  0.666667  0.064165  1
  Pr  Pr3  1  0.333333  0.666667  0.433371  1
  Mn  Mn4  1  0.000000  0.000000  0.001611  1
  Ru  Ru5  1  0.000000  0.000000  0.500524  1
  Ru  Ru6  1  0.829032  0.170968  0.243356  1
  Ru  Ru7  1  0.829032  0.658061  0.243356  1
  Ru  Ru8  1  0.341939  0.170968  0.243356  1
  Ru  Ru9  1  0.169945  0.830055  0.755899  1
  Ru  Ru10  1  0.169945  0.339891  0.755899  1
  Ru  Ru11  1  0.660109  0.830055  0.755899  1
