# generated using pymatgen
data_Hf16Co5Ir3
_symmetry_space_group_name_H-M   'P 1'
_cell_length_a   8.57462477
_cell_length_b   8.57462476
_cell_length_c   8.57462452
_cell_angle_alpha   60.11534001
_cell_angle_beta   60.11533844
_cell_angle_gamma   60.11534106
_symmetry_Int_Tables_number   1
_chemical_formula_structural   Hf16Co5Ir3
_chemical_formula_sum   'Hf16 Co5 Ir3'
_cell_volume   446.95494967
_cell_formula_units_Z   1
loop_
 _symmetry_equiv_pos_site_id
 _symmetry_equiv_pos_as_xyz
  1  'x, y, z'
loop_
 _atom_site_type_symbol
 _atom_site_label
 _atom_site_symmetry_multiplicity
 _atom_site_fract_x
 _atom_site_fract_y
 _atom_site_fract_z
 _atom_site_occupancy
  Hf  Hf0  1  0.070723  0.642455  0.642455  1
  Hf  Hf1  1  0.642455  0.070723  0.642455  1
  Hf  Hf2  1  0.642455  0.642455  0.070723  1
  Hf  Hf3  1  0.644479  0.644479  0.644479  1
  Hf  Hf4  1  0.804255  0.804255  0.195636  1
  Hf  Hf5  1  0.195855  0.195855  0.803988  1
  Hf  Hf6  1  0.804255  0.195636  0.804255  1
  Hf  Hf7  1  0.195855  0.803988  0.195855  1
  Hf  Hf8  1  0.195636  0.804255  0.804255  1
  Hf  Hf9  1  0.803988  0.195855  0.195855  1
  Hf  Hf10  1  0.436618  0.436618  0.065985  1
  Hf  Hf11  1  0.063267  0.063267  0.436808  1
  Hf  Hf12  1  0.436618  0.065985  0.436618  1
  Hf  Hf13  1  0.063267  0.436808  0.063267  1
  Hf  Hf14  1  0.065985  0.436618  0.436618  1
  Hf  Hf15  1  0.436808  0.063267  0.063267  1
  Co  Co16  1  0.415604  0.415604  0.415604  1
  Co  Co17  1  0.429201  0.857297  0.857297  1
  Co  Co18  1  0.857297  0.429201  0.857297  1
  Co  Co19  1  0.857297  0.857297  0.429201  1
  Co  Co20  1  0.856192  0.856192  0.856192  1
  Ir  Ir21  1  0.751498  0.415197  0.415197  1
  Ir  Ir22  1  0.415197  0.751498  0.415197  1
  Ir  Ir23  1  0.415197  0.415197  0.751498  1
