# generated using pymatgen
data_Tb3PrIr3RhO14
_symmetry_space_group_name_H-M   'P 1'
_cell_length_a   7.33902225
_cell_length_b   7.27113094
_cell_length_c   7.27610689
_cell_angle_alpha   60.02261311
_cell_angle_beta   60.23270827
_cell_angle_gamma   60.30554303
_symmetry_Int_Tables_number   1
_chemical_formula_structural   Tb3PrIr3RhO14
_chemical_formula_sum   'Tb3 Pr1 Ir3 Rh1 O14'
_cell_volume   275.71053857
_cell_formula_units_Z   1
loop_
 _symmetry_equiv_pos_site_id
 _symmetry_equiv_pos_as_xyz
  1  'x, y, z'
loop_
 _atom_site_type_symbol
 _atom_site_label
 _atom_site_symmetry_multiplicity
 _atom_site_fract_x
 _atom_site_fract_y
 _atom_site_fract_z
 _atom_site_occupancy
  Tb  Tb0  1  0.125000  0.125000  0.625000  1
  Tb  Tb1  1  0.125000  0.125000  0.125000  1
  Tb  Tb2  1  0.125000  0.625000  0.125000  1
  Pr  Pr3  1  0.625000  0.125000  0.125000  1
  Ir  Ir4  1  0.625000  0.625000  0.625000  1
  Ir  Ir5  1  0.125000  0.625000  0.625000  1
  Ir  Ir6  1  0.625000  0.125000  0.625000  1
  Rh  Rh7  1  0.625000  0.625000  0.125000  1
  O  O8  1  0.959205  0.537792  0.544651  1
  O  O9  1  0.290795  0.291648  0.705349  1
  O  O10  1  0.965142  0.537874  0.959110  1
  O  O11  1  0.720388  0.285287  0.291143  1
  O  O12  1  0.529612  0.546818  0.958857  1
  O  O13  1  0.530195  0.958094  0.553618  1
  O  O14  1  0.529612  0.964713  0.958857  1
  O  O15  1  0.239973  0.252672  0.254682  1
  O  O16  1  0.290795  0.712208  0.705349  1
  O  O17  1  0.719805  0.291906  0.696382  1
  O  O18  1  0.010027  0.997328  0.995318  1
  O  O19  1  0.959205  0.958352  0.544651  1
  O  O20  1  0.284858  0.712126  0.290890  1
  O  O21  1  0.720388  0.703182  0.291143  1
