# generated using pymatgen
data_Yb4ZnCuSi6
_symmetry_space_group_name_H-M   'P 1'
_cell_length_a   8.20207035
_cell_length_b   8.09908871
_cell_length_c   5.85557570
_cell_angle_alpha   69.89162080
_cell_angle_beta   68.01067803
_cell_angle_gamma   42.09770943
_symmetry_Int_Tables_number   1
_chemical_formula_structural   Yb4ZnCuSi6
_chemical_formula_sum   'Yb4 Zn1 Cu1 Si6'
_cell_volume   240.43663416
_cell_formula_units_Z   1
loop_
 _symmetry_equiv_pos_site_id
 _symmetry_equiv_pos_as_xyz
  1  'x, y, z'
loop_
 _atom_site_type_symbol
 _atom_site_label
 _atom_site_symmetry_multiplicity
 _atom_site_fract_x
 _atom_site_fract_y
 _atom_site_fract_z
 _atom_site_occupancy
  Yb  Yb0  1  0.245913  0.752075  0.247926  1
  Yb  Yb1  1  0.251102  0.251100  0.248899  1
  Yb  Yb2  1  0.751101  0.751101  0.748899  1
  Yb  Yb3  1  0.752073  0.245915  0.754086  1
  Zn  Zn4  1  0.666535  0.666537  0.333464  1
  Cu  Cu5  1  0.333329  0.333331  0.666671  1
  Si  Si6  1  0.836444  0.836446  0.163555  1
  Si  Si7  1  0.834931  0.328178  0.165069  1
  Si  Si8  1  0.659915  0.170982  0.340085  1
  Si  Si9  1  0.328176  0.834932  0.671823  1
  Si  Si10  1  0.170980  0.659916  0.829019  1
  Si  Si11  1  0.169492  0.169494  0.830507  1
