# generated using pymatgen
data_NdMg4(SbPt)5
_symmetry_space_group_name_H-M   'P 1'
_cell_length_a   19.14097197
_cell_length_b   19.14097197
_cell_length_c   19.14097123
_cell_angle_alpha   13.56324580
_cell_angle_beta   13.56324471
_cell_angle_gamma   13.56324704
_symmetry_Int_Tables_number   1
_chemical_formula_structural   NdMg4(SbPt)5
_chemical_formula_sum   'Nd1 Mg4 Sb5 Pt5'
_cell_volume   335.58326535
_cell_formula_units_Z   1
loop_
 _symmetry_equiv_pos_site_id
 _symmetry_equiv_pos_as_xyz
  1  'x, y, z'
loop_
 _atom_site_type_symbol
 _atom_site_label
 _atom_site_symmetry_multiplicity
 _atom_site_fract_x
 _atom_site_fract_y
 _atom_site_fract_z
 _atom_site_occupancy
  Nd  Nd0  1  0.299345  0.299345  0.299345  1
  Mg  Mg1  1  0.702086  0.702086  0.702086  1
  Mg  Mg2  1  0.100224  0.100224  0.100224  1
  Mg  Mg3  1  0.498820  0.498820  0.498820  1
  Mg  Mg4  1  0.897279  0.897279  0.897279  1
  Sb  Sb5  1  0.595718  0.595718  0.595718  1
  Sb  Sb6  1  0.800578  0.800578  0.800578  1
  Sb  Sb7  1  0.198558  0.198558  0.198558  1
  Sb  Sb8  1  0.003776  0.003776  0.003776  1
  Sb  Sb9  1  0.402444  0.402444  0.402444  1
  Pt  Pt10  1  0.051636  0.051636  0.051636  1
  Pt  Pt11  1  0.450102  0.450102  0.450102  1
  Pt  Pt12  1  0.848520  0.848520  0.848520  1
  Pt  Pt13  1  0.246448  0.246448  0.246448  1
  Pt  Pt14  1  0.654466  0.654466  0.654466  1
