# generated using pymatgen
data_TaTiNb(BOs)3
_symmetry_space_group_name_H-M   'P 1'
_cell_length_a   3.10254400
_cell_length_b   9.03976400
_cell_length_c   15.63507700
_cell_angle_alpha   90.00000000
_cell_angle_beta   90.00000000
_cell_angle_gamma   90.00000000
_symmetry_Int_Tables_number   1
_chemical_formula_structural   TaTiNb(BOs)3
_chemical_formula_sum   'Ta4 Ti4 Nb4 B12 Os12'
_cell_volume   438.50552159
_cell_formula_units_Z   4
loop_
 _symmetry_equiv_pos_site_id
 _symmetry_equiv_pos_as_xyz
  1  'x, y, z'
loop_
 _atom_site_type_symbol
 _atom_site_label
 _atom_site_symmetry_multiplicity
 _atom_site_fract_x
 _atom_site_fract_y
 _atom_site_fract_z
 _atom_site_occupancy
  Ta  Ta0  1  0.000000  0.796683  0.496402  1
  Ta  Ta1  1  0.000000  0.203317  0.503598  1
  Ta  Ta2  1  0.000000  0.296683  0.003598  1
  Ta  Ta3  1  0.000000  0.703317  0.996402  1
  Ti  Ti4  1  0.000000  0.515167  0.593573  1
  Ti  Ti5  1  0.000000  0.484833  0.406427  1
  Ti  Ti6  1  0.000000  0.015167  0.906427  1
  Ti  Ti7  1  0.000000  0.984833  0.093573  1
  Nb  Nb8  1  0.000000  0.685324  0.203346  1
  Nb  Nb9  1  0.000000  0.314676  0.796654  1
  Nb  Nb10  1  0.000000  0.185324  0.296654  1
  Nb  Nb11  1  0.000000  0.814676  0.703346  1
  B  B12  1  0.500000  0.600495  0.495761  1
  B  B13  1  0.500000  0.399505  0.504239  1
  B  B14  1  0.500000  0.100495  0.004239  1
  B  B15  1  0.500000  0.899505  0.995761  1
  B  B16  1  0.000000  0.612322  0.830876  1
  B  B17  1  0.000000  0.387678  0.169124  1
  B  B18  1  0.000000  0.112322  0.669124  1
  B  B19  1  0.000000  0.887678  0.330876  1
  B  B20  1  0.500000  0.708944  0.600239  1
  B  B21  1  0.500000  0.291056  0.399761  1
  B  B22  1  0.500000  0.208944  0.899761  1
  B  B23  1  0.500000  0.791056  0.100239  1
  Os  Os24  1  0.500000  0.715454  0.357974  1
  Os  Os25  1  0.500000  0.284546  0.642026  1
  Os  Os26  1  0.500000  0.215454  0.142026  1
  Os  Os27  1  0.500000  0.784546  0.857974  1
  Os  Os28  1  0.500000  0.516633  0.093746  1
  Os  Os29  1  0.500000  0.483367  0.906254  1
  Os  Os30  1  0.500000  0.016633  0.406254  1
  Os  Os31  1  0.500000  0.983367  0.593746  1
  Os  Os32  1  0.500000  0.564293  0.732013  1
  Os  Os33  1  0.500000  0.435707  0.267987  1
  Os  Os34  1  0.500000  0.064293  0.767987  1
  Os  Os35  1  0.500000  0.935707  0.232013  1
