# generated using pymatgen
data_AcNd2Er(AsPt)4
_symmetry_space_group_name_H-M   'P 1'
_cell_length_a   4.34102900
_cell_length_b   4.34102841
_cell_length_c   16.33868900
_cell_angle_alpha   90.00000000
_cell_angle_beta   90.00000000
_cell_angle_gamma   119.99999688
_symmetry_Int_Tables_number   1
_chemical_formula_structural   AcNd2Er(AsPt)4
_chemical_formula_sum   'Ac1 Nd2 Er1 As4 Pt4'
_cell_volume   266.64482958
_cell_formula_units_Z   1
loop_
 _symmetry_equiv_pos_site_id
 _symmetry_equiv_pos_as_xyz
  1  'x, y, z'
loop_
 _atom_site_type_symbol
 _atom_site_label
 _atom_site_symmetry_multiplicity
 _atom_site_fract_x
 _atom_site_fract_y
 _atom_site_fract_z
 _atom_site_occupancy
  Ac  Ac0  1  0.000000  0.000000  0.507011  1
  Nd  Nd1  1  0.000000  0.000000  0.993579  1
  Nd  Nd2  1  0.000000  0.000000  0.241985  1
  Er  Er3  1  0.000000  0.000000  0.755744  1
  As  As4  1  0.333333  0.666667  0.880616  1
  As  As5  1  0.666667  0.333333  0.112757  1
  As  As6  1  0.666667  0.333333  0.366336  1
  As  As7  1  0.333333  0.666667  0.632344  1
  Pt  Pt8  1  0.333333  0.666667  0.372372  1
  Pt  Pt9  1  0.666667  0.333333  0.654966  1
  Pt  Pt10  1  0.666667  0.333333  0.856120  1
  Pt  Pt11  1  0.333333  0.666667  0.126170  1
