# generated using pymatgen
data_LiLa6(TbIr3)2
_symmetry_space_group_name_H-M   'P 1'
_cell_length_a   7.71111418
_cell_length_b   7.71111391
_cell_length_c   7.71111483
_cell_angle_alpha   68.88009106
_cell_angle_beta   68.88009006
_cell_angle_gamma   68.88008167
_symmetry_Int_Tables_number   1
_chemical_formula_structural   LiLa6(TbIr3)2
_chemical_formula_sum   'Li1 La6 Tb2 Ir6'
_cell_volume   384.73240433
_cell_formula_units_Z   1
loop_
 _symmetry_equiv_pos_site_id
 _symmetry_equiv_pos_as_xyz
  1  'x, y, z'
loop_
 _atom_site_type_symbol
 _atom_site_label
 _atom_site_symmetry_multiplicity
 _atom_site_fract_x
 _atom_site_fract_y
 _atom_site_fract_z
 _atom_site_occupancy
  Li  Li0  1  0.000000  0.000000  0.000000  1
  La  La1  1  0.137156  0.384572  0.685226  1
  La  La2  1  0.685226  0.137156  0.384572  1
  La  La3  1  0.384572  0.685226  0.137156  1
  La  La4  1  0.862844  0.615428  0.314774  1
  La  La5  1  0.314774  0.862844  0.615428  1
  La  La6  1  0.615428  0.314774  0.862844  1
  Tb  Tb7  1  0.817197  0.817197  0.817197  1
  Tb  Tb8  1  0.182803  0.182803  0.182803  1
  Ir  Ir9  1  0.948309  0.183978  0.571075  1
  Ir  Ir10  1  0.571075  0.948309  0.183978  1
  Ir  Ir11  1  0.183978  0.571075  0.948309  1
  Ir  Ir12  1  0.051691  0.816022  0.428925  1
  Ir  Ir13  1  0.428925  0.051691  0.816022  1
  Ir  Ir14  1  0.816022  0.428925  0.051691  1
