# generated using pymatgen
data_RbPa(CuSb)2
_symmetry_space_group_name_H-M   'P 1'
_cell_length_a   4.46193400
_cell_length_b   9.35536604
_cell_length_c   7.71244200
_cell_angle_alpha   90.18360911
_cell_angle_beta   90.00000000
_cell_angle_gamma   90.00000000
_symmetry_Int_Tables_number   1
_chemical_formula_structural   RbPa(CuSb)2
_chemical_formula_sum   'Rb2 Pa2 Cu4 Sb4'
_cell_volume   321.93901234
_cell_formula_units_Z   2
loop_
 _symmetry_equiv_pos_site_id
 _symmetry_equiv_pos_as_xyz
  1  'x, y, z'
loop_
 _atom_site_type_symbol
 _atom_site_label
 _atom_site_symmetry_multiplicity
 _atom_site_fract_x
 _atom_site_fract_y
 _atom_site_fract_z
 _atom_site_occupancy
  Rb  Rb0  1  0.250000  0.499532  0.248589  1
  Rb  Rb1  1  0.750000  0.500468  0.751411  1
  Pa  Pa2  1  0.250000  0.000032  0.252236  1
  Pa  Pa3  1  0.750000  0.999968  0.747764  1
  Cu  Cu4  1  0.250000  0.834880  0.583086  1
  Cu  Cu5  1  0.750000  0.165120  0.416914  1
  Cu  Cu6  1  0.250000  0.162157  0.916450  1
  Cu  Cu7  1  0.750000  0.837843  0.083550  1
  Sb  Sb8  1  0.750000  0.785589  0.415772  1
  Sb  Sb9  1  0.250000  0.214411  0.584228  1
  Sb  Sb10  1  0.750000  0.211391  0.083416  1
  Sb  Sb11  1  0.250000  0.788609  0.916584  1
