# generated using pymatgen
data_Ba3Tm2RuO9
_symmetry_space_group_name_H-M   'P 1'
_cell_length_a   6.00414622
_cell_length_b   10.44413729
_cell_length_c   8.51314018
_cell_angle_alpha   65.64911900
_cell_angle_beta   89.81818627
_cell_angle_gamma   72.95233490
_symmetry_Int_Tables_number   1
_chemical_formula_structural   Ba3Tm2RuO9
_chemical_formula_sum   'Ba6 Tm4 Ru2 O18'
_cell_volume   460.71597546
_cell_formula_units_Z   2
loop_
 _symmetry_equiv_pos_site_id
 _symmetry_equiv_pos_as_xyz
  1  'x, y, z'
loop_
 _atom_site_type_symbol
 _atom_site_label
 _atom_site_symmetry_multiplicity
 _atom_site_fract_x
 _atom_site_fract_y
 _atom_site_fract_z
 _atom_site_occupancy
  Ba  Ba0  1  0.828693  0.336232  0.083930  1
  Ba  Ba1  1  0.165093  0.667354  0.409201  1
  Ba  Ba2  1  0.504755  0.993632  0.758550  1
  Ba  Ba3  1  0.504628  0.997123  0.249491  1
  Ba  Ba4  1  0.828547  0.339677  0.574650  1
  Ba  Ba5  1  0.168196  0.666104  0.924042  1
  Tm  Tm6  1  0.000462  0.004187  0.997883  1
  Tm  Tm7  1  0.332879  0.329041  0.335506  1
  Tm  Tm8  1  0.666634  0.666692  0.666625  1
  Tm  Tm9  1  0.666671  0.666701  0.166613  1
  Ru  Ru10  1  0.001759  0.998631  0.500087  1
  Ru  Ru11  1  0.331518  0.334582  0.833347  1
  O  O12  1  0.984166  0.470539  0.242925  1
  O  O13  1  0.299580  0.834317  0.563370  1
  O  O14  1  0.629366  0.172931  0.898467  1
  O  O15  1  0.349129  0.862839  0.090338  1
  O  O16  1  0.703661  0.160503  0.434797  1
  O  O17  1  0.034001  0.498890  0.770049  1
  O  O18  1  0.628377  0.685123  0.903919  1
  O  O19  1  0.975528  0.016410  0.259747  1
  O  O20  1  0.313650  0.340244  0.598467  1
  O  O21  1  0.870380  0.823423  0.086199  1
  O  O22  1  0.182473  0.135908  0.431844  1
  O  O23  1  0.505005  0.479404  0.760064  1
  O  O24  1  0.704917  0.648359  0.429291  1
  O  O25  1  0.019636  0.993029  0.735106  1
  O  O26  1  0.357876  0.316852  0.073451  1
  O  O27  1  0.463076  0.509884  0.247203  1
  O  O28  1  0.828308  0.853836  0.573331  1
  O  O29  1  0.151033  0.197551  0.901506  1
