# generated using pymatgen
data_Tb10Sn3Bi3C2
_symmetry_space_group_name_H-M   'P 1'
_cell_length_a   9.09119413
_cell_length_b   9.07412572
_cell_length_c   6.59388800
_cell_angle_alpha   90.00000000
_cell_angle_beta   90.00000000
_cell_angle_gamma   120.09507822
_symmetry_Int_Tables_number   1
_chemical_formula_structural   Tb10Sn3Bi3C2
_chemical_formula_sum   'Tb10 Sn3 Bi3 C2'
_cell_volume   470.63155079
_cell_formula_units_Z   1
loop_
 _symmetry_equiv_pos_site_id
 _symmetry_equiv_pos_as_xyz
  1  'x, y, z'
loop_
 _atom_site_type_symbol
 _atom_site_label
 _atom_site_symmetry_multiplicity
 _atom_site_fract_x
 _atom_site_fract_y
 _atom_site_fract_z
 _atom_site_occupancy
  Tb  Tb0  1  0.333308  0.658893  0.497670  1
  Tb  Tb1  1  0.666513  0.338391  0.498023  1
  Tb  Tb2  1  0.666513  0.338391  0.001977  1
  Tb  Tb3  1  0.333308  0.658893  0.002330  1
  Tb  Tb4  1  0.210983  0.004128  0.750000  1
  Tb  Tb5  1  0.790904  0.999949  0.250000  1
  Tb  Tb6  1  0.005202  0.213741  0.750000  1
  Tb  Tb7  1  0.995203  0.787226  0.250000  1
  Tb  Tb8  1  0.789652  0.788839  0.750000  1
  Tb  Tb9  1  0.208620  0.214135  0.250000  1
  Sn  Sn10  1  0.998904  0.402307  0.250000  1
  Sn  Sn11  1  0.406409  0.404651  0.750000  1
  Sn  Sn12  1  0.595202  0.595519  0.250000  1
  Bi  Bi13  1  0.599051  0.999842  0.750000  1
  Bi  Bi14  1  0.399337  0.999372  0.250000  1
  Bi  Bi15  1  0.001300  0.597916  0.750000  1
  C  C16  1  0.999796  0.998904  0.500707  1
  C  C17  1  0.999796  0.998904  0.999293  1
