# generated using pymatgen
data_La5Pr(CBr5)2
_symmetry_space_group_name_H-M   'P 1'
_cell_length_a   7.79952380
_cell_length_b   9.31769519
_cell_length_c   9.39402578
_cell_angle_alpha   108.50109254
_cell_angle_beta   97.50454147
_cell_angle_gamma   106.06938812
_symmetry_Int_Tables_number   1
_chemical_formula_structural   La5Pr(CBr5)2
_chemical_formula_sum   'La5 Pr1 C2 Br10'
_cell_volume   603.97949799
_cell_formula_units_Z   1
loop_
 _symmetry_equiv_pos_site_id
 _symmetry_equiv_pos_as_xyz
  1  'x, y, z'
loop_
 _atom_site_type_symbol
 _atom_site_label
 _atom_site_symmetry_multiplicity
 _atom_site_fract_x
 _atom_site_fract_y
 _atom_site_fract_z
 _atom_site_occupancy
  La  La0  1  0.886789  0.956935  0.232439  1
  La  La1  1  0.114530  0.043903  0.767911  1
  La  La2  1  0.027248  0.716214  0.915229  1
  La  La3  1  0.974122  0.284197  0.085924  1
  La  La4  1  0.607937  0.844426  0.796769  1
  Pr  Pr5  1  0.388413  0.153464  0.200860  1
  C  C6  1  0.908427  0.965475  0.953347  1
  C  C7  1  0.089665  0.033768  0.045302  1
  Br  Br8  1  0.747030  0.914616  0.533684  1
  Br  Br9  1  0.255799  0.086642  0.464947  1
  Br  Br10  1  0.455888  0.822435  0.085303  1
  Br  Br11  1  0.543626  0.179834  0.918051  1
  Br  Br12  1  0.821839  0.270932  0.360366  1
  Br  Br13  1  0.176336  0.728711  0.638807  1
  Br  Br14  1  0.909156  0.627524  0.176267  1
  Br  Br15  1  0.091150  0.372884  0.824158  1
  Br  Br16  1  0.647522  0.527449  0.718717  1
  Br  Br17  1  0.354524  0.470591  0.281919  1
