# generated using pymatgen
data_NaHo(Te3O8)2
_symmetry_space_group_name_H-M   'P 1'
_cell_length_a   6.82035776
_cell_length_b   6.82035816
_cell_length_c   10.03429400
_cell_angle_alpha   66.18929811
_cell_angle_beta   66.18929662
_cell_angle_gamma   49.81649863
_symmetry_Int_Tables_number   1
_chemical_formula_structural   NaHo(Te3O8)2
_chemical_formula_sum   'Na1 Ho1 Te6 O16'
_cell_volume   319.32708911
_cell_formula_units_Z   1
loop_
 _symmetry_equiv_pos_site_id
 _symmetry_equiv_pos_as_xyz
  1  'x, y, z'
loop_
 _atom_site_type_symbol
 _atom_site_label
 _atom_site_symmetry_multiplicity
 _atom_site_fract_x
 _atom_site_fract_y
 _atom_site_fract_z
 _atom_site_occupancy
  Na  Na0  1  0.433270  0.566730  0.750000  1
  Ho  Ho1  1  0.566372  0.433628  0.250000  1
  Te  Te2  1  0.696071  0.867800  0.856355  1
  Te  Te3  1  0.868020  0.683447  0.360074  1
  Te  Te4  1  0.996152  0.991658  0.503639  1
  Te  Te5  1  0.008342  0.003848  0.996361  1
  Te  Te6  1  0.132200  0.303929  0.643645  1
  Te  Te7  1  0.316553  0.131980  0.139926  1
  O  O8  1  0.987485  0.812047  0.909093  1
  O  O9  1  0.791227  0.994316  0.402907  1
  O  O10  1  0.351764  0.880308  0.873174  1
  O  O11  1  0.792894  0.568301  0.583580  1
  O  O12  1  0.862938  0.318240  0.841032  1
  O  O13  1  0.851804  0.340869  0.374876  1
  O  O14  1  0.581804  0.777966  0.099796  1
  O  O15  1  0.300990  0.845843  0.344002  1
  O  O16  1  0.681760  0.137062  0.658968  1
  O  O17  1  0.431699  0.207106  0.916420  1
  O  O18  1  0.119692  0.648236  0.626826  1
  O  O19  1  0.154157  0.699010  0.155998  1
  O  O20  1  0.222034  0.418196  0.400204  1
  O  O21  1  0.659131  0.148196  0.125124  1
  O  O22  1  0.187953  0.012515  0.590907  1
  O  O23  1  0.005684  0.208773  0.097093  1
