# generated using pymatgen
data_Pr16Cd2Hg2OsPt3
_symmetry_space_group_name_H-M   'P 1'
_cell_length_a   10.10079095
_cell_length_b   10.10078991
_cell_length_c   10.12876994
_cell_angle_alpha   59.45449447
_cell_angle_beta   59.45449761
_cell_angle_gamma   59.47408724
_symmetry_Int_Tables_number   1
_chemical_formula_structural   Pr16Cd2Hg2OsPt3
_chemical_formula_sum   'Pr16 Cd2 Hg2 Os1 Pt3'
_cell_volume   721.76326384
_cell_formula_units_Z   1
loop_
 _symmetry_equiv_pos_site_id
 _symmetry_equiv_pos_as_xyz
  1  'x, y, z'
loop_
 _atom_site_type_symbol
 _atom_site_label
 _atom_site_symmetry_multiplicity
 _atom_site_fract_x
 _atom_site_fract_y
 _atom_site_fract_z
 _atom_site_occupancy
  Pr  Pr0  1  0.351693  0.351693  0.351523  1
  Pr  Pr1  1  0.348286  0.348286  0.952169  1
  Pr  Pr2  1  0.349039  0.949793  0.348964  1
  Pr  Pr3  1  0.949793  0.349039  0.348964  1
  Pr  Pr4  1  0.816350  0.188298  0.189118  1
  Pr  Pr5  1  0.188165  0.807666  0.807815  1
  Pr  Pr6  1  0.188298  0.816350  0.189118  1
  Pr  Pr7  1  0.807666  0.188165  0.807815  1
  Pr  Pr8  1  0.188203  0.188203  0.816793  1
  Pr  Pr9  1  0.806103  0.806103  0.189728  1
  Pr  Pr10  1  0.938459  0.562936  0.563977  1
  Pr  Pr11  1  0.555038  0.938562  0.938510  1
  Pr  Pr12  1  0.562936  0.938459  0.563977  1
  Pr  Pr13  1  0.938562  0.555038  0.938510  1
  Pr  Pr14  1  0.563012  0.563012  0.939115  1
  Pr  Pr15  1  0.938032  0.938032  0.556028  1
  Cd  Cd16  1  0.579499  0.259780  0.580227  1
  Cd  Cd17  1  0.259780  0.579499  0.580227  1
  Hg  Hg18  1  0.583122  0.583122  0.585521  1
  Hg  Hg19  1  0.584037  0.584037  0.245773  1
  Os  Os20  1  0.142707  0.142707  0.143257  1
  Pt  Pt21  1  0.144352  0.144352  0.572703  1
  Pt  Pt22  1  0.144159  0.572713  0.145086  1
  Pt  Pt23  1  0.572713  0.144159  0.145086  1
