# generated using pymatgen
data_NdCr4(CuO4)3
_symmetry_space_group_name_H-M   'P 1'
_cell_length_a   6.43830474
_cell_length_b   6.43830949
_cell_length_c   6.43832324
_cell_angle_alpha   70.52574029
_cell_angle_beta   70.52352593
_cell_angle_gamma   109.46304033
_symmetry_Int_Tables_number   1
_chemical_formula_structural   NdCr4(CuO4)3
_chemical_formula_sum   'Nd1 Cr4 Cu3 O12'
_cell_volume   205.44409241
_cell_formula_units_Z   1
loop_
 _symmetry_equiv_pos_site_id
 _symmetry_equiv_pos_as_xyz
  1  'x, y, z'
loop_
 _atom_site_type_symbol
 _atom_site_label
 _atom_site_symmetry_multiplicity
 _atom_site_fract_x
 _atom_site_fract_y
 _atom_site_fract_z
 _atom_site_occupancy
  Nd  Nd0  1  0.000000  0.999997  0.000001  1
  Cr  Cr1  1  0.999995  0.499997  0.000002  1
  Cr  Cr2  1  0.500003  0.500007  0.499997  1
  Cr  Cr3  1  0.499996  0.999998  0.000000  1
  Cr  Cr4  1  0.000008  0.000006  0.500002  1
  Cu  Cu5  1  0.499999  0.999999  0.500001  1
  Cu  Cu6  1  0.500001  0.500000  0.999998  1
  Cu  Cu7  1  0.999998  0.499999  0.500000  1
  O  O8  1  0.858048  0.690367  0.832322  1
  O  O9  1  0.477312  0.309633  0.832318  1
  O  O10  1  0.522687  0.690368  0.167680  1
  O  O11  1  0.141953  0.309628  0.167683  1
  O  O12  1  0.832501  0.141968  0.690532  1
  O  O13  1  0.832505  0.523041  0.309462  1
  O  O14  1  0.167494  0.476961  0.690535  1
  O  O15  1  0.167499  0.858030  0.309466  1
  O  O16  1  0.309842  0.167742  0.522417  1
  O  O17  1  0.690155  0.167743  0.142100  1
  O  O18  1  0.309844  0.832257  0.857901  1
  O  O19  1  0.690158  0.832259  0.477582  1
