# generated using pymatgen
data_LaNd3(Sn2Pt)4
_symmetry_space_group_name_H-M   'P 1'
_cell_length_a   9.22689396
_cell_length_b   9.22689478
_cell_length_c   9.56641469
_cell_angle_alpha   89.89740469
_cell_angle_beta   90.10259596
_cell_angle_gamma   150.88853837
_symmetry_Int_Tables_number   1
_chemical_formula_structural   LaNd3(Sn2Pt)4
_chemical_formula_sum   'La1 Nd3 Sn8 Pt4'
_cell_volume   396.23375849
_cell_formula_units_Z   1
loop_
 _symmetry_equiv_pos_site_id
 _symmetry_equiv_pos_as_xyz
  1  'x, y, z'
loop_
 _atom_site_type_symbol
 _atom_site_label
 _atom_site_symmetry_multiplicity
 _atom_site_fract_x
 _atom_site_fract_y
 _atom_site_fract_z
 _atom_site_occupancy
  La  La0  1  0.500000  0.500000  0.000000  1
  Nd  Nd1  1  0.500000  0.500000  0.500000  1
  Nd  Nd2  1  0.298218  0.701782  0.250465  1
  Nd  Nd3  1  0.701782  0.298218  0.749535  1
  Sn  Sn4  1  0.915082  0.084918  0.749556  1
  Sn  Sn5  1  0.926479  0.073521  0.251398  1
  Sn  Sn6  1  0.084918  0.915082  0.250444  1
  Sn  Sn7  1  0.073521  0.926479  0.748602  1
  Sn  Sn8  1  0.699310  0.300690  0.407167  1
  Sn  Sn9  1  0.300690  0.699310  0.592833  1
  Sn  Sn10  1  0.300343  0.699657  0.907759  1
  Sn  Sn11  1  0.699657  0.300343  0.092241  1
  Pt  Pt12  1  0.148341  0.851659  0.506638  1
  Pt  Pt13  1  0.851533  0.148467  0.007207  1
  Pt  Pt14  1  0.148467  0.851533  0.992793  1
  Pt  Pt15  1  0.851659  0.148341  0.493362  1
