# generated using pymatgen
data_LaNd3(CuP2)4
_symmetry_space_group_name_H-M   'P 1'
_cell_length_a   3.79010500
_cell_length_b   3.90797776
_cell_length_c   20.16738304
_cell_angle_alpha   89.84145536
_cell_angle_beta   90.00000000
_cell_angle_gamma   90.00000000
_symmetry_Int_Tables_number   1
_chemical_formula_structural   LaNd3(CuP2)4
_chemical_formula_sum   'La1 Nd3 Cu4 P8'
_cell_volume   298.71099587
_cell_formula_units_Z   1
loop_
 _symmetry_equiv_pos_site_id
 _symmetry_equiv_pos_as_xyz
  1  'x, y, z'
loop_
 _atom_site_type_symbol
 _atom_site_label
 _atom_site_symmetry_multiplicity
 _atom_site_fract_x
 _atom_site_fract_y
 _atom_site_fract_z
 _atom_site_occupancy
  La  La0  1  0.750000  0.209797  0.118823  1
  Nd  Nd1  1  0.250000  0.709538  0.382394  1
  Nd  Nd2  1  0.250000  0.791381  0.879070  1
  Nd  Nd3  1  0.750000  0.291204  0.618791  1
  Cu  Cu4  1  0.250000  0.211247  0.252249  1
  Cu  Cu5  1  0.750000  0.788923  0.749112  1
  Cu  Cu6  1  0.250000  0.288755  0.748878  1
  Cu  Cu7  1  0.750000  0.711443  0.252285  1
  P  P8  1  0.750000  0.820616  0.503358  1
  P  P9  1  0.750000  0.676476  0.999913  1
  P  P10  1  0.250000  0.179801  0.497812  1
  P  P11  1  0.250000  0.319514  0.994307  1
  P  P12  1  0.250000  0.710085  0.180712  1
  P  P13  1  0.750000  0.210166  0.324452  1
  P  P14  1  0.750000  0.290683  0.821189  1
  P  P15  1  0.250000  0.790373  0.676656  1
