# generated using pymatgen
data_KLa(CN2)2
_symmetry_space_group_name_H-M   'P 1'
_cell_length_a   6.83861000
_cell_length_b   8.38348100
_cell_length_c   10.15217600
_cell_angle_alpha   90.00000000
_cell_angle_beta   90.00000000
_cell_angle_gamma   90.00000000
_symmetry_Int_Tables_number   1
_chemical_formula_structural   KLa(CN2)2
_chemical_formula_sum   'K4 La4 C8 N16'
_cell_volume   582.03802660
_cell_formula_units_Z   4
loop_
 _symmetry_equiv_pos_site_id
 _symmetry_equiv_pos_as_xyz
  1  'x, y, z'
loop_
 _atom_site_type_symbol
 _atom_site_label
 _atom_site_symmetry_multiplicity
 _atom_site_fract_x
 _atom_site_fract_y
 _atom_site_fract_z
 _atom_site_occupancy
  K  K0  1  0.250000  0.619019  0.000000  1
  K  K1  1  0.750000  0.880981  0.500000  1
  K  K2  1  0.750000  0.380981  0.000000  1
  K  K3  1  0.250000  0.119019  0.500000  1
  La  La4  1  0.250000  0.122658  0.000000  1
  La  La5  1  0.750000  0.377342  0.500000  1
  La  La6  1  0.750000  0.877342  0.000000  1
  La  La7  1  0.250000  0.622658  0.500000  1
  C  C8  1  0.408451  0.372917  0.744462  1
  C  C9  1  0.908451  0.127083  0.755538  1
  C  C10  1  0.591549  0.127083  0.244462  1
  C  C11  1  0.091549  0.372917  0.255538  1
  C  C12  1  0.591549  0.627083  0.255538  1
  C  C13  1  0.091549  0.872917  0.244462  1
  C  C14  1  0.408451  0.872917  0.755538  1
  C  C15  1  0.908451  0.627083  0.744462  1
  N  N16  1  0.381885  0.340093  0.860750  1
  N  N17  1  0.881885  0.159907  0.639250  1
  N  N18  1  0.618115  0.159907  0.360750  1
  N  N19  1  0.118115  0.340093  0.139250  1
  N  N20  1  0.618115  0.659907  0.139250  1
  N  N21  1  0.118115  0.840093  0.360750  1
  N  N22  1  0.381885  0.840093  0.639250  1
  N  N23  1  0.881885  0.659907  0.860750  1
  N  N24  1  0.435396  0.406806  0.626196  1
  N  N25  1  0.935396  0.093194  0.873804  1
  N  N26  1  0.564604  0.093194  0.126196  1
  N  N27  1  0.064604  0.406806  0.373804  1
  N  N28  1  0.564604  0.593194  0.373804  1
  N  N29  1  0.064604  0.906806  0.126196  1
  N  N30  1  0.435396  0.906806  0.873804  1
  N  N31  1  0.935396  0.593194  0.626196  1
