# generated using pymatgen
data_Sr4CaY3(As7Ir8)2
_symmetry_space_group_name_H-M   'P 1'
_cell_length_a   4.10228100
_cell_length_b   13.28996189
_cell_length_c   13.73028903
_cell_angle_alpha   81.46163140
_cell_angle_beta   90.00000000
_cell_angle_gamma   90.00000000
_symmetry_Int_Tables_number   1
_chemical_formula_structural   Sr4CaY3(As7Ir8)2
_chemical_formula_sum   'Sr4 Ca1 Y3 As14 Ir16'
_cell_volume   740.26721154
_cell_formula_units_Z   1
loop_
 _symmetry_equiv_pos_site_id
 _symmetry_equiv_pos_as_xyz
  1  'x, y, z'
loop_
 _atom_site_type_symbol
 _atom_site_label
 _atom_site_symmetry_multiplicity
 _atom_site_fract_x
 _atom_site_fract_y
 _atom_site_fract_z
 _atom_site_occupancy
  Sr  Sr0  1  0.250000  0.105086  0.790240  1
  Sr  Sr1  1  0.750000  0.895184  0.209461  1
  Sr  Sr2  1  0.250000  0.285206  0.103264  1
  Sr  Sr3  1  0.750000  0.714816  0.896057  1
  Ca  Ca4  1  0.750000  0.789304  0.562339  1
  Y  Y5  1  0.250000  0.517534  0.292216  1
  Y  Y6  1  0.750000  0.482419  0.706917  1
  Y  Y7  1  0.250000  0.208375  0.440048  1
  As  As8  1  0.250000  0.056993  0.101910  1
  As  As9  1  0.750000  0.942904  0.897998  1
  As  As10  1  0.250000  0.315529  0.685680  1
  As  As11  1  0.750000  0.685087  0.313681  1
  As  As12  1  0.250000  0.608801  0.565664  1
  As  As13  1  0.750000  0.392198  0.434560  1
  As  As14  1  0.250000  0.842746  0.718567  1
  As  As15  1  0.750000  0.157005  0.280552  1
  As  As16  1  0.750000  0.257098  0.916575  1
  As  As17  1  0.250000  0.743531  0.083517  1
  As  As18  1  0.750000  0.095068  0.585668  1
  As  As19  1  0.250000  0.904490  0.414916  1
  As  As20  1  0.750000  0.468636  0.129683  1
  As  As21  1  0.250000  0.530457  0.871872  1
  Ir  Ir22  1  0.250000  0.986935  0.572687  1
  Ir  Ir23  1  0.750000  0.018378  0.426386  1
  Ir  Ir24  1  0.250000  0.658988  0.727557  1
  Ir  Ir25  1  0.750000  0.339337  0.274668  1
  Ir  Ir26  1  0.250000  0.550244  0.051990  1
  Ir  Ir27  1  0.750000  0.448659  0.949570  1
  Ir  Ir28  1  0.250000  0.059876  0.280861  1
  Ir  Ir29  1  0.750000  0.940375  0.719095  1
  Ir  Ir30  1  0.250000  0.426442  0.523964  1
  Ir  Ir31  1  0.750000  0.573901  0.475135  1
  Ir  Ir32  1  0.250000  0.920199  0.998771  1
  Ir  Ir33  1  0.750000  0.080048  0.001207  1
  Ir  Ir34  1  0.250000  0.721130  0.401451  1
  Ir  Ir35  1  0.750000  0.277365  0.595490  1
  Ir  Ir36  1  0.250000  0.348256  0.855992  1
  Ir  Ir37  1  0.750000  0.651400  0.143789  1
