# generated using pymatgen
data_Sc8Ti2Nb5Si16W5
_symmetry_space_group_name_H-M   'P 1'
_cell_length_a   6.60111363
_cell_length_b   6.83155793
_cell_length_c   12.98315776
_cell_angle_alpha   89.97702087
_cell_angle_beta   90.04479540
_cell_angle_gamma   89.91521878
_symmetry_Int_Tables_number   1
_chemical_formula_structural   Sc8Ti2Nb5Si16W5
_chemical_formula_sum   'Sc8 Ti2 Nb5 Si16 W5'
_cell_volume   585.48618875
_cell_formula_units_Z   1
loop_
 _symmetry_equiv_pos_site_id
 _symmetry_equiv_pos_as_xyz
  1  'x, y, z'
loop_
 _atom_site_type_symbol
 _atom_site_label
 _atom_site_symmetry_multiplicity
 _atom_site_fract_x
 _atom_site_fract_y
 _atom_site_fract_z
 _atom_site_occupancy
  Sc  Sc0  1  0.498612  0.672924  0.593659  1
  Sc  Sc1  1  0.999819  0.826836  0.905320  1
  Sc  Sc2  1  0.500546  0.324907  0.093234  1
  Sc  Sc3  1  0.000783  0.174865  0.408420  1
  Sc  Sc4  1  0.502284  0.325111  0.407108  1
  Sc  Sc5  1  0.000463  0.173874  0.092789  1
  Sc  Sc6  1  0.499703  0.674230  0.905370  1
  Sc  Sc7  1  0.000479  0.824739  0.593999  1
  Ti  Ti8  1  0.664959  0.168661  0.625725  1
  Ti  Ti9  1  0.166297  0.331775  0.872358  1
  Nb  Nb10  1  0.332204  0.830883  0.125270  1
  Nb  Nb11  1  0.834478  0.667101  0.375729  1
  Nb  Nb12  1  0.332536  0.831842  0.376593  1
  Nb  Nb13  1  0.834334  0.667735  0.125419  1
  Nb  Nb14  1  0.667040  0.169374  0.872696  1
  Si  Si15  1  0.669385  0.966914  0.460548  1
  Si  Si16  1  0.169759  0.532211  0.039290  1
  Si  Si17  1  0.328371  0.037934  0.956847  1
  Si  Si18  1  0.832359  0.461437  0.543986  1
  Si  Si19  1  0.329721  0.039481  0.543897  1
  Si  Si20  1  0.832914  0.465157  0.956946  1
  Si  Si21  1  0.668534  0.965451  0.040929  1
  Si  Si22  1  0.170588  0.533948  0.461316  1
  Si  Si23  1  0.464687  0.387610  0.748494  1
  Si  Si24  1  0.968038  0.114017  0.748050  1
  Si  Si25  1  0.532623  0.610681  0.250605  1
  Si  Si26  1  0.032147  0.890028  0.250632  1
  Si  Si27  1  0.705325  0.857412  0.747739  1
  Si  Si28  1  0.204107  0.641806  0.751263  1
  Si  Si29  1  0.294957  0.144186  0.250597  1
  Si  Si30  1  0.795881  0.354585  0.249829  1
  W  W31  1  0.167201  0.333704  0.626387  1
  W  W32  1  0.840732  0.493498  0.748604  1
  W  W33  1  0.340368  0.006211  0.748936  1
  W  W34  1  0.159099  0.504905  0.250560  1
  W  W35  1  0.658663  0.993970  0.250857  1
