# generated using pymatgen
data_CsK2AgSn4
_symmetry_space_group_name_H-M   'P 1'
_cell_length_a   6.85558000
_cell_length_b   7.36263800
_cell_length_c   12.54723300
_cell_angle_alpha   90.00000000
_cell_angle_beta   90.00000000
_cell_angle_gamma   90.00000000
_symmetry_Int_Tables_number   1
_chemical_formula_structural   CsK2AgSn4
_chemical_formula_sum   'Cs2 K4 Ag2 Sn8'
_cell_volume   633.32351569
_cell_formula_units_Z   2
loop_
 _symmetry_equiv_pos_site_id
 _symmetry_equiv_pos_as_xyz
  1  'x, y, z'
loop_
 _atom_site_type_symbol
 _atom_site_label
 _atom_site_symmetry_multiplicity
 _atom_site_fract_x
 _atom_site_fract_y
 _atom_site_fract_z
 _atom_site_occupancy
  Cs  Cs0  1  0.562791  0.000000  0.000000  1
  Cs  Cs1  1  0.437209  0.500000  0.500000  1
  K  K2  1  0.836069  0.500000  0.743073  1
  K  K3  1  0.836069  0.500000  0.256927  1
  K  K4  1  0.163931  0.000000  0.756927  1
  K  K5  1  0.163931  0.000000  0.243073  1
  Ag  Ag6  1  0.686850  0.500000  0.000000  1
  Ag  Ag7  1  0.313150  0.000000  0.500000  1
  Sn  Sn8  1  0.331569  0.500000  0.875173  1
  Sn  Sn9  1  0.331569  0.500000  0.124827  1
  Sn  Sn10  1  0.044609  0.285788  0.000000  1
  Sn  Sn11  1  0.044609  0.714212  0.000000  1
  Sn  Sn12  1  0.955391  0.785788  0.500000  1
  Sn  Sn13  1  0.955391  0.214212  0.500000  1
  Sn  Sn14  1  0.668431  0.000000  0.375173  1
  Sn  Sn15  1  0.668431  0.000000  0.624827  1
