# generated using pymatgen
data_PrEr2Th(Ga3Rh)6
_symmetry_space_group_name_H-M   'P 1'
_cell_length_a   7.62577657
_cell_length_b   7.62436656
_cell_length_c   9.53643100
_cell_angle_alpha   90.00000000
_cell_angle_beta   90.00000000
_cell_angle_gamma   119.69797575
_symmetry_Int_Tables_number   1
_chemical_formula_structural   PrEr2Th(Ga3Rh)6
_chemical_formula_sum   'Pr1 Er2 Th1 Ga18 Rh6'
_cell_volume   481.63501031
_cell_formula_units_Z   1
loop_
 _symmetry_equiv_pos_site_id
 _symmetry_equiv_pos_as_xyz
  1  'x, y, z'
loop_
 _atom_site_type_symbol
 _atom_site_label
 _atom_site_symmetry_multiplicity
 _atom_site_fract_x
 _atom_site_fract_y
 _atom_site_fract_z
 _atom_site_occupancy
  Pr  Pr0  1  0.669208  0.996810  0.250000  1
  Er  Er1  1  0.002748  0.331193  0.750000  1
  Er  Er2  1  0.330549  0.002159  0.750000  1
  Th  Th3  1  0.996888  0.668624  0.250000  1
  Ga  Ga4  1  0.129789  0.130290  0.250000  1
  Ga  Ga5  1  0.876262  0.877251  0.750000  1
  Ga  Ga6  1  0.002495  0.331445  0.073881  1
  Ga  Ga7  1  0.000453  0.665205  0.913937  1
  Ga  Ga8  1  0.000453  0.665205  0.586063  1
  Ga  Ga9  1  0.337326  0.005183  0.425998  1
  Ga  Ga10  1  0.002495  0.331445  0.426119  1
  Ga  Ga11  1  0.665395  0.001310  0.583419  1
  Ga  Ga12  1  0.665395  0.001310  0.916581  1
  Ga  Ga13  1  0.337326  0.005183  0.074002  1
  Ga  Ga14  1  0.331682  0.331562  0.567401  1
  Ga  Ga15  1  0.662647  0.665380  0.442595  1
  Ga  Ga16  1  0.662647  0.665380  0.057405  1
  Ga  Ga17  1  0.331682  0.331562  0.932599  1
  Ga  Ga18  1  0.338970  0.544180  0.250000  1
  Ga  Ga19  1  0.660321  0.450358  0.750000  1
  Ga  Ga20  1  0.542902  0.337416  0.250000  1
  Ga  Ga21  1  0.450602  0.661181  0.750000  1
  Rh  Rh22  1  0.673164  0.330976  0.999405  1
  Rh  Rh23  1  0.326191  0.670493  0.999202  1
  Rh  Rh24  1  0.326191  0.670493  0.500798  1
  Rh  Rh25  1  0.673164  0.330976  0.500595  1
  Rh  Rh26  1  0.001525  0.998714  0.999119  1
  Rh  Rh27  1  0.001525  0.998714  0.500881  1
