# generated using pymatgen
data_Dy2TmIn3Ag2Rh
_symmetry_space_group_name_H-M   'P 1'
_cell_length_a   7.93005632
_cell_length_b   7.91347632
_cell_length_c   3.76072800
_cell_angle_alpha   90.00000000
_cell_angle_beta   90.00000000
_cell_angle_gamma   119.96465014
_symmetry_Int_Tables_number   1
_chemical_formula_structural   Dy2TmIn3Ag2Rh
_chemical_formula_sum   'Dy2 Tm1 In3 Ag2 Rh1'
_cell_volume   204.45640647
_cell_formula_units_Z   1
loop_
 _symmetry_equiv_pos_site_id
 _symmetry_equiv_pos_as_xyz
  1  'x, y, z'
loop_
 _atom_site_type_symbol
 _atom_site_label
 _atom_site_symmetry_multiplicity
 _atom_site_fract_x
 _atom_site_fract_y
 _atom_site_fract_z
 _atom_site_occupancy
  Dy  Dy0  1  0.969558  0.389388  0.500000  1
  Dy  Dy1  1  0.609963  0.579859  0.500000  1
  Tm  Tm2  1  0.421040  0.031816  0.500000  1
  In  In3  1  0.269100  0.274926  0.000000  1
  In  In4  1  0.008107  0.731977  0.000000  1
  In  In5  1  0.724019  0.993325  0.000000  1
  Ag  Ag6  1  0.333592  0.668358  0.000000  1
  Ag  Ag7  1  0.000272  0.999875  0.500000  1
  Rh  Rh8  1  0.664348  0.330475  0.000000  1
