# generated using pymatgen
data_Th8Si15Rh
_symmetry_space_group_name_H-M   'P 1'
_cell_length_a   8.25494800
_cell_length_b   8.25494692
_cell_length_c   8.32347200
_cell_angle_alpha   90.00000000
_cell_angle_beta   90.00000000
_cell_angle_gamma   119.99999633
_symmetry_Int_Tables_number   1
_chemical_formula_structural   Th8Si15Rh
_chemical_formula_sum   'Th8 Si15 Rh1'
_cell_volume   491.20615197
_cell_formula_units_Z   1
loop_
 _symmetry_equiv_pos_site_id
 _symmetry_equiv_pos_as_xyz
  1  'x, y, z'
loop_
 _atom_site_type_symbol
 _atom_site_label
 _atom_site_symmetry_multiplicity
 _atom_site_fract_x
 _atom_site_fract_y
 _atom_site_fract_z
 _atom_site_occupancy
  Th  Th0  1  0.000000  0.000000  0.746943  1
  Th  Th1  1  0.000000  0.000000  0.253108  1
  Th  Th2  1  0.500636  0.499364  0.745791  1
  Th  Th3  1  0.500636  0.001274  0.745791  1
  Th  Th4  1  0.998726  0.499364  0.745791  1
  Th  Th5  1  0.501005  0.498995  0.254162  1
  Th  Th6  1  0.997991  0.498995  0.254162  1
  Th  Th7  1  0.501005  0.002009  0.254162  1
  Si  Si8  1  0.666667  0.333333  0.999797  1
  Si  Si9  1  0.666667  0.333333  0.500478  1
  Si  Si10  1  0.333333  0.666667  0.499543  1
  Si  Si11  1  0.832700  0.167300  0.999864  1
  Si  Si12  1  0.832700  0.665398  0.999864  1
  Si  Si13  1  0.334602  0.167300  0.999864  1
  Si  Si14  1  0.831864  0.168136  0.500025  1
  Si  Si15  1  0.831864  0.663728  0.500025  1
  Si  Si16  1  0.336272  0.168136  0.500025  1
  Si  Si17  1  0.165615  0.834385  0.499984  1
  Si  Si18  1  0.668772  0.834385  0.499984  1
  Si  Si19  1  0.165615  0.331228  0.499984  1
  Si  Si20  1  0.166129  0.833871  0.000138  1
  Si  Si21  1  0.667741  0.833871  0.000138  1
  Si  Si22  1  0.166129  0.332259  0.000138  1
  Rh  Rh23  1  0.333333  0.666667  0.000239  1
