# generated using pymatgen
data_Tb3CeHgIr
_symmetry_space_group_name_H-M   'P 1'
_cell_length_a   9.68734810
_cell_length_b   9.68734957
_cell_length_c   9.68734900
_cell_angle_alpha   59.99999852
_cell_angle_beta   59.99999351
_cell_angle_gamma   60.00000266
_symmetry_Int_Tables_number   1
_chemical_formula_structural   Tb3CeHgIr
_chemical_formula_sum   'Tb12 Ce4 Hg4 Ir4'
_cell_volume   642.83543445
_cell_formula_units_Z   4
loop_
 _symmetry_equiv_pos_site_id
 _symmetry_equiv_pos_as_xyz
  1  'x, y, z'
loop_
 _atom_site_type_symbol
 _atom_site_label
 _atom_site_symmetry_multiplicity
 _atom_site_fract_x
 _atom_site_fract_y
 _atom_site_fract_z
 _atom_site_occupancy
  Tb  Tb0  1  0.061131  0.438869  0.438869  1
  Tb  Tb1  1  0.438869  0.061131  0.061131  1
  Tb  Tb2  1  0.438869  0.061131  0.438869  1
  Tb  Tb3  1  0.061131  0.438869  0.061131  1
  Tb  Tb4  1  0.438869  0.438869  0.061131  1
  Tb  Tb5  1  0.061131  0.061131  0.438869  1
  Tb  Tb6  1  0.187793  0.812207  0.812207  1
  Tb  Tb7  1  0.812207  0.187793  0.187793  1
  Tb  Tb8  1  0.812207  0.187793  0.812207  1
  Tb  Tb9  1  0.187793  0.812207  0.187793  1
  Tb  Tb10  1  0.812207  0.812207  0.187793  1
  Tb  Tb11  1  0.187793  0.187793  0.812207  1
  Ce  Ce12  1  0.600111  0.600111  0.600111  1
  Ce  Ce13  1  0.600111  0.600111  0.199670  1
  Ce  Ce14  1  0.600111  0.199670  0.600111  1
  Ce  Ce15  1  0.199670  0.600111  0.600111  1
  Hg  Hg16  1  0.835818  0.835818  0.835818  1
  Hg  Hg17  1  0.835818  0.835818  0.492546  1
  Hg  Hg18  1  0.835818  0.492546  0.835818  1
  Hg  Hg19  1  0.492546  0.835818  0.835818  1
  Ir  Ir20  1  0.393596  0.393596  0.393596  1
  Ir  Ir21  1  0.393596  0.393596  0.819210  1
  Ir  Ir22  1  0.393596  0.819210  0.393596  1
  Ir  Ir23  1  0.819210  0.393596  0.393596  1
