# generated using pymatgen
data_Y14Tm2MgHg3Rh4
_symmetry_space_group_name_H-M   'P 1'
_cell_length_a   9.65140608
_cell_length_b   9.63083138
_cell_length_c   9.66008200
_cell_angle_alpha   59.89947977
_cell_angle_beta   59.97025926
_cell_angle_gamma   59.85792868
_symmetry_Int_Tables_number   1
_chemical_formula_structural   Y14Tm2MgHg3Rh4
_chemical_formula_sum   'Y14 Tm2 Mg1 Hg3 Rh4'
_cell_volume   633.61296075
_cell_formula_units_Z   1
loop_
 _symmetry_equiv_pos_site_id
 _symmetry_equiv_pos_as_xyz
  1  'x, y, z'
loop_
 _atom_site_type_symbol
 _atom_site_label
 _atom_site_symmetry_multiplicity
 _atom_site_fract_x
 _atom_site_fract_y
 _atom_site_fract_z
 _atom_site_occupancy
  Y  Y0  1  0.602115  0.202075  0.597906  1
  Y  Y1  1  0.190108  0.603879  0.603008  1
  Y  Y2  1  0.057676  0.440830  0.441704  1
  Y  Y3  1  0.437090  0.061003  0.062427  1
  Y  Y4  1  0.437090  0.061003  0.439479  1
  Y  Y5  1  0.057676  0.440830  0.059791  1
  Y  Y6  1  0.438142  0.439290  0.061283  1
  Y  Y7  1  0.058808  0.059908  0.440642  1
  Y  Y8  1  0.186646  0.812432  0.813241  1
  Y  Y9  1  0.811809  0.187843  0.185987  1
  Y  Y10  1  0.811809  0.187843  0.814360  1
  Y  Y11  1  0.186646  0.812432  0.187681  1
  Y  Y12  1  0.811429  0.813118  0.187727  1
  Y  Y13  1  0.185288  0.187356  0.813678  1
  Tm  Tm14  1  0.599594  0.597582  0.596208  1
  Tm  Tm15  1  0.599594  0.597582  0.206617  1
  Mg  Mg16  1  0.534770  0.820586  0.822321  1
  Hg  Hg17  1  0.831818  0.836038  0.837227  1
  Hg  Hg18  1  0.831818  0.836038  0.494916  1
  Hg  Hg19  1  0.831625  0.494518  0.836928  1
  Rh  Rh20  1  0.391837  0.396286  0.391136  1
  Rh  Rh21  1  0.391837  0.396286  0.820742  1
  Rh  Rh22  1  0.394284  0.818688  0.393514  1
  Rh  Rh23  1  0.820491  0.396555  0.391477  1
