# generated using pymatgen
data_La10Nd10(Ir3Ru)3
_symmetry_space_group_name_H-M   'P 1'
_cell_length_a   11.32386380
_cell_length_b   11.32628649
_cell_length_c   6.64282367
_cell_angle_alpha   90.13088016
_cell_angle_beta   90.11492251
_cell_angle_gamma   89.98488323
_symmetry_Int_Tables_number   1
_chemical_formula_structural   La10Nd10(Ir3Ru)3
_chemical_formula_sum   'La10 Nd10 Ir9 Ru3'
_cell_volume   851.98683211
_cell_formula_units_Z   1
loop_
 _symmetry_equiv_pos_site_id
 _symmetry_equiv_pos_as_xyz
  1  'x, y, z'
loop_
 _atom_site_type_symbol
 _atom_site_label
 _atom_site_symmetry_multiplicity
 _atom_site_fract_x
 _atom_site_fract_y
 _atom_site_fract_z
 _atom_site_occupancy
  La  La0  1  0.090038  0.291342  0.114106  1
  La  La1  1  0.791392  0.410415  0.114787  1
  La  La2  1  0.208953  0.590703  0.113336  1
  La  La3  1  0.909770  0.708775  0.114005  1
  La  La4  1  0.411651  0.794183  0.388874  1
  La  La5  1  0.588816  0.207539  0.390141  1
  La  La6  1  0.292915  0.087077  0.389288  1
  La  La7  1  0.706155  0.909926  0.389679  1
  La  La8  1  0.409859  0.205610  0.888699  1
  La  La9  1  0.706335  0.087792  0.888808  1
  Nd  Nd10  1  0.293310  0.909707  0.886897  1
  Nd  Nd11  1  0.587861  0.792539  0.887035  1
  Nd  Nd12  1  0.088987  0.707369  0.612274  1
  Nd  Nd13  1  0.911523  0.293635  0.611248  1
  Nd  Nd14  1  0.206610  0.411715  0.610873  1
  Nd  Nd15  1  0.792885  0.589142  0.612688  1
  Nd  Nd16  1  0.001155  0.998808  0.997127  1
  Nd  Nd17  1  0.500280  0.500819  0.997082  1
  Nd  Nd18  1  0.499628  0.500402  0.499249  1
  Nd  Nd19  1  0.999825  0.000232  0.499268  1
  Ir  Ir20  1  0.152524  0.846738  0.249716  1
  Ir  Ir21  1  0.346972  0.347118  0.248273  1
  Ir  Ir22  1  0.652906  0.652667  0.249881  1
  Ir  Ir23  1  0.846931  0.152611  0.248426  1
  Ir  Ir24  1  0.346616  0.652829  0.749164  1
  Ir  Ir25  1  0.151798  0.153522  0.749483  1
  Ir  Ir26  1  0.848132  0.845305  0.748401  1
  Ir  Ir27  1  0.654950  0.349486  0.748513  1
  Ir  Ir28  1  0.000032  0.500286  0.880361  1
  Ru  Ru29  1  0.000152  0.499815  0.376225  1
  Ru  Ru30  1  0.500229  0.000116  0.124676  1
  Ru  Ru31  1  0.500809  0.001776  0.621411  1
