# generated using pymatgen
data_Dy13Ho7(Ga2Pb)4
_symmetry_space_group_name_H-M   'P 1'
_cell_length_a   8.22401101
_cell_length_b   8.22384633
_cell_length_c   12.66619800
_cell_angle_alpha   89.99767301
_cell_angle_beta   90.00206220
_cell_angle_gamma   89.96749192
_symmetry_Int_Tables_number   1
_chemical_formula_structural   Dy13Ho7(Ga2Pb)4
_chemical_formula_sum   'Dy13 Ho7 Ga8 Pb4'
_cell_volume   856.65286474
_cell_formula_units_Z   1
loop_
 _symmetry_equiv_pos_site_id
 _symmetry_equiv_pos_as_xyz
  1  'x, y, z'
loop_
 _atom_site_type_symbol
 _atom_site_label
 _atom_site_symmetry_multiplicity
 _atom_site_fract_x
 _atom_site_fract_y
 _atom_site_fract_z
 _atom_site_occupancy
  Dy  Dy0  1  0.651862  0.651980  0.607772  1
  Dy  Dy1  1  0.652229  0.348556  0.107208  1
  Dy  Dy2  1  0.847855  0.848465  0.392692  1
  Dy  Dy3  1  0.152205  0.848644  0.892600  1
  Dy  Dy4  1  0.348048  0.348326  0.607650  1
  Dy  Dy5  1  0.348357  0.652263  0.107272  1
  Dy  Dy6  1  0.151698  0.152130  0.392594  1
  Dy  Dy7  1  0.848586  0.152107  0.892579  1
  Dy  Dy8  1  0.652657  0.347212  0.392490  1
  Dy  Dy9  1  0.347570  0.347477  0.892662  1
  Dy  Dy10  1  0.152113  0.847774  0.607766  1
  Dy  Dy11  1  0.847393  0.847243  0.106951  1
  Dy  Dy12  1  0.347811  0.652191  0.392227  1
  Ho  Ho13  1  0.999769  0.500104  0.749756  1
  Ho  Ho14  1  0.000184  0.499929  0.249634  1
  Ho  Ho15  1  0.499839  0.000233  0.250158  1
  Ho  Ho16  1  0.500433  0.000053  0.750289  1
  Ho  Ho17  1  0.651560  0.651638  0.891384  1
  Ho  Ho18  1  0.848273  0.151858  0.608716  1
  Ho  Ho19  1  0.151753  0.151772  0.108261  1
  Ga  Ga20  1  0.849642  0.849796  0.750218  1
  Ga  Ga21  1  0.849987  0.149827  0.249144  1
  Ga  Ga22  1  0.650433  0.650303  0.250172  1
  Ga  Ga23  1  0.349846  0.650161  0.750506  1
  Ga  Ga24  1  0.150275  0.150423  0.749644  1
  Ga  Ga25  1  0.149869  0.849972  0.249620  1
  Ga  Ga26  1  0.349696  0.349557  0.249664  1
  Ga  Ga27  1  0.650237  0.349768  0.750313  1
  Pb  Pb28  1  0.999474  0.499602  0.499934  1
  Pb  Pb29  1  0.000103  0.500093  0.999665  1
  Pb  Pb30  1  0.500539  0.000533  0.500268  1
  Pb  Pb31  1  0.499701  0.000008  0.000189  1
