# generated using pymatgen
data_Th14Os4RuPt
_symmetry_space_group_name_H-M   'P 1'
_cell_length_a   10.04683135
_cell_length_b   10.05500395
_cell_length_c   6.33790883
_cell_angle_alpha   89.86305803
_cell_angle_beta   90.10790360
_cell_angle_gamma   119.88587727
_symmetry_Int_Tables_number   1
_chemical_formula_structural   Th14Os4RuPt
_chemical_formula_sum   'Th14 Os4 Ru1 Pt1'
_cell_volume   555.11744913
_cell_formula_units_Z   1
loop_
 _symmetry_equiv_pos_site_id
 _symmetry_equiv_pos_as_xyz
  1  'x, y, z'
loop_
 _atom_site_type_symbol
 _atom_site_label
 _atom_site_symmetry_multiplicity
 _atom_site_fract_x
 _atom_site_fract_y
 _atom_site_fract_z
 _atom_site_occupancy
  Th  Th0  1  0.456885  0.538924  0.299591  1
  Th  Th1  1  0.083786  0.540700  0.297226  1
  Th  Th2  1  0.920618  0.454211  0.795121  1
  Th  Th3  1  0.253043  0.125847  0.499750  1
  Th  Th4  1  0.542792  0.083938  0.799267  1
  Th  Th5  1  0.742393  0.877766  0.999660  1
  Th  Th6  1  0.664204  0.328616  0.294667  1
  Th  Th7  1  0.133831  0.876618  0.000558  1
  Th  Th8  1  0.457264  0.916402  0.300840  1
  Th  Th9  1  0.534898  0.456231  0.795858  1
  Th  Th10  1  0.873765  0.125799  0.500090  1
  Th  Th11  1  0.125423  0.252019  0.999968  1
  Th  Th12  1  0.876078  0.750880  0.506613  1
  Th  Th13  1  0.332837  0.666143  0.786631  1
  Os  Os14  1  0.627352  0.813259  0.551162  1
  Os  Os15  1  0.375809  0.189007  0.050159  1
  Os  Os16  1  0.184876  0.373499  0.550839  1
  Os  Os17  1  0.185519  0.811910  0.552572  1
  Ru  Ru18  1  0.814805  0.191908  0.049148  1
  Pt  Pt19  1  0.813821  0.626325  0.054277  1
