# generated using pymatgen
data_Sr15La4NdPt16
_symmetry_space_group_name_H-M   'P 1'
_cell_length_a   7.95283114
_cell_length_b   8.10741617
_cell_length_c   15.61885237
_cell_angle_alpha   90.08525924
_cell_angle_beta   90.09940309
_cell_angle_gamma   90.06191277
_symmetry_Int_Tables_number   1
_chemical_formula_structural   Sr15La4NdPt16
_chemical_formula_sum   'Sr15 La4 Nd1 Pt16'
_cell_volume   1007.05214569
_cell_formula_units_Z   1
loop_
 _symmetry_equiv_pos_site_id
 _symmetry_equiv_pos_as_xyz
  1  'x, y, z'
loop_
 _atom_site_type_symbol
 _atom_site_label
 _atom_site_symmetry_multiplicity
 _atom_site_fract_x
 _atom_site_fract_y
 _atom_site_fract_z
 _atom_site_occupancy
  Sr  Sr0  1  0.164222  0.328608  0.379970  1
  Sr  Sr1  1  0.337153  0.828303  0.619302  1
  Sr  Sr2  1  0.837902  0.671429  0.882254  1
  Sr  Sr3  1  0.492547  0.323199  0.903826  1
  Sr  Sr4  1  0.991057  0.178664  0.597667  1
  Sr  Sr5  1  0.508239  0.679693  0.402032  1
  Sr  Sr6  1  0.008459  0.821140  0.096127  1
  Sr  Sr7  1  0.505827  0.679088  0.095450  1
  Sr  Sr8  1  0.005974  0.819245  0.406895  1
  Sr  Sr9  1  0.494706  0.319406  0.594109  1
  Sr  Sr10  1  0.993607  0.180396  0.905489  1
  Sr  Sr11  1  0.175031  0.486754  0.749870  1
  Sr  Sr12  1  0.675953  0.014392  0.751272  1
  Sr  Sr13  1  0.827328  0.516807  0.249824  1
  Sr  Sr14  1  0.321032  0.984579  0.250408  1
  La  La15  1  0.336228  0.833611  0.878224  1
  La  La16  1  0.834458  0.669461  0.623750  1
  La  La17  1  0.664956  0.169151  0.375397  1
  La  La18  1  0.163623  0.330077  0.121902  1
  Nd  Nd19  1  0.662255  0.170537  0.121155  1
  Pt  Pt20  1  0.329287  0.043250  0.039226  1
  Pt  Pt21  1  0.818148  0.459152  0.463578  1
  Pt  Pt22  1  0.681833  0.958426  0.534944  1
  Pt  Pt23  1  0.177010  0.542451  0.965027  1
  Pt  Pt24  1  0.651336  0.973894  0.961503  1
  Pt  Pt25  1  0.139509  0.531636  0.543937  1
  Pt  Pt26  1  0.359095  0.031662  0.455010  1
  Pt  Pt27  1  0.845287  0.453251  0.044732  1
  Pt  Pt28  1  0.543768  0.625828  0.754285  1
  Pt  Pt29  1  0.045213  0.877039  0.749267  1
  Pt  Pt30  1  0.461222  0.370650  0.244678  1
  Pt  Pt31  1  0.950281  0.126393  0.243439  1
  Pt  Pt32  1  0.288507  0.120034  0.756199  1
  Pt  Pt33  1  0.785952  0.381576  0.744704  1
  Pt  Pt34  1  0.706563  0.884478  0.249638  1
  Pt  Pt35  1  0.216429  0.615742  0.244909  1
