# generated using pymatgen
data_Er6Al24Fe5Cu3
_symmetry_space_group_name_H-M   'P 1'
_cell_length_a   8.69879271
_cell_length_b   8.66507053
_cell_length_c   9.27108627
_cell_angle_alpha   90.02297251
_cell_angle_beta   90.00729033
_cell_angle_gamma   119.64295323
_symmetry_Int_Tables_number   1
_chemical_formula_structural   Er6Al24Fe5Cu3
_chemical_formula_sum   'Er6 Al24 Fe5 Cu3'
_cell_volume   607.35635247
_cell_formula_units_Z   1
loop_
 _symmetry_equiv_pos_site_id
 _symmetry_equiv_pos_as_xyz
  1  'x, y, z'
loop_
 _atom_site_type_symbol
 _atom_site_label
 _atom_site_symmetry_multiplicity
 _atom_site_fract_x
 _atom_site_fract_y
 _atom_site_fract_z
 _atom_site_occupancy
  Er  Er0  1  0.190597  0.387802  0.253150  1
  Er  Er1  1  0.809403  0.612198  0.746850  1
  Er  Er2  1  0.614031  0.808614  0.248701  1
  Er  Er3  1  0.385969  0.191386  0.751299  1
  Er  Er4  1  0.193027  0.803458  0.249579  1
  Er  Er5  1  0.806973  0.196542  0.750421  1
  Al  Al6  1  0.324288  0.661775  0.020727  1
  Al  Al7  1  0.675712  0.338225  0.979273  1
  Al  Al8  1  0.670299  0.328433  0.520878  1
  Al  Al9  1  0.329701  0.671567  0.479122  1
  Al  Al10  1  0.152636  0.321004  0.575304  1
  Al  Al11  1  0.847364  0.678996  0.424696  1
  Al  Al12  1  0.680316  0.848713  0.573499  1
  Al  Al13  1  0.847506  0.679911  0.076621  1
  Al  Al14  1  0.319684  0.151287  0.426501  1
  Al  Al15  1  0.152494  0.320089  0.923379  1
  Al  Al16  1  0.161984  0.837966  0.574746  1
  Al  Al17  1  0.315792  0.158451  0.079432  1
  Al  Al18  1  0.838016  0.162034  0.425254  1
  Al  Al19  1  0.684208  0.841549  0.920568  1
  Al  Al20  1  0.846644  0.168085  0.078686  1
  Al  Al21  1  0.153356  0.831915  0.921314  1
  Al  Al22  1  0.560596  0.121426  0.256477  1
  Al  Al23  1  0.439404  0.878574  0.743523  1
  Al  Al24  1  0.882346  0.441343  0.250332  1
  Al  Al25  1  0.117654  0.558657  0.749668  1
  Al  Al26  1  0.561848  0.437590  0.250280  1
  Al  Al27  1  0.438152  0.562410  0.749720  1
  Al  Al28  1  0.997893  0.999777  0.250794  1
  Al  Al29  1  0.002107  0.000223  0.749206  1
  Fe  Fe30  1  0.000000  0.500000  0.000000  1
  Fe  Fe31  1  0.500000  0.000000  0.500000  1
  Fe  Fe32  1  0.000000  0.500000  0.500000  1
  Fe  Fe33  1  0.000000  0.000000  0.000000  1
  Fe  Fe34  1  0.000000  0.000000  0.500000  1
  Cu  Cu35  1  0.500000  0.000000  0.000000  1
  Cu  Cu36  1  0.500000  0.500000  0.000000  1
  Cu  Cu37  1  0.500000  0.500000  0.500000  1
