# generated using pymatgen
data_Si2Mo12Pt3Rh3N4
_symmetry_space_group_name_H-M   'P 1'
_cell_length_a   6.85232356
_cell_length_b   6.82241022
_cell_length_c   6.85917882
_cell_angle_alpha   89.52850085
_cell_angle_beta   89.98047090
_cell_angle_gamma   89.95782801
_symmetry_Int_Tables_number   1
_chemical_formula_structural   Si2Mo12Pt3Rh3N4
_chemical_formula_sum   'Si2 Mo12 Pt3 Rh3 N4'
_cell_volume   320.65127332
_cell_formula_units_Z   1
loop_
 _symmetry_equiv_pos_site_id
 _symmetry_equiv_pos_as_xyz
  1  'x, y, z'
loop_
 _atom_site_type_symbol
 _atom_site_label
 _atom_site_symmetry_multiplicity
 _atom_site_fract_x
 _atom_site_fract_y
 _atom_site_fract_z
 _atom_site_occupancy
  Si  Si0  1  0.681916  0.173590  0.933335  1
  Si  Si1  1  0.184557  0.829335  0.063415  1
  Mo  Mo2  1  0.619020  0.047172  0.544505  1
  Mo  Mo3  1  0.119633  0.955226  0.455887  1
  Mo  Mo4  1  0.867109  0.532041  0.944027  1
  Mo  Mo5  1  0.369319  0.466164  0.053077  1
  Mo  Mo6  1  0.204508  0.625395  0.705627  1
  Mo  Mo7  1  0.299919  0.123201  0.786242  1
  Mo  Mo8  1  0.797927  0.878041  0.213620  1
  Mo  Mo9  1  0.702652  0.374763  0.296580  1
  Mo  Mo10  1  0.043426  0.204378  0.127779  1
  Mo  Mo11  1  0.961037  0.297638  0.627743  1
  Mo  Mo12  1  0.545456  0.793708  0.870859  1
  Mo  Mo13  1  0.462748  0.700313  0.374466  1
  Pt  Pt14  1  0.811917  0.685602  0.568584  1
  Pt  Pt15  1  0.314363  0.313934  0.433474  1
  Pt  Pt16  1  0.066407  0.580344  0.292198  1
  Rh  Rh17  1  0.435625  0.059705  0.165650  1
  Rh  Rh18  1  0.566235  0.420332  0.708410  1
  Rh  Rh19  1  0.935307  0.939328  0.835281  1
  N  N20  1  0.375317  0.871777  0.617426  1
  N  N21  1  0.874896  0.128386  0.382259  1
  N  N22  1  0.130546  0.374097  0.875986  1
  N  N23  1  0.630162  0.625530  0.123570  1
