# generated using pymatgen
data_MnNb4Co3P4
_symmetry_space_group_name_H-M   'P 1'
_cell_length_a   3.60386600
_cell_length_b   6.16848905
_cell_length_c   6.99949104
_cell_angle_alpha   89.98639644
_cell_angle_beta   90.00000000
_cell_angle_gamma   90.00000000
_symmetry_Int_Tables_number   1
_chemical_formula_structural   MnNb4Co3P4
_chemical_formula_sum   'Mn1 Nb4 Co3 P4'
_cell_volume   155.60153699
_cell_formula_units_Z   1
loop_
 _symmetry_equiv_pos_site_id
 _symmetry_equiv_pos_as_xyz
  1  'x, y, z'
loop_
 _atom_site_type_symbol
 _atom_site_label
 _atom_site_symmetry_multiplicity
 _atom_site_fract_x
 _atom_site_fract_y
 _atom_site_fract_z
 _atom_site_occupancy
  Mn  Mn0  1  0.250000  0.639326  0.059720  1
  Nb  Nb1  1  0.250000  0.524180  0.676804  1
  Nb  Nb2  1  0.750000  0.479083  0.324737  1
  Nb  Nb3  1  0.250000  0.026274  0.827814  1
  Nb  Nb4  1  0.750000  0.974675  0.171526  1
  Co  Co5  1  0.750000  0.853874  0.562459  1
  Co  Co6  1  0.250000  0.143596  0.439001  1
  Co  Co7  1  0.750000  0.357281  0.938162  1
  P  P8  1  0.250000  0.277555  0.120687  1
  P  P9  1  0.750000  0.724513  0.881170  1
  P  P10  1  0.250000  0.777135  0.377370  1
  P  P11  1  0.750000  0.222507  0.620551  1
