# generated using pymatgen
data_Tb3Dy4Y(PS)8
_symmetry_space_group_name_H-M   'P 1'
_cell_length_a   5.33167300
_cell_length_b   5.38862602
_cell_length_c   16.79024307
_cell_angle_alpha   90.01082419
_cell_angle_beta   90.00000000
_cell_angle_gamma   90.00000000
_symmetry_Int_Tables_number   1
_chemical_formula_structural   Tb3Dy4Y(PS)8
_chemical_formula_sum   'Tb3 Dy4 Y1 P8 S8'
_cell_volume   482.39025469
_cell_formula_units_Z   1
loop_
 _symmetry_equiv_pos_site_id
 _symmetry_equiv_pos_as_xyz
  1  'x, y, z'
loop_
 _atom_site_type_symbol
 _atom_site_label
 _atom_site_symmetry_multiplicity
 _atom_site_fract_x
 _atom_site_fract_y
 _atom_site_fract_z
 _atom_site_occupancy
  Tb  Tb0  1  0.250000  0.484322  0.362524  1
  Tb  Tb1  1  0.250000  0.984307  0.137495  1
  Tb  Tb2  1  0.750000  0.515674  0.637447  1
  Dy  Dy3  1  0.250000  0.014654  0.646031  1
  Dy  Dy4  1  0.250000  0.514729  0.853898  1
  Dy  Dy5  1  0.750000  0.985369  0.353945  1
  Dy  Dy6  1  0.750000  0.485381  0.146059  1
  Y  Y7  1  0.750000  0.015963  0.862388  1
  P  P8  1  0.036100  0.295835  0.997329  1
  P  P9  1  0.463792  0.796037  0.502675  1
  P  P10  1  0.536149  0.704021  0.002663  1
  P  P11  1  0.963783  0.203955  0.497319  1
  P  P12  1  0.963851  0.704021  0.002663  1
  P  P13  1  0.536217  0.203955  0.497319  1
  P  P14  1  0.463900  0.295835  0.997329  1
  P  P15  1  0.036208  0.796037  0.502675  1
  S  S16  1  0.250000  0.484776  0.188769  1
  S  S17  1  0.250000  0.984767  0.311242  1
  S  S18  1  0.750000  0.515249  0.811313  1
  S  S19  1  0.750000  0.015181  0.688840  1
  S  S20  1  0.250000  0.011201  0.815793  1
  S  S21  1  0.250000  0.511251  0.684321  1
  S  S22  1  0.750000  0.988737  0.184294  1
  S  S23  1  0.750000  0.488742  0.315669  1
