# generated using pymatgen
data_Li2LaLu2Al7
_symmetry_space_group_name_H-M   'P 1'
_cell_length_a   9.36471180
_cell_length_b   9.36471138
_cell_length_c   9.36471078
_cell_angle_alpha   34.39799765
_cell_angle_beta   34.39800121
_cell_angle_gamma   34.39798925
_symmetry_Int_Tables_number   1
_chemical_formula_structural   Li2LaLu2Al7
_chemical_formula_sum   'Li2 La1 Lu2 Al7'
_cell_volume   233.79497688
_cell_formula_units_Z   1
loop_
 _symmetry_equiv_pos_site_id
 _symmetry_equiv_pos_as_xyz
  1  'x, y, z'
loop_
 _atom_site_type_symbol
 _atom_site_label
 _atom_site_symmetry_multiplicity
 _atom_site_fract_x
 _atom_site_fract_y
 _atom_site_fract_z
 _atom_site_occupancy
  Li  Li0  1  0.664650  0.664650  0.664650  1
  Li  Li1  1  0.335350  0.335350  0.335350  1
  La  La2  1  0.000000  0.000000  0.000000  1
  Lu  Lu3  1  0.142031  0.142031  0.142031  1
  Lu  Lu4  1  0.857969  0.857969  0.857969  1
  Al  Al5  1  0.412476  0.412476  0.921998  1
  Al  Al6  1  0.921998  0.412476  0.412476  1
  Al  Al7  1  0.500000  0.500000  0.500000  1
  Al  Al8  1  0.587524  0.587524  0.078002  1
  Al  Al9  1  0.412476  0.921998  0.412476  1
  Al  Al10  1  0.078002  0.587524  0.587524  1
  Al  Al11  1  0.587524  0.078002  0.587524  1
