# generated using pymatgen
data_Y5CoRuO12
_symmetry_space_group_name_H-M   'P 1'
_cell_length_a   6.80734254
_cell_length_b   6.80734352
_cell_length_c   7.26105669
_cell_angle_alpha   74.46187875
_cell_angle_beta   74.46187797
_cell_angle_gamma   50.86162866
_symmetry_Int_Tables_number   1
_chemical_formula_structural   Y5CoRuO12
_chemical_formula_sum   'Y5 Co1 Ru1 O12'
_cell_volume   249.23414023
_cell_formula_units_Z   1
loop_
 _symmetry_equiv_pos_site_id
 _symmetry_equiv_pos_as_xyz
  1  'x, y, z'
loop_
 _atom_site_type_symbol
 _atom_site_label
 _atom_site_symmetry_multiplicity
 _atom_site_fract_x
 _atom_site_fract_y
 _atom_site_fract_z
 _atom_site_occupancy
  Y  Y0  1  0.685905  0.693915  0.668508  1
  Y  Y1  1  0.678176  0.712692  0.142453  1
  Y  Y2  1  0.995187  0.004813  0.000000  1
  Y  Y3  1  0.287308  0.321824  0.857547  1
  Y  Y4  1  0.306085  0.314095  0.331492  1
  Co  Co5  1  0.260006  0.739994  0.500000  1
  Ru  Ru6  1  0.771746  0.228254  0.500000  1
  O  O7  1  0.396249  0.913862  0.921458  1
  O  O8  1  0.578266  0.102450  0.581977  1
  O  O9  1  0.897550  0.421734  0.418023  1
  O  O10  1  0.086138  0.603751  0.078542  1
  O  O11  1  0.016866  0.983378  0.325060  1
  O  O12  1  0.504194  0.495730  0.680846  1
  O  O13  1  0.892829  0.405436  0.929212  1
  O  O14  1  0.097924  0.569885  0.581640  1
  O  O15  1  0.430115  0.902076  0.418360  1
  O  O16  1  0.594564  0.107171  0.070788  1
  O  O17  1  0.504270  0.495806  0.319154  1
  O  O18  1  0.016622  0.983134  0.674940  1
