# generated using pymatgen
data_Y2B4OsRh4
_symmetry_space_group_name_H-M   'P 1'
_cell_length_a   7.48631796
_cell_length_b   6.34557981
_cell_length_c   5.55286569
_cell_angle_alpha   77.66421066
_cell_angle_beta   55.89935205
_cell_angle_gamma   46.43644493
_symmetry_Int_Tables_number   1
_chemical_formula_structural   Y2B4OsRh4
_chemical_formula_sum   'Y2 B4 Os1 Rh4'
_cell_volume   151.57714138
_cell_formula_units_Z   1
loop_
 _symmetry_equiv_pos_site_id
 _symmetry_equiv_pos_as_xyz
  1  'x, y, z'
loop_
 _atom_site_type_symbol
 _atom_site_label
 _atom_site_symmetry_multiplicity
 _atom_site_fract_x
 _atom_site_fract_y
 _atom_site_fract_z
 _atom_site_occupancy
  Y  Y0  1  0.857754  0.857753  0.142246  1
  Y  Y1  1  0.142247  0.142246  0.857754  1
  B  B2  1  0.468195  0.799018  0.218698  1
  B  B3  1  0.218698  0.514088  0.468195  1
  B  B4  1  0.799020  0.468194  0.514088  1
  B  B5  1  0.514089  0.218697  0.799019  1
  Os  Os6  1  0.249999  0.250001  0.250001  1
  Rh  Rh7  1  0.501524  0.501527  0.998475  1
  Rh  Rh8  1  0.998475  0.998475  0.501525  1
  Rh  Rh9  1  0.500001  0.500000  0.500000  1
  Rh  Rh10  1  0.750000  0.750001  0.750000  1
