# generated using pymatgen
data_Eu10Zn3Cd2Ru
_symmetry_space_group_name_H-M   'P 1'
_cell_length_a   9.58752414
_cell_length_b   9.58752464
_cell_length_c   9.54076500
_cell_angle_alpha   129.08959838
_cell_angle_beta   129.08960081
_cell_angle_gamma   75.23117560
_symmetry_Int_Tables_number   1
_chemical_formula_structural   Eu10Zn3Cd2Ru
_chemical_formula_sum   'Eu10 Zn3 Cd2 Ru1'
_cell_volume   513.29677217
_cell_formula_units_Z   1
loop_
 _symmetry_equiv_pos_site_id
 _symmetry_equiv_pos_as_xyz
  1  'x, y, z'
loop_
 _atom_site_type_symbol
 _atom_site_label
 _atom_site_symmetry_multiplicity
 _atom_site_fract_x
 _atom_site_fract_y
 _atom_site_fract_z
 _atom_site_occupancy
  Eu  Eu0  1  0.491294  0.503429  0.994724  1
  Eu  Eu1  1  0.003429  0.991294  0.994724  1
  Eu  Eu2  1  0.529170  0.029170  0.839517  1
  Eu  Eu3  1  0.181468  0.681468  0.136042  1
  Eu  Eu4  1  0.032401  0.205640  0.514222  1
  Eu  Eu5  1  0.705640  0.532401  0.514222  1
  Eu  Eu6  1  0.454574  0.954574  0.136042  1
  Eu  Eu7  1  0.810347  0.310347  0.839517  1
  Eu  Eu8  1  0.981821  0.808583  0.514222  1
  Eu  Eu9  1  0.308583  0.481821  0.514222  1
  Zn  Zn10  1  0.886347  0.386347  0.272695  1
  Zn  Zn11  1  0.616521  0.881521  0.498042  1
  Zn  Zn12  1  0.381521  0.116521  0.498042  1
  Cd  Cd13  1  0.252055  0.252055  0.004111  1
  Cd  Cd14  1  0.752055  0.752055  0.004111  1
  Ru  Ru15  1  0.112772  0.612772  0.725542  1
