# generated using pymatgen
data_TbLu2Pa(Al3Rh)6
_symmetry_space_group_name_H-M   'P 1'
_cell_length_a   7.56292702
_cell_length_b   7.55664542
_cell_length_c   9.41070400
_cell_angle_alpha   90.00000000
_cell_angle_beta   90.00000000
_cell_angle_gamma   119.42880126
_symmetry_Int_Tables_number   1
_chemical_formula_structural   TbLu2Pa(Al3Rh)6
_chemical_formula_sum   'Tb1 Lu2 Pa1 Al18 Rh6'
_cell_volume   468.42787971
_cell_formula_units_Z   1
loop_
 _symmetry_equiv_pos_site_id
 _symmetry_equiv_pos_as_xyz
  1  'x, y, z'
loop_
 _atom_site_type_symbol
 _atom_site_label
 _atom_site_symmetry_multiplicity
 _atom_site_fract_x
 _atom_site_fract_y
 _atom_site_fract_z
 _atom_site_occupancy
  Tb  Tb0  1  0.673936  0.994308  0.250000  1
  Lu  Lu1  1  0.004778  0.327229  0.750000  1
  Lu  Lu2  1  0.327270  0.004457  0.750000  1
  Pa  Pa3  1  0.995940  0.673239  0.250000  1
  Al  Al4  1  0.134104  0.132004  0.250000  1
  Al  Al5  1  0.873408  0.874940  0.750000  1
  Al  Al6  1  0.001180  0.334204  0.074083  1
  Al  Al7  1  0.999832  0.663852  0.919050  1
  Al  Al8  1  0.999832  0.663852  0.580950  1
  Al  Al9  1  0.338706  0.003456  0.425681  1
  Al  Al10  1  0.001180  0.334204  0.425917  1
  Al  Al11  1  0.664274  0.000896  0.578716  1
  Al  Al12  1  0.664274  0.000896  0.921284  1
  Al  Al13  1  0.338706  0.003456  0.074319  1
  Al  Al14  1  0.331071  0.331444  0.556911  1
  Al  Al15  1  0.663489  0.664913  0.452203  1
  Al  Al16  1  0.663489  0.664913  0.047797  1
  Al  Al17  1  0.331071  0.331444  0.943089  1
  Al  Al18  1  0.338874  0.548457  0.250000  1
  Al  Al19  1  0.658519  0.446668  0.750000  1
  Al  Al20  1  0.550020  0.342902  0.250000  1
  Al  Al21  1  0.447596  0.660517  0.750000  1
  Rh  Rh22  1  0.673423  0.329264  0.000556  1
  Rh  Rh23  1  0.325443  0.671673  0.000741  1
  Rh  Rh24  1  0.325443  0.671673  0.499259  1
  Rh  Rh25  1  0.673423  0.329264  0.499444  1
  Rh  Rh26  1  0.000361  0.997939  0.001855  1
  Rh  Rh27  1  0.000361  0.997939  0.498145  1
