# generated using pymatgen
data_K4RbBaTaP4
_symmetry_space_group_name_H-M   'P 1'
_cell_length_a   10.36866206
_cell_length_b   10.37333363
_cell_length_c   8.00184598
_cell_angle_alpha   89.48050036
_cell_angle_beta   88.85207191
_cell_angle_gamma   120.93876976
_symmetry_Int_Tables_number   1
_chemical_formula_structural   K4RbBaTaP4
_chemical_formula_sum   'K8 Rb2 Ba2 Ta2 P8'
_cell_volume   737.86588509
_cell_formula_units_Z   2
loop_
 _symmetry_equiv_pos_site_id
 _symmetry_equiv_pos_as_xyz
  1  'x, y, z'
loop_
 _atom_site_type_symbol
 _atom_site_label
 _atom_site_symmetry_multiplicity
 _atom_site_fract_x
 _atom_site_fract_y
 _atom_site_fract_z
 _atom_site_occupancy
  K  K0  1  0.467113  0.527563  0.502428  1
  K  K1  1  0.058758  0.528442  0.502880  1
  K  K2  1  0.526562  0.466692  0.004665  1
  K  K3  1  0.526908  0.059586  0.002164  1
  K  K4  1  0.860892  0.144414  0.674377  1
  K  K5  1  0.297428  0.154681  0.705280  1
  K  K6  1  0.854319  0.714226  0.660697  1
  K  K7  1  0.144892  0.861393  0.175150  1
  Rb  Rb8  1  0.727610  0.861336  0.159232  1
  Rb  Rb9  1  0.151026  0.290272  0.212209  1
  Ba  Ba10  1  0.462155  0.930396  0.491299  1
  Ba  Ba11  1  0.931171  0.463573  0.995454  1
  Ta  Ta12  1  0.667050  0.333781  0.397778  1
  Ta  Ta13  1  0.332828  0.668086  0.889497  1
  P  P14  1  0.677706  0.336526  0.700109  1
  P  P15  1  0.334654  0.678946  0.191430  1
  P  P16  1  0.788801  0.202917  0.293970  1
  P  P17  1  0.407053  0.192821  0.316287  1
  P  P18  1  0.800046  0.586935  0.281064  1
  P  P19  1  0.201195  0.791829  0.790456  1
  P  P20  1  0.587031  0.798672  0.773254  1
  P  P21  1  0.194797  0.406913  0.808901  1
