# generated using pymatgen
data_BeAl4Ga3Rh8
_symmetry_space_group_name_H-M   'P 1'
_cell_length_a   5.98816600
_cell_length_b   5.99986300
_cell_length_c   5.98799100
_cell_angle_alpha   89.99966544
_cell_angle_beta   89.99827769
_cell_angle_gamma   89.99957941
_symmetry_Int_Tables_number   1
_chemical_formula_structural   BeAl4Ga3Rh8
_chemical_formula_sum   'Be1 Al4 Ga3 Rh8'
_cell_volume   215.13759224
_cell_formula_units_Z   1
loop_
 _symmetry_equiv_pos_site_id
 _symmetry_equiv_pos_as_xyz
  1  'x, y, z'
loop_
 _atom_site_type_symbol
 _atom_site_label
 _atom_site_symmetry_multiplicity
 _atom_site_fract_x
 _atom_site_fract_y
 _atom_site_fract_z
 _atom_site_occupancy
  Be  Be0  1  0.500266  0.249998  0.500050  1
  Al  Al1  1  0.499952  0.250000  0.000002  1
  Al  Al2  1  0.500054  0.749999  0.999993  1
  Al  Al3  1  0.999968  0.749999  0.500000  1
  Al  Al4  1  0.999995  0.250000  0.500003  1
  Ga  Ga5  1  0.999885  0.249997  0.999992  1
  Ga  Ga6  1  0.000092  0.750002  0.999998  1
  Ga  Ga7  1  0.499925  0.750002  0.499992  1
  Rh  Rh8  1  0.253007  0.003137  0.253039  1
  Rh  Rh9  1  0.252996  0.496866  0.253024  1
  Rh  Rh10  1  0.746891  0.003051  0.253088  1
  Rh  Rh11  1  0.746894  0.496955  0.253085  1
  Rh  Rh12  1  0.253085  0.003136  0.746932  1
  Rh  Rh13  1  0.253084  0.496861  0.746941  1
  Rh  Rh14  1  0.746956  0.003037  0.746933  1
  Rh  Rh15  1  0.746950  0.496962  0.746930  1
