# generated using pymatgen
data_Ca2Eu2Hf3WO14
_symmetry_space_group_name_H-M   'P 1'
_cell_length_a   7.49571980
_cell_length_b   7.49571922
_cell_length_c   7.53352333
_cell_angle_alpha   59.96507443
_cell_angle_beta   59.96507849
_cell_angle_gamma   59.72388822
_symmetry_Int_Tables_number   1
_chemical_formula_structural   Ca2Eu2Hf3WO14
_chemical_formula_sum   'Ca2 Eu2 Hf3 W1 O14'
_cell_volume   298.51547071
_cell_formula_units_Z   1
loop_
 _symmetry_equiv_pos_site_id
 _symmetry_equiv_pos_as_xyz
  1  'x, y, z'
loop_
 _atom_site_type_symbol
 _atom_site_label
 _atom_site_symmetry_multiplicity
 _atom_site_fract_x
 _atom_site_fract_y
 _atom_site_fract_z
 _atom_site_occupancy
  Ca  Ca0  1  0.625000  0.125000  0.125000  1
  Ca  Ca1  1  0.125000  0.625000  0.125000  1
  Eu  Eu2  1  0.125000  0.125000  0.625000  1
  Eu  Eu3  1  0.125000  0.125000  0.125000  1
  Hf  Hf4  1  0.125000  0.625000  0.625000  1
  Hf  Hf5  1  0.625000  0.125000  0.625000  1
  Hf  Hf6  1  0.625000  0.625000  0.625000  1
  W  W7  1  0.625000  0.625000  0.125000  1
  O  O8  1  0.245993  0.245993  0.247199  1
  O  O9  1  0.004007  0.004007  0.002801  1
  O  O10  1  0.691821  0.691821  0.297260  1
  O  O11  1  0.290570  0.290570  0.717698  1
  O  O12  1  0.702371  0.291158  0.713634  1
  O  O13  1  0.316105  0.694727  0.296856  1
  O  O14  1  0.291158  0.702371  0.713634  1
  O  O15  1  0.694727  0.316105  0.296856  1
  O  O16  1  0.558179  0.558179  0.952740  1
  O  O17  1  0.959430  0.959430  0.532302  1
  O  O18  1  0.547629  0.958842  0.536366  1
  O  O19  1  0.933895  0.555273  0.953144  1
  O  O20  1  0.958842  0.547629  0.536366  1
  O  O21  1  0.555273  0.933895  0.953144  1
