# generated using pymatgen
data_Sr9Ca4La3(Ru2O9)4
_symmetry_space_group_name_H-M   'P 1'
_cell_length_a   5.82348817
_cell_length_b   9.95731250
_cell_length_c   14.07278191
_cell_angle_alpha   89.61887740
_cell_angle_beta   90.00625323
_cell_angle_gamma   90.02728152
_symmetry_Int_Tables_number   1
_chemical_formula_structural   Sr9Ca4La3(Ru2O9)4
_chemical_formula_sum   'Sr9 Ca4 La3 Ru8 O36'
_cell_volume   816.01028422
_cell_formula_units_Z   1
loop_
 _symmetry_equiv_pos_site_id
 _symmetry_equiv_pos_as_xyz
  1  'x, y, z'
loop_
 _atom_site_type_symbol
 _atom_site_label
 _atom_site_symmetry_multiplicity
 _atom_site_fract_x
 _atom_site_fract_y
 _atom_site_fract_z
 _atom_site_occupancy
  Sr  Sr0  1  0.459147  0.835503  0.912769  1
  Sr  Sr1  1  0.540293  0.167383  0.085236  1
  Sr  Sr2  1  0.046539  0.007409  0.245644  1
  Sr  Sr3  1  0.041395  0.332685  0.913216  1
  Sr  Sr4  1  0.952217  0.992144  0.754813  1
  Sr  Sr5  1  0.458715  0.167493  0.582373  1
  Sr  Sr6  1  0.043255  0.668679  0.581108  1
  Sr  Sr7  1  0.454097  0.507174  0.246131  1
  Sr  Sr8  1  0.959001  0.666558  0.087740  1
  Ca  Ca9  1  0.499964  0.500739  0.001695  1
  Ca  Ca10  1  0.004805  0.999099  0.502104  1
  Ca  Ca11  1  0.494928  0.500594  0.500746  1
  Ca  Ca12  1  0.999575  0.999248  0.000309  1
  La  La13  1  0.549406  0.830306  0.417949  1
  La  La14  1  0.554021  0.491205  0.757000  1
  La  La15  1  0.950454  0.328375  0.417268  1
  Ru  Ru16  1  0.502307  0.826572  0.669048  1
  Ru  Ru17  1  0.997750  0.328343  0.666720  1
  Ru  Ru18  1  0.494829  0.162345  0.828902  1
  Ru  Ru19  1  0.002269  0.672695  0.331080  1
  Ru  Ru20  1  0.006615  0.663707  0.828134  1
  Ru  Ru21  1  0.497803  0.172005  0.331002  1
  Ru  Ru22  1  0.503660  0.837374  0.170221  1
  Ru  Ru23  1  0.997033  0.336706  0.170535  1
  O  O24  1  0.019306  0.793893  0.930287  1
  O  O25  1  0.805096  0.605166  0.434552  1
  O  O26  1  0.767519  0.863199  0.587516  1
  O  O27  1  0.785770  0.267450  0.775058  1
  O  O28  1  0.794850  0.212176  0.255686  1
  O  O29  1  0.193814  0.450994  0.094582  1
  O  O30  1  0.693802  0.051718  0.906765  1
  O  O31  1  0.517803  0.020522  0.722719  1
  O  O32  1  0.710039  0.757622  0.776607  1
  O  O33  1  0.219916  0.140269  0.408267  1
  O  O34  1  0.694342  0.104269  0.435004  1
  O  O35  1  0.019231  0.149696  0.618483  1
  O  O36  1  0.983777  0.203692  0.071022  1
  O  O37  1  0.729514  0.425492  0.121366  1
  O  O38  1  0.021102  0.473290  0.283108  1
  O  O39  1  0.484432  0.299950  0.926832  1
  O  O40  1  0.974331  0.522366  0.720878  1
  O  O41  1  0.706307  0.712121  0.255000  1
  O  O42  1  0.306184  0.951482  0.094703  1
  O  O43  1  0.280000  0.572420  0.875452  1
  O  O44  1  0.293801  0.239038  0.224274  1
  O  O45  1  0.531399  0.350929  0.383107  1
  O  O46  1  0.211002  0.789760  0.747980  1
  O  O47  1  0.207326  0.738973  0.224391  1
  O  O48  1  0.516693  0.704808  0.070263  1
  O  O49  1  0.770765  0.925922  0.121208  1
  O  O50  1  0.479649  0.973628  0.282809  1
  O  O51  1  0.179976  0.394171  0.557860  1
  O  O52  1  0.480338  0.641680  0.624294  1
  O  O53  1  0.724599  0.367170  0.590252  1
  O  O54  1  0.969055  0.851592  0.382860  1
  O  O55  1  0.280520  0.641842  0.408396  1
  O  O56  1  0.294492  0.295068  0.745023  1
  O  O57  1  0.225324  0.077814  0.879529  1
  O  O58  1  0.315844  0.888986  0.559638  1
  O  O59  1  0.802004  0.546488  0.902490  1
