# generated using pymatgen
data_Li2Tb3Y5(SiB4)4
_symmetry_space_group_name_H-M   'P 1'
_cell_length_a   7.16365701
_cell_length_b   7.16375401
_cell_length_c   7.87737601
_cell_angle_alpha   90.00445716
_cell_angle_beta   90.00443392
_cell_angle_gamma   89.99811237
_symmetry_Int_Tables_number   1
_chemical_formula_structural   Li2Tb3Y5(SiB4)4
_chemical_formula_sum   'Li2 Tb3 Y5 Si4 B16'
_cell_volume   404.25650919
_cell_formula_units_Z   1
loop_
 _symmetry_equiv_pos_site_id
 _symmetry_equiv_pos_as_xyz
  1  'x, y, z'
loop_
 _atom_site_type_symbol
 _atom_site_label
 _atom_site_symmetry_multiplicity
 _atom_site_fract_x
 _atom_site_fract_y
 _atom_site_fract_z
 _atom_site_occupancy
  Li  Li0  1  0.999991  0.999823  0.499935  1
  Li  Li1  1  0.500100  0.500147  0.499933  1
  Tb  Tb2  1  0.683426  0.183405  0.763972  1
  Tb  Tb3  1  0.183408  0.316574  0.763940  1
  Tb  Tb4  1  0.183476  0.316565  0.236083  1
  Y  Y5  1  0.683388  0.183372  0.235912  1
  Y  Y6  1  0.316621  0.816603  0.764126  1
  Y  Y7  1  0.316623  0.816606  0.235899  1
  Y  Y8  1  0.816582  0.683452  0.235914  1
  Y  Y9  1  0.816598  0.683380  0.764106  1
  Si  Si10  1  0.114605  0.615119  0.499917  1
  Si  Si11  1  0.885124  0.385651  0.499788  1
  Si  Si12  1  0.385442  0.114287  0.499821  1
  Si  Si13  1  0.614786  0.884956  0.499830  1
  B  B14  1  0.173926  0.039809  0.000093  1
  B  B15  1  0.825966  0.960001  0.000063  1
  B  B16  1  0.960085  0.173879  0.000076  1
  B  B17  1  0.326030  0.539985  0.000076  1
  B  B18  1  0.039880  0.825886  0.000075  1
  B  B19  1  0.674024  0.460188  0.000075  1
  B  B20  1  0.539948  0.674107  0.000093  1
  B  B21  1  0.460138  0.326147  0.000067  1
  B  B22  1  0.088955  0.589035  0.000002  1
  B  B23  1  0.910913  0.410991  0.999891  1
  B  B24  1  0.410882  0.089081  0.999991  1
  B  B25  1  0.588974  0.910986  0.999993  1
  B  B26  1  0.999954  0.999833  0.160265  1
  B  B27  1  0.999997  0.999841  0.839900  1
  B  B28  1  0.500084  0.500167  0.839899  1
  B  B29  1  0.500074  0.500123  0.160265  1
