# generated using pymatgen
data_Pa4CO7
_symmetry_space_group_name_H-M   'P 1'
_cell_length_a   5.46026818
_cell_length_b   5.46026836
_cell_length_c   5.46026800
_cell_angle_alpha   89.98522555
_cell_angle_beta   89.98522555
_cell_angle_gamma   89.98522174
_symmetry_Int_Tables_number   1
_chemical_formula_structural   Pa4CO7
_chemical_formula_sum   'Pa4 C1 O7'
_cell_volume   162.79530570
_cell_formula_units_Z   1
loop_
 _symmetry_equiv_pos_site_id
 _symmetry_equiv_pos_as_xyz
  1  'x, y, z'
loop_
 _atom_site_type_symbol
 _atom_site_label
 _atom_site_symmetry_multiplicity
 _atom_site_fract_x
 _atom_site_fract_y
 _atom_site_fract_z
 _atom_site_occupancy
  Pa  Pa0  1  0.005033  0.005033  0.005033  1
  Pa  Pa1  1  0.495371  0.004753  0.495249  1
  Pa  Pa2  1  0.495249  0.495371  0.004753  1
  Pa  Pa3  1  0.004753  0.495249  0.495371  1
  C  C4  1  0.250535  0.250535  0.250535  1
  O  O5  1  0.249130  0.749216  0.750898  1
  O  O6  1  0.750898  0.249130  0.749216  1
  O  O7  1  0.749216  0.750898  0.249130  1
  O  O8  1  0.748964  0.748964  0.748964  1
  O  O9  1  0.750728  0.250844  0.249276  1
  O  O10  1  0.249276  0.750728  0.250844  1
  O  O11  1  0.250844  0.249276  0.750728  1
