# generated using pymatgen
data_Y2Be25Co
_symmetry_space_group_name_H-M   'P 1'
_cell_length_a   7.23241434
_cell_length_b   7.27116691
_cell_length_c   7.21838173
_cell_angle_alpha   59.88585168
_cell_angle_beta   59.95291430
_cell_angle_gamma   59.69471940
_symmetry_Int_Tables_number   1
_chemical_formula_structural   Y2Be25Co
_chemical_formula_sum   'Y2 Be25 Co1'
_cell_volume   267.46816990
_cell_formula_units_Z   1
loop_
 _symmetry_equiv_pos_site_id
 _symmetry_equiv_pos_as_xyz
  1  'x, y, z'
loop_
 _atom_site_type_symbol
 _atom_site_label
 _atom_site_symmetry_multiplicity
 _atom_site_fract_x
 _atom_site_fract_y
 _atom_site_fract_z
 _atom_site_occupancy
  Y  Y0  1  0.246757  0.255073  0.250369  1
  Y  Y1  1  0.749631  0.752199  0.753243  1
  Be  Be2  1  0.502589  0.501624  0.497411  1
  Be  Be3  1  0.998620  0.003146  0.001380  1
  Be  Be4  1  0.204218  0.439814  0.795782  1
  Be  Be5  1  0.566713  0.787571  0.433287  1
  Be  Be6  1  0.434477  0.207934  0.565523  1
  Be  Be7  1  0.290343  0.933446  0.709657  1
  Be  Be8  1  0.708041  0.064733  0.291959  1
  Be  Be9  1  0.933776  0.289779  0.066224  1
  Be  Be10  1  0.065878  0.714013  0.934122  1
  Be  Be11  1  0.206728  0.795218  0.562216  1
  Be  Be12  1  0.791254  0.207974  0.435856  1
  Be  Be13  1  0.437784  0.564162  0.793272  1
  Be  Be14  1  0.564144  0.435084  0.208746  1
  Be  Be15  1  0.711075  0.284465  0.933815  1
  Be  Be16  1  0.287991  0.712361  0.064377  1
  Be  Be17  1  0.066185  0.929355  0.288925  1
  Be  Be18  1  0.935623  0.064729  0.712009  1
  Be  Be19  1  0.559972  0.209211  0.793465  1
  Be  Be20  1  0.438679  0.790926  0.206850  1
  Be  Be21  1  0.793150  0.436455  0.561321  1
  Be  Be22  1  0.206535  0.562648  0.440028  1
  Be  Be23  1  0.936065  0.709746  0.288998  1
  Be  Be24  1  0.065595  0.288847  0.708992  1
  Be  Be25  1  0.291008  0.063435  0.934405  1
  Be  Be26  1  0.711002  0.934809  0.063935  1
  Co  Co27  1  0.796166  0.561245  0.203834  1
