# generated using pymatgen
data_Zr6Ga2SiGe
_symmetry_space_group_name_H-M   'P 1'
_cell_length_a   7.28799832
_cell_length_b   7.28315357
_cell_length_c   3.70864000
_cell_angle_alpha   90.00000000
_cell_angle_beta   90.00000000
_cell_angle_gamma   90.00566198
_symmetry_Int_Tables_number   1
_chemical_formula_structural   Zr6Ga2SiGe
_chemical_formula_sum   'Zr6 Ga2 Si1 Ge1'
_cell_volume   196.85316770
_cell_formula_units_Z   1
loop_
 _symmetry_equiv_pos_site_id
 _symmetry_equiv_pos_as_xyz
  1  'x, y, z'
loop_
 _atom_site_type_symbol
 _atom_site_label
 _atom_site_symmetry_multiplicity
 _atom_site_fract_x
 _atom_site_fract_y
 _atom_site_fract_z
 _atom_site_occupancy
  Zr  Zr0  1  0.668300  0.177035  0.500000  1
  Zr  Zr1  1  0.321561  0.829273  0.500000  1
  Zr  Zr2  1  0.181381  0.321425  0.500000  1
  Zr  Zr3  1  0.827073  0.676675  0.500000  1
  Zr  Zr4  1  0.003819  0.000767  0.000000  1
  Zr  Zr5  1  0.497484  0.497849  0.000000  1
  Ga  Ga6  1  0.874492  0.373600  0.000000  1
  Ga  Ga7  1  0.623971  0.876326  0.000000  1
  Si  Si8  1  0.377385  0.122933  0.000000  1
  Ge  Ge9  1  0.124535  0.624117  0.000000  1
