# generated using pymatgen
data_Yb8Al(InAu4)5
_symmetry_space_group_name_H-M   'P 1'
_cell_length_a   8.54722333
_cell_length_b   8.54722269
_cell_length_c   10.28974900
_cell_angle_alpha   90.24371764
_cell_angle_beta   90.24371762
_cell_angle_gamma   107.84068314
_symmetry_Int_Tables_number   1
_chemical_formula_structural   Yb8Al(InAu4)5
_chemical_formula_sum   'Yb8 Al1 In5 Au20'
_cell_volume   715.55062685
_cell_formula_units_Z   1
loop_
 _symmetry_equiv_pos_site_id
 _symmetry_equiv_pos_as_xyz
  1  'x, y, z'
loop_
 _atom_site_type_symbol
 _atom_site_label
 _atom_site_symmetry_multiplicity
 _atom_site_fract_x
 _atom_site_fract_y
 _atom_site_fract_z
 _atom_site_occupancy
  Yb  Yb0  1  0.699675  0.300326  0.000001  1
  Yb  Yb1  1  0.195993  0.804007  0.500002  1
  Yb  Yb2  1  0.799704  0.799704  0.298554  1
  Yb  Yb3  1  0.300548  0.300549  0.202598  1
  Yb  Yb4  1  0.804007  0.195993  0.499998  1
  Yb  Yb5  1  0.300325  0.699674  0.999999  1
  Yb  Yb6  1  0.699452  0.699451  0.797402  1
  Yb  Yb7  1  0.200296  0.200296  0.701446  1
  Al  Al8  1  0.000000  0.000000  0.000000  1
  In  In9  1  0.516768  0.018283  0.244651  1
  In  In10  1  0.981692  0.483224  0.755346  1
  In  In11  1  0.018308  0.516776  0.244654  1
  In  In12  1  0.483232  0.981717  0.755349  1
  In  In13  1  0.500000  0.500000  0.500000  1
  Au  Au14  1  0.147100  0.434866  0.487212  1
  Au  Au15  1  0.897712  0.897711  0.593405  1
  Au  Au16  1  0.565132  0.852900  0.512792  1
  Au  Au17  1  0.889894  0.157706  0.202901  1
  Au  Au18  1  0.374176  0.665372  0.290455  1
  Au  Au19  1  0.665377  0.374174  0.290453  1
  Au  Au20  1  0.404526  0.404527  0.900824  1
  Au  Au21  1  0.928883  0.666206  0.018838  1
  Au  Au22  1  0.334623  0.625826  0.709547  1
  Au  Au23  1  0.333791  0.071117  0.981161  1
  Au  Au24  1  0.595474  0.595473  0.099176  1
  Au  Au25  1  0.666209  0.928883  0.018839  1
  Au  Au26  1  0.102288  0.102289  0.406595  1
  Au  Au27  1  0.625824  0.334628  0.709545  1
  Au  Au28  1  0.110106  0.842294  0.797099  1
  Au  Au29  1  0.071117  0.333794  0.981162  1
  Au  Au30  1  0.852900  0.565134  0.512788  1
  Au  Au31  1  0.157700  0.889895  0.202899  1
  Au  Au32  1  0.434868  0.147100  0.487208  1
  Au  Au33  1  0.842300  0.110105  0.797101  1
