# generated using pymatgen
data_BaCaB2Rh5
_symmetry_space_group_name_H-M   'P 1'
_cell_length_a   5.61103100
_cell_length_b   5.61103252
_cell_length_c   21.84486900
_cell_angle_alpha   90.00000000
_cell_angle_beta   90.00000000
_cell_angle_gamma   120.00027990
_symmetry_Int_Tables_number   1
_chemical_formula_structural   BaCaB2Rh5
_chemical_formula_sum   'Ba4 Ca4 B8 Rh20'
_cell_volume   595.61318825
_cell_formula_units_Z   4
loop_
 _symmetry_equiv_pos_site_id
 _symmetry_equiv_pos_as_xyz
  1  'x, y, z'
loop_
 _atom_site_type_symbol
 _atom_site_label
 _atom_site_symmetry_multiplicity
 _atom_site_fract_x
 _atom_site_fract_y
 _atom_site_fract_z
 _atom_site_occupancy
  Ba  Ba0  1  0.666672  0.333328  0.527806  1
  Ba  Ba1  1  0.333328  0.666672  0.472194  1
  Ba  Ba2  1  0.333328  0.666672  0.027806  1
  Ba  Ba3  1  0.666672  0.333328  0.972194  1
  Ca  Ca4  1  0.666738  0.333262  0.678644  1
  Ca  Ca5  1  0.333262  0.666738  0.321356  1
  Ca  Ca6  1  0.333262  0.666738  0.178644  1
  Ca  Ca7  1  0.666738  0.333262  0.821356  1
  B  B8  1  0.000062  0.999938  0.681252  1
  B  B9  1  0.999938  0.000062  0.318748  1
  B  B10  1  0.999938  0.000062  0.181252  1
  B  B11  1  0.000062  0.999938  0.818748  1
  B  B12  1  0.666612  0.333388  0.323169  1
  B  B13  1  0.333388  0.666612  0.676831  1
  B  B14  1  0.333388  0.666612  0.823169  1
  B  B15  1  0.666612  0.333388  0.176831  1
  Rh  Rh16  1  0.000000  0.000000  0.500000  1
  Rh  Rh17  1  0.000000  0.000000  0.000000  1
  Rh  Rh18  1  0.168140  0.336038  0.750000  1
  Rh  Rh19  1  0.168131  0.831869  0.750000  1
  Rh  Rh20  1  0.663962  0.831860  0.750000  1
  Rh  Rh21  1  0.831860  0.663962  0.250000  1
  Rh  Rh22  1  0.831869  0.168131  0.250000  1
  Rh  Rh23  1  0.336038  0.168140  0.250000  1
  Rh  Rh24  1  0.162517  0.324891  0.617092  1
  Rh  Rh25  1  0.162540  0.837460  0.617100  1
  Rh  Rh26  1  0.675109  0.837483  0.617092  1
  Rh  Rh27  1  0.837483  0.675109  0.382908  1
  Rh  Rh28  1  0.837460  0.162540  0.382900  1
  Rh  Rh29  1  0.324891  0.162517  0.382908  1
  Rh  Rh30  1  0.837483  0.675109  0.117092  1
  Rh  Rh31  1  0.837460  0.162540  0.117100  1
  Rh  Rh32  1  0.324891  0.162517  0.117092  1
  Rh  Rh33  1  0.162517  0.324891  0.882908  1
  Rh  Rh34  1  0.162540  0.837460  0.882900  1
  Rh  Rh35  1  0.675109  0.837483  0.882908  1
