# generated using pymatgen
data_Y4Zn3In5
_symmetry_space_group_name_H-M   'P 1'
_cell_length_a   4.74450800
_cell_length_b   7.29075537
_cell_length_c   8.21540156
_cell_angle_alpha   89.96057947
_cell_angle_beta   90.00000000
_cell_angle_gamma   90.00000000
_symmetry_Int_Tables_number   1
_chemical_formula_structural   Y4Zn3In5
_chemical_formula_sum   'Y4 Zn3 In5'
_cell_volume   284.17927574
_cell_formula_units_Z   1
loop_
 _symmetry_equiv_pos_site_id
 _symmetry_equiv_pos_as_xyz
  1  'x, y, z'
loop_
 _atom_site_type_symbol
 _atom_site_label
 _atom_site_symmetry_multiplicity
 _atom_site_fract_x
 _atom_site_fract_y
 _atom_site_fract_z
 _atom_site_occupancy
  Y  Y0  1  0.500000  0.494301  0.744812  1
  Y  Y1  1  0.500000  0.982289  0.747451  1
  Y  Y2  1  0.000000  0.501586  0.256427  1
  Y  Y3  1  0.000000  0.991402  0.253182  1
  Zn  Zn4  1  0.500000  0.785994  0.417185  1
  Zn  Zn5  1  0.000000  0.789384  0.917586  1
  Zn  Zn6  1  0.000000  0.299848  0.579415  1
  In  In7  1  0.500000  0.729544  0.082045  1
  In  In8  1  0.500000  0.215880  0.429919  1
  In  In9  1  0.000000  0.206596  0.901231  1
  In  In10  1  0.000000  0.720457  0.585446  1
  In  In11  1  0.500000  0.282720  0.085302  1
