# generated using pymatgen
data_HoTh5(Si3Pt2)4
_symmetry_space_group_name_H-M   'P 1'
_cell_length_a   4.32851200
_cell_length_b   8.73514082
_cell_length_c   13.21729700
_cell_angle_alpha   80.26306264
_cell_angle_beta   90.00000000
_cell_angle_gamma   90.00000000
_symmetry_Int_Tables_number   1
_chemical_formula_structural   HoTh5(Si3Pt2)4
_chemical_formula_sum   'Ho1 Th5 Si12 Pt8'
_cell_volume   492.54908870
_cell_formula_units_Z   1
loop_
 _symmetry_equiv_pos_site_id
 _symmetry_equiv_pos_as_xyz
  1  'x, y, z'
loop_
 _atom_site_type_symbol
 _atom_site_label
 _atom_site_symmetry_multiplicity
 _atom_site_fract_x
 _atom_site_fract_y
 _atom_site_fract_z
 _atom_site_occupancy
  Ho  Ho0  1  0.250000  0.071653  0.177150  1
  Th  Th1  1  0.250000  0.782774  0.441429  1
  Th  Th2  1  0.250000  0.580754  0.189277  1
  Th  Th3  1  0.750000  0.222863  0.555521  1
  Th  Th4  1  0.750000  0.413970  0.814970  1
  Th  Th5  1  0.750000  0.921291  0.820256  1
  Si  Si6  1  0.750000  0.583974  0.572690  1
  Si  Si7  1  0.750000  0.122526  0.004838  1
  Si  Si8  1  0.750000  0.870981  0.582937  1
  Si  Si9  1  0.250000  0.683798  0.724725  1
  Si  Si10  1  0.750000  0.305635  0.279064  1
  Si  Si11  1  0.750000  0.810040  0.272787  1
  Si  Si12  1  0.250000  0.872359  0.000242  1
  Si  Si13  1  0.250000  0.191551  0.726528  1
  Si  Si14  1  0.250000  0.372056  0.004342  1
  Si  Si15  1  0.250000  0.166713  0.381754  1
  Si  Si16  1  0.750000  0.619743  0.001411  1
  Si  Si17  1  0.250000  0.426152  0.433895  1
  Pt  Pt18  1  0.750000  0.348698  0.093040  1
  Pt  Pt19  1  0.250000  0.956934  0.639574  1
  Pt  Pt20  1  0.750000  0.849718  0.086640  1
  Pt  Pt21  1  0.750000  0.036065  0.368634  1
  Pt  Pt22  1  0.250000  0.642788  0.912712  1
  Pt  Pt23  1  0.250000  0.146346  0.916312  1
  Pt  Pt24  1  0.750000  0.533967  0.374303  1
  Pt  Pt25  1  0.250000  0.466652  0.624969  1
