# generated using pymatgen
data_Tb3Er(MoO6)2
_symmetry_space_group_name_H-M   'P 1'
_cell_length_a   9.97098839
_cell_length_b   9.97098796
_cell_length_c   5.39990294
_cell_angle_alpha   75.06128350
_cell_angle_beta   75.06128605
_cell_angle_gamma   68.21297612
_symmetry_Int_Tables_number   1
_chemical_formula_structural   Tb3Er(MoO6)2
_chemical_formula_sum   'Tb6 Er2 Mo4 O24'
_cell_volume   473.73727136
_cell_formula_units_Z   2
loop_
 _symmetry_equiv_pos_site_id
 _symmetry_equiv_pos_as_xyz
  1  'x, y, z'
loop_
 _atom_site_type_symbol
 _atom_site_label
 _atom_site_symmetry_multiplicity
 _atom_site_fract_x
 _atom_site_fract_y
 _atom_site_fract_z
 _atom_site_occupancy
  Tb  Tb0  1  0.215888  0.448343  0.877723  1
  Tb  Tb1  1  0.448343  0.215888  0.377723  1
  Tb  Tb2  1  0.784112  0.551657  0.122277  1
  Tb  Tb3  1  0.551657  0.784112  0.622277  1
  Tb  Tb4  1  0.863114  0.136886  0.250000  1
  Tb  Tb5  1  0.136886  0.863114  0.750000  1
  Er  Er6  1  0.395838  0.604162  0.250000  1
  Er  Er7  1  0.604162  0.395838  0.750000  1
  Mo  Mo8  1  0.989493  0.703347  0.436669  1
  Mo  Mo9  1  0.296653  0.010507  0.063331  1
  Mo  Mo10  1  0.010507  0.296653  0.563331  1
  Mo  Mo11  1  0.703347  0.989493  0.936669  1
  O  O12  1  0.428447  0.391568  0.576980  1
  O  O13  1  0.608432  0.571553  0.923020  1
  O  O14  1  0.571553  0.608432  0.423020  1
  O  O15  1  0.391568  0.428447  0.076980  1
  O  O16  1  0.194301  0.662159  0.573459  1
  O  O17  1  0.337841  0.805699  0.926541  1
  O  O18  1  0.805699  0.337841  0.426541  1
  O  O19  1  0.662159  0.194301  0.073459  1
  O  O20  1  0.114084  0.673097  0.122372  1
  O  O21  1  0.326903  0.885916  0.377628  1
  O  O22  1  0.885916  0.326903  0.877628  1
  O  O23  1  0.673097  0.114084  0.622372  1
  O  O24  1  0.710395  0.816942  0.864281  1
  O  O25  1  0.183058  0.289605  0.635719  1
  O  O26  1  0.289605  0.183058  0.135719  1
  O  O27  1  0.816942  0.710395  0.364281  1
  O  O28  1  0.888307  0.952985  0.983878  1
  O  O29  1  0.047015  0.111693  0.516122  1
  O  O30  1  0.975833  0.568871  0.743360  1
  O  O31  1  0.952985  0.888307  0.483878  1
  O  O32  1  0.568871  0.975833  0.243360  1
  O  O33  1  0.024167  0.431129  0.256640  1
  O  O34  1  0.431129  0.024167  0.756640  1
  O  O35  1  0.111693  0.047015  0.016122  1
