# generated using pymatgen
data_TlBi3(SbO4)4
_symmetry_space_group_name_H-M   'P 1'
_cell_length_a   5.23097335
_cell_length_b   5.24504870
_cell_length_c   13.76821000
_cell_angle_alpha   68.13304510
_cell_angle_beta   90.05434967
_cell_angle_gamma   89.93786644
_symmetry_Int_Tables_number   1
_chemical_formula_structural   TlBi3(SbO4)4
_chemical_formula_sum   'Tl1 Bi3 Sb4 O16'
_cell_volume   350.57483900
_cell_formula_units_Z   1
loop_
 _symmetry_equiv_pos_site_id
 _symmetry_equiv_pos_as_xyz
  1  'x, y, z'
loop_
 _atom_site_type_symbol
 _atom_site_label
 _atom_site_symmetry_multiplicity
 _atom_site_fract_x
 _atom_site_fract_y
 _atom_site_fract_z
 _atom_site_occupancy
  Tl  Tl0  1  0.251790  0.333146  0.168872  1
  Bi  Bi1  1  0.754589  0.671151  0.328616  1
  Bi  Bi2  1  0.747419  0.668605  0.827874  1
  Bi  Bi3  1  0.247659  0.327439  0.671650  1
  Sb  Sb4  1  0.748161  0.928669  0.070979  1
  Sb  Sb5  1  0.752114  0.930333  0.566449  1
  Sb  Sb6  1  0.248005  0.066591  0.934523  1
  Sb  Sb7  1  0.250756  0.074582  0.427961  1
  O  O8  1  0.431120  0.733081  0.045909  1
  O  O9  1  0.065147  0.746595  0.539026  1
  O  O10  1  0.563370  0.246849  0.959890  1
  O  O11  1  0.939292  0.257264  0.458737  1
  O  O12  1  0.598953  0.028841  0.183815  1
  O  O13  1  0.894314  0.022731  0.683588  1
  O  O14  1  0.390456  0.969411  0.818909  1
  O  O15  1  0.103004  0.976572  0.314191  1
  O  O16  1  0.064435  0.173109  0.047308  1
  O  O17  1  0.438486  0.166232  0.543636  1
  O  O18  1  0.931284  0.839954  0.956107  1
  O  O19  1  0.563944  0.835164  0.453601  1
  O  O20  1  0.898908  0.602772  0.180751  1
  O  O21  1  0.612087  0.598835  0.679877  1
  O  O22  1  0.110446  0.398218  0.820858  1
  O  O23  1  0.394258  0.403853  0.316871  1
