# generated using pymatgen
data_Li3Dy4LuPt4
_symmetry_space_group_name_H-M   'P 1'
_cell_length_a   4.06158600
_cell_length_b   7.15682444
_cell_length_c   8.71637775
_cell_angle_alpha   88.67838934
_cell_angle_beta   90.00000000
_cell_angle_gamma   90.00000000
_symmetry_Int_Tables_number   1
_chemical_formula_structural   Li3Dy4LuPt4
_chemical_formula_sum   'Li3 Dy4 Lu1 Pt4'
_cell_volume   253.30077268
_cell_formula_units_Z   1
loop_
 _symmetry_equiv_pos_site_id
 _symmetry_equiv_pos_as_xyz
  1  'x, y, z'
loop_
 _atom_site_type_symbol
 _atom_site_label
 _atom_site_symmetry_multiplicity
 _atom_site_fract_x
 _atom_site_fract_y
 _atom_site_fract_z
 _atom_site_occupancy
  Li  Li0  1  0.250000  0.375222  0.555323  1
  Li  Li1  1  0.250000  0.853128  0.929472  1
  Li  Li2  1  0.750000  0.623793  0.447598  1
  Dy  Dy3  1  0.250000  0.943748  0.338289  1
  Dy  Dy4  1  0.250000  0.476710  0.191082  1
  Dy  Dy5  1  0.750000  0.042515  0.670453  1
  Dy  Dy6  1  0.750000  0.555355  0.819561  1
  Lu  Lu7  1  0.750000  0.126488  0.055827  1
  Pt  Pt8  1  0.250000  0.264365  0.872154  1
  Pt  Pt9  1  0.250000  0.749810  0.626757  1
  Pt  Pt10  1  0.750000  0.750033  0.126649  1
  Pt  Pt11  1  0.750000  0.238831  0.366834  1
