# generated using pymatgen
data_Sc10Hg3Ru
_symmetry_space_group_name_H-M   'P 1'
_cell_length_a   8.99020700
_cell_length_b   8.99007991
_cell_length_c   9.05002800
_cell_angle_alpha   90.00000000
_cell_angle_beta   90.00000000
_cell_angle_gamma   120.00041533
_symmetry_Int_Tables_number   1
_chemical_formula_structural   Sc10Hg3Ru
_chemical_formula_sum   'Sc20 Hg6 Ru2'
_cell_volume   633.44947500
_cell_formula_units_Z   2
loop_
 _symmetry_equiv_pos_site_id
 _symmetry_equiv_pos_as_xyz
  1  'x, y, z'
loop_
 _atom_site_type_symbol
 _atom_site_label
 _atom_site_symmetry_multiplicity
 _atom_site_fract_x
 _atom_site_fract_y
 _atom_site_fract_z
 _atom_site_occupancy
  Sc  Sc0  1  0.000000  0.000000  0.500000  1
  Sc  Sc1  1  0.000000  0.000000  0.000000  1
  Sc  Sc2  1  0.209266  0.790754  0.441097  1
  Sc  Sc3  1  0.209259  0.418511  0.441098  1
  Sc  Sc4  1  0.581489  0.790750  0.441095  1
  Sc  Sc5  1  0.790734  0.209246  0.558903  1
  Sc  Sc6  1  0.790741  0.581489  0.558902  1
  Sc  Sc7  1  0.418511  0.209250  0.558905  1
  Sc  Sc8  1  0.790734  0.209246  0.941097  1
  Sc  Sc9  1  0.790741  0.581489  0.941098  1
  Sc  Sc10  1  0.418511  0.209250  0.941095  1
  Sc  Sc11  1  0.209266  0.790754  0.058903  1
  Sc  Sc12  1  0.209259  0.418511  0.058902  1
  Sc  Sc13  1  0.581489  0.790750  0.058905  1
  Sc  Sc14  1  0.540851  0.459151  0.250000  1
  Sc  Sc15  1  0.540847  0.081699  0.250000  1
  Sc  Sc16  1  0.918296  0.459150  0.250000  1
  Sc  Sc17  1  0.459149  0.540849  0.750000  1
  Sc  Sc18  1  0.459153  0.918301  0.750000  1
  Sc  Sc19  1  0.081704  0.540850  0.750000  1
  Hg  Hg20  1  0.880940  0.119070  0.250000  1
  Hg  Hg21  1  0.880936  0.761868  0.250000  1
  Hg  Hg22  1  0.238123  0.119063  0.250000  1
  Hg  Hg23  1  0.119060  0.880930  0.750000  1
  Hg  Hg24  1  0.119064  0.238132  0.750000  1
  Hg  Hg25  1  0.761877  0.880937  0.750000  1
  Ru  Ru26  1  0.333310  0.666642  0.250000  1
  Ru  Ru27  1  0.666690  0.333358  0.750000  1
