# generated using pymatgen
data_DyY5(Tm2Sb3)2
_symmetry_space_group_name_H-M   'P 1'
_cell_length_a   6.25547700
_cell_length_b   8.96278365
_cell_length_c   8.96230600
_cell_angle_alpha   119.99706986
_cell_angle_beta   90.00000000
_cell_angle_gamma   90.00000000
_symmetry_Int_Tables_number   1
_chemical_formula_structural   DyY5(Tm2Sb3)2
_chemical_formula_sum   'Dy1 Y5 Tm4 Sb6'
_cell_volume   435.17763407
_cell_formula_units_Z   1
loop_
 _symmetry_equiv_pos_site_id
 _symmetry_equiv_pos_as_xyz
  1  'x, y, z'
loop_
 _atom_site_type_symbol
 _atom_site_label
 _atom_site_symmetry_multiplicity
 _atom_site_fract_x
 _atom_site_fract_y
 _atom_site_fract_z
 _atom_site_occupancy
  Dy  Dy0  1  0.250001  0.999998  0.753171  1
  Y  Y1  1  0.749999  0.246758  0.999960  1
  Y  Y2  1  0.750001  0.753207  0.753164  1
  Y  Y3  1  0.750001  0.000003  0.246841  1
  Y  Y4  1  0.249999  0.753219  0.999980  1
  Y  Y5  1  0.250001  0.246817  0.246798  1
  Tm  Tm6  1  0.499974  0.333323  0.666678  1
  Tm  Tm7  1  0.499975  0.666673  0.333335  1
  Tm  Tm8  1  0.000023  0.666677  0.333335  1
  Tm  Tm9  1  0.000024  0.333327  0.666678  1
  Sb  Sb10  1  0.749999  0.610384  0.000016  1
  Sb  Sb11  1  0.750001  0.389618  0.389641  1
  Sb  Sb12  1  0.750001  0.999993  0.610389  1
  Sb  Sb13  1  0.249999  0.389588  0.999978  1
  Sb  Sb14  1  0.250001  0.610408  0.610380  1
  Sb  Sb15  1  0.250001  0.000007  0.389659  1
