# generated using pymatgen
data_Pr2Al4PdPt3
_symmetry_space_group_name_H-M   'P 1'
_cell_length_a   4.33879700
_cell_length_b   4.33879700
_cell_length_c   10.26264100
_cell_angle_alpha   90.00000000
_cell_angle_beta   90.00000000
_cell_angle_gamma   90.00000000
_symmetry_Int_Tables_number   1
_chemical_formula_structural   Pr2Al4PdPt3
_chemical_formula_sum   'Pr2 Al4 Pd1 Pt3'
_cell_volume   193.19585276
_cell_formula_units_Z   1
loop_
 _symmetry_equiv_pos_site_id
 _symmetry_equiv_pos_as_xyz
  1  'x, y, z'
loop_
 _atom_site_type_symbol
 _atom_site_label
 _atom_site_symmetry_multiplicity
 _atom_site_fract_x
 _atom_site_fract_y
 _atom_site_fract_z
 _atom_site_occupancy
  Pr  Pr0  1  0.000000  0.500000  0.248351  1
  Pr  Pr1  1  0.500000  0.000000  0.751649  1
  Al  Al2  1  0.000000  0.000000  0.500000  1
  Al  Al3  1  0.500000  0.500000  0.500000  1
  Al  Al4  1  0.000000  0.500000  0.875808  1
  Al  Al5  1  0.500000  0.000000  0.124192  1
  Pd  Pd6  1  0.500000  0.500000  0.000000  1
  Pt  Pt7  1  0.000000  0.000000  0.000000  1
  Pt  Pt8  1  0.000000  0.500000  0.632661  1
  Pt  Pt9  1  0.500000  0.000000  0.367339  1
