# generated using pymatgen
data_Y4Lu(OsO6)2
_symmetry_space_group_name_H-M   'P 1'
_cell_length_a   6.86467896
_cell_length_b   6.86468085
_cell_length_c   7.44893719
_cell_angle_alpha   74.00046633
_cell_angle_beta   74.00046110
_cell_angle_gamma   48.75535198
_symmetry_Int_Tables_number   1
_chemical_formula_structural   Y4Lu(OsO6)2
_chemical_formula_sum   'Y4 Lu1 Os2 O12'
_cell_volume   251.55967173
_cell_formula_units_Z   1
loop_
 _symmetry_equiv_pos_site_id
 _symmetry_equiv_pos_as_xyz
  1  'x, y, z'
loop_
 _atom_site_type_symbol
 _atom_site_label
 _atom_site_symmetry_multiplicity
 _atom_site_fract_x
 _atom_site_fract_y
 _atom_site_fract_z
 _atom_site_occupancy
  Y  Y0  1  0.699253  0.699253  0.641178  1
  Y  Y1  1  0.300747  0.300747  0.358822  1
  Y  Y2  1  0.686705  0.686705  0.173093  1
  Y  Y3  1  0.313295  0.313295  0.826907  1
  Lu  Lu4  1  0.000000  0.000000  0.500000  1
  Os  Os5  1  0.781135  0.218865  0.000000  1
  Os  Os6  1  0.218865  0.781135  0.000000  1
  O  O7  1  0.001482  0.001482  0.205426  1
  O  O8  1  0.998518  0.998518  0.794574  1
  O  O9  1  0.580227  0.086726  0.087007  1
  O  O10  1  0.419773  0.913274  0.912993  1
  O  O11  1  0.913274  0.419773  0.912993  1
  O  O12  1  0.086726  0.580227  0.087007  1
  O  O13  1  0.498753  0.498753  0.174932  1
  O  O14  1  0.501247  0.501247  0.825068  1
  O  O15  1  0.397407  0.900583  0.430218  1
  O  O16  1  0.602593  0.099417  0.569782  1
  O  O17  1  0.099417  0.602593  0.569782  1
  O  O18  1  0.900583  0.397407  0.430218  1
