# generated using pymatgen
data_CeDyCo2(SnH)2
_symmetry_space_group_name_H-M   'P 1'
_cell_length_a   4.28932700
_cell_length_b   7.10014045
_cell_length_c   8.25175153
_cell_angle_alpha   89.64902757
_cell_angle_beta   90.00000000
_cell_angle_gamma   90.00000000
_symmetry_Int_Tables_number   1
_chemical_formula_structural   CeDyCo2(SnH)2
_chemical_formula_sum   'Ce2 Dy2 Co4 Sn4 H4'
_cell_volume   251.30092686
_cell_formula_units_Z   2
loop_
 _symmetry_equiv_pos_site_id
 _symmetry_equiv_pos_as_xyz
  1  'x, y, z'
loop_
 _atom_site_type_symbol
 _atom_site_label
 _atom_site_symmetry_multiplicity
 _atom_site_fract_x
 _atom_site_fract_y
 _atom_site_fract_z
 _atom_site_occupancy
  Ce  Ce0  1  0.250000  0.485488  0.192385  1
  Ce  Ce1  1  0.750000  0.514512  0.807615  1
  Dy  Dy2  1  0.750000  0.013441  0.686347  1
  Dy  Dy3  1  0.250000  0.986559  0.313653  1
  Co  Co4  1  0.750000  0.769612  0.103238  1
  Co  Co5  1  0.250000  0.230388  0.896762  1
  Co  Co6  1  0.250000  0.724339  0.606633  1
  Co  Co7  1  0.750000  0.275661  0.393367  1
  Sn  Sn8  1  0.750000  0.661620  0.427481  1
  Sn  Sn9  1  0.250000  0.338380  0.572519  1
  Sn  Sn10  1  0.250000  0.845422  0.927083  1
  Sn  Sn11  1  0.750000  0.154578  0.072917  1
  H  H12  1  0.250000  0.452766  0.916372  1
  H  H13  1  0.750000  0.547234  0.083628  1
  H  H14  1  0.750000  0.053488  0.420030  1
  H  H15  1  0.250000  0.946512  0.579970  1
