# generated using pymatgen
data_Sm3DySe3O4
_symmetry_space_group_name_H-M   'P 1'
_cell_length_a   6.66049892
_cell_length_b   6.66049860
_cell_length_c   8.39959100
_cell_angle_alpha   90.00000000
_cell_angle_beta   90.00000000
_cell_angle_gamma   145.53228061
_symmetry_Int_Tables_number   1
_chemical_formula_structural   Sm3DySe3O4
_chemical_formula_sum   'Sm3 Dy1 Se3 O4'
_cell_volume   210.88390726
_cell_formula_units_Z   1
loop_
 _symmetry_equiv_pos_site_id
 _symmetry_equiv_pos_as_xyz
  1  'x, y, z'
loop_
 _atom_site_type_symbol
 _atom_site_label
 _atom_site_symmetry_multiplicity
 _atom_site_fract_x
 _atom_site_fract_y
 _atom_site_fract_z
 _atom_site_occupancy
  Sm  Sm0  1  0.318732  0.681268  0.237385  1
  Sm  Sm1  1  0.318732  0.681268  0.762615  1
  Sm  Sm2  1  0.984753  0.015247  0.500000  1
  Dy  Dy3  1  0.994371  0.005629  0.000000  1
  Se  Se4  1  0.679333  0.320667  0.000000  1
  Se  Se5  1  0.646572  0.353428  0.651475  1
  Se  Se6  1  0.646572  0.353428  0.348525  1
  O  O7  1  0.385630  0.614370  0.500000  1
  O  O8  1  0.915179  0.084821  0.758797  1
  O  O9  1  0.412379  0.587621  0.000000  1
  O  O10  1  0.915179  0.084821  0.241203  1
