# generated using pymatgen
data_Ce3CuSi4IrRh2
_symmetry_space_group_name_H-M   'P 1'
_cell_length_a   4.05360321
_cell_length_b   4.14429056
_cell_length_c   12.57735183
_cell_angle_alpha   80.51717554
_cell_angle_beta   80.72652043
_cell_angle_gamma   90.00001401
_symmetry_Int_Tables_number   1
_chemical_formula_structural   Ce3CuSi4IrRh2
_chemical_formula_sum   'Ce3 Cu1 Si4 Ir1 Rh2'
_cell_volume   205.60328300
_cell_formula_units_Z   1
loop_
 _symmetry_equiv_pos_site_id
 _symmetry_equiv_pos_as_xyz
  1  'x, y, z'
loop_
 _atom_site_type_symbol
 _atom_site_label
 _atom_site_symmetry_multiplicity
 _atom_site_fract_x
 _atom_site_fract_y
 _atom_site_fract_z
 _atom_site_occupancy
  Ce  Ce0  1  0.997627  0.997627  0.004744  1
  Ce  Ce1  1  0.856283  0.356283  0.287435  1
  Ce  Ce2  1  0.146993  0.646993  0.706012  1
  Cu  Cu3  1  0.596968  0.096968  0.806064  1
  Si  Si4  1  0.696063  0.196063  0.607876  1
  Si  Si5  1  0.302848  0.802848  0.394302  1
  Si  Si6  1  0.453215  0.453215  0.093569  1
  Si  Si7  1  0.550840  0.550840  0.898320  1
  Ir  Ir8  1  0.401970  0.901970  0.196059  1
  Rh  Rh9  1  0.248388  0.248388  0.503224  1
  Rh  Rh10  1  0.748803  0.748803  0.502395  1
