# generated using pymatgen
data_Ca3DyTaV3O12
_symmetry_space_group_name_H-M   'P 1'
_cell_length_a   5.42688189
_cell_length_b   5.61277637
_cell_length_c   7.74997869
_cell_angle_alpha   89.62985937
_cell_angle_beta   89.83971896
_cell_angle_gamma   90.64935645
_symmetry_Int_Tables_number   1
_chemical_formula_structural   Ca3DyTaV3O12
_chemical_formula_sum   'Ca3 Dy1 Ta1 V3 O12'
_cell_volume   236.04231879
_cell_formula_units_Z   1
loop_
 _symmetry_equiv_pos_site_id
 _symmetry_equiv_pos_as_xyz
  1  'x, y, z'
loop_
 _atom_site_type_symbol
 _atom_site_label
 _atom_site_symmetry_multiplicity
 _atom_site_fract_x
 _atom_site_fract_y
 _atom_site_fract_z
 _atom_site_occupancy
  Ca  Ca0  1  0.484321  0.439528  0.260237  1
  Ca  Ca1  1  0.515820  0.558425  0.742887  1
  Ca  Ca2  1  0.005037  0.957755  0.260246  1
  Dy  Dy3  1  0.993027  0.057767  0.739511  1
  Ta  Ta4  1  0.001987  0.502143  0.003484  1
  V  V5  1  0.499297  0.999262  0.497800  1
  V  V6  1  0.003156  0.503742  0.500882  1
  V  V7  1  0.499693  0.999164  0.000614  1
  O  O8  1  0.904414  0.529265  0.248337  1
  O  O9  1  0.396549  0.970596  0.750413  1
  O  O10  1  0.584258  0.028222  0.249285  1
  O  O11  1  0.094872  0.465992  0.750592  1
  O  O12  1  0.708018  0.295825  0.943899  1
  O  O13  1  0.187765  0.204682  0.044878  1
  O  O14  1  0.802079  0.800253  0.551607  1
  O  O15  1  0.279420  0.692569  0.456369  1
  O  O16  1  0.725165  0.302256  0.548694  1
  O  O17  1  0.196825  0.202832  0.462303  1
  O  O18  1  0.302331  0.693247  0.047411  1
  O  O19  1  0.815965  0.796477  0.940552  1
