# generated using pymatgen
data_Zr5Fe13Co5NiP12
_symmetry_space_group_name_H-M   'P 1'
_cell_length_a   11.81606805
_cell_length_b   11.80075673
_cell_length_c   3.63940400
_cell_angle_alpha   90.00000000
_cell_angle_beta   90.00000000
_cell_angle_gamma   120.17580070
_symmetry_Int_Tables_number   1
_chemical_formula_structural   Zr5Fe13Co5NiP12
_chemical_formula_sum   'Zr5 Fe13 Co5 Ni1 P12'
_cell_volume   438.70407240
_cell_formula_units_Z   1
loop_
 _symmetry_equiv_pos_site_id
 _symmetry_equiv_pos_as_xyz
  1  'x, y, z'
loop_
 _atom_site_type_symbol
 _atom_site_label
 _atom_site_symmetry_multiplicity
 _atom_site_fract_x
 _atom_site_fract_y
 _atom_site_fract_z
 _atom_site_occupancy
  Zr  Zr0  1  0.334344  0.668512  0.500000  1
  Zr  Zr1  1  0.666084  0.332298  0.500000  1
  Zr  Zr2  1  0.812976  0.999448  0.000000  1
  Zr  Zr3  1  0.000098  0.813749  0.000000  1
  Zr  Zr4  1  0.185805  0.186032  0.000000  1
  Fe  Fe5  1  0.623699  0.801981  0.500000  1
  Fe  Fe6  1  0.197459  0.819379  0.500000  1
  Fe  Fe7  1  0.180823  0.378784  0.500000  1
  Fe  Fe8  1  0.378164  0.181242  0.500000  1
  Fe  Fe9  1  0.802079  0.620515  0.500000  1
  Fe  Fe10  1  0.818846  0.197259  0.500000  1
  Fe  Fe11  1  0.284261  0.999988  0.000000  1
  Fe  Fe12  1  0.000110  0.285425  0.000000  1
  Fe  Fe13  1  0.715269  0.714069  0.000000  1
  Fe  Fe14  1  0.446114  0.002035  0.500000  1
  Fe  Fe15  1  0.000322  0.446805  0.500000  1
  Fe  Fe16  1  0.553561  0.553508  0.500000  1
  Fe  Fe17  1  0.513839  0.874633  0.000000  1
  Co  Co18  1  0.125420  0.639052  0.000000  1
  Co  Co19  1  0.361710  0.486829  0.000000  1
  Co  Co20  1  0.486323  0.361410  0.000000  1
  Co  Co21  1  0.874936  0.513180  0.000000  1
  Co  Co22  1  0.637986  0.124484  0.000000  1
  Ni  Ni23  1  0.000091  0.000145  0.500000  1
  P  P24  1  0.180768  0.999896  0.500000  1
  P  P25  1  0.999591  0.180977  0.500000  1
  P  P26  1  0.819524  0.818532  0.500000  1
  P  P27  1  0.521067  0.689310  0.000000  1
  P  P28  1  0.314059  0.834147  0.000000  1
  P  P29  1  0.167972  0.480392  0.000000  1
  P  P30  1  0.479157  0.166738  0.000000  1
  P  P31  1  0.687655  0.519738  0.000000  1
  P  P32  1  0.832281  0.311702  0.000000  1
  P  P33  1  0.632672  0.997431  0.500000  1
  P  P34  1  0.000263  0.635201  0.500000  1
  P  P35  1  0.364673  0.365169  0.500000  1
