# generated using pymatgen
data_Gd3Al12TcRu3
_symmetry_space_group_name_H-M   'P 1'
_cell_length_a   8.83487700
_cell_length_b   8.83487768
_cell_length_c   9.52912200
_cell_angle_alpha   90.00000000
_cell_angle_beta   90.00000000
_cell_angle_gamma   119.99999369
_symmetry_Int_Tables_number   1
_chemical_formula_structural   Gd3Al12TcRu3
_chemical_formula_sum   'Gd6 Al24 Tc2 Ru6'
_cell_volume   644.14641684
_cell_formula_units_Z   2
loop_
 _symmetry_equiv_pos_site_id
 _symmetry_equiv_pos_as_xyz
  1  'x, y, z'
loop_
 _atom_site_type_symbol
 _atom_site_label
 _atom_site_symmetry_multiplicity
 _atom_site_fract_x
 _atom_site_fract_y
 _atom_site_fract_z
 _atom_site_occupancy
  Gd  Gd0  1  0.192654  0.385309  0.250000  1
  Gd  Gd1  1  0.807346  0.614691  0.750000  1
  Gd  Gd2  1  0.614691  0.807346  0.250000  1
  Gd  Gd3  1  0.385309  0.192654  0.750000  1
  Gd  Gd4  1  0.192654  0.807346  0.250000  1
  Gd  Gd5  1  0.807346  0.192654  0.750000  1
  Al  Al6  1  0.333333  0.666667  0.009390  1
  Al  Al7  1  0.666667  0.333333  0.990610  1
  Al  Al8  1  0.666667  0.333333  0.509390  1
  Al  Al9  1  0.333333  0.666667  0.490610  1
  Al  Al10  1  0.162244  0.324490  0.578779  1
  Al  Al11  1  0.837756  0.675510  0.421221  1
  Al  Al12  1  0.675510  0.837756  0.578779  1
  Al  Al13  1  0.837756  0.675510  0.078779  1
  Al  Al14  1  0.324490  0.162244  0.421221  1
  Al  Al15  1  0.162244  0.324490  0.921221  1
  Al  Al16  1  0.162244  0.837756  0.578779  1
  Al  Al17  1  0.324490  0.162244  0.078779  1
  Al  Al18  1  0.837756  0.162244  0.421221  1
  Al  Al19  1  0.675510  0.837756  0.921221  1
  Al  Al20  1  0.837756  0.162244  0.078779  1
  Al  Al21  1  0.162244  0.837756  0.921221  1
  Al  Al22  1  0.561328  0.122656  0.250000  1
  Al  Al23  1  0.438672  0.877344  0.750000  1
  Al  Al24  1  0.877344  0.438672  0.250000  1
  Al  Al25  1  0.122656  0.561328  0.750000  1
  Al  Al26  1  0.561328  0.438672  0.250000  1
  Al  Al27  1  0.438672  0.561328  0.750000  1
  Al  Al28  1  0.000000  0.000000  0.250000  1
  Al  Al29  1  0.000000  0.000000  0.750000  1
  Tc  Tc30  1  0.000000  0.000000  0.000000  1
  Tc  Tc31  1  0.000000  0.000000  0.500000  1
  Ru  Ru32  1  0.500000  0.000000  0.000000  1
  Ru  Ru33  1  0.000000  0.500000  0.000000  1
  Ru  Ru34  1  0.500000  0.000000  0.500000  1
  Ru  Ru35  1  0.500000  0.500000  0.000000  1
  Ru  Ru36  1  0.000000  0.500000  0.500000  1
  Ru  Ru37  1  0.500000  0.500000  0.500000  1
