# generated using pymatgen
data_Tb2Ho5Co4Sn23Ir2
_symmetry_space_group_name_H-M   'P 1'
_cell_length_a   9.75543055
_cell_length_b   9.75697658
_cell_length_c   10.03404637
_cell_angle_alpha   90.17601892
_cell_angle_beta   89.82686999
_cell_angle_gamma   120.05706109
_symmetry_Int_Tables_number   1
_chemical_formula_structural   Tb2Ho5Co4Sn23Ir2
_chemical_formula_sum   'Tb2 Ho5 Co4 Sn23 Ir2'
_cell_volume   826.63873559
_cell_formula_units_Z   1
loop_
 _symmetry_equiv_pos_site_id
 _symmetry_equiv_pos_as_xyz
  1  'x, y, z'
loop_
 _atom_site_type_symbol
 _atom_site_label
 _atom_site_symmetry_multiplicity
 _atom_site_fract_x
 _atom_site_fract_y
 _atom_site_fract_z
 _atom_site_occupancy
  Tb  Tb0  1  0.000006  0.000003  0.000014  1
  Tb  Tb1  1  0.956947  0.478539  0.693797  1
  Ho  Ho2  1  0.478800  0.521212  0.306257  1
  Ho  Ho3  1  0.521205  0.478832  0.693754  1
  Ho  Ho4  1  0.478749  0.957276  0.306173  1
  Ho  Ho5  1  0.521257  0.042695  0.693831  1
  Ho  Ho6  1  0.042733  0.521258  0.306094  1
  Co  Co7  1  0.831314  0.664148  0.197535  1
  Co  Co8  1  0.168816  0.335778  0.802523  1
  Co  Co9  1  0.335846  0.168692  0.197556  1
  Co  Co10  1  0.664129  0.831302  0.802470  1
  Sn  Sn11  1  0.351015  0.004416  0.005664  1
  Sn  Sn12  1  0.648999  0.995604  0.994365  1
  Sn  Sn13  1  0.004415  0.350954  0.994425  1
  Sn  Sn14  1  0.995637  0.649031  0.005686  1
  Sn  Sn15  1  0.654131  0.654153  0.000000  1
  Sn  Sn16  1  0.345841  0.345834  0.999991  1
  Sn  Sn17  1  0.335849  0.664224  0.819162  1
  Sn  Sn18  1  0.664188  0.335769  0.180864  1
  Sn  Sn19  1  0.000023  0.000011  0.499994  1
  Sn  Sn20  1  0.779432  0.220328  0.456945  1
  Sn  Sn21  1  0.220696  0.779784  0.542789  1
  Sn  Sn22  1  0.780950  0.561891  0.451176  1
  Sn  Sn23  1  0.219187  0.438078  0.548576  1
  Sn  Sn24  1  0.438105  0.218936  0.451291  1
  Sn  Sn25  1  0.561896  0.781064  0.548688  1
  Sn  Sn26  1  0.333716  0.666312  0.117083  1
  Sn  Sn27  1  0.665947  0.333519  0.883132  1
  Sn  Sn28  1  0.117372  0.882701  0.274185  1
  Sn  Sn29  1  0.882631  0.117119  0.725854  1
  Sn  Sn30  1  0.124305  0.237349  0.278382  1
  Sn  Sn31  1  0.875660  0.762800  0.721639  1
  Sn  Sn32  1  0.762611  0.875709  0.278387  1
  Sn  Sn33  1  0.237378  0.124324  0.721624  1
  Ir  Ir34  1  0.831828  0.168190  0.197120  1
  Ir  Ir35  1  0.168385  0.832164  0.802976  1
