# generated using pymatgen
data_NdPuNp4(Ni3Bi4)2
_symmetry_space_group_name_H-M   'P 1'
_cell_length_a   8.39901849
_cell_length_b   8.39901976
_cell_length_c   8.39901834
_cell_angle_alpha   109.92272189
_cell_angle_beta   109.24594081
_cell_angle_gamma   109.24594674
_symmetry_Int_Tables_number   1
_chemical_formula_structural   NdPuNp4(Ni3Bi4)2
_chemical_formula_sum   'Nd1 Pu1 Np4 Ni6 Bi8'
_cell_volume   456.08262073
_cell_formula_units_Z   1
loop_
 _symmetry_equiv_pos_site_id
 _symmetry_equiv_pos_as_xyz
  1  'x, y, z'
loop_
 _atom_site_type_symbol
 _atom_site_label
 _atom_site_symmetry_multiplicity
 _atom_site_fract_x
 _atom_site_fract_y
 _atom_site_fract_z
 _atom_site_occupancy
  Nd  Nd0  1  0.750000  0.375000  0.625000  1
  Pu  Pu1  1  0.250000  0.125000  0.875000  1
  Np  Np2  1  0.126534  0.875239  0.248965  1
  Np  Np3  1  0.373466  0.622430  0.748705  1
  Np  Np4  1  0.873726  0.251295  0.124761  1
  Np  Np5  1  0.626274  0.751035  0.377570  1
  Ni  Ni6  1  0.624332  0.377253  0.245824  1
  Ni  Ni7  1  0.875668  0.121492  0.752922  1
  Ni  Ni8  1  0.368570  0.247078  0.622747  1
  Ni  Ni9  1  0.131430  0.754176  0.878508  1
  Ni  Ni10  1  0.250000  0.625000  0.375000  1
  Ni  Ni11  1  0.750000  0.875000  0.125000  1
  Bi  Bi12  1  0.334671  0.335467  0.334714  1
  Bi  Bi13  1  0.165329  0.500042  0.000796  1
  Bi  Bi14  1  0.000080  0.162564  0.498543  1
  Bi  Bi15  1  0.835979  0.837516  0.837436  1
  Bi  Bi16  1  0.499920  0.998463  0.162484  1
  Bi  Bi17  1  0.664021  0.501457  0.001537  1
  Bi  Bi18  1  0.499246  0.999204  0.664533  1
  Bi  Bi19  1  0.000754  0.665286  0.499958  1
