# generated using pymatgen
data_Tb4Y8Co4SnRh
_symmetry_space_group_name_H-M   'P 1'
_cell_length_a   8.34744657
_cell_length_b   8.34744743
_cell_length_c   8.34744738
_cell_angle_alpha   110.89697331
_cell_angle_beta   110.56326013
_cell_angle_gamma   106.98193168
_symmetry_Int_Tables_number   1
_chemical_formula_structural   Tb4Y8Co4SnRh
_chemical_formula_sum   'Tb4 Y8 Co4 Sn1 Rh1'
_cell_volume   447.11922140
_cell_formula_units_Z   1
loop_
 _symmetry_equiv_pos_site_id
 _symmetry_equiv_pos_as_xyz
  1  'x, y, z'
loop_
 _atom_site_type_symbol
 _atom_site_label
 _atom_site_symmetry_multiplicity
 _atom_site_fract_x
 _atom_site_fract_y
 _atom_site_fract_z
 _atom_site_occupancy
  Tb  Tb0  1  0.405399  0.209548  0.195851  1
  Tb  Tb1  1  0.594601  0.790452  0.804149  1
  Tb  Tb2  1  0.013698  0.209548  0.804149  1
  Tb  Tb3  1  0.986302  0.790452  0.195851  1
  Y  Y4  1  0.186912  0.293037  0.479949  1
  Y  Y5  1  0.813088  0.706963  0.520051  1
  Y  Y6  1  0.186912  0.706963  0.893875  1
  Y  Y7  1  0.813088  0.293037  0.106125  1
  Y  Y8  1  0.313399  0.618315  0.304917  1
  Y  Y9  1  0.686601  0.381685  0.695083  1
  Y  Y10  1  0.313399  0.008482  0.695083  1
  Y  Y11  1  0.686601  0.991518  0.304917  1
  Co  Co12  1  0.379967  0.000000  0.379967  1
  Co  Co13  1  0.620033  0.000000  0.620033  1
  Co  Co14  1  0.110796  0.610796  0.500000  1
  Co  Co15  1  0.889204  0.389204  0.500000  1
  Sn  Sn16  1  0.500000  0.500000  0.000000  1
  Rh  Rh17  1  0.000000  0.000000  0.000000  1
