# generated using pymatgen
data_La4Tb6Sn7Au
_symmetry_space_group_name_H-M   'P 1'
_cell_length_a   8.02598300
_cell_length_b   8.50041700
_cell_length_c   15.73426800
_cell_angle_alpha   90.00000000
_cell_angle_beta   90.00000000
_cell_angle_gamma   90.00000000
_symmetry_Int_Tables_number   1
_chemical_formula_structural   La4Tb6Sn7Au
_chemical_formula_sum   'La8 Tb12 Sn14 Au2'
_cell_volume   1073.45788362
_cell_formula_units_Z   2
loop_
 _symmetry_equiv_pos_site_id
 _symmetry_equiv_pos_as_xyz
  1  'x, y, z'
loop_
 _atom_site_type_symbol
 _atom_site_label
 _atom_site_symmetry_multiplicity
 _atom_site_fract_x
 _atom_site_fract_y
 _atom_site_fract_z
 _atom_site_occupancy
  La  La0  1  0.508595  0.315098  0.905171  1
  La  La1  1  0.008595  0.184902  0.594829  1
  La  La2  1  0.490494  0.680374  0.405242  1
  La  La3  1  0.990494  0.819626  0.094758  1
  La  La4  1  0.490494  0.680374  0.094758  1
  La  La5  1  0.990494  0.819626  0.405242  1
  La  La6  1  0.508595  0.315098  0.594829  1
  La  La7  1  0.008595  0.184902  0.905171  1
  Tb  Tb8  1  0.344488  0.831434  0.869532  1
  Tb  Tb9  1  0.844488  0.668566  0.630468  1
  Tb  Tb10  1  0.652475  0.165717  0.375921  1
  Tb  Tb11  1  0.152475  0.334283  0.124079  1
  Tb  Tb12  1  0.652475  0.165717  0.124079  1
  Tb  Tb13  1  0.152475  0.334283  0.375921  1
  Tb  Tb14  1  0.344488  0.831434  0.630468  1
  Tb  Tb15  1  0.844488  0.668566  0.869532  1
  Tb  Tb16  1  0.196212  0.499834  0.750000  1
  Tb  Tb17  1  0.696212  0.000166  0.750000  1
  Tb  Tb18  1  0.815741  0.501660  0.250000  1
  Tb  Tb19  1  0.315741  0.998340  0.250000  1
  Sn  Sn20  1  0.316219  0.039382  0.038921  1
  Sn  Sn21  1  0.816219  0.460618  0.461079  1
  Sn  Sn22  1  0.686942  0.960413  0.543103  1
  Sn  Sn23  1  0.186942  0.539587  0.956897  1
  Sn  Sn24  1  0.686942  0.960413  0.956897  1
  Sn  Sn25  1  0.186942  0.539587  0.543103  1
  Sn  Sn26  1  0.316219  0.039382  0.461079  1
  Sn  Sn27  1  0.816219  0.460618  0.038921  1
  Sn  Sn28  1  0.453137  0.376762  0.250000  1
  Sn  Sn29  1  0.953137  0.123238  0.250000  1
  Sn  Sn30  1  0.304537  0.133686  0.750000  1
  Sn  Sn31  1  0.804537  0.366314  0.750000  1
  Sn  Sn32  1  0.683771  0.856456  0.250000  1
  Sn  Sn33  1  0.183771  0.643544  0.250000  1
  Au  Au34  1  0.548178  0.625878  0.750000  1
  Au  Au35  1  0.048178  0.874122  0.750000  1
