# generated using pymatgen
data_Sc12Si12RuRh3
_symmetry_space_group_name_H-M   'P 1'
_cell_length_a   4.03064500
_cell_length_b   10.24339497
_cell_length_c   11.70195711
_cell_angle_alpha   90.04983441
_cell_angle_beta   90.00000000
_cell_angle_gamma   90.00000000
_symmetry_Int_Tables_number   1
_chemical_formula_structural   Sc12Si12RuRh3
_chemical_formula_sum   'Sc12 Si12 Ru1 Rh3'
_cell_volume   483.14423921
_cell_formula_units_Z   1
loop_
 _symmetry_equiv_pos_site_id
 _symmetry_equiv_pos_as_xyz
  1  'x, y, z'
loop_
 _atom_site_type_symbol
 _atom_site_label
 _atom_site_symmetry_multiplicity
 _atom_site_fract_x
 _atom_site_fract_y
 _atom_site_fract_z
 _atom_site_occupancy
  Sc  Sc0  1  0.250000  0.876599  0.019942  1
  Sc  Sc1  1  0.250000  0.621999  0.520899  1
  Sc  Sc2  1  0.750000  0.122571  0.979997  1
  Sc  Sc3  1  0.750000  0.376623  0.480938  1
  Sc  Sc4  1  0.250000  0.920513  0.601605  1
  Sc  Sc5  1  0.250000  0.579729  0.102071  1
  Sc  Sc6  1  0.750000  0.078970  0.398020  1
  Sc  Sc7  1  0.750000  0.420551  0.897274  1
  Sc  Sc8  1  0.250000  0.658941  0.798407  1
  Sc  Sc9  1  0.250000  0.841436  0.299361  1
  Sc  Sc10  1  0.750000  0.341667  0.200662  1
  Sc  Sc11  1  0.750000  0.158610  0.701007  1
  Si  Si12  1  0.250000  0.015134  0.823086  1
  Si  Si13  1  0.250000  0.484971  0.322545  1
  Si  Si14  1  0.750000  0.984796  0.177377  1
  Si  Si15  1  0.750000  0.514016  0.678541  1
  Si  Si16  1  0.250000  0.251164  0.841268  1
  Si  Si17  1  0.250000  0.249349  0.342148  1
  Si  Si18  1  0.750000  0.749564  0.157854  1
  Si  Si19  1  0.750000  0.751166  0.657548  1
  Si  Si20  1  0.250000  0.194598  0.545459  1
  Si  Si21  1  0.250000  0.306383  0.044589  1
  Si  Si22  1  0.750000  0.806534  0.455165  1
  Si  Si23  1  0.750000  0.692860  0.954935  1
  Ru  Ru24  1  0.250000  0.390633  0.676750  1
  Rh  Rh25  1  0.250000  0.110287  0.177482  1
  Rh  Rh26  1  0.750000  0.610736  0.322458  1
  Rh  Rh27  1  0.750000  0.889598  0.822611  1
