# generated using pymatgen
data_Rb3Gd(AsO4)2
_symmetry_space_group_name_H-M   'P 1'
_cell_length_a   6.03337100
_cell_length_b   6.03337163
_cell_length_c   8.23712000
_cell_angle_alpha   90.00000000
_cell_angle_beta   90.00000000
_cell_angle_gamma   120.00000201
_symmetry_Int_Tables_number   1
_chemical_formula_structural   Rb3Gd(AsO4)2
_chemical_formula_sum   'Rb3 Gd1 As2 O8'
_cell_volume   259.67259884
_cell_formula_units_Z   1
loop_
 _symmetry_equiv_pos_site_id
 _symmetry_equiv_pos_as_xyz
  1  'x, y, z'
loop_
 _atom_site_type_symbol
 _atom_site_label
 _atom_site_symmetry_multiplicity
 _atom_site_fract_x
 _atom_site_fract_y
 _atom_site_fract_z
 _atom_site_occupancy
  Rb  Rb0  1  0.333333  0.666667  0.727751  1
  Rb  Rb1  1  0.666667  0.333333  0.272249  1
  Rb  Rb2  1  0.000000  0.000000  0.000000  1
  Gd  Gd3  1  0.000000  0.000000  0.500000  1
  As  As4  1  0.333333  0.666667  0.262138  1
  As  As5  1  0.666667  0.333333  0.737862  1
  O  O6  1  0.333333  0.666667  0.057702  1
  O  O7  1  0.666667  0.333333  0.942298  1
  O  O8  1  0.177709  0.822291  0.336472  1
  O  O9  1  0.822291  0.177709  0.663528  1
  O  O10  1  0.177709  0.355417  0.336472  1
  O  O11  1  0.822291  0.644583  0.663528  1
  O  O12  1  0.644583  0.822291  0.336472  1
  O  O13  1  0.355417  0.177709  0.663528  1
