# generated using pymatgen
data_Dy5Y5(Bi3C)2
_symmetry_space_group_name_H-M   'P 1'
_cell_length_a   9.15262909
_cell_length_b   9.15506569
_cell_length_c   6.51862000
_cell_angle_alpha   90.00004023
_cell_angle_beta   89.99998736
_cell_angle_gamma   120.00318682
_symmetry_Int_Tables_number   1
_chemical_formula_structural   Dy5Y5(Bi3C)2
_chemical_formula_sum   'Dy5 Y5 Bi6 C2'
_cell_volume   473.02018873
_cell_formula_units_Z   1
loop_
 _symmetry_equiv_pos_site_id
 _symmetry_equiv_pos_as_xyz
  1  'x, y, z'
loop_
 _atom_site_type_symbol
 _atom_site_label
 _atom_site_symmetry_multiplicity
 _atom_site_fract_x
 _atom_site_fract_y
 _atom_site_fract_z
 _atom_site_occupancy
  Dy  Dy0  1  0.791900  0.791972  0.249997  1
  Dy  Dy1  1  0.207937  0.999976  0.250000  1
  Dy  Dy2  1  0.999893  0.207831  0.249999  1
  Dy  Dy3  1  0.208076  0.208094  0.749998  1
  Dy  Dy4  1  0.792092  0.000130  0.749999  1
  Y  Y5  1  0.666572  0.333350  0.499996  1
  Y  Y6  1  0.333426  0.666614  0.499997  1
  Y  Y7  1  0.333427  0.666614  0.000005  1
  Y  Y8  1  0.666575  0.333352  0.000003  1
  Y  Y9  1  0.000103  0.791339  0.750000  1
  Bi  Bi10  1  0.401988  0.401973  0.249999  1
  Bi  Bi11  1  0.597780  0.000019  0.250001  1
  Bi  Bi12  1  0.000028  0.597761  0.250004  1
  Bi  Bi13  1  0.597921  0.597970  0.750001  1
  Bi  Bi14  1  0.402321  0.000027  0.750002  1
  Bi  Bi15  1  0.999965  0.402140  0.750004  1
  C  C16  1  0.000000  0.000419  0.499582  1
  C  C17  1  0.000000  0.000420  0.000408  1
