# generated using pymatgen
data_Np(PO3)4
_symmetry_space_group_name_H-M   'P 1'
_cell_length_a   8.36641314
_cell_length_b   8.39279144
_cell_length_c   8.72719874
_cell_angle_alpha   117.74424953
_cell_angle_beta   117.51749081
_cell_angle_gamma   90.27136667
_symmetry_Int_Tables_number   1
_chemical_formula_structural   Np(PO3)4
_chemical_formula_sum   'Np2 P8 O24'
_cell_volume   461.74753320
_cell_formula_units_Z   2
loop_
 _symmetry_equiv_pos_site_id
 _symmetry_equiv_pos_as_xyz
  1  'x, y, z'
loop_
 _atom_site_type_symbol
 _atom_site_label
 _atom_site_symmetry_multiplicity
 _atom_site_fract_x
 _atom_site_fract_y
 _atom_site_fract_z
 _atom_site_occupancy
  Np  Np0  1  0.723812  0.717833  0.938556  1
  Np  Np1  1  0.276188  0.282167  0.061444  1
  P  P2  1  0.239497  0.767257  0.285925  1
  P  P3  1  0.527750  0.993061  0.267038  1
  P  P4  1  0.761537  0.525593  0.268431  1
  P  P5  1  0.760503  0.232743  0.714075  1
  P  P6  1  0.002865  0.768178  0.719761  1
  P  P7  1  0.997135  0.231822  0.280239  1
  P  P8  1  0.472250  0.006939  0.732962  1
  P  P9  1  0.238463  0.474407  0.731569  1
  O  O10  1  0.718023  0.086447  0.488208  1
  O  O11  1  0.448598  0.145385  0.243536  1
  O  O12  1  0.281977  0.913553  0.511792  1
  O  O13  1  0.088093  0.292312  0.513801  1
  O  O14  1  0.048404  0.759526  0.138777  1
  O  O15  1  0.127548  0.963268  0.844176  1
  O  O16  1  0.133737  0.633577  0.741302  1
  O  O17  1  0.570863  0.858834  0.113815  1
  O  O18  1  0.872452  0.036732  0.155824  1
  O  O19  1  0.551402  0.854615  0.756464  1
  O  O20  1  0.911907  0.707688  0.486199  1
  O  O21  1  0.852723  0.732955  0.756925  1
  O  O22  1  0.951596  0.240474  0.861223  1
  O  O23  1  0.866263  0.366423  0.258698  1
  O  O24  1  0.588256  0.475841  0.266932  1
  O  O25  1  0.603682  0.130989  0.719107  1
  O  O26  1  0.147277  0.267045  0.243075  1
  O  O27  1  0.724734  0.413641  0.731184  1
  O  O28  1  0.396318  0.869011  0.280893  1
  O  O29  1  0.255473  0.434042  0.887758  1
  O  O30  1  0.275266  0.586359  0.268816  1
  O  O31  1  0.744527  0.565958  0.112242  1
  O  O32  1  0.429137  0.141166  0.886185  1
  O  O33  1  0.411744  0.524159  0.733068  1
