# generated using pymatgen
data_Y3Th(B10Rh)2
_symmetry_space_group_name_H-M   'P 1'
_cell_length_a   4.17548600
_cell_length_b   5.69938406
_cell_length_c   11.36117611
_cell_angle_alpha   90.01590487
_cell_angle_beta   90.00000000
_cell_angle_gamma   90.00000000
_symmetry_Int_Tables_number   1
_chemical_formula_structural   Y3Th(B10Rh)2
_chemical_formula_sum   'Y3 Th1 B20 Rh2'
_cell_volume   270.36983131
_cell_formula_units_Z   1
loop_
 _symmetry_equiv_pos_site_id
 _symmetry_equiv_pos_as_xyz
  1  'x, y, z'
loop_
 _atom_site_type_symbol
 _atom_site_label
 _atom_site_symmetry_multiplicity
 _atom_site_fract_x
 _atom_site_fract_y
 _atom_site_fract_z
 _atom_site_occupancy
  Y  Y0  1  0.500000  0.802066  0.639463  1
  Y  Y1  1  0.500000  0.300413  0.864703  1
  Y  Y2  1  0.500000  0.700542  0.133956  1
  Th  Th3  1  0.500000  0.203129  0.364209  1
  B  B4  1  0.000000  0.381928  0.042145  1
  B  B5  1  0.000000  0.618328  0.956822  1
  B  B6  1  0.000000  0.117895  0.543659  1
  B  B7  1  0.000000  0.881215  0.457612  1
  B  B8  1  0.000000  0.362702  0.196863  1
  B  B9  1  0.000000  0.637012  0.802527  1
  B  B10  1  0.000000  0.137360  0.698590  1
  B  B11  1  0.000000  0.864169  0.302709  1
  B  B12  1  0.000000  0.055707  0.192318  1
  B  B13  1  0.000000  0.944381  0.807397  1
  B  B14  1  0.000000  0.444974  0.693225  1
  B  B15  1  0.000000  0.555309  0.306718  1
  B  B16  1  0.301447  0.220314  0.117167  1
  B  B17  1  0.698390  0.779663  0.881318  1
  B  B18  1  0.301610  0.779663  0.881318  1
  B  B19  1  0.698224  0.279231  0.619571  1
  B  B20  1  0.698553  0.220314  0.117167  1
  B  B21  1  0.301570  0.717118  0.380192  1
  B  B22  1  0.698430  0.717118  0.380192  1
  B  B23  1  0.301776  0.279231  0.619571  1
  Rh  Rh24  1  0.000000  0.999567  0.999605  1
  Rh  Rh25  1  0.000000  0.500654  0.500984  1
