# generated using pymatgen
data_Pr3Si5AsPd20
_symmetry_space_group_name_H-M   'P 1'
_cell_length_a   8.79460582
_cell_length_b   8.82999374
_cell_length_c   8.82999363
_cell_angle_alpha   59.73503296
_cell_angle_beta   60.13248156
_cell_angle_gamma   60.13248289
_symmetry_Int_Tables_number   1
_chemical_formula_structural   Pr3Si5AsPd20
_chemical_formula_sum   'Pr3 Si5 As1 Pd20'
_cell_volume   484.85096345
_cell_formula_units_Z   1
loop_
 _symmetry_equiv_pos_site_id
 _symmetry_equiv_pos_as_xyz
  1  'x, y, z'
loop_
 _atom_site_type_symbol
 _atom_site_label
 _atom_site_symmetry_multiplicity
 _atom_site_fract_x
 _atom_site_fract_y
 _atom_site_fract_z
 _atom_site_occupancy
  Pr  Pr0  1  0.249875  0.250125  0.250125  1
  Pr  Pr1  1  0.749875  0.750125  0.750125  1
  Pr  Pr2  1  0.000487  0.999513  0.999513  1
  Si  Si3  1  0.267741  0.732259  0.732259  1
  Si  Si4  1  0.266819  0.733181  0.267257  1
  Si  Si5  1  0.732743  0.267257  0.733181  1
  Si  Si6  1  0.266819  0.267257  0.733181  1
  Si  Si7  1  0.732743  0.733181  0.267257  1
  As  As8  1  0.735347  0.264653  0.264653  1
  Pd  Pd9  1  0.379585  0.388413  0.388413  1
  Pd  Pd10  1  0.613618  0.614913  0.614913  1
  Pd  Pd11  1  0.385087  0.386382  0.843446  1
  Pd  Pd12  1  0.385087  0.843446  0.386382  1
  Pd  Pd13  1  0.611587  0.620415  0.156409  1
  Pd  Pd14  1  0.611587  0.156409  0.620415  1
  Pd  Pd15  1  0.843591  0.388413  0.388413  1
  Pd  Pd16  1  0.156554  0.614913  0.614913  1
  Pd  Pd17  1  0.348207  0.998921  0.998921  1
  Pd  Pd18  1  0.653952  0.998921  0.998921  1
  Pd  Pd19  1  0.001079  0.346048  0.651793  1
  Pd  Pd20  1  0.001079  0.651793  0.346048  1
  Pd  Pd21  1  0.006917  0.349383  0.993083  1
  Pd  Pd22  1  0.650617  0.993083  0.349383  1
  Pd  Pd23  1  0.999660  0.653925  0.000340  1
  Pd  Pd24  1  0.346075  0.000340  0.653925  1
  Pd  Pd25  1  0.006917  0.993083  0.349383  1
  Pd  Pd26  1  0.999660  0.000340  0.653925  1
  Pd  Pd27  1  0.650617  0.349383  0.993083  1
  Pd  Pd28  1  0.346075  0.653925  0.000340  1
