# generated using pymatgen
data_Nd17Ho3Sn16
_symmetry_space_group_name_H-M   'P 1'
_cell_length_a   8.25439525
_cell_length_b   8.41258925
_cell_length_c   15.93390700
_cell_angle_alpha   90.00000000
_cell_angle_beta   90.00000000
_cell_angle_gamma   89.97192123
_symmetry_Int_Tables_number   1
_chemical_formula_structural   Nd17Ho3Sn16
_chemical_formula_sum   'Nd17 Ho3 Sn16'
_cell_volume   1106.46370188
_cell_formula_units_Z   1
loop_
 _symmetry_equiv_pos_site_id
 _symmetry_equiv_pos_as_xyz
  1  'x, y, z'
loop_
 _atom_site_type_symbol
 _atom_site_label
 _atom_site_symmetry_multiplicity
 _atom_site_fract_x
 _atom_site_fract_y
 _atom_site_fract_z
 _atom_site_occupancy
  Nd  Nd0  1  0.017411  0.181067  0.401043  1
  Nd  Nd1  1  0.368469  0.836778  0.120568  1
  Nd  Nd2  1  0.132198  0.336363  0.620438  1
  Nd  Nd3  1  0.481950  0.681374  0.901234  1
  Nd  Nd4  1  0.868347  0.663119  0.120922  1
  Nd  Nd5  1  0.132198  0.336363  0.879562  1
  Nd  Nd6  1  0.481950  0.681374  0.598766  1
  Nd  Nd7  1  0.631115  0.162928  0.620338  1
  Nd  Nd8  1  0.801903  0.498018  0.750000  1
  Nd  Nd9  1  0.868347  0.663119  0.379078  1
  Nd  Nd10  1  0.017411  0.181067  0.098957  1
  Nd  Nd11  1  0.982814  0.819454  0.901156  1
  Nd  Nd12  1  0.631115  0.162928  0.879662  1
  Nd  Nd13  1  0.517616  0.319046  0.099117  1
  Nd  Nd14  1  0.368469  0.836778  0.379432  1
  Nd  Nd15  1  0.982814  0.819454  0.598844  1
  Nd  Nd16  1  0.517616  0.319046  0.400883  1
  Ho  Ho17  1  0.199728  0.502027  0.250000  1
  Ho  Ho18  1  0.699880  0.998230  0.250000  1
  Ho  Ho19  1  0.300145  0.002165  0.750000  1
  Sn  Sn20  1  0.791438  0.463688  0.541787  1
  Sn  Sn21  1  0.708542  0.964614  0.456446  1
  Sn  Sn22  1  0.675130  0.858173  0.750000  1
  Sn  Sn23  1  0.208499  0.535238  0.456472  1
  Sn  Sn24  1  0.291569  0.035413  0.956620  1
  Sn  Sn25  1  0.824052  0.354399  0.250000  1
  Sn  Sn26  1  0.791438  0.463688  0.958213  1
  Sn  Sn27  1  0.565247  0.616429  0.250000  1
  Sn  Sn28  1  0.208499  0.535238  0.043528  1
  Sn  Sn29  1  0.431466  0.382950  0.750000  1
  Sn  Sn30  1  0.177724  0.646235  0.750000  1
  Sn  Sn31  1  0.935595  0.114329  0.750000  1
  Sn  Sn32  1  0.291569  0.035413  0.543380  1
  Sn  Sn33  1  0.708542  0.964614  0.043554  1
  Sn  Sn34  1  0.323866  0.145158  0.250000  1
  Sn  Sn35  1  0.065333  0.883725  0.250000  1
