# generated using pymatgen
data_Pr12Ge(PI4)3
_symmetry_space_group_name_H-M   'P 1'
_cell_length_a   10.81261242
_cell_length_b   10.81261162
_cell_length_c   10.81261283
_cell_angle_alpha   109.48156730
_cell_angle_beta   109.48157083
_cell_angle_gamma   109.48156371
_symmetry_Int_Tables_number   1
_chemical_formula_structural   Pr12Ge(PI4)3
_chemical_formula_sum   'Pr12 Ge1 P3 I12'
_cell_volume   972.75511319
_cell_formula_units_Z   1
loop_
 _symmetry_equiv_pos_site_id
 _symmetry_equiv_pos_as_xyz
  1  'x, y, z'
loop_
 _atom_site_type_symbol
 _atom_site_label
 _atom_site_symmetry_multiplicity
 _atom_site_fract_x
 _atom_site_fract_y
 _atom_site_fract_z
 _atom_site_occupancy
  Pr  Pr0  1  0.464738  0.486214  0.229822  1
  Pr  Pr1  1  0.750000  0.229744  0.270256  1
  Pr  Pr2  1  0.750000  0.020204  0.479796  1
  Pr  Pr3  1  0.229822  0.464738  0.486214  1
  Pr  Pr4  1  0.270256  0.750000  0.229744  1
  Pr  Pr5  1  0.035262  0.270178  0.013786  1
  Pr  Pr6  1  0.013786  0.035262  0.270178  1
  Pr  Pr7  1  0.479796  0.750000  0.020204  1
  Pr  Pr8  1  0.486214  0.229822  0.464738  1
  Pr  Pr9  1  0.020204  0.479796  0.750000  1
  Pr  Pr10  1  0.270178  0.013786  0.035262  1
  Pr  Pr11  1  0.229744  0.270256  0.750000  1
  Ge  Ge12  1  0.250000  0.250000  0.250000  1
  P  P13  1  0.500283  0.999717  0.250000  1
  P  P14  1  0.999717  0.250000  0.500283  1
  P  P15  1  0.250000  0.500283  0.999717  1
  I  I16  1  0.250000  0.757767  0.742233  1
  I  I17  1  0.515169  0.508211  0.758616  1
  I  I18  1  0.984831  0.741384  0.991789  1
  I  I19  1  0.742233  0.250000  0.757767  1
  I  I20  1  0.991789  0.984831  0.741384  1
  I  I21  1  0.250000  0.992170  0.507830  1
  I  I22  1  0.758616  0.515169  0.508211  1
  I  I23  1  0.507830  0.250000  0.992170  1
  I  I24  1  0.757767  0.742233  0.250000  1
  I  I25  1  0.741384  0.991789  0.984831  1
  I  I26  1  0.992170  0.507830  0.250000  1
  I  I27  1  0.508211  0.758616  0.515169  1
