# generated using pymatgen
data_Lu10Tl7In(NiAu)2
_symmetry_space_group_name_H-M   'P 1'
_cell_length_a   3.53711600
_cell_length_b   8.14802064
_cell_length_c   18.12508080
_cell_angle_alpha   89.92003800
_cell_angle_beta   90.00000000
_cell_angle_gamma   90.00000000
_symmetry_Int_Tables_number   1
_chemical_formula_structural   Lu10Tl7In(NiAu)2
_chemical_formula_sum   'Lu10 Tl7 In1 Ni2 Au2'
_cell_volume   522.37327728
_cell_formula_units_Z   1
loop_
 _symmetry_equiv_pos_site_id
 _symmetry_equiv_pos_as_xyz
  1  'x, y, z'
loop_
 _atom_site_type_symbol
 _atom_site_label
 _atom_site_symmetry_multiplicity
 _atom_site_fract_x
 _atom_site_fract_y
 _atom_site_fract_z
 _atom_site_occupancy
  Lu  Lu0  1  0.000000  0.879658  0.082345  1
  Lu  Lu1  1  0.000000  0.736966  0.283122  1
  Lu  Lu2  1  0.000000  0.726434  0.775402  1
  Lu  Lu3  1  0.000000  0.387078  0.412814  1
  Lu  Lu4  1  0.000000  0.120230  0.917611  1
  Lu  Lu5  1  0.000000  0.263545  0.716570  1
  Lu  Lu6  1  0.000000  0.499947  0.999946  1
  Lu  Lu7  1  0.000000  0.274041  0.224262  1
  Lu  Lu8  1  0.000000  0.611092  0.588187  1
  Lu  Lu9  1  0.000000  0.001272  0.500133  1
  Tl  Tl10  1  0.500000  0.209319  0.065360  1
  Tl  Tl11  1  0.500000  0.425217  0.850250  1
  Tl  Tl12  1  0.500000  0.574948  0.149600  1
  Tl  Tl13  1  0.500000  0.083189  0.354609  1
  Tl  Tl14  1  0.500000  0.919350  0.644891  1
  Tl  Tl15  1  0.500000  0.790706  0.934590  1
  Tl  Tl16  1  0.500000  0.703863  0.434872  1
  In  In17  1  0.500000  0.295600  0.566075  1
  Ni  Ni18  1  0.500000  0.524652  0.694989  1
  Ni  Ni19  1  0.500000  0.473344  0.304403  1
  Au  Au20  1  0.500000  0.971325  0.199058  1
  Au  Au21  1  0.500000  0.028227  0.800909  1
