# generated using pymatgen
data_Na5Li2TaAs4
_symmetry_space_group_name_H-M   'P 1'
_cell_length_a   7.41826900
_cell_length_b   7.99114100
_cell_length_c   8.91681300
_cell_angle_alpha   90.00000000
_cell_angle_beta   90.00000000
_cell_angle_gamma   90.00000000
_symmetry_Int_Tables_number   1
_chemical_formula_structural   Na5Li2TaAs4
_chemical_formula_sum   'Na10 Li4 Ta2 As8'
_cell_volume   528.59254057
_cell_formula_units_Z   2
loop_
 _symmetry_equiv_pos_site_id
 _symmetry_equiv_pos_as_xyz
  1  'x, y, z'
loop_
 _atom_site_type_symbol
 _atom_site_label
 _atom_site_symmetry_multiplicity
 _atom_site_fract_x
 _atom_site_fract_y
 _atom_site_fract_z
 _atom_site_occupancy
  Na  Na0  1  0.870604  0.420540  0.733495  1
  Na  Na1  1  0.370604  0.579460  0.766505  1
  Na  Na2  1  0.370604  0.579460  0.233495  1
  Na  Na3  1  0.870604  0.420540  0.266505  1
  Na  Na4  1  0.043183  0.661731  0.500000  1
  Na  Na5  1  0.543183  0.338269  0.000000  1
  Na  Na6  1  0.887186  0.079383  0.000000  1
  Na  Na7  1  0.387186  0.920617  0.500000  1
  Na  Na8  1  0.397964  0.943778  0.000000  1
  Na  Na9  1  0.897964  0.056222  0.500000  1
  Li  Li10  1  0.735761  0.819478  0.746149  1
  Li  Li11  1  0.235761  0.180522  0.753851  1
  Li  Li12  1  0.235761  0.180522  0.246149  1
  Li  Li13  1  0.735761  0.819478  0.253851  1
  Ta  Ta14  1  0.010210  0.688260  0.000000  1
  Ta  Ta15  1  0.510210  0.311740  0.500000  1
  As  As16  1  0.676064  0.676353  0.000000  1
  As  As17  1  0.176064  0.323647  0.500000  1
  As  As18  1  0.095616  0.855690  0.772756  1
  As  As19  1  0.595616  0.144310  0.727244  1
  As  As20  1  0.595616  0.144310  0.272756  1
  As  As21  1  0.095616  0.855690  0.227244  1
  As  As22  1  0.634037  0.607731  0.500000  1
  As  As23  1  0.134037  0.392269  0.000000  1
