# generated using pymatgen
data_Yb9Pr7(MgRu)4
_symmetry_space_group_name_H-M   'P 1'
_cell_length_a   10.05402297
_cell_length_b   10.07715953
_cell_length_c   10.05402200
_cell_angle_alpha   60.07591670
_cell_angle_beta   59.99999660
_cell_angle_gamma   60.07591404
_symmetry_Int_Tables_number   1
_chemical_formula_structural   Yb9Pr7(MgRu)4
_chemical_formula_sum   'Yb9 Pr7 Mg4 Ru4'
_cell_volume   721.10783240
_cell_formula_units_Z   1
loop_
 _symmetry_equiv_pos_site_id
 _symmetry_equiv_pos_as_xyz
  1  'x, y, z'
loop_
 _atom_site_type_symbol
 _atom_site_label
 _atom_site_symmetry_multiplicity
 _atom_site_fract_x
 _atom_site_fract_y
 _atom_site_fract_z
 _atom_site_occupancy
  Yb  Yb0  1  0.949091  0.550859  0.550961  1
  Yb  Yb1  1  0.551943  0.949274  0.946843  1
  Yb  Yb2  1  0.551942  0.949275  0.551942  1
  Yb  Yb3  1  0.550961  0.550859  0.949091  1
  Yb  Yb4  1  0.949090  0.550860  0.949090  1
  Yb  Yb5  1  0.946843  0.949274  0.551943  1
  Yb  Yb6  1  0.340374  0.342661  0.340374  1
  Yb  Yb7  1  0.340374  0.342661  0.976595  1
  Yb  Yb8  1  0.976595  0.342661  0.340374  1
  Pr  Pr9  1  0.340298  0.979110  0.340298  1
  Pr  Pr10  1  0.809086  0.191723  0.190105  1
  Pr  Pr11  1  0.190715  0.807910  0.810662  1
  Pr  Pr12  1  0.190714  0.807910  0.190714  1
  Pr  Pr13  1  0.190105  0.191723  0.809086  1
  Pr  Pr14  1  0.809086  0.191724  0.809086  1
  Pr  Pr15  1  0.810662  0.807910  0.190715  1
  Mg  Mg16  1  0.577885  0.578436  0.577885  1
  Mg  Mg17  1  0.577885  0.578436  0.265793  1
  Mg  Mg18  1  0.265793  0.578436  0.577885  1
  Mg  Mg19  1  0.577447  0.267657  0.577447  1
  Ru  Ru20  1  0.135962  0.130215  0.135962  1
  Ru  Ru21  1  0.135962  0.130215  0.597862  1
  Ru  Ru22  1  0.597862  0.130215  0.135962  1
  Ru  Ru23  1  0.133333  0.600001  0.133333  1
