# generated using pymatgen
data_Ho2Ni7(As2Ru)3
_symmetry_space_group_name_H-M   'P 1'
_cell_length_a   3.84391000
_cell_length_b   10.95419200
_cell_length_c   12.35347400
_cell_angle_alpha   90.00000000
_cell_angle_beta   90.00000000
_cell_angle_gamma   90.00000000
_symmetry_Int_Tables_number   1
_chemical_formula_structural   Ho2Ni7(As2Ru)3
_chemical_formula_sum   'Ho4 Ni14 As12 Ru6'
_cell_volume   520.16684238
_cell_formula_units_Z   2
loop_
 _symmetry_equiv_pos_site_id
 _symmetry_equiv_pos_as_xyz
  1  'x, y, z'
loop_
 _atom_site_type_symbol
 _atom_site_label
 _atom_site_symmetry_multiplicity
 _atom_site_fract_x
 _atom_site_fract_y
 _atom_site_fract_z
 _atom_site_occupancy
  Ho  Ho0  1  0.250000  0.589586  0.704827  1
  Ho  Ho1  1  0.250000  0.910414  0.204827  1
  Ho  Ho2  1  0.750000  0.409729  0.293790  1
  Ho  Ho3  1  0.750000  0.090271  0.793790  1
  Ni  Ni4  1  0.750000  0.591703  0.510700  1
  Ni  Ni5  1  0.750000  0.908297  0.010700  1
  Ni  Ni6  1  0.250000  0.216593  0.183678  1
  Ni  Ni7  1  0.250000  0.283407  0.683678  1
  Ni  Ni8  1  0.750000  0.786151  0.816966  1
  Ni  Ni9  1  0.750000  0.713849  0.316966  1
  Ni  Ni10  1  0.250000  0.888322  0.696772  1
  Ni  Ni11  1  0.250000  0.611678  0.196772  1
  Ni  Ni12  1  0.750000  0.106940  0.302895  1
  Ni  Ni13  1  0.750000  0.393060  0.802895  1
  Ni  Ni14  1  0.250000  0.472247  0.930708  1
  Ni  Ni15  1  0.250000  0.027753  0.430708  1
  Ni  Ni16  1  0.750000  0.532144  0.069628  1
  Ni  Ni17  1  0.750000  0.967856  0.569628  1
  As  As18  1  0.250000  0.412097  0.113161  1
  As  As19  1  0.250000  0.087903  0.613161  1
  As  As20  1  0.750000  0.590744  0.887301  1
  As  As21  1  0.750000  0.909256  0.387301  1
  As  As22  1  0.250000  0.272805  0.873867  1
  As  As23  1  0.250000  0.227195  0.373867  1
  As  As24  1  0.750000  0.731888  0.125459  1
  As  As25  1  0.750000  0.768112  0.625459  1
  As  As26  1  0.250000  0.595939  0.383933  1
  As  As27  1  0.250000  0.904061  0.883933  1
  As  As28  1  0.750000  0.404341  0.615779  1
  As  As29  1  0.750000  0.095659  0.115779  1
  Ru  Ru30  1  0.250000  0.716265  0.987833  1
  Ru  Ru31  1  0.250000  0.783735  0.487833  1
  Ru  Ru32  1  0.750000  0.289381  0.013024  1
  Ru  Ru33  1  0.750000  0.210619  0.513024  1
  Ru  Ru34  1  0.250000  0.410026  0.489676  1
  Ru  Ru35  1  0.250000  0.089974  0.989676  1
