# generated using pymatgen
data_Hf2UCo9
_symmetry_space_group_name_H-M   'P 1'
_cell_length_a   4.79472295
_cell_length_b   4.79472299
_cell_length_c   8.35748689
_cell_angle_alpha   73.33041903
_cell_angle_beta   73.33042247
_cell_angle_gamma   59.99999763
_symmetry_Int_Tables_number   1
_chemical_formula_structural   Hf2UCo9
_chemical_formula_sum   'Hf2 U1 Co9'
_cell_volume   156.99962486
_cell_formula_units_Z   1
loop_
 _symmetry_equiv_pos_site_id
 _symmetry_equiv_pos_as_xyz
  1  'x, y, z'
loop_
 _atom_site_type_symbol
 _atom_site_label
 _atom_site_symmetry_multiplicity
 _atom_site_fract_x
 _atom_site_fract_y
 _atom_site_fract_z
 _atom_site_occupancy
  Hf  Hf0  1  0.859895  0.859895  0.420317  1
  Hf  Hf1  1  0.140105  0.140105  0.579683  1
  U  U2  1  0.000000  0.000000  0.000000  1
  Co  Co3  1  0.414823  0.414823  0.251840  1
  Co  Co4  1  0.918514  0.414823  0.251840  1
  Co  Co5  1  0.414823  0.918514  0.251840  1
  Co  Co6  1  0.585177  0.585177  0.748160  1
  Co  Co7  1  0.081486  0.585177  0.748160  1
  Co  Co8  1  0.585177  0.081486  0.748160  1
  Co  Co9  1  0.665887  0.665887  0.002341  1
  Co  Co10  1  0.334113  0.334113  0.997659  1
  Co  Co11  1  0.500000  0.500000  0.500000  1
