# generated using pymatgen
data_HoTm9(Co2Rh)2
_symmetry_space_group_name_H-M   'P 1'
_cell_length_a   6.99993809
_cell_length_b   6.99993848
_cell_length_c   8.64477961
_cell_angle_alpha   113.88551903
_cell_angle_beta   113.90120650
_cell_angle_gamma   89.97584216
_symmetry_Int_Tables_number   1
_chemical_formula_structural   HoTm9(Co2Rh)2
_chemical_formula_sum   'Ho1 Tm9 Co4 Rh2'
_cell_volume   347.24562987
_cell_formula_units_Z   1
loop_
 _symmetry_equiv_pos_site_id
 _symmetry_equiv_pos_as_xyz
  1  'x, y, z'
loop_
 _atom_site_type_symbol
 _atom_site_label
 _atom_site_symmetry_multiplicity
 _atom_site_fract_x
 _atom_site_fract_y
 _atom_site_fract_z
 _atom_site_occupancy
  Ho  Ho0  1  0.535749  0.681127  0.716877  1
  Tm  Tm1  1  0.000461  0.000351  0.000212  1
  Tm  Tm2  1  0.499861  0.499751  0.000212  1
  Tm  Tm3  1  0.463921  0.318417  0.282338  1
  Tm  Tm4  1  0.963808  0.463827  0.282522  1
  Tm  Tm5  1  0.318695  0.818715  0.282522  1
  Tm  Tm6  1  0.818816  0.964027  0.282843  1
  Tm  Tm7  1  0.180921  0.036405  0.717325  1
  Tm  Tm8  1  0.681424  0.181245  0.717303  1
  Tm  Tm9  1  0.036059  0.535878  0.717303  1
  Co  Co10  1  0.613208  0.113673  0.000375  1
  Co  Co11  1  0.113134  0.387059  0.000192  1
  Co  Co12  1  0.887227  0.612825  0.000052  1
  Co  Co13  1  0.386703  0.887167  0.000375  1
  Rh  Rh14  1  0.249666  0.249426  0.499773  1
  Rh  Rh15  1  0.750346  0.750107  0.499773  1
