# generated using pymatgen
data_Er7Cd(Sn11Os3)2
_symmetry_space_group_name_H-M   'P 1'
_cell_length_a   9.81411700
_cell_length_b   9.81411670
_cell_length_c   10.14526400
_cell_angle_alpha   90.00000000
_cell_angle_beta   90.00000000
_cell_angle_gamma   120.00000439
_symmetry_Int_Tables_number   1
_chemical_formula_structural   Er7Cd(Sn11Os3)2
_chemical_formula_sum   'Er7 Cd1 Sn22 Os6'
_cell_volume   846.24558158
_cell_formula_units_Z   1
loop_
 _symmetry_equiv_pos_site_id
 _symmetry_equiv_pos_as_xyz
  1  'x, y, z'
loop_
 _atom_site_type_symbol
 _atom_site_label
 _atom_site_symmetry_multiplicity
 _atom_site_fract_x
 _atom_site_fract_y
 _atom_site_fract_z
 _atom_site_occupancy
  Er  Er0  1  0.484537  0.515463  0.305477  1
  Er  Er1  1  0.515463  0.484537  0.694523  1
  Er  Er2  1  0.484537  0.969075  0.305477  1
  Er  Er3  1  0.515463  0.030925  0.694523  1
  Er  Er4  1  0.030925  0.515463  0.305477  1
  Er  Er5  1  0.969075  0.484537  0.694523  1
  Er  Er6  1  0.000000  0.000000  0.000000  1
  Cd  Cd7  1  0.000000  0.000000  0.500000  1
  Sn  Sn8  1  0.122675  0.877325  0.268581  1
  Sn  Sn9  1  0.877325  0.122675  0.731419  1
  Sn  Sn10  1  0.122675  0.245351  0.268581  1
  Sn  Sn11  1  0.877325  0.754649  0.731419  1
  Sn  Sn12  1  0.754649  0.877325  0.268581  1
  Sn  Sn13  1  0.245351  0.122675  0.731419  1
  Sn  Sn14  1  0.778897  0.221103  0.462299  1
  Sn  Sn15  1  0.221103  0.778897  0.537701  1
  Sn  Sn16  1  0.778897  0.557793  0.462299  1
  Sn  Sn17  1  0.221103  0.442207  0.537701  1
  Sn  Sn18  1  0.442207  0.221103  0.462299  1
  Sn  Sn19  1  0.557793  0.778897  0.537701  1
  Sn  Sn20  1  0.349819  0.000000  0.000000  1
  Sn  Sn21  1  0.650181  0.000000  0.000000  1
  Sn  Sn22  1  0.000000  0.349819  0.000000  1
  Sn  Sn23  1  0.000000  0.650181  0.000000  1
  Sn  Sn24  1  0.650181  0.650181  0.000000  1
  Sn  Sn25  1  0.349819  0.349819  0.000000  1
  Sn  Sn26  1  0.333333  0.666667  0.130222  1
  Sn  Sn27  1  0.666667  0.333333  0.869778  1
  Sn  Sn28  1  0.333333  0.666667  0.826477  1
  Sn  Sn29  1  0.666667  0.333333  0.173523  1
  Os  Os30  1  0.830751  0.169249  0.203997  1
  Os  Os31  1  0.169249  0.830751  0.796003  1
  Os  Os32  1  0.830751  0.661504  0.203997  1
  Os  Os33  1  0.169249  0.338496  0.796003  1
  Os  Os34  1  0.338496  0.169249  0.203997  1
  Os  Os35  1  0.661504  0.830751  0.796003  1
