# generated using pymatgen
data_Dy7YTc2(B12Ir)2
_symmetry_space_group_name_H-M   'P 1'
_cell_length_a   3.67391100
_cell_length_b   9.16215064
_cell_length_c   11.54351764
_cell_angle_alpha   90.27311736
_cell_angle_beta   90.00000000
_cell_angle_gamma   90.00000000
_symmetry_Int_Tables_number   1
_chemical_formula_structural   Dy7YTc2(B12Ir)2
_chemical_formula_sum   'Dy7 Y1 Tc2 B24 Ir2'
_cell_volume   388.56107878
_cell_formula_units_Z   1
loop_
 _symmetry_equiv_pos_site_id
 _symmetry_equiv_pos_as_xyz
  1  'x, y, z'
loop_
 _atom_site_type_symbol
 _atom_site_label
 _atom_site_symmetry_multiplicity
 _atom_site_fract_x
 _atom_site_fract_y
 _atom_site_fract_z
 _atom_site_occupancy
  Dy  Dy0  1  0.000000  0.682251  0.590211  1
  Dy  Dy1  1  0.000000  0.826929  0.082626  1
  Dy  Dy2  1  0.000000  0.173107  0.917376  1
  Dy  Dy3  1  0.000000  0.946466  0.371935  1
  Dy  Dy4  1  0.000000  0.053499  0.628077  1
  Dy  Dy5  1  0.000000  0.441191  0.125912  1
  Dy  Dy6  1  0.000000  0.558817  0.874113  1
  Y  Y7  1  0.000000  0.317516  0.409792  1
  Tc  Tc8  1  0.000000  0.138314  0.179759  1
  Tc  Tc9  1  0.000000  0.861552  0.820067  1
  B  B10  1  0.500000  0.554196  0.433803  1
  B  B11  1  0.500000  0.446133  0.566382  1
  B  B12  1  0.500000  0.053295  0.067307  1
  B  B13  1  0.500000  0.946692  0.932646  1
  B  B14  1  0.500000  0.749065  0.421231  1
  B  B15  1  0.500000  0.250935  0.578959  1
  B  B16  1  0.500000  0.247039  0.080559  1
  B  B17  1  0.500000  0.752975  0.919391  1
  B  B18  1  0.500000  0.790771  0.266348  1
  B  B19  1  0.500000  0.209237  0.733698  1
  B  B20  1  0.500000  0.291790  0.233692  1
  B  B21  1  0.500000  0.708146  0.766152  1
  B  B22  1  0.500000  0.631999  0.184247  1
  B  B23  1  0.500000  0.368080  0.815763  1
  B  B24  1  0.500000  0.131871  0.314288  1
  B  B25  1  0.500000  0.867930  0.685574  1
  B  B26  1  0.500000  0.983321  0.212855  1
  B  B27  1  0.500000  0.016617  0.787122  1
  B  B28  1  0.500000  0.482986  0.287047  1
  B  B29  1  0.500000  0.517211  0.712890  1
  B  B30  1  0.500000  0.608987  0.030543  1
  B  B31  1  0.500000  0.391078  0.969466  1
  B  B32  1  0.500000  0.109087  0.470379  1
  B  B33  1  0.500000  0.890764  0.529688  1
  Ir  Ir34  1  0.000000  0.636721  0.322430  1
  Ir  Ir35  1  0.000000  0.363431  0.677676  1
