# generated using pymatgen
data_Lu3In3GaCu2
_symmetry_space_group_name_H-M   'P 1'
_cell_length_a   7.18443600
_cell_length_b   7.18443556
_cell_length_c   4.19919500
_cell_angle_alpha   90.00000000
_cell_angle_beta   90.00000000
_cell_angle_gamma   120.00001124
_symmetry_Int_Tables_number   1
_chemical_formula_structural   Lu3In3GaCu2
_chemical_formula_sum   'Lu3 In3 Ga1 Cu2'
_cell_volume   187.70764419
_cell_formula_units_Z   1
loop_
 _symmetry_equiv_pos_site_id
 _symmetry_equiv_pos_as_xyz
  1  'x, y, z'
loop_
 _atom_site_type_symbol
 _atom_site_label
 _atom_site_symmetry_multiplicity
 _atom_site_fract_x
 _atom_site_fract_y
 _atom_site_fract_z
 _atom_site_occupancy
  Lu  Lu0  1  0.995940  0.583863  0.500000  1
  Lu  Lu1  1  0.416137  0.412077  0.500000  1
  Lu  Lu2  1  0.587923  0.004060  0.500000  1
  In  In3  1  0.754748  0.743478  0.000000  1
  In  In4  1  0.988730  0.245252  0.000000  1
  In  In5  1  0.256522  0.011270  0.000000  1
  Ga  Ga6  1  0.333333  0.666667  0.000000  1
  Cu  Cu7  1  0.000000  0.000000  0.500000  1
  Cu  Cu8  1  0.666667  0.333333  0.000000  1
