# generated using pymatgen
data_Ca2Mn3Co3Ni6As7
_symmetry_space_group_name_H-M   'P 1'
_cell_length_a   9.46861400
_cell_length_b   9.46861377
_cell_length_c   3.80912400
_cell_angle_alpha   90.00000000
_cell_angle_beta   90.00000000
_cell_angle_gamma   120.00000685
_symmetry_Int_Tables_number   1
_chemical_formula_structural   Ca2Mn3Co3Ni6As7
_chemical_formula_sum   'Ca2 Mn3 Co3 Ni6 As7'
_cell_volume   295.75256963
_cell_formula_units_Z   1
loop_
 _symmetry_equiv_pos_site_id
 _symmetry_equiv_pos_as_xyz
  1  'x, y, z'
loop_
 _atom_site_type_symbol
 _atom_site_label
 _atom_site_symmetry_multiplicity
 _atom_site_fract_x
 _atom_site_fract_y
 _atom_site_fract_z
 _atom_site_occupancy
  Ca  Ca0  1  0.000000  0.000000  0.000000  1
  Ca  Ca1  1  0.666667  0.333333  0.500000  1
  Mn  Mn2  1  0.427437  0.544758  0.500000  1
  Mn  Mn3  1  0.117321  0.572563  0.500000  1
  Mn  Mn4  1  0.455242  0.882679  0.500000  1
  Co  Co5  1  0.759275  0.714059  0.500000  1
  Co  Co6  1  0.954785  0.240725  0.500000  1
  Co  Co7  1  0.285941  0.045215  0.500000  1
  Ni  Ni8  1  0.390749  0.292907  0.000000  1
  Ni  Ni9  1  0.902158  0.609251  0.000000  1
  Ni  Ni10  1  0.707093  0.097842  0.000000  1
  Ni  Ni11  1  0.613779  0.791328  0.000000  1
  Ni  Ni12  1  0.177549  0.386221  0.000000  1
  Ni  Ni13  1  0.208672  0.822451  0.000000  1
  As  As14  1  0.630281  0.553066  0.000000  1
  As  As15  1  0.922786  0.369719  0.000000  1
  As  As16  1  0.446934  0.077214  0.000000  1
  As  As17  1  0.747284  0.963581  0.500000  1
  As  As18  1  0.216297  0.252716  0.500000  1
  As  As19  1  0.036419  0.783703  0.500000  1
  As  As20  1  0.333333  0.666667  0.000000  1
