# generated using pymatgen
data_CaNdYGa8Ag3
_symmetry_space_group_name_H-M   'P 1'
_cell_length_a   4.37415051
_cell_length_b   8.42366112
_cell_length_c   8.42366190
_cell_angle_alpha   70.61793218
_cell_angle_beta   74.95159773
_cell_angle_gamma   74.95161205
_symmetry_Int_Tables_number   1
_chemical_formula_structural   CaNdYGa8Ag3
_chemical_formula_sum   'Ca1 Nd1 Y1 Ga8 Ag3'
_cell_volume   277.57648197
_cell_formula_units_Z   1
loop_
 _symmetry_equiv_pos_site_id
 _symmetry_equiv_pos_as_xyz
  1  'x, y, z'
loop_
 _atom_site_type_symbol
 _atom_site_label
 _atom_site_symmetry_multiplicity
 _atom_site_fract_x
 _atom_site_fract_y
 _atom_site_fract_z
 _atom_site_occupancy
  Ca  Ca0  1  0.303078  0.696922  0.696922  1
  Nd  Nd1  1  0.999879  0.000121  0.000121  1
  Y  Y2  1  0.699229  0.300771  0.300771  1
  Ga  Ga3  1  0.339451  0.289816  0.031282  1
  Ga  Ga4  1  0.662163  0.705281  0.970393  1
  Ga  Ga5  1  0.339451  0.031282  0.289816  1
  Ga  Ga6  1  0.662163  0.970393  0.705281  1
  Ga  Ga7  1  0.141812  0.574932  0.141444  1
  Ga  Ga8  1  0.855776  0.424707  0.863740  1
  Ga  Ga9  1  0.141812  0.141444  0.574932  1
  Ga  Ga10  1  0.855776  0.863740  0.424707  1
  Ag  Ag11  1  0.499405  0.302883  0.698307  1
  Ag  Ag12  1  0.499405  0.698307  0.302883  1
  Ag  Ag13  1  0.000600  0.499400  0.499400  1
