# generated using pymatgen
data_Ta8Co7Si14Ni
_symmetry_space_group_name_H-M   'P 1'
_cell_length_a   9.26254348
_cell_length_b   9.26300911
_cell_length_c   9.24892700
_cell_angle_alpha   94.20569300
_cell_angle_beta   94.20301447
_cell_angle_gamma   148.60445283
_symmetry_Int_Tables_number   1
_chemical_formula_structural   Ta8Co7Si14Ni
_chemical_formula_sum   'Ta8 Co7 Si14 Ni1'
_cell_volume   397.92821428
_cell_formula_units_Z   1
loop_
 _symmetry_equiv_pos_site_id
 _symmetry_equiv_pos_as_xyz
  1  'x, y, z'
loop_
 _atom_site_type_symbol
 _atom_site_label
 _atom_site_symmetry_multiplicity
 _atom_site_fract_x
 _atom_site_fract_y
 _atom_site_fract_z
 _atom_site_occupancy
  Ta  Ta0  1  0.310163  0.499650  0.809635  1
  Ta  Ta1  1  0.690644  0.500749  0.190462  1
  Ta  Ta2  1  0.499819  0.689714  0.190462  1
  Ta  Ta3  1  0.499472  0.309985  0.809635  1
  Ta  Ta4  1  0.133468  0.133468  0.266936  1
  Ta  Ta5  1  0.867026  0.867026  0.734053  1
  Ta  Ta6  1  0.133883  0.867635  0.000491  1
  Ta  Ta7  1  0.866609  0.132856  0.000491  1
  Co  Co8  1  0.101858  0.601858  0.203716  1
  Co  Co9  1  0.898787  0.099107  0.498394  1
  Co  Co10  1  0.599607  0.399288  0.498394  1
  Co  Co11  1  0.600382  0.100382  0.200766  1
  Co  Co12  1  0.898540  0.398540  0.797079  1
  Co  Co13  1  0.102651  0.898960  0.501637  1
  Co  Co14  1  0.398986  0.602677  0.501637  1
  Si  Si15  1  0.291588  0.291588  0.583176  1
  Si  Si16  1  0.708400  0.708400  0.416800  1
  Si  Si17  1  0.289150  0.704755  0.000987  1
  Si  Si18  1  0.711836  0.296232  0.000987  1
  Si  Si19  1  0.084174  0.488770  0.591687  1
  Si  Si20  1  0.905604  0.499482  0.406395  1
  Si  Si21  1  0.500792  0.906913  0.406395  1
  Si  Si22  1  0.507513  0.102917  0.591687  1
  Si  Si23  1  0.249012  0.249032  0.000220  1
  Si  Si24  1  0.751208  0.751188  0.000220  1
  Si  Si25  1  0.297658  0.000581  0.296901  1
  Si  Si26  1  0.708453  0.003662  0.702992  1
  Si  Si27  1  0.994538  0.699330  0.702992  1
  Si  Si28  1  0.999242  0.296318  0.296901  1
  Ni  Ni29  1  0.398936  0.898936  0.797872  1
