# generated using pymatgen
data_Hf18MnGa(Re3W)2
_symmetry_space_group_name_H-M   'P 1'
_cell_length_a   8.62729700
_cell_length_b   8.62729643
_cell_length_c   8.56351300
_cell_angle_alpha   90.00000000
_cell_angle_beta   90.00000000
_cell_angle_gamma   119.99999835
_symmetry_Int_Tables_number   1
_chemical_formula_structural   Hf18MnGa(Re3W)2
_chemical_formula_sum   'Hf18 Mn1 Ga1 Re6 W2'
_cell_volume   551.99109300
_cell_formula_units_Z   1
loop_
 _symmetry_equiv_pos_site_id
 _symmetry_equiv_pos_as_xyz
  1  'x, y, z'
loop_
 _atom_site_type_symbol
 _atom_site_label
 _atom_site_symmetry_multiplicity
 _atom_site_fract_x
 _atom_site_fract_y
 _atom_site_fract_z
 _atom_site_occupancy
  Hf  Hf0  1  0.202392  0.797608  0.443328  1
  Hf  Hf1  1  0.202392  0.404785  0.443328  1
  Hf  Hf2  1  0.595215  0.797608  0.443328  1
  Hf  Hf3  1  0.806805  0.193195  0.546834  1
  Hf  Hf4  1  0.806805  0.613608  0.546834  1
  Hf  Hf5  1  0.386392  0.193195  0.546834  1
  Hf  Hf6  1  0.806805  0.193195  0.953166  1
  Hf  Hf7  1  0.806805  0.613608  0.953166  1
  Hf  Hf8  1  0.386392  0.193195  0.953166  1
  Hf  Hf9  1  0.202392  0.797608  0.056672  1
  Hf  Hf10  1  0.202392  0.404785  0.056672  1
  Hf  Hf11  1  0.595215  0.797608  0.056672  1
  Hf  Hf12  1  0.538570  0.461430  0.250000  1
  Hf  Hf13  1  0.538570  0.077137  0.250000  1
  Hf  Hf14  1  0.922863  0.461430  0.250000  1
  Hf  Hf15  1  0.460468  0.539532  0.750000  1
  Hf  Hf16  1  0.460468  0.920937  0.750000  1
  Hf  Hf17  1  0.079063  0.539532  0.750000  1
  Mn  Mn18  1  0.333333  0.666667  0.250000  1
  Ga  Ga19  1  0.666667  0.333333  0.750000  1
  Re  Re20  1  0.889070  0.110930  0.250000  1
  Re  Re21  1  0.889070  0.778137  0.250000  1
  Re  Re22  1  0.221863  0.110930  0.250000  1
  Re  Re23  1  0.111593  0.888407  0.750000  1
  Re  Re24  1  0.111593  0.223186  0.750000  1
  Re  Re25  1  0.776814  0.888407  0.750000  1
  W  W26  1  0.000000  0.000000  0.501202  1
  W  W27  1  0.000000  0.000000  0.998798  1
