# generated using pymatgen
data_NdAlOs2C
_symmetry_space_group_name_H-M   'P 1'
_cell_length_a   5.92586175
_cell_length_b   5.92586362
_cell_length_c   7.33646400
_cell_angle_alpha   90.00000000
_cell_angle_beta   90.00000000
_cell_angle_gamma   140.08013970
_symmetry_Int_Tables_number   1
_chemical_formula_structural   NdAlOs2C
_chemical_formula_sum   'Nd2 Al2 Os4 C2'
_cell_volume   165.32270283
_cell_formula_units_Z   2
loop_
 _symmetry_equiv_pos_site_id
 _symmetry_equiv_pos_as_xyz
  1  'x, y, z'
loop_
 _atom_site_type_symbol
 _atom_site_label
 _atom_site_symmetry_multiplicity
 _atom_site_fract_x
 _atom_site_fract_y
 _atom_site_fract_z
 _atom_site_occupancy
  Nd  Nd0  1  0.549508  0.450492  0.250000  1
  Nd  Nd1  1  0.450492  0.549508  0.750000  1
  Al  Al2  1  0.272164  0.727836  0.250000  1
  Al  Al3  1  0.727836  0.272164  0.750000  1
  Os  Os4  1  0.834126  0.165874  0.059296  1
  Os  Os5  1  0.165874  0.834126  0.940704  1
  Os  Os6  1  0.165874  0.834126  0.559296  1
  Os  Os7  1  0.834126  0.165874  0.440704  1
  C  C8  1  0.000000  0.000000  0.000000  1
  C  C9  1  0.000000  0.000000  0.500000  1
