# generated using pymatgen
data_YbZnCdCuPt2
_symmetry_space_group_name_H-M   'P 1'
_cell_length_a   5.19320744
_cell_length_b   5.55626578
_cell_length_c   5.27322648
_cell_angle_alpha   58.20797179
_cell_angle_beta   58.86931761
_cell_angle_gamma   57.65913828
_symmetry_Int_Tables_number   1
_chemical_formula_structural   YbZnCdCuPt2
_chemical_formula_sum   'Yb1 Zn1 Cd1 Cu1 Pt2'
_cell_volume   103.24316813
_cell_formula_units_Z   1
loop_
 _symmetry_equiv_pos_site_id
 _symmetry_equiv_pos_as_xyz
  1  'x, y, z'
loop_
 _atom_site_type_symbol
 _atom_site_label
 _atom_site_symmetry_multiplicity
 _atom_site_fract_x
 _atom_site_fract_y
 _atom_site_fract_z
 _atom_site_occupancy
  Yb  Yb0  1  0.743291  0.755015  0.746680  1
  Zn  Zn1  1  0.877106  0.372630  0.377631  1
  Cd  Cd2  1  0.996990  0.001061  0.000887  1
  Cu  Cu3  1  0.378627  0.373311  0.874750  1
  Pt  Pt4  1  0.376992  0.874644  0.375026  1
  Pt  Pt5  1  0.376992  0.373337  0.375026  1
