# generated using pymatgen
data_CeTh5OsPd7
_symmetry_space_group_name_H-M   'P 1'
_cell_length_a   8.15398569
_cell_length_b   8.14913536
_cell_length_c   8.15872298
_cell_angle_alpha   114.47887438
_cell_angle_beta   114.74921624
_cell_angle_gamma   114.24657982
_symmetry_Int_Tables_number   1
_chemical_formula_structural   CeTh5OsPd7
_chemical_formula_sum   'Ce1 Th5 Os1 Pd7'
_cell_volume   317.00538957
_cell_formula_units_Z   1
loop_
 _symmetry_equiv_pos_site_id
 _symmetry_equiv_pos_as_xyz
  1  'x, y, z'
loop_
 _atom_site_type_symbol
 _atom_site_label
 _atom_site_symmetry_multiplicity
 _atom_site_fract_x
 _atom_site_fract_y
 _atom_site_fract_z
 _atom_site_occupancy
  Ce  Ce0  1  0.387546  0.021088  0.269341  1
  Th  Th1  1  0.022549  0.270970  0.390340  1
  Th  Th2  1  0.271035  0.391042  0.022434  1
  Th  Th3  1  0.609264  0.976491  0.727083  1
  Th  Th4  1  0.978876  0.730372  0.612133  1
  Th  Th5  1  0.730418  0.610472  0.977376  1
  Os  Os6  1  0.002197  0.002500  0.001945  1
  Pd  Pd7  1  0.500077  0.499557  0.499753  1
  Pd  Pd8  1  0.235939  0.074368  0.580682  1
  Pd  Pd9  1  0.073167  0.578125  0.235675  1
  Pd  Pd10  1  0.580722  0.236457  0.074965  1
  Pd  Pd11  1  0.763962  0.925145  0.418987  1
  Pd  Pd12  1  0.924789  0.419037  0.763388  1
  Pd  Pd13  1  0.419460  0.764377  0.925898  1
