# generated using pymatgen
data_Li4Tm4Pt3Au
_symmetry_space_group_name_H-M   'P 1'
_cell_length_a   3.95168500
_cell_length_b   6.97551452
_cell_length_c   8.29218600
_cell_angle_alpha   89.70810341
_cell_angle_beta   90.00000000
_cell_angle_gamma   90.00000000
_symmetry_Int_Tables_number   1
_chemical_formula_structural   Li4Tm4Pt3Au
_chemical_formula_sum   'Li4 Tm4 Pt3 Au1'
_cell_volume   228.57144024
_cell_formula_units_Z   1
loop_
 _symmetry_equiv_pos_site_id
 _symmetry_equiv_pos_as_xyz
  1  'x, y, z'
loop_
 _atom_site_type_symbol
 _atom_site_label
 _atom_site_symmetry_multiplicity
 _atom_site_fract_x
 _atom_site_fract_y
 _atom_site_fract_z
 _atom_site_occupancy
  Li  Li0  1  0.250000  0.124210  0.055374  1
  Li  Li1  1  0.250000  0.627978  0.443896  1
  Li  Li2  1  0.750000  0.875071  0.942341  1
  Li  Li3  1  0.750000  0.377901  0.560806  1
  Tm  Tm4  1  0.250000  0.044373  0.685958  1
  Tm  Tm5  1  0.250000  0.548309  0.819297  1
  Tm  Tm6  1  0.750000  0.938918  0.319526  1
  Tm  Tm7  1  0.750000  0.457261  0.171105  1
  Pt  Pt8  1  0.250000  0.743483  0.127033  1
  Pt  Pt9  1  0.750000  0.758000  0.627097  1
  Pt  Pt10  1  0.750000  0.257053  0.873177  1
  Au  Au11  1  0.250000  0.247442  0.374390  1
