# generated using pymatgen
data_Dy4Ho12MgIn3Co4
_symmetry_space_group_name_H-M   'P 1'
_cell_length_a   9.53180529
_cell_length_b   9.51253728
_cell_length_c   9.51253700
_cell_angle_alpha   60.00000445
_cell_angle_beta   60.06685078
_cell_angle_gamma   60.06685332
_symmetry_Int_Tables_number   1
_chemical_formula_structural   Dy4Ho12MgIn3Co4
_chemical_formula_sum   'Dy4 Ho12 Mg1 In3 Co4'
_cell_volume   610.50751271
_cell_formula_units_Z   1
loop_
 _symmetry_equiv_pos_site_id
 _symmetry_equiv_pos_as_xyz
  1  'x, y, z'
loop_
 _atom_site_type_symbol
 _atom_site_label
 _atom_site_symmetry_multiplicity
 _atom_site_fract_x
 _atom_site_fract_y
 _atom_site_fract_z
 _atom_site_occupancy
  Dy  Dy0  1  0.347370  0.345873  0.345873  1
  Dy  Dy1  1  0.347370  0.345873  0.960886  1
  Dy  Dy2  1  0.347370  0.960886  0.345873  1
  Dy  Dy3  1  0.957950  0.347350  0.347350  1
  Ho  Ho4  1  0.810327  0.188886  0.188886  1
  Ho  Ho5  1  0.185564  0.813663  0.813663  1
  Ho  Ho6  1  0.185564  0.813663  0.187110  1
  Ho  Ho7  1  0.810327  0.188886  0.811903  1
  Ho  Ho8  1  0.185564  0.187110  0.813663  1
  Ho  Ho9  1  0.810327  0.811903  0.188886  1
  Ho  Ho10  1  0.938797  0.561581  0.561581  1
  Ho  Ho11  1  0.561982  0.938709  0.938709  1
  Ho  Ho12  1  0.561982  0.938709  0.560598  1
  Ho  Ho13  1  0.938797  0.561581  0.938040  1
  Ho  Ho14  1  0.561982  0.560598  0.938709  1
  Ho  Ho15  1  0.938797  0.938040  0.561581  1
  Mg  Mg16  1  0.267646  0.577451  0.577451  1
  In  In17  1  0.581938  0.582836  0.582836  1
  In  In18  1  0.581938  0.582836  0.252390  1
  In  In19  1  0.581938  0.252390  0.582836  1
  Co  Co20  1  0.138908  0.140830  0.140830  1
  Co  Co21  1  0.138908  0.140830  0.579431  1
  Co  Co22  1  0.138908  0.579431  0.140830  1
  Co  Co23  1  0.579746  0.140085  0.140085  1
