# generated using pymatgen
data_MgCdSnO4
_symmetry_space_group_name_H-M   'P 1'
_cell_length_a   6.36924039
_cell_length_b   6.36923980
_cell_length_c   6.36923951
_cell_angle_alpha   118.62041537
_cell_angle_beta   119.96706203
_cell_angle_gamma   91.23156746
_symmetry_Int_Tables_number   1
_chemical_formula_structural   MgCdSnO4
_chemical_formula_sum   'Mg2 Cd2 Sn2 O8'
_cell_volume   184.57709030
_cell_formula_units_Z   2
loop_
 _symmetry_equiv_pos_site_id
 _symmetry_equiv_pos_as_xyz
  1  'x, y, z'
loop_
 _atom_site_type_symbol
 _atom_site_label
 _atom_site_symmetry_multiplicity
 _atom_site_fract_x
 _atom_site_fract_y
 _atom_site_fract_z
 _atom_site_occupancy
  Mg  Mg0  1  0.000000  0.500000  0.500000  1
  Mg  Mg1  1  0.500000  0.500000  0.000000  1
  Cd  Cd2  1  0.139961  0.889961  0.250000  1
  Cd  Cd3  1  0.860039  0.110039  0.750000  1
  Sn  Sn4  1  0.500000  0.000000  0.000000  1
  Sn  Sn5  1  0.500000  0.500000  0.500000  1
  O  O6  1  0.730211  0.265149  0.034937  1
  O  O7  1  0.725704  0.257591  0.468114  1
  O  O8  1  0.730211  0.695274  0.465063  1
  O  O9  1  0.289476  0.257591  0.031886  1
  O  O10  1  0.710524  0.742409  0.968114  1
  O  O11  1  0.274296  0.742409  0.531886  1
  O  O12  1  0.269789  0.304726  0.534937  1
  O  O13  1  0.269789  0.734851  0.965063  1
