# generated using pymatgen
data_Ca2Ga2Ni3B2Rh3
_symmetry_space_group_name_H-M   'P 1'
_cell_length_a   5.40224153
_cell_length_b   5.55367118
_cell_length_c   6.82354300
_cell_angle_alpha   90.00000000
_cell_angle_beta   90.00000000
_cell_angle_gamma   122.60706121
_symmetry_Int_Tables_number   1
_chemical_formula_structural   Ca2Ga2Ni3B2Rh3
_chemical_formula_sum   'Ca2 Ga2 Ni3 B2 Rh3'
_cell_volume   172.45477716
_cell_formula_units_Z   1
loop_
 _symmetry_equiv_pos_site_id
 _symmetry_equiv_pos_as_xyz
  1  'x, y, z'
loop_
 _atom_site_type_symbol
 _atom_site_label
 _atom_site_symmetry_multiplicity
 _atom_site_fract_x
 _atom_site_fract_y
 _atom_site_fract_z
 _atom_site_occupancy
  Ca  Ca0  1  0.000000  0.000000  0.508647  1
  Ca  Ca1  1  0.000000  0.000000  0.003285  1
  Ga  Ga2  1  0.316795  0.667080  0.495033  1
  Ga  Ga3  1  0.683205  0.332920  0.495033  1
  Ni  Ni4  1  0.000000  0.500000  0.805059  1
  Ni  Ni5  1  0.000000  0.500000  0.195964  1
  Ni  Ni6  1  0.500000  0.000000  0.199843  1
  B  B7  1  0.663103  0.335211  0.001627  1
  B  B8  1  0.336897  0.664789  0.001627  1
  Rh  Rh9  1  0.500000  0.500000  0.786810  1
  Rh  Rh10  1  0.500000  0.000000  0.794348  1
  Rh  Rh11  1  0.500000  0.500000  0.212723  1
