# generated using pymatgen
data_TaCrFe4(P2Ru)2
_symmetry_space_group_name_H-M   'P 1'
_cell_length_a   3.63726800
_cell_length_b   5.90247730
_cell_length_c   6.65665579
_cell_angle_alpha   89.73601463
_cell_angle_beta   90.00000000
_cell_angle_gamma   90.00000000
_symmetry_Int_Tables_number   1
_chemical_formula_structural   TaCrFe4(P2Ru)2
_chemical_formula_sum   'Ta1 Cr1 Fe4 P4 Ru2'
_cell_volume   142.90950613
_cell_formula_units_Z   1
loop_
 _symmetry_equiv_pos_site_id
 _symmetry_equiv_pos_as_xyz
  1  'x, y, z'
loop_
 _atom_site_type_symbol
 _atom_site_label
 _atom_site_symmetry_multiplicity
 _atom_site_fract_x
 _atom_site_fract_y
 _atom_site_fract_z
 _atom_site_occupancy
  Ta  Ta0  1  0.750000  0.975302  0.172107  1
  Cr  Cr1  1  0.250000  0.515740  0.672249  1
  Fe  Fe2  1  0.250000  0.648281  0.061519  1
  Fe  Fe3  1  0.750000  0.358862  0.933676  1
  Fe  Fe4  1  0.250000  0.141090  0.434125  1
  Fe  Fe5  1  0.750000  0.860463  0.562509  1
  P  P6  1  0.250000  0.283500  0.119791  1
  P  P7  1  0.750000  0.722413  0.866003  1
  P  P8  1  0.250000  0.760160  0.386057  1
  P  P9  1  0.750000  0.229436  0.623017  1
  Ru  Ru10  1  0.250000  0.036776  0.834543  1
  Ru  Ru11  1  0.750000  0.467978  0.334406  1
