# generated using pymatgen
data_Dy16ZnIn6Os
_symmetry_space_group_name_H-M   'P 1'
_cell_length_a   10.54645901
_cell_length_b   10.54656029
_cell_length_c   6.91682400
_cell_angle_alpha   90.00342644
_cell_angle_beta   89.99656030
_cell_angle_gamma   119.99864327
_symmetry_Int_Tables_number   1
_chemical_formula_structural   Dy16ZnIn6Os
_chemical_formula_sum   'Dy16 Zn1 In6 Os1'
_cell_volume   666.28617465
_cell_formula_units_Z   1
loop_
 _symmetry_equiv_pos_site_id
 _symmetry_equiv_pos_as_xyz
  1  'x, y, z'
loop_
 _atom_site_type_symbol
 _atom_site_label
 _atom_site_symmetry_multiplicity
 _atom_site_fract_x
 _atom_site_fract_y
 _atom_site_fract_z
 _atom_site_occupancy
  Dy  Dy0  1  0.531315  0.062574  0.513167  1
  Dy  Dy1  1  0.937420  0.468702  0.513128  1
  Dy  Dy2  1  0.531305  0.468737  0.513125  1
  Dy  Dy3  1  0.477529  0.955075  0.015507  1
  Dy  Dy4  1  0.044987  0.522500  0.015527  1
  Dy  Dy5  1  0.477553  0.522448  0.015533  1
  Dy  Dy6  1  0.173634  0.347231  0.726660  1
  Dy  Dy7  1  0.652759  0.826385  0.726669  1
  Dy  Dy8  1  0.173643  0.826407  0.726649  1
  Dy  Dy9  1  0.823705  0.647445  0.228938  1
  Dy  Dy10  1  0.352544  0.176267  0.228979  1
  Dy  Dy11  1  0.823704  0.176252  0.228921  1
  Dy  Dy12  1  0.666640  0.333317  0.890079  1
  Dy  Dy13  1  0.333291  0.666669  0.368984  1
  Dy  Dy14  1  0.999985  0.999992  0.506372  1
  Dy  Dy15  1  0.999986  0.999999  0.001195  1
  Zn  Zn16  1  0.333285  0.666664  0.801684  1
  In  In17  1  0.837285  0.674573  0.757722  1
  In  In18  1  0.325417  0.162699  0.757724  1
  In  In19  1  0.837282  0.162696  0.757724  1
  In  In20  1  0.164915  0.329789  0.251846  1
  In  In21  1  0.670235  0.835113  0.251862  1
  In  In22  1  0.164913  0.835116  0.251824  1
  Os  Os23  1  0.666666  0.333351  0.294384  1
