# generated using pymatgen
data_RbNd10(C2Br9)2
_symmetry_space_group_name_H-M   'P 1'
_cell_length_a   11.03050540
_cell_length_b   11.09436288
_cell_length_c   11.26851239
_cell_angle_alpha   113.01344721
_cell_angle_beta   87.83782440
_cell_angle_gamma   118.65525942
_symmetry_Int_Tables_number   1
_chemical_formula_structural   RbNd10(C2Br9)2
_chemical_formula_sum   'Rb1 Nd10 C4 Br18'
_cell_volume   1094.48320989
_cell_formula_units_Z   1
loop_
 _symmetry_equiv_pos_site_id
 _symmetry_equiv_pos_as_xyz
  1  'x, y, z'
loop_
 _atom_site_type_symbol
 _atom_site_label
 _atom_site_symmetry_multiplicity
 _atom_site_fract_x
 _atom_site_fract_y
 _atom_site_fract_z
 _atom_site_occupancy
  Rb  Rb0  1  0.500000  0.000000  0.500000  1
  Nd  Nd1  1  0.655404  0.714095  0.697796  1
  Nd  Nd2  1  0.282067  0.367921  0.014017  1
  Nd  Nd3  1  0.093040  0.413611  0.305561  1
  Nd  Nd4  1  0.961927  0.038380  0.334910  1
  Nd  Nd5  1  0.906960  0.586389  0.694439  1
  Nd  Nd6  1  0.115251  0.941457  0.000981  1
  Nd  Nd7  1  0.038073  0.961620  0.665090  1
  Nd  Nd8  1  0.344596  0.285905  0.302204  1
  Nd  Nd9  1  0.717933  0.632079  0.985983  1
  Nd  Nd10  1  0.884749  0.058543  0.999019  1
  C  C11  1  0.156523  0.230045  0.128285  1
  C  C12  1  0.843477  0.769955  0.871715  1
  C  C13  1  0.918085  0.846292  0.794943  1
  C  C14  1  0.081915  0.153708  0.205057  1
  Br  Br15  1  0.451566  0.530877  0.831230  1
  Br  Br16  1  0.384318  0.036837  0.161824  1
  Br  Br17  1  0.772563  0.857140  0.502013  1
  Br  Br18  1  0.836120  0.312822  0.155653  1
  Br  Br19  1  0.548434  0.469123  0.168770  1
  Br  Br20  1  0.227437  0.142860  0.497987  1
  Br  Br21  1  0.312667  0.099367  0.832006  1
  Br  Br22  1  0.687333  0.900633  0.167994  1
  Br  Br23  1  0.978208  0.763844  0.171961  1
  Br  Br24  1  0.929499  0.300275  0.501012  1
  Br  Br25  1  0.021792  0.236156  0.828039  1
  Br  Br26  1  0.070501  0.699725  0.498988  1
  Br  Br27  1  0.265003  0.629852  0.192993  1
  Br  Br28  1  0.734997  0.370148  0.807007  1
  Br  Br29  1  0.636555  0.428793  0.496953  1
  Br  Br30  1  0.163880  0.687178  0.844347  1
  Br  Br31  1  0.615682  0.963163  0.838176  1
  Br  Br32  1  0.363445  0.571207  0.503047  1
