# generated using pymatgen
data_Sm4Y2PtBr10
_symmetry_space_group_name_H-M   'P 1'
_cell_length_a   7.44600033
_cell_length_b   9.41778093
_cell_length_c   9.43808108
_cell_angle_alpha   108.53995288
_cell_angle_beta   96.58869216
_cell_angle_gamma   105.46495654
_symmetry_Int_Tables_number   1
_chemical_formula_structural   Sm4Y2PtBr10
_chemical_formula_sum   'Sm4 Y2 Pt1 Br10'
_cell_volume   590.18256817
_cell_formula_units_Z   1
loop_
 _symmetry_equiv_pos_site_id
 _symmetry_equiv_pos_as_xyz
  1  'x, y, z'
loop_
 _atom_site_type_symbol
 _atom_site_label
 _atom_site_symmetry_multiplicity
 _atom_site_fract_x
 _atom_site_fract_y
 _atom_site_fract_z
 _atom_site_occupancy
  Sm  Sm0  1  0.873574  0.955617  0.251508  1
  Sm  Sm1  1  0.126426  0.044383  0.748492  1
  Sm  Sm2  1  0.027192  0.696653  0.902986  1
  Sm  Sm3  1  0.972808  0.303347  0.097014  1
  Y  Y4  1  0.636906  0.864214  0.821486  1
  Y  Y5  1  0.363094  0.135786  0.178514  1
  Pt  Pt6  1  0.000000  0.000000  0.000000  1
  Br  Br7  1  0.640111  0.549709  0.728217  1
  Br  Br8  1  0.359889  0.450291  0.271783  1
  Br  Br9  1  0.741712  0.914026  0.546195  1
  Br  Br10  1  0.258288  0.085974  0.453805  1
  Br  Br11  1  0.913620  0.633016  0.174462  1
  Br  Br12  1  0.086380  0.366984  0.825538  1
  Br  Br13  1  0.548076  0.174196  0.916455  1
  Br  Br14  1  0.451924  0.825804  0.083545  1
  Br  Br15  1  0.222893  0.743490  0.653189  1
  Br  Br16  1  0.777107  0.256510  0.346811  1
