# generated using pymatgen
data_Ho8TaTi(Si8W5)2
_symmetry_space_group_name_H-M   'P 1'
_cell_length_a   6.87583933
_cell_length_b   6.87583946
_cell_length_c   12.79245914
_cell_angle_alpha   89.96687784
_cell_angle_beta   90.03312425
_cell_angle_gamma   90.43958144
_symmetry_Int_Tables_number   1
_chemical_formula_structural   Ho8TaTi(Si8W5)2
_chemical_formula_sum   'Ho8 Ta1 Ti1 Si16 W10'
_cell_volume   604.77323205
_cell_formula_units_Z   1
loop_
 _symmetry_equiv_pos_site_id
 _symmetry_equiv_pos_as_xyz
  1  'x, y, z'
loop_
 _atom_site_type_symbol
 _atom_site_label
 _atom_site_symmetry_multiplicity
 _atom_site_fract_x
 _atom_site_fract_y
 _atom_site_fract_z
 _atom_site_occupancy
  Ho  Ho0  1  0.335422  0.999396  0.469065  1
  Ho  Ho1  1  0.500898  0.837446  0.718490  1
  Ho  Ho2  1  0.497766  0.161474  0.218823  1
  Ho  Ho3  1  0.837446  0.500898  0.281510  1
  Ho  Ho4  1  0.161474  0.497766  0.781177  1
  Ho  Ho5  1  0.664422  0.000823  0.969039  1
  Ho  Ho6  1  0.999396  0.335422  0.530935  1
  Ho  Ho7  1  0.000823  0.664422  0.030961  1
  Ta  Ta8  1  0.332637  0.332637  0.000000  1
  Ti  Ti9  1  0.668710  0.668710  0.500000  1
  Si  Si10  1  0.199408  0.125553  0.683039  1
  Si  Si11  1  0.373641  0.705628  0.932295  1
  Si  Si12  1  0.627921  0.296013  0.433755  1
  Si  Si13  1  0.705628  0.373641  0.067705  1
  Si  Si14  1  0.296013  0.627921  0.566245  1
  Si  Si15  1  0.799606  0.874133  0.184345  1
  Si  Si16  1  0.125553  0.199408  0.316961  1
  Si  Si17  1  0.874133  0.799606  0.815655  1
  Si  Si18  1  0.289789  0.961439  0.064819  1
  Si  Si19  1  0.534936  0.790644  0.312824  1
  Si  Si20  1  0.466177  0.208544  0.810460  1
  Si  Si21  1  0.790644  0.534936  0.687176  1
  Si  Si22  1  0.208544  0.466177  0.189540  1
  Si  Si23  1  0.708242  0.038627  0.565365  1
  Si  Si24  1  0.961439  0.289789  0.935181  1
  Si  Si25  1  0.038627  0.708242  0.434635  1
  W  W26  1  0.165929  0.834915  0.248982  1
  W  W27  1  0.834915  0.165929  0.751018  1
  W  W28  1  0.168297  0.001320  0.873870  1
  W  W29  1  0.496414  0.659990  0.123307  1
  W  W30  1  0.501884  0.342081  0.622708  1
  W  W31  1  0.659990  0.496414  0.876693  1
  W  W32  1  0.342081  0.501884  0.377292  1
  W  W33  1  0.833038  0.996833  0.376097  1
  W  W34  1  0.001320  0.168297  0.126130  1
  W  W35  1  0.996833  0.833038  0.623903  1
