# generated using pymatgen
data_ErZr3(Al3Rh)6
_symmetry_space_group_name_H-M   'P 1'
_cell_length_a   7.48274405
_cell_length_b   7.47494665
_cell_length_c   9.31125400
_cell_angle_alpha   90.00000000
_cell_angle_beta   90.00000000
_cell_angle_gamma   119.75546595
_symmetry_Int_Tables_number   1
_chemical_formula_structural   ErZr3(Al3Rh)6
_chemical_formula_sum   'Er1 Zr3 Al18 Rh6'
_cell_volume   452.13972646
_cell_formula_units_Z   1
loop_
 _symmetry_equiv_pos_site_id
 _symmetry_equiv_pos_as_xyz
  1  'x, y, z'
loop_
 _atom_site_type_symbol
 _atom_site_label
 _atom_site_symmetry_multiplicity
 _atom_site_fract_x
 _atom_site_fract_y
 _atom_site_fract_z
 _atom_site_occupancy
  Er  Er0  1  0.329393  0.005968  0.250000  1
  Zr  Zr1  1  0.994319  0.671057  0.750000  1
  Zr  Zr2  1  0.006137  0.330072  0.250000  1
  Zr  Zr3  1  0.670486  0.994054  0.750000  1
  Al  Al4  1  0.120731  0.121724  0.750000  1
  Al  Al5  1  0.873813  0.877106  0.250000  1
  Al  Al6  1  0.996864  0.334264  0.576085  1
  Al  Al7  1  0.000541  0.662772  0.425867  1
  Al  Al8  1  0.000541  0.662772  0.074133  1
  Al  Al9  1  0.334618  0.997457  0.920826  1
  Al  Al10  1  0.996864  0.334264  0.923915  1
  Al  Al11  1  0.668264  0.002974  0.074231  1
  Al  Al12  1  0.668264  0.002974  0.425769  1
  Al  Al13  1  0.334618  0.997457  0.579174  1
  Al  Al14  1  0.331055  0.333451  0.055395  1
  Al  Al15  1  0.668873  0.668745  0.941840  1
  Al  Al16  1  0.668873  0.668745  0.558160  1
  Al  Al17  1  0.331055  0.333451  0.444605  1
  Al  Al18  1  0.338223  0.553691  0.750000  1
  Al  Al19  1  0.665736  0.450787  0.250000  1
  Al  Al20  1  0.555153  0.339182  0.750000  1
  Al  Al21  1  0.445832  0.657565  0.250000  1
  Rh  Rh22  1  0.672326  0.327566  0.500847  1
  Rh  Rh23  1  0.328032  0.673149  0.501275  1
  Rh  Rh24  1  0.328032  0.673149  0.998725  1
  Rh  Rh25  1  0.672326  0.327566  0.999153  1
  Rh  Rh26  1  0.999516  0.999019  0.500944  1
  Rh  Rh27  1  0.999516  0.999019  0.999056  1
