# generated using pymatgen
data_Mn4Si2Mo3W3C2
_symmetry_space_group_name_H-M   'P 1'
_cell_length_a   7.87176235
_cell_length_b   7.87284266
_cell_length_c   7.87009507
_cell_angle_alpha   60.00245766
_cell_angle_beta   60.01608975
_cell_angle_gamma   59.98145387
_symmetry_Int_Tables_number   1
_chemical_formula_structural   Mn4Si2Mo3W3C2
_chemical_formula_sum   'Mn8 Si4 Mo6 W6 C4'
_cell_volume   344.88035057
_cell_formula_units_Z   2
loop_
 _symmetry_equiv_pos_site_id
 _symmetry_equiv_pos_as_xyz
  1  'x, y, z'
loop_
 _atom_site_type_symbol
 _atom_site_label
 _atom_site_symmetry_multiplicity
 _atom_site_fract_x
 _atom_site_fract_y
 _atom_site_fract_z
 _atom_site_occupancy
  Mn  Mn0  1  0.240476  0.919488  0.919392  1
  Mn  Mn1  1  0.919488  0.240476  0.920645  1
  Mn  Mn2  1  0.331185  0.330002  0.330025  1
  Mn  Mn3  1  0.330025  0.008788  0.331185  1
  Mn  Mn4  1  0.330002  0.331185  0.008788  1
  Mn  Mn5  1  0.008788  0.330025  0.330002  1
  Mn  Mn6  1  0.920645  0.919392  0.919488  1
  Mn  Mn7  1  0.919392  0.920645  0.240476  1
  Si  Si8  1  0.124545  0.126254  0.624840  1
  Si  Si9  1  0.124360  0.624840  0.126254  1
  Si  Si10  1  0.624840  0.124360  0.124545  1
  Si  Si11  1  0.126254  0.124545  0.124360  1
  Mo  Mo12  1  0.548384  0.951616  0.548384  1
  Mo  Mo13  1  0.299072  0.700928  0.299072  1
  Mo  Mo14  1  0.951616  0.548384  0.951616  1
  Mo  Mo15  1  0.950023  0.549977  0.549977  1
  Mo  Mo16  1  0.700928  0.299072  0.700928  1
  Mo  Mo17  1  0.549977  0.950023  0.950023  1
  W  W18  1  0.549589  0.549589  0.950411  1
  W  W19  1  0.950411  0.950411  0.549589  1
  W  W20  1  0.699599  0.699599  0.300401  1
  W  W21  1  0.298882  0.701118  0.701118  1
  W  W22  1  0.701118  0.298882  0.298882  1
  W  W23  1  0.300401  0.300401  0.699599  1
  C  C24  1  0.625047  0.625151  0.124775  1
  C  C25  1  0.124775  0.625026  0.625047  1
  C  C26  1  0.625026  0.124775  0.625151  1
  C  C27  1  0.625151  0.625047  0.625026  1
