# generated using pymatgen
data_Lu4Zn2CdRu
_symmetry_space_group_name_H-M   'P 1'
_cell_length_a   7.04529789
_cell_length_b   6.90376100
_cell_length_c   7.04517100
_cell_angle_alpha   90.00000000
_cell_angle_beta   90.11378981
_cell_angle_gamma   90.00000000
_symmetry_Int_Tables_number   1
_chemical_formula_structural   Lu4Zn2CdRu
_chemical_formula_sum   'Lu8 Zn4 Cd2 Ru2'
_cell_volume   342.66976871
_cell_formula_units_Z   2
loop_
 _symmetry_equiv_pos_site_id
 _symmetry_equiv_pos_as_xyz
  1  'x, y, z'
loop_
 _atom_site_type_symbol
 _atom_site_label
 _atom_site_symmetry_multiplicity
 _atom_site_fract_x
 _atom_site_fract_y
 _atom_site_fract_z
 _atom_site_occupancy
  Lu  Lu0  1  0.764867  0.500016  0.264895  1
  Lu  Lu1  1  0.764867  0.999984  0.264895  1
  Lu  Lu2  1  0.234397  0.000052  0.265616  1
  Lu  Lu3  1  0.234397  0.499947  0.265616  1
  Lu  Lu4  1  0.765616  0.500042  0.734382  1
  Lu  Lu5  1  0.765616  0.999958  0.734382  1
  Lu  Lu6  1  0.235122  0.000026  0.735141  1
  Lu  Lu7  1  0.235122  0.499974  0.735141  1
  Zn  Zn8  1  0.999901  0.250000  0.999929  1
  Zn  Zn9  1  0.000038  0.750001  0.000061  1
  Zn  Zn10  1  0.500015  0.250000  0.500093  1
  Zn  Zn11  1  0.499948  0.750001  0.499936  1
  Cd  Cd12  1  0.499869  0.250000  0.000002  1
  Cd  Cd13  1  0.500194  0.750001  0.999902  1
  Ru  Ru14  1  0.000095  0.750001  0.499972  1
  Ru  Ru15  1  0.999936  0.250000  0.500029  1
